MODEL 1
REMARK VINA RESULT:      -9.5      0.000      0.000
REMARK  10 active torsions:
REMARK  status: ('A' for Active; 'I' for Inactive)
REMARK    1  A    between atoms: C_2  and  C_3 
REMARK    2  A    between atoms: C_3  and  C_4 
REMARK    3  A    between atoms: C_4  and  O_5 
REMARK    4  A    between atoms: O_5  and  C_6 
REMARK    5  A    between atoms: C_9  and  C_10 
REMARK       I    between atoms: C_10  and  N_11 
REMARK    6  A    between atoms: N_11  and  C_12 
REMARK    7  A    between atoms: C_12  and  N_13 
REMARK    8  A    between atoms: N_13  and  C_14 
REMARK    9  A    between atoms: C_16  and  O_17 
REMARK   10  A    between atoms: C_18  and  C_19 
ROOT
HETATM    1  N   UNL     1      -6.750   4.780 -32.474  1.00  0.00    -0.333 N 
HETATM    2  H   UNL     1      -7.612   5.269 -32.254  1.00  0.00     0.168 HD
ENDROOT
BRANCH   1   3
HETATM    3  C   UNL     1      -5.628   5.590 -32.620  1.00  0.00     0.179 C 
HETATM    4  S   UNL     1      -5.135   6.527 -31.337  1.00  0.00    -0.040 SA
BRANCH   3   5
HETATM    5  N   UNL     1      -5.087   5.577 -33.910  1.00  0.00    -0.299 N 
HETATM    6  C   UNL     1      -3.858   5.485 -34.546  1.00  0.00     0.257 C 
HETATM    7  O   UNL     1      -3.842   5.191 -35.743  1.00  0.00    -0.267 OA
HETATM    8  H   UNL     1      -5.787   5.516 -34.637  1.00  0.00     0.171 HD
BRANCH   6   9
HETATM    9  C   UNL     1      -2.576   5.685 -33.870  1.00  0.00     0.032 A 
HETATM   10  C   UNL     1      -2.071   6.991 -33.824  1.00  0.00     0.020 A 
HETATM   11  C   UNL     1      -1.065   7.310 -32.917  1.00  0.00     0.038 A 
HETATM   12  C   UNL     1      -0.606   6.332 -32.034  1.00  0.00     0.068 A 
HETATM   13  C   UNL     1      -1.047   5.011 -32.133  1.00  0.00     0.038 A 
HETATM   14  C   UNL     1      -2.053   4.685 -33.043  1.00  0.00     0.020 A 
BRANCH  12  15
HETATM   15  O   UNL     1       0.254   6.645 -31.014  1.00  0.00    -0.351 OA
BRANCH  15  16
HETATM   16  C   UNL     1       0.215   5.648 -29.978  1.00  0.00     0.175 C 
BRANCH  16  17
HETATM   17  C   UNL     1       0.432   6.324 -28.626  1.00  0.00     0.026 C 
BRANCH  17  18
HETATM   18  C   UNL     1       0.702   7.819 -28.791  1.00  0.00    -0.002 C 
HETATM   19  C   UNL     1       1.454   8.389 -27.600  1.00  0.00     0.005 C 
ENDBRANCH  17  18
ENDBRANCH  16  17
ENDBRANCH  15  16
ENDBRANCH  12  15
ENDBRANCH   6   9
ENDBRANCH   3   5
ENDBRANCH   1   3
BRANCH   1  20
HETATM   20  C   UNL     1      -6.810   3.386 -32.692  1.00  0.00     0.036 C 
HETATM   21  C   UNL     1      -7.740   2.869 -33.593  1.00  0.00     0.067 C 
HETATM   22  C   UNL     1      -7.618   1.536 -34.016  1.00  0.00     0.082 C 
HETATM   23  C   UNL     1      -6.604   0.704 -33.512  1.00  0.00     0.050 C 
HETATM   24  C   UNL     1      -5.797   1.201 -32.480  1.00  0.00     0.021 C 
HETATM   25  C   UNL     1      -5.900   2.527 -32.070  1.00  0.00     0.030 C 
BRANCH  22  26
HETATM   26  O   UNL     1      -8.485   1.056 -34.960  1.00  0.00    -0.360 OA
HETATM   27  H   UNL     1      -8.857   0.208 -34.669  1.00  0.00     0.217 HD
ENDBRANCH  22  26
BRANCH  23  28
HETATM   28  C   UNL     1      -6.253  -0.605 -34.059  1.00  0.00     0.183 A 
HETATM   29  O   UNL     1      -5.019  -1.102 -33.720  1.00  0.00    -0.289 OA
HETATM   30  C   UNL     1      -5.079  -2.415 -34.082  1.00  0.00     0.106 A 
HETATM   31  C   UNL     1      -6.328  -2.646 -34.632  1.00  0.00     0.093 A 
HETATM   32  C   UNL     1      -4.100  -3.385 -33.906  1.00  0.00     0.040 A 
HETATM   33  N   UNL     1      -7.061  -1.488 -34.628  1.00  0.00    -0.221 NA
HETATM   34  C   UNL     1      -6.658  -3.942 -35.047  1.00  0.00     0.034 A 
HETATM   35  C   UNL     1      -5.701  -4.955 -34.877  1.00  0.00     0.002 A 
HETATM   36  C   UNL     1      -4.446  -4.678 -34.317  1.00  0.00     0.003 A 
ENDBRANCH  23  28
ENDBRANCH   1  20
TORSDOF 10
ENDMDL
MODEL 2
REMARK VINA RESULT:      -9.3      1.119      1.890
REMARK  10 active torsions:
REMARK  status: ('A' for Active; 'I' for Inactive)
REMARK    1  A    between atoms: C_2  and  C_3 
REMARK    2  A    between atoms: C_3  and  C_4 
REMARK    3  A    between atoms: C_4  and  O_5 
REMARK    4  A    between atoms: O_5  and  C_6 
REMARK    5  A    between atoms: C_9  and  C_10 
REMARK       I    between atoms: C_10  and  N_11 
REMARK    6  A    between atoms: N_11  and  C_12 
REMARK    7  A    between atoms: C_12  and  N_13 
REMARK    8  A    between atoms: N_13  and  C_14 
REMARK    9  A    between atoms: C_16  and  O_17 
REMARK   10  A    between atoms: C_18  and  C_19 
ROOT
HETATM    1  N   UNL     1      -5.946   4.517 -31.867  1.00  0.00    -0.333 N 
HETATM    2  H   UNL     1      -6.708   4.564 -31.197  1.00  0.00     0.168 HD
ENDROOT
BRANCH   1   3
HETATM    3  C   UNL     1      -5.400   5.742 -32.235  1.00  0.00     0.179 C 
HETATM    4  S   UNL     1      -5.475   7.014 -31.167  1.00  0.00    -0.040 SA
BRANCH   3   5
HETATM    5  N   UNL     1      -4.915   5.772 -33.547  1.00  0.00    -0.299 N 
HETATM    6  C   UNL     1      -3.713   5.721 -34.236  1.00  0.00     0.257 C 
HETATM    7  O   UNL     1      -3.741   5.457 -35.440  1.00  0.00    -0.267 OA
HETATM    8  H   UNL     1      -5.643   5.714 -34.245  1.00  0.00     0.171 HD
BRANCH   6   9
HETATM    9  C   UNL     1      -2.407   5.931 -33.610  1.00  0.00     0.032 A 
HETATM   10  C   UNL     1      -1.968   7.254 -33.467  1.00  0.00     0.020 A 
HETATM   11  C   UNL     1      -0.931   7.545 -32.586  1.00  0.00     0.038 A 
HETATM   12  C   UNL     1      -0.373   6.519 -31.823  1.00  0.00     0.068 A 
HETATM   13  C   UNL     1      -0.750   5.190 -32.024  1.00  0.00     0.038 A 
HETATM   14  C   UNL     1      -1.787   4.891 -32.909  1.00  0.00     0.020 A 
BRANCH  12  15
HETATM   15  O   UNL     1       0.524   6.786 -30.824  1.00  0.00    -0.351 OA
BRANCH  15  16
HETATM   16  C   UNL     1       0.333   5.903 -29.704  1.00  0.00     0.175 C 
BRANCH  16  17
HETATM   17  C   UNL     1      -0.163   6.714 -28.508  1.00  0.00     0.026 C 
BRANCH  17  18
HETATM   18  C   UNL     1       0.986   7.073 -27.568  1.00  0.00    -0.002 C 
HETATM   19  C   UNL     1       1.478   8.492 -27.796  1.00  0.00     0.005 C 
ENDBRANCH  17  18
ENDBRANCH  16  17
ENDBRANCH  15  16
ENDBRANCH  12  15
ENDBRANCH   6   9
ENDBRANCH   3   5
ENDBRANCH   1   3
BRANCH   1  20
HETATM   20  C   UNL     1      -5.604   3.254 -32.400  1.00  0.00     0.036 C 
HETATM   21  C   UNL     1      -4.490   2.577 -31.907  1.00  0.00     0.067 C 
HETATM   22  C   UNL     1      -4.311   1.223 -32.231  1.00  0.00     0.082 C 
HETATM   23  C   UNL     1      -5.209   0.554 -33.079  1.00  0.00     0.050 C 
HETATM   24  C   UNL     1      -6.217   1.307 -33.697  1.00  0.00     0.021 C 
HETATM   25  C   UNL     1      -6.411   2.645 -33.365  1.00  0.00     0.030 C 
BRANCH  22  26
HETATM   26  O   UNL     1      -3.259   0.541 -31.681  1.00  0.00    -0.360 OA
HETATM   27  H   UNL     1      -3.427  -0.414 -31.716  1.00  0.00     0.217 HD
ENDBRANCH  22  26
BRANCH  23  28
HETATM   28  C   UNL     1      -5.242  -0.893 -33.282  1.00  0.00     0.183 A 
HETATM   29  O   UNL     1      -6.375  -1.406 -33.863  1.00  0.00    -0.289 OA
HETATM   30  C   UNL     1      -6.021  -2.675 -34.215  1.00  0.00     0.106 A 
HETATM   31  C   UNL     1      -4.710  -2.874 -33.821  1.00  0.00     0.093 A 
HETATM   32  C   UNL     1      -6.796  -3.611 -34.888  1.00  0.00     0.040 A 
HETATM   33  N   UNL     1      -4.228  -1.743 -33.215  1.00  0.00    -0.221 NA
HETATM   34  C   UNL     1      -4.091  -4.098 -34.109  1.00  0.00     0.034 A 
HETATM   35  C   UNL     1      -4.836  -5.068 -34.797  1.00  0.00     0.002 A 
HETATM   36  C   UNL     1      -6.164  -4.827 -35.178  1.00  0.00     0.003 A 
ENDBRANCH  23  28
ENDBRANCH   1  20
TORSDOF 10
ENDMDL
MODEL 3
REMARK VINA RESULT:      -9.2      1.890      9.121
REMARK  10 active torsions:
REMARK  status: ('A' for Active; 'I' for Inactive)
REMARK    1  A    between atoms: C_2  and  C_3 
REMARK    2  A    between atoms: C_3  and  C_4 
REMARK    3  A    between atoms: C_4  and  O_5 
REMARK    4  A    between atoms: O_5  and  C_6 
REMARK    5  A    between atoms: C_9  and  C_10 
REMARK       I    between atoms: C_10  and  N_11 
REMARK    6  A    between atoms: N_11  and  C_12 
REMARK    7  A    between atoms: C_12  and  N_13 
REMARK    8  A    between atoms: N_13  and  C_14 
REMARK    9  A    between atoms: C_16  and  O_17 
REMARK   10  A    between atoms: C_18  and  C_19 
ROOT
HETATM    1  N   UNL     1      -7.146   3.241 -34.030  1.00  0.00    -0.333 N 
HETATM    2  H   UNL     1      -7.355   2.924 -34.971  1.00  0.00     0.168 HD
ENDROOT
BRANCH   1   3
HETATM    3  C   UNL     1      -8.250   3.419 -33.202  1.00  0.00     0.179 C 
HETATM    4  S   UNL     1      -8.247   4.674 -32.110  1.00  0.00    -0.040 SA
BRANCH   3   5
HETATM    5  N   UNL     1      -9.224   2.425 -33.340  1.00  0.00    -0.299 N 
HETATM    6  C   UNL     1      -9.345   1.045 -33.308  1.00  0.00     0.257 C 
HETATM    7  O   UNL     1     -10.471   0.561 -33.164  1.00  0.00    -0.267 OA
HETATM    8  H   UNL     1     -10.166   2.791 -33.380  1.00  0.00     0.171 HD
BRANCH   6   9
HETATM    9  C   UNL     1      -8.211   0.126 -33.402  1.00  0.00     0.032 A 
HETATM   10  C   UNL     1      -7.792  -0.248 -34.686  1.00  0.00     0.020 A 
HETATM   11  C   UNL     1      -6.534  -0.817 -34.863  1.00  0.00     0.038 A 
HETATM   12  C   UNL     1      -5.690  -0.964 -33.762  1.00  0.00     0.068 A 
HETATM   13  C   UNL     1      -6.134  -0.670 -32.472  1.00  0.00     0.038 A 
HETATM   14  C   UNL     1      -7.396  -0.103 -32.288  1.00  0.00     0.020 A 
BRANCH  12  15
HETATM   15  O   UNL     1      -4.386  -1.356 -33.916  1.00  0.00    -0.351 OA
BRANCH  15  16
HETATM   16  C   UNL     1      -4.182  -2.689 -33.417  1.00  0.00     0.175 C 
BRANCH  16  17
HETATM   17  C   UNL     1      -4.261  -3.676 -34.581  1.00  0.00     0.026 C 
BRANCH  17  18
HETATM   18  C   UNL     1      -5.407  -4.667 -34.390  1.00  0.00    -0.002 C 
HETATM   19  C   UNL     1      -6.537  -4.418 -35.375  1.00  0.00     0.005 C 
ENDBRANCH  17  18
ENDBRANCH  16  17
ENDBRANCH  15  16
ENDBRANCH  12  15
ENDBRANCH   6   9
ENDBRANCH   3   5
ENDBRANCH   1   3
BRANCH   1  20
HETATM   20  C   UNL     1      -5.804   3.546 -33.711  1.00  0.00     0.036 C 
HETATM   21  C   UNL     1      -5.170   4.613 -34.346  1.00  0.00     0.067 C 
HETATM   22  C   UNL     1      -3.950   5.086 -33.840  1.00  0.00     0.082 C 
HETATM   23  C   UNL     1      -3.335   4.474 -32.735  1.00  0.00     0.050 C 
HETATM   24  C   UNL     1      -3.908   3.298 -32.231  1.00  0.00     0.021 C 
HETATM   25  C   UNL     1      -5.127   2.835 -32.716  1.00  0.00     0.030 C 
BRANCH  22  26
HETATM   26  O   UNL     1      -3.371   6.184 -34.417  1.00  0.00    -0.360 OA
HETATM   27  H   UNL     1      -2.427   6.219 -34.193  1.00  0.00     0.217 HD
ENDBRANCH  22  26
BRANCH  23  28
HETATM   28  C   UNL     1      -2.204   5.031 -31.996  1.00  0.00     0.183 A 
HETATM   29  O   UNL     1      -2.248   6.377 -31.727  1.00  0.00    -0.289 OA
HETATM   30  C   UNL     1      -1.273   6.559 -30.791  1.00  0.00     0.106 A 
HETATM   31  C   UNL     1      -0.681   5.332 -30.550  1.00  0.00     0.093 A 
HETATM   32  C   UNL     1      -0.938   7.741 -30.142  1.00  0.00     0.040 A 
HETATM   33  N   UNL     1      -1.267   4.370 -31.331  1.00  0.00    -0.221 NA
HETATM   34  C   UNL     1       0.331   5.243 -29.586  1.00  0.00     0.034 A 
HETATM   35  C   UNL     1       0.693   6.412 -28.899  1.00  0.00     0.002 A 
HETATM   36  C   UNL     1       0.069   7.637 -29.175  1.00  0.00     0.003 A 
ENDBRANCH  23  28
ENDBRANCH   1  20
TORSDOF 10
ENDMDL
MODEL 4
REMARK VINA RESULT:      -9.1      2.806      5.029
REMARK  10 active torsions:
REMARK  status: ('A' for Active; 'I' for Inactive)
REMARK    1  A    between atoms: C_2  and  C_3 
REMARK    2  A    between atoms: C_3  and  C_4 
REMARK    3  A    between atoms: C_4  and  O_5 
REMARK    4  A    between atoms: O_5  and  C_6 
REMARK    5  A    between atoms: C_9  and  C_10 
REMARK       I    between atoms: C_10  and  N_11 
REMARK    6  A    between atoms: N_11  and  C_12 
REMARK    7  A    between atoms: C_12  and  N_13 
REMARK    8  A    between atoms: N_13  and  C_14 
REMARK    9  A    between atoms: C_16  and  O_17 
REMARK   10  A    between atoms: C_18  and  C_19 
ROOT
HETATM    1  N   UNL     1      -4.717   8.132 -30.963  1.00  0.00    -0.333 N 
HETATM    2  H   UNL     1      -5.155   9.045 -31.036  1.00  0.00     0.168 HD
ENDROOT
BRANCH   1   3
HETATM    3  C   UNL     1      -3.354   8.147 -30.686  1.00  0.00     0.179 C 
HETATM    4  S   UNL     1      -2.851   8.156 -29.101  1.00  0.00    -0.040 SA
BRANCH   3   5
HETATM    5  N   UNL     1      -2.547   8.246 -31.825  1.00  0.00    -0.299 N 
HETATM    6  C   UNL     1      -2.142   7.482 -32.909  1.00  0.00     0.257 C 
HETATM    7  O   UNL     1      -1.657   8.062 -33.883  1.00  0.00    -0.267 OA
HETATM    8  H   UNL     1      -2.215   9.184 -32.001  1.00  0.00     0.171 HD
BRANCH   6   9
HETATM    9  C   UNL     1      -2.287   6.028 -32.979  1.00  0.00     0.032 A 
HETATM   10  C   UNL     1      -1.862   5.285 -31.869  1.00  0.00     0.020 A 
HETATM   11  C   UNL     1      -2.283   3.968 -31.718  1.00  0.00     0.038 A 
HETATM   12  C   UNL     1      -3.161   3.420 -32.653  1.00  0.00     0.068 A 
HETATM   13  C   UNL     1      -3.520   4.127 -33.802  1.00  0.00     0.038 A 
HETATM   14  C   UNL     1      -3.098   5.447 -33.960  1.00  0.00     0.020 A 
BRANCH  12  15
HETATM   15  O   UNL     1      -3.736   2.193 -32.451  1.00  0.00    -0.351 OA
BRANCH  15  16
HETATM   16  C   UNL     1      -3.371   1.654 -31.168  1.00  0.00     0.175 C 
BRANCH  16  17
HETATM   17  C   UNL     1      -3.787   0.185 -31.107  1.00  0.00     0.026 C 
BRANCH  17  18
HETATM   18  C   UNL     1      -3.415  -0.550 -32.393  1.00  0.00    -0.002 C 
HETATM   19  C   UNL     1      -3.506  -2.058 -32.226  1.00  0.00     0.005 C 
ENDBRANCH  17  18
ENDBRANCH  16  17
ENDBRANCH  15  16
ENDBRANCH  12  15
ENDBRANCH   6   9
ENDBRANCH   3   5
ENDBRANCH   1   3
BRANCH   1  20
HETATM   20  C   UNL     1      -5.502   6.990 -31.236  1.00  0.00     0.036 C 
HETATM   21  C   UNL     1      -6.268   6.944 -32.401  1.00  0.00     0.067 C 
HETATM   22  C   UNL     1      -6.822   5.721 -32.809  1.00  0.00     0.082 C 
HETATM   23  C   UNL     1      -6.656   4.556 -32.042  1.00  0.00     0.050 C 
HETATM   24  C   UNL     1      -6.033   4.674 -30.792  1.00  0.00     0.021 C 
HETATM   25  C   UNL     1      -5.465   5.879 -30.390  1.00  0.00     0.030 C 
BRANCH  22  26
HETATM   26  O   UNL     1      -7.506   5.663 -33.994  1.00  0.00    -0.360 OA
HETATM   27  H   UNL     1      -7.976   6.498 -34.148  1.00  0.00     0.217 HD
ENDBRANCH  22  26
BRANCH  23  28
HETATM   28  C   UNL     1      -6.985   3.206 -32.495  1.00  0.00     0.183 A 
HETATM   29  O   UNL     1      -6.872   2.965 -33.842  1.00  0.00    -0.289 OA
HETATM   30  C   UNL     1      -6.921   1.606 -33.941  1.00  0.00     0.106 A 
HETATM   31  C   UNL     1      -7.074   1.093 -32.665  1.00  0.00     0.093 A 
HETATM   32  C   UNL     1      -6.798   0.840 -35.093  1.00  0.00     0.040 A 
HETATM   33  N   UNL     1      -7.129   2.116 -31.755  1.00  0.00    -0.221 NA
HETATM   34  C   UNL     1      -7.109  -0.296 -32.491  1.00  0.00     0.034 A 
HETATM   35  C   UNL     1      -6.977  -1.108 -33.628  1.00  0.00     0.002 A 
HETATM   36  C   UNL     1      -6.825  -0.548 -34.904  1.00  0.00     0.003 A 
ENDBRANCH  23  28
ENDBRANCH   1  20
TORSDOF 10
ENDMDL
MODEL 5
REMARK VINA RESULT:      -9.1      3.122      6.629
REMARK  10 active torsions:
REMARK  status: ('A' for Active; 'I' for Inactive)
REMARK    1  A    between atoms: C_2  and  C_3 
REMARK    2  A    between atoms: C_3  and  C_4 
REMARK    3  A    between atoms: C_4  and  O_5 
REMARK    4  A    between atoms: O_5  and  C_6 
REMARK    5  A    between atoms: C_9  and  C_10 
REMARK       I    between atoms: C_10  and  N_11 
REMARK    6  A    between atoms: N_11  and  C_12 
REMARK    7  A    between atoms: C_12  and  N_13 
REMARK    8  A    between atoms: N_13  and  C_14 
REMARK    9  A    between atoms: C_16  and  O_17 
REMARK   10  A    between atoms: C_18  and  C_19 
ROOT
HETATM    1  N   UNL     1      -4.267   4.142 -30.450  1.00  0.00    -0.333 N 
HETATM    2  H   UNL     1      -3.891   4.321 -29.524  1.00  0.00     0.168 HD
ENDROOT
BRANCH   1   3
HETATM    3  C   UNL     1      -4.741   5.261 -31.127  1.00  0.00     0.179 C 
HETATM    4  S   UNL     1      -5.697   6.352 -30.315  1.00  0.00    -0.040 SA
BRANCH   3   5
HETATM    5  N   UNL     1      -4.410   5.280 -32.486  1.00  0.00    -0.299 N 
HETATM    6  C   UNL     1      -4.996   5.072 -33.725  1.00  0.00     0.257 C 
HETATM    7  O   UNL     1      -4.418   5.506 -34.725  1.00  0.00    -0.267 OA
HETATM    8  H   UNL     1      -3.488   5.653 -32.669  1.00  0.00     0.171 HD
BRANCH   6   9
HETATM    9  C   UNL     1      -6.279   4.395 -33.915  1.00  0.00     0.032 A 
HETATM   10  C   UNL     1      -6.248   3.016 -34.159  1.00  0.00     0.020 A 
HETATM   11  C   UNL     1      -7.405   2.260 -33.999  1.00  0.00     0.038 A 
HETATM   12  C   UNL     1      -8.571   2.883 -33.552  1.00  0.00     0.068 A 
HETATM   13  C   UNL     1      -8.628   4.268 -33.388  1.00  0.00     0.038 A 
HETATM   14  C   UNL     1      -7.471   5.031 -33.551  1.00  0.00     0.020 A 
BRANCH  12  15
HETATM   15  O   UNL     1      -9.680   2.152 -33.216  1.00  0.00    -0.351 OA
BRANCH  15  16
HETATM   16  C   UNL     1     -10.250   1.512 -34.371  1.00  0.00     0.175 C 
BRANCH  16  17
HETATM   17  C   UNL     1     -11.769   1.671 -34.331  1.00  0.00     0.026 C 
BRANCH  17  18
HETATM   18  C   UNL     1     -12.433   0.487 -33.631  1.00  0.00    -0.002 C 
HETATM   19  C   UNL     1     -13.876   0.310 -34.072  1.00  0.00     0.005 C 
ENDBRANCH  17  18
ENDBRANCH  16  17
ENDBRANCH  15  16
ENDBRANCH  12  15
ENDBRANCH   6   9
ENDBRANCH   3   5
ENDBRANCH   1   3
BRANCH   1  20
HETATM   20  C   UNL     1      -4.346   2.802 -30.890  1.00  0.00     0.036 C 
HETATM   21  C   UNL     1      -5.487   2.051 -30.610  1.00  0.00     0.067 C 
HETATM   22  C   UNL     1      -5.686   0.831 -31.274  1.00  0.00     0.082 C 
HETATM   23  C   UNL     1      -4.734   0.333 -32.179  1.00  0.00     0.050 C 
HETATM   24  C   UNL     1      -3.521   1.023 -32.306  1.00  0.00     0.021 C 
HETATM   25  C   UNL     1      -3.326   2.243 -31.665  1.00  0.00     0.030 C 
BRANCH  22  26
HETATM   26  O   UNL     1      -6.845   0.136 -31.055  1.00  0.00    -0.360 OA
HETATM   27  H   UNL     1      -6.784  -0.359 -30.222  1.00  0.00     0.217 HD
ENDBRANCH  22  26
BRANCH  23  28
HETATM   28  C   UNL     1      -4.956  -0.792 -33.086  1.00  0.00     0.183 A 
HETATM   29  O   UNL     1      -4.001  -1.778 -33.088  1.00  0.00    -0.289 OA
HETATM   30  C   UNL     1      -4.593  -2.811 -33.752  1.00  0.00     0.106 A 
HETATM   31  C   UNL     1      -5.860  -2.402 -34.131  1.00  0.00     0.093 A 
HETATM   32  C   UNL     1      -4.066  -4.075 -33.987  1.00  0.00     0.040 A 
HETATM   33  N   UNL     1      -6.076  -1.113 -33.718  1.00  0.00    -0.221 NA
HETATM   34  C   UNL     1      -6.695  -3.307 -34.798  1.00  0.00     0.034 A 
HETATM   35  C   UNL     1      -6.206  -4.599 -35.045  1.00  0.00     0.002 A 
HETATM   36  C   UNL     1      -4.915  -4.973 -34.647  1.00  0.00     0.003 A 
ENDBRANCH  23  28
ENDBRANCH   1  20
TORSDOF 10
ENDMDL
MODEL 6
REMARK VINA RESULT:      -9.0      1.557      2.108
REMARK  10 active torsions:
REMARK  status: ('A' for Active; 'I' for Inactive)
REMARK    1  A    between atoms: C_2  and  C_3 
REMARK    2  A    between atoms: C_3  and  C_4 
REMARK    3  A    between atoms: C_4  and  O_5 
REMARK    4  A    between atoms: O_5  and  C_6 
REMARK    5  A    between atoms: C_9  and  C_10 
REMARK       I    between atoms: C_10  and  N_11 
REMARK    6  A    between atoms: N_11  and  C_12 
REMARK    7  A    between atoms: C_12  and  N_13 
REMARK    8  A    between atoms: N_13  and  C_14 
REMARK    9  A    between atoms: C_16  and  O_17 
REMARK   10  A    between atoms: C_18  and  C_19 
ROOT
HETATM    1  N   UNL     1      -3.956   4.773 -31.558  1.00  0.00    -0.333 N 
HETATM    2  H   UNL     1      -3.463   4.998 -30.700  1.00  0.00     0.168 HD
ENDROOT
BRANCH   1   3
HETATM    3  C   UNL     1      -4.304   5.864 -32.348  1.00  0.00     0.179 C 
HETATM    4  S   UNL     1      -5.842   6.487 -32.235  1.00  0.00    -0.040 SA
BRANCH   3   5
HETATM    5  N   UNL     1      -3.298   6.260 -33.237  1.00  0.00    -0.299 N 
HETATM    6  C   UNL     1      -1.918   6.386 -33.292  1.00  0.00     0.257 C 
HETATM    7  O   UNL     1      -1.385   6.479 -34.400  1.00  0.00    -0.267 OA
HETATM    8  H   UNL     1      -3.635   6.420 -34.176  1.00  0.00     0.171 HD
BRANCH   6   9
HETATM    9  C   UNL     1      -1.053   6.381 -32.112  1.00  0.00     0.032 A 
HETATM   10  C   UNL     1      -1.332   7.316 -31.107  1.00  0.00     0.020 A 
HETATM   11  C   UNL     1      -0.795   7.144 -29.835  1.00  0.00     0.038 A 
HETATM   12  C   UNL     1      -0.021   6.014 -29.568  1.00  0.00     0.068 A 
HETATM   13  C   UNL     1       0.328   5.125 -30.587  1.00  0.00     0.038 A 
HETATM   14  C   UNL     1      -0.206   5.296 -31.865  1.00  0.00     0.020 A 
BRANCH  12  15
HETATM   15  O   UNL     1       0.382   5.715 -28.294  1.00  0.00    -0.351 OA
BRANCH  15  16
HETATM   16  C   UNL     1       0.052   6.779 -27.383  1.00  0.00     0.175 C 
BRANCH  16  17
HETATM   17  C   UNL     1       1.342   7.376 -26.824  1.00  0.00     0.026 C 
BRANCH  17  18
HETATM   18  C   UNL     1       1.573   8.791 -27.353  1.00  0.00    -0.002 C 
HETATM   19  C   UNL     1       1.389   9.835 -26.265  1.00  0.00     0.005 C 
ENDBRANCH  17  18
ENDBRANCH  16  17
ENDBRANCH  15  16
ENDBRANCH  12  15
ENDBRANCH   6   9
ENDBRANCH   3   5
ENDBRANCH   1   3
BRANCH   1  20
HETATM   20  C   UNL     1      -4.304   3.425 -31.796  1.00  0.00     0.036 C 
HETATM   21  C   UNL     1      -5.638   3.085 -32.012  1.00  0.00     0.067 C 
HETATM   22  C   UNL     1      -5.950   1.813 -32.517  1.00  0.00     0.082 C 
HETATM   23  C   UNL     1      -4.944   0.863 -32.763  1.00  0.00     0.050 C 
HETATM   24  C   UNL     1      -3.635   1.173 -32.370  1.00  0.00     0.021 C 
HETATM   25  C   UNL     1      -3.317   2.439 -31.887  1.00  0.00     0.030 C 
BRANCH  22  26
HETATM   26  O   UNL     1      -7.254   1.512 -32.803  1.00  0.00    -0.360 OA
HETATM   27  H   UNL     1      -7.846   1.983 -32.195  1.00  0.00     0.217 HD
ENDBRANCH  22  26
BRANCH  23  28
HETATM   28  C   UNL     1      -5.139  -0.383 -33.501  1.00  0.00     0.183 A 
HETATM   29  O   UNL     1      -4.122  -1.303 -33.433  1.00  0.00    -0.289 OA
HETATM   30  C   UNL     1      -4.678  -2.449 -33.920  1.00  0.00     0.106 A 
HETATM   31  C   UNL     1      -5.987  -2.169 -34.271  1.00  0.00     0.093 A 
HETATM   32  C   UNL     1      -4.082  -3.700 -34.020  1.00  0.00     0.040 A 
HETATM   33  N   UNL     1      -6.267  -0.852 -34.016  1.00  0.00    -0.221 NA
HETATM   34  C   UNL     1      -6.795  -3.202 -34.763  1.00  0.00     0.034 A 
HETATM   35  C   UNL     1      -6.235  -4.485 -34.869  1.00  0.00     0.002 A 
HETATM   36  C   UNL     1      -4.903  -4.726 -34.505  1.00  0.00     0.003 A 
ENDBRANCH  23  28
ENDBRANCH   1  20
TORSDOF 10
ENDMDL
MODEL 7
REMARK VINA RESULT:      -8.7      2.339      8.604
REMARK  10 active torsions:
REMARK  status: ('A' for Active; 'I' for Inactive)
REMARK    1  A    between atoms: C_2  and  C_3 
REMARK    2  A    between atoms: C_3  and  C_4 
REMARK    3  A    between atoms: C_4  and  O_5 
REMARK    4  A    between atoms: O_5  and  C_6 
REMARK    5  A    between atoms: C_9  and  C_10 
REMARK       I    between atoms: C_10  and  N_11 
REMARK    6  A    between atoms: N_11  and  C_12 
REMARK    7  A    between atoms: C_12  and  N_13 
REMARK    8  A    between atoms: N_13  and  C_14 
REMARK    9  A    between atoms: C_16  and  O_17 
REMARK   10  A    between atoms: C_18  and  C_19 
ROOT
HETATM    1  N   UNL     1      -8.848   3.743 -32.625  1.00  0.00    -0.333 N 
HETATM    2  H   UNL     1      -9.289   3.714 -31.711  1.00  0.00     0.168 HD
ENDROOT
BRANCH   1   3
HETATM    3  C   UNL     1      -9.722   3.745 -33.707  1.00  0.00     0.179 C 
HETATM    4  S   UNL     1      -9.811   5.095 -34.674  1.00  0.00    -0.040 SA
BRANCH   3   5
HETATM    5  N   UNL     1     -10.512   2.593 -33.795  1.00  0.00    -0.299 N 
HETATM    6  C   UNL     1     -10.393   1.214 -33.711  1.00  0.00     0.257 C 
HETATM    7  O   UNL     1     -11.417   0.550 -33.534  1.00  0.00    -0.267 OA
HETATM    8  H   UNL     1     -11.503   2.789 -33.836  1.00  0.00     0.171 HD
BRANCH   6   9
HETATM    9  C   UNL     1      -9.118   0.502 -33.788  1.00  0.00     0.032 A 
HETATM   10  C   UNL     1      -8.414   0.572 -34.998  1.00  0.00     0.020 A 
HETATM   11  C   UNL     1      -7.066   0.230 -35.033  1.00  0.00     0.038 A 
HETATM   12  C   UNL     1      -6.423  -0.136 -33.850  1.00  0.00     0.068 A 
HETATM   13  C   UNL     1      -7.139  -0.287 -32.661  1.00  0.00     0.038 A 
HETATM   14  C   UNL     1      -8.492   0.051 -32.621  1.00  0.00     0.020 A 
BRANCH  12  15
HETATM   15  O   UNL     1      -5.065  -0.311 -33.807  1.00  0.00    -0.351 OA
BRANCH  15  16
HETATM   16  C   UNL     1      -4.727  -1.680 -33.524  1.00  0.00     0.175 C 
BRANCH  16  17
HETATM   17  C   UNL     1      -5.052  -2.538 -34.745  1.00  0.00     0.026 C 
BRANCH  17  18
HETATM   18  C   UNL     1      -5.002  -4.027 -34.406  1.00  0.00    -0.002 C 
HETATM   19  C   UNL     1      -3.646  -4.433 -33.852  1.00  0.00     0.005 C 
ENDBRANCH  17  18
ENDBRANCH  16  17
ENDBRANCH  15  16
ENDBRANCH  12  15
ENDBRANCH   6   9
ENDBRANCH   3   5
ENDBRANCH   1   3
BRANCH   1  20
HETATM   20  C   UNL     1      -7.438   3.685 -32.689  1.00  0.00     0.036 C 
HETATM   21  C   UNL     1      -6.781   4.146 -33.829  1.00  0.00     0.067 C 
HETATM   22  C   UNL     1      -5.392   4.346 -33.786  1.00  0.00     0.082 C 
HETATM   23  C   UNL     1      -4.650   4.048 -32.631  1.00  0.00     0.050 C 
HETATM   24  C   UNL     1      -5.313   3.423 -31.566  1.00  0.00     0.021 C 
HETATM   25  C   UNL     1      -6.692   3.239 -31.595  1.00  0.00     0.030 C 
BRANCH  22  26
HETATM   26  O   UNL     1      -4.762   4.874 -34.882  1.00  0.00    -0.360 OA
HETATM   27  H   UNL     1      -5.221   4.600 -35.693  1.00  0.00     0.217 HD
ENDBRANCH  22  26
BRANCH  23  28
HETATM   28  C   UNL     1      -3.260   4.440 -32.410  1.00  0.00     0.183 A 
HETATM   29  O   UNL     1      -2.882   5.666 -32.900  1.00  0.00    -0.289 OA
HETATM   30  C   UNL     1      -1.682   5.907 -32.299  1.00  0.00     0.106 A 
HETATM   31  C   UNL     1      -1.386   4.822 -31.493  1.00  0.00     0.093 A 
HETATM   32  C   UNL     1      -0.894   7.045 -32.416  1.00  0.00     0.040 A 
HETATM   33  N   UNL     1      -2.385   3.889 -31.581  1.00  0.00    -0.221 NA
HETATM   34  C   UNL     1      -0.214   4.845 -30.725  1.00  0.00     0.034 A 
HETATM   35  C   UNL     1       0.606   5.981 -30.806  1.00  0.00     0.002 A 
HETATM   36  C   UNL     1       0.270   7.059 -31.638  1.00  0.00     0.003 A 
ENDBRANCH  23  28
ENDBRANCH   1  20
TORSDOF 10
ENDMDL
MODEL 8
REMARK VINA RESULT:      -8.7      3.257      8.389
REMARK  10 active torsions:
REMARK  status: ('A' for Active; 'I' for Inactive)
REMARK    1  A    between atoms: C_2  and  C_3 
REMARK    2  A    between atoms: C_3  and  C_4 
REMARK    3  A    between atoms: C_4  and  O_5 
REMARK    4  A    between atoms: O_5  and  C_6 
REMARK    5  A    between atoms: C_9  and  C_10 
REMARK       I    between atoms: C_10  and  N_11 
REMARK    6  A    between atoms: N_11  and  C_12 
REMARK    7  A    between atoms: C_12  and  N_13 
REMARK    8  A    between atoms: N_13  and  C_14 
REMARK    9  A    between atoms: C_16  and  O_17 
REMARK   10  A    between atoms: C_18  and  C_19 
ROOT
HETATM    1  N   UNL     1     -11.358   3.273 -31.347  1.00  0.00    -0.333 N 
HETATM    2  H   UNL     1     -11.769   2.733 -30.591  1.00  0.00     0.168 HD
ENDROOT
BRANCH   1   3
HETATM    3  C   UNL     1     -12.207   3.544 -32.415  1.00  0.00     0.179 C 
HETATM    4  S   UNL     1     -12.648   5.118 -32.717  1.00  0.00    -0.040 SA
BRANCH   3   5
HETATM    5  N   UNL     1     -12.670   2.399 -33.072  1.00  0.00    -0.299 N 
HETATM    6  C   UNL     1     -12.213   1.163 -33.502  1.00  0.00     0.257 C 
HETATM    7  O   UNL     1     -13.046   0.294 -33.773  1.00  0.00    -0.267 OA
HETATM    8  H   UNL     1     -13.672   2.392 -33.206  1.00  0.00     0.171 HD
BRANCH   6   9
HETATM    9  C   UNL     1     -10.796   0.816 -33.622  1.00  0.00     0.032 A 
HETATM   10  C   UNL     1     -10.009   1.611 -34.465  1.00  0.00     0.020 A 
HETATM   11  C   UNL     1      -8.623   1.568 -34.358  1.00  0.00     0.038 A 
HETATM   12  C   UNL     1      -8.038   0.764 -33.379  1.00  0.00     0.068 A 
HETATM   13  C   UNL     1      -8.813  -0.091 -32.594  1.00  0.00     0.038 A 
HETATM   14  C   UNL     1     -10.204  -0.054 -32.700  1.00  0.00     0.020 A 
BRANCH  12  15
HETATM   15  O   UNL     1      -6.693   0.823 -33.125  1.00  0.00    -0.351 OA
BRANCH  15  16
HETATM   16  C   UNL     1      -6.203  -0.435 -32.628  1.00  0.00     0.175 C 
BRANCH  16  17
HETATM   17  C   UNL     1      -4.896  -0.778 -33.340  1.00  0.00     0.026 C 
BRANCH  17  18
HETATM   18  C   UNL     1      -5.059  -2.005 -34.235  1.00  0.00    -0.002 C 
HETATM   19  C   UNL     1      -6.519  -2.384 -34.410  1.00  0.00     0.005 C 
ENDBRANCH  17  18
ENDBRANCH  16  17
ENDBRANCH  15  16
ENDBRANCH  12  15
ENDBRANCH   6   9
ENDBRANCH   3   5
ENDBRANCH   1   3
BRANCH   1  20
HETATM   20  C   UNL     1      -9.984   3.593 -31.268  1.00  0.00     0.036 C 
HETATM   21  C   UNL     1      -9.171   2.920 -30.357  1.00  0.00     0.067 C 
HETATM   22  C   UNL     1      -7.777   3.034 -30.468  1.00  0.00     0.082 C 
HETATM   23  C   UNL     1      -7.190   3.851 -31.449  1.00  0.00     0.050 C 
HETATM   24  C   UNL     1      -8.034   4.649 -32.232  1.00  0.00     0.021 C 
HETATM   25  C   UNL     1      -9.418   4.526 -32.141  1.00  0.00     0.030 C 
BRANCH  22  26
HETATM   26  O   UNL     1      -6.981   2.309 -29.622  1.00  0.00    -0.360 OA
HETATM   27  H   UNL     1      -6.095   2.705 -29.577  1.00  0.00     0.217 HD
ENDBRANCH  22  26
BRANCH  23  28
HETATM   28  C   UNL     1      -5.769   3.850 -31.793  1.00  0.00     0.183 A 
HETATM   29  O   UNL     1      -5.449   4.196 -33.082  1.00  0.00    -0.289 OA
HETATM   30  C   UNL     1      -4.104   4.418 -33.041  1.00  0.00     0.106 A 
HETATM   31  C   UNL     1      -3.675   4.184 -31.746  1.00  0.00     0.093 A 
HETATM   32  C   UNL     1      -3.288   4.846 -34.080  1.00  0.00     0.040 A 
HETATM   33  N   UNL     1      -4.736   3.809 -30.964  1.00  0.00    -0.221 NA
HETATM   34  C   UNL     1      -2.326   4.387 -31.430  1.00  0.00     0.034 A 
HETATM   35  C   UNL     1      -1.468   4.830 -32.449  1.00  0.00     0.002 A 
HETATM   36  C   UNL     1      -1.943   5.053 -33.749  1.00  0.00     0.003 A 
ENDBRANCH  23  28
ENDBRANCH   1  20
TORSDOF 10
ENDMDL
MODEL 9
REMARK VINA RESULT:      -8.6      0.866      1.468
REMARK  10 active torsions:
REMARK  status: ('A' for Active; 'I' for Inactive)
REMARK    1  A    between atoms: C_2  and  C_3 
REMARK    2  A    between atoms: C_3  and  C_4 
REMARK    3  A    between atoms: C_4  and  O_5 
REMARK    4  A    between atoms: O_5  and  C_6 
REMARK    5  A    between atoms: C_9  and  C_10 
REMARK       I    between atoms: C_10  and  N_11 
REMARK    6  A    between atoms: N_11  and  C_12 
REMARK    7  A    between atoms: C_12  and  N_13 
REMARK    8  A    between atoms: N_13  and  C_14 
REMARK    9  A    between atoms: C_16  and  O_17 
REMARK   10  A    between atoms: C_18  and  C_19 
ROOT
HETATM    1  N   UNL     1      -7.500   4.711 -33.225  1.00  0.00    -0.333 N 
HETATM    2  H   UNL     1      -8.377   5.166 -33.460  1.00  0.00     0.168 HD
ENDROOT
BRANCH   1   3
HETATM    3  C   UNL     1      -6.406   5.560 -33.092  1.00  0.00     0.179 C 
HETATM    4  S   UNL     1      -6.381   6.657 -31.843  1.00  0.00    -0.040 SA
BRANCH   3   5
HETATM    5  N   UNL     1      -5.467   5.435 -34.122  1.00  0.00    -0.299 N 
HETATM    6  C   UNL     1      -4.095   5.357 -34.305  1.00  0.00     0.257 C 
HETATM    7  O   UNL     1      -3.674   4.928 -35.382  1.00  0.00    -0.267 OA
HETATM    8  H   UNL     1      -5.884   5.242 -35.023  1.00  0.00     0.171 HD
BRANCH   6   9
HETATM    9  C   UNL     1      -3.116   5.723 -33.282  1.00  0.00     0.032 A 
HETATM   10  C   UNL     1      -2.850   4.779 -32.280  1.00  0.00     0.020 A 
HETATM   11  C   UNL     1      -1.704   4.905 -31.500  1.00  0.00     0.038 A 
HETATM   12  C   UNL     1      -0.813   5.947 -31.759  1.00  0.00     0.068 A 
HETATM   13  C   UNL     1      -1.115   6.934 -32.698  1.00  0.00     0.038 A 
HETATM   14  C   UNL     1      -2.265   6.815 -33.481  1.00  0.00     0.020 A 
BRANCH  12  15
HETATM   15  O   UNL     1       0.405   6.008 -31.136  1.00  0.00    -0.351 OA
BRANCH  15  16
HETATM   16  C   UNL     1       0.444   5.144 -29.986  1.00  0.00     0.175 C 
BRANCH  16  17
HETATM   17  C   UNL     1       0.447   5.999 -28.720  1.00  0.00     0.026 C 
BRANCH  17  18
HETATM   18  C   UNL     1       0.560   7.485 -29.054  1.00  0.00    -0.002 C 
HETATM   19  C   UNL     1       1.352   8.240 -28.000  1.00  0.00     0.005 C 
ENDBRANCH  17  18
ENDBRANCH  16  17
ENDBRANCH  15  16
ENDBRANCH  12  15
ENDBRANCH   6   9
ENDBRANCH   3   5
ENDBRANCH   1   3
BRANCH   1  20
HETATM   20  C   UNL     1      -7.478   3.300 -33.155  1.00  0.00     0.036 C 
HETATM   21  C   UNL     1      -8.065   2.551 -34.174  1.00  0.00     0.067 C 
HETATM   22  C   UNL     1      -7.806   1.174 -34.249  1.00  0.00     0.082 C 
HETATM   23  C   UNL     1      -7.003   0.532 -33.292  1.00  0.00     0.050 C 
HETATM   24  C   UNL     1      -6.573   1.278 -32.186  1.00  0.00     0.021 C 
HETATM   25  C   UNL     1      -6.811   2.647 -32.115  1.00  0.00     0.030 C 
BRANCH  22  26
HETATM   26  O   UNL     1      -8.320   0.456 -35.296  1.00  0.00    -0.360 OA
HETATM   27  H   UNL     1      -9.278   0.601 -35.360  1.00  0.00     0.217 HD
ENDBRANCH  22  26
BRANCH  23  28
HETATM   28  C   UNL     1      -6.486  -0.830 -33.416  1.00  0.00     0.183 A 
HETATM   29  O   UNL     1      -7.327  -1.758 -33.978  1.00  0.00    -0.289 OA
HETATM   30  C   UNL     1      -6.514  -2.816 -34.257  1.00  0.00     0.106 A 
HETATM   31  C   UNL     1      -5.235  -2.489 -33.842  1.00  0.00     0.093 A 
HETATM   32  C   UNL     1      -6.862  -4.005 -34.884  1.00  0.00     0.040 A 
HETATM   33  N   UNL     1      -5.229  -1.232 -33.295  1.00  0.00    -0.221 NA
HETATM   34  C   UNL     1      -4.195  -3.402 -34.059  1.00  0.00     0.034 A 
HETATM   35  C   UNL     1      -4.503  -4.613 -34.700  1.00  0.00     0.002 A 
HETATM   36  C   UNL     1      -5.813  -4.906 -35.103  1.00  0.00     0.003 A 
ENDBRANCH  23  28
ENDBRANCH   1  20
TORSDOF 10
ENDMDL
MODEL 10
REMARK VINA RESULT:      -8.6      3.500      6.931
REMARK  10 active torsions:
REMARK  status: ('A' for Active; 'I' for Inactive)
REMARK    1  A    between atoms: C_2  and  C_3 
REMARK    2  A    between atoms: C_3  and  C_4 
REMARK    3  A    between atoms: C_4  and  O_5 
REMARK    4  A    between atoms: O_5  and  C_6 
REMARK    5  A    between atoms: C_9  and  C_10 
REMARK       I    between atoms: C_10  and  N_11 
REMARK    6  A    between atoms: N_11  and  C_12 
REMARK    7  A    between atoms: C_12  and  N_13 
REMARK    8  A    between atoms: N_13  and  C_14 
REMARK    9  A    between atoms: C_16  and  O_17 
REMARK   10  A    between atoms: C_18  and  C_19 
ROOT
HETATM    1  N   UNL     1      -4.163   4.196 -30.851  1.00  0.00    -0.333 N 
HETATM    2  H   UNL     1      -3.262   4.139 -30.386  1.00  0.00     0.168 HD
ENDROOT
BRANCH   1   3
HETATM    3  C   UNL     1      -4.788   5.437 -30.786  1.00  0.00     0.179 C 
HETATM    4  S   UNL     1      -4.333   6.629 -31.853  1.00  0.00    -0.040 SA
BRANCH   3   5
HETATM    5  N   UNL     1      -5.696   5.557 -29.729  1.00  0.00    -0.299 N 
HETATM    6  C   UNL     1      -6.930   5.067 -29.328  1.00  0.00     0.257 C 
HETATM    7  O   UNL     1      -7.250   5.191 -28.143  1.00  0.00    -0.267 OA
HETATM    8  H   UNL     1      -5.332   6.080 -28.945  1.00  0.00     0.171 HD
BRANCH   6   9
HETATM    9  C   UNL     1      -7.863   4.382 -30.223  1.00  0.00     0.032 A 
HETATM   10  C   UNL     1      -8.270   5.068 -31.375  1.00  0.00     0.020 A 
HETATM   11  C   UNL     1      -8.856   4.368 -32.424  1.00  0.00     0.038 A 
HETATM   12  C   UNL     1      -8.989   2.982 -32.331  1.00  0.00     0.068 A 
HETATM   13  C   UNL     1      -8.662   2.307 -31.153  1.00  0.00     0.038 A 
HETATM   14  C   UNL     1      -8.077   3.006 -30.096  1.00  0.00     0.020 A 
BRANCH  12  15
HETATM   15  O   UNL     1      -9.398   2.235 -33.404  1.00  0.00    -0.351 OA
BRANCH  15  16
HETATM   16  C   UNL     1     -10.828   2.286 -33.557  1.00  0.00     0.175 C 
BRANCH  16  17
HETATM   17  C   UNL     1     -11.389   0.868 -33.472  1.00  0.00     0.026 C 
BRANCH  17  18
HETATM   18  C   UNL     1     -12.782   0.785 -34.095  1.00  0.00    -0.002 C 
HETATM   19  C   UNL     1     -13.553  -0.423 -33.590  1.00  0.00     0.005 C 
ENDBRANCH  17  18
ENDBRANCH  16  17
ENDBRANCH  15  16
ENDBRANCH  12  15
ENDBRANCH   6   9
ENDBRANCH   3   5
ENDBRANCH   1   3
BRANCH   1  20
HETATM   20  C   UNL     1      -4.701   3.017 -31.411  1.00  0.00     0.036 C 
HETATM   21  C   UNL     1      -5.424   3.087 -32.601  1.00  0.00     0.067 C 
HETATM   22  C   UNL     1      -5.717   1.904 -33.297  1.00  0.00     0.082 C 
HETATM   23  C   UNL     1      -5.335   0.650 -32.791  1.00  0.00     0.050 C 
HETATM   24  C   UNL     1      -4.767   0.602 -31.510  1.00  0.00     0.021 C 
HETATM   25  C   UNL     1      -4.457   1.772 -30.824  1.00  0.00     0.030 C 
BRANCH  22  26
HETATM   26  O   UNL     1      -6.357   1.983 -34.504  1.00  0.00    -0.360 OA
HETATM   27  H   UNL     1      -7.217   2.421 -34.397  1.00  0.00     0.217 HD
ENDBRANCH  22  26
BRANCH  23  28
HETATM   28  C   UNL     1      -5.381  -0.601 -33.544  1.00  0.00     0.183 A 
HETATM   29  O   UNL     1      -4.328  -1.465 -33.369  1.00  0.00    -0.289 OA
HETATM   30  C   UNL     1      -4.766  -2.636 -33.911  1.00  0.00     0.106 A 
HETATM   31  C   UNL     1      -6.044  -2.427 -34.399  1.00  0.00     0.093 A 
HETATM   32  C   UNL     1      -4.095  -3.852 -33.946  1.00  0.00     0.040 A 
HETATM   33  N   UNL     1      -6.421  -1.128 -34.175  1.00  0.00    -0.221 NA
HETATM   34  C   UNL     1      -6.738  -3.500 -34.972  1.00  0.00     0.034 A 
HETATM   35  C   UNL     1      -6.100  -4.749 -35.018  1.00  0.00     0.002 A 
HETATM   36  C   UNL     1      -4.803  -4.919 -34.515  1.00  0.00     0.003 A 
ENDBRANCH  23  28
ENDBRANCH   1  20
TORSDOF 10
ENDMDL
