MODEL 1
REMARK VINA RESULT:      -8.3      0.000      0.000
REMARK  5 active torsions:
REMARK  status: ('A' for Active; 'I' for Inactive)
REMARK    1  A    between atoms: C_9  and  C_10 
REMARK    2  A    between atoms: C_11  and  O_12 
REMARK    3  A    between atoms: O_12  and  C_13 
REMARK    4  A    between atoms: C_20  and  C_21 
REMARK       I    between atoms: C_21  and  N_22 
REMARK    5  A    between atoms: N_22  and  C_23 
ROOT
HETATM    1  C   UNL     1      -7.103   3.794 -29.444  1.00  0.00     0.070 C 
HETATM    2  C   UNL     1      -6.052   3.369 -30.439  1.00  0.00     0.037 C 
HETATM    3  N   UNL     1      -4.808   3.976 -30.291  1.00  0.00    -0.192 N 
HETATM    4  C   UNL     1      -3.867   3.953 -31.257  1.00  0.00     0.725 A 
HETATM    5  N   UNL     1      -4.041   3.143 -32.346  1.00  0.00    -0.084 N 
HETATM    6  N   UNL     1      -3.072   3.346 -33.267  1.00  0.00    -0.149 NA
HETATM    7  C   UNL     1      -2.311   4.241 -32.626  1.00  0.00     0.275 A 
HETATM    8  N   UNL     1      -2.763   4.640 -31.394  1.00  0.00    -0.054 NA
HETATM    9  C   UNL     1      -5.180   2.234 -32.519  1.00  0.00     0.205 C 
HETATM   10  C   UNL     1      -6.263   2.519 -31.476  1.00  0.00     0.063 C 
HETATM   11  H   UNL     1      -4.717   4.685 -29.567  1.00  0.00     0.184 HD
ENDROOT
BRANCH   9  12
HETATM   12  C   UNL     1      -4.670   0.790 -32.491  1.00  0.00     0.005 A 
HETATM   13  C   UNL     1      -5.120  -0.144 -33.448  1.00  0.00     0.083 A 
HETATM   14  C   UNL     1      -4.634  -1.456 -33.424  1.00  0.00     0.037 A 
HETATM   15  C   UNL     1      -3.671  -1.838 -32.491  1.00  0.00     0.003 A 
HETATM   16  C   UNL     1      -3.188  -0.914 -31.570  1.00  0.00     0.001 A 
HETATM   17  C   UNL     1      -3.680   0.390 -31.570  1.00  0.00     0.012 A 
BRANCH  13  18
HETATM   18  O   UNL     1      -6.050   0.304 -34.344  1.00  0.00    -0.290 OA
BRANCH  18  19
HETATM   19  C   UNL     1      -7.084  -0.596 -34.731  1.00  0.00     0.505 C 
HETATM   20  F   UNL     1      -7.774  -1.036 -33.652  1.00  0.00    -0.184 F 
HETATM   21  F   UNL     1      -7.952   0.044 -35.553  1.00  0.00    -0.184 F 
ENDBRANCH  18  19
ENDBRANCH  13  18
ENDBRANCH   9  12
BRANCH  10  22
HETATM   22  C   UNL     1      -7.580   1.899 -31.787  1.00  0.00     0.256 C 
HETATM   23  N   UNL     1      -8.300   2.587 -32.740  1.00  0.00    -0.323 N 
HETATM   24  H   UNL     1      -7.898   3.445 -33.092  1.00  0.00     0.169 HD
HETATM   25  O   UNL     1      -7.910   0.886 -31.186  1.00  0.00    -0.267 OA
BRANCH  23  26
HETATM   26  C   UNL     1      -9.523   2.198 -33.329  1.00  0.00     0.035 A 
HETATM   27  C   UNL     1     -10.193   1.011 -33.026  1.00  0.00     0.029 A 
HETATM   28  C   UNL     1     -11.387   0.683 -33.678  1.00  0.00     0.002 A 
HETATM   29  C   UNL     1     -11.917   1.537 -34.643  1.00  0.00     0.000 A 
HETATM   30  C   UNL     1     -11.259   2.724 -34.950  1.00  0.00     0.002 A 
HETATM   31  C   UNL     1     -10.070   3.055 -34.293  1.00  0.00     0.029 A 
ENDBRANCH  23  26
ENDBRANCH  10  22
TORSDOF 5
ENDMDL
MODEL 2
REMARK VINA RESULT:      -8.3      1.904      5.350
REMARK  5 active torsions:
REMARK  status: ('A' for Active; 'I' for Inactive)
REMARK    1  A    between atoms: C_9  and  C_10 
REMARK    2  A    between atoms: C_11  and  O_12 
REMARK    3  A    between atoms: O_12  and  C_13 
REMARK    4  A    between atoms: C_20  and  C_21 
REMARK       I    between atoms: C_21  and  N_22 
REMARK    5  A    between atoms: N_22  and  C_23 
ROOT
HETATM    1  C   UNL     1      -3.428   2.649 -32.656  1.00  0.00     0.070 C 
HETATM    2  C   UNL     1      -4.802   3.017 -32.156  1.00  0.00     0.037 C 
HETATM    3  N   UNL     1      -4.835   3.991 -31.160  1.00  0.00    -0.192 N 
HETATM    4  C   UNL     1      -5.922   4.211 -30.393  1.00  0.00     0.725 A 
HETATM    5  N   UNL     1      -7.108   3.611 -30.719  1.00  0.00    -0.084 N 
HETATM    6  N   UNL     1      -8.047   3.837 -29.773  1.00  0.00    -0.149 NA
HETATM    7  C   UNL     1      -7.371   4.644 -28.947  1.00  0.00     0.275 A 
HETATM    8  N   UNL     1      -6.067   4.896 -29.289  1.00  0.00    -0.054 NA
HETATM    9  C   UNL     1      -7.301   2.765 -31.903  1.00  0.00     0.205 C 
HETATM   10  C   UNL     1      -5.958   2.424 -32.550  1.00  0.00     0.063 C 
HETATM   11  H   UNL     1      -3.943   4.338 -30.816  1.00  0.00     0.184 HD
ENDROOT
BRANCH   9  12
HETATM   12  C   UNL     1      -8.279   3.461 -32.854  1.00  0.00     0.005 A 
HETATM   13  C   UNL     1      -9.529   2.877 -33.147  1.00  0.00     0.083 A 
HETATM   14  C   UNL     1     -10.421   3.530 -34.003  1.00  0.00     0.037 A 
HETATM   15  C   UNL     1     -10.106   4.780 -34.536  1.00  0.00     0.003 A 
HETATM   16  C   UNL     1      -8.894   5.386 -34.221  1.00  0.00     0.001 A 
HETATM   17  C   UNL     1      -7.988   4.735 -33.385  1.00  0.00     0.012 A 
BRANCH  13  18
HETATM   18  O   UNL     1      -9.780   1.660 -32.575  1.00  0.00    -0.290 OA
BRANCH  18  19
HETATM   19  C   UNL     1     -10.194   0.600 -33.431  1.00  0.00     0.505 C 
HETATM   20  F   UNL     1      -9.312   0.419 -34.443  1.00  0.00    -0.184 F 
HETATM   21  F   UNL     1     -10.258  -0.552 -32.719  1.00  0.00    -0.184 F 
ENDBRANCH  18  19
ENDBRANCH  13  18
ENDBRANCH   9  12
BRANCH  10  22
HETATM   22  C   UNL     1      -6.024   1.304 -33.527  1.00  0.00     0.256 C 
HETATM   23  N   UNL     1      -5.657   0.087 -32.994  1.00  0.00    -0.323 N 
HETATM   24  H   UNL     1      -5.343   0.079 -32.033  1.00  0.00     0.169 HD
HETATM   25  O   UNL     1      -6.366   1.545 -34.677  1.00  0.00    -0.267 OA
BRANCH  23  26
HETATM   26  C   UNL     1      -5.722  -1.175 -33.625  1.00  0.00     0.035 A 
HETATM   27  C   UNL     1      -6.913  -1.798 -34.003  1.00  0.00     0.029 A 
HETATM   28  C   UNL     1      -6.894  -3.065 -34.597  1.00  0.00     0.002 A 
HETATM   29  C   UNL     1      -5.685  -3.721 -34.812  1.00  0.00     0.000 A 
HETATM   30  C   UNL     1      -4.491  -3.107 -34.443  1.00  0.00     0.002 A 
HETATM   31  C   UNL     1      -4.510  -1.839 -33.856  1.00  0.00     0.029 A 
ENDBRANCH  23  26
ENDBRANCH  10  22
TORSDOF 5
ENDMDL
MODEL 3
REMARK VINA RESULT:      -8.2      2.857      5.791
REMARK  5 active torsions:
REMARK  status: ('A' for Active; 'I' for Inactive)
REMARK    1  A    between atoms: C_9  and  C_10 
REMARK    2  A    between atoms: C_11  and  O_12 
REMARK    3  A    between atoms: O_12  and  C_13 
REMARK    4  A    between atoms: C_20  and  C_21 
REMARK       I    between atoms: C_21  and  N_22 
REMARK    5  A    between atoms: N_22  and  C_23 
ROOT
HETATM    1  C   UNL     1     -10.651   0.171 -33.073  1.00  0.00     0.070 C 
HETATM    2  C   UNL     1      -9.843   1.444 -33.090  1.00  0.00     0.037 C 
HETATM    3  N   UNL     1     -10.558   2.602 -33.388  1.00  0.00    -0.192 N 
HETATM    4  C   UNL     1      -9.958   3.756 -33.746  1.00  0.00     0.725 A 
HETATM    5  N   UNL     1      -8.600   3.873 -33.625  1.00  0.00    -0.084 N 
HETATM    6  N   UNL     1      -8.161   5.039 -34.151  1.00  0.00    -0.149 NA
HETATM    7  C   UNL     1      -9.323   5.601 -34.502  1.00  0.00     0.275 A 
HETATM    8  N   UNL     1     -10.447   4.848 -34.273  1.00  0.00    -0.054 NA
HETATM    9  C   UNL     1      -7.732   2.829 -33.069  1.00  0.00     0.205 C 
HETATM   10  C   UNL     1      -8.500   1.514 -32.913  1.00  0.00     0.063 C 
HETATM   11  H   UNL     1     -11.543   2.497 -33.617  1.00  0.00     0.184 HD
ENDROOT
BRANCH   9  12
HETATM   12  C   UNL     1      -7.119   3.338 -31.762  1.00  0.00     0.005 A 
HETATM   13  C   UNL     1      -5.719   3.362 -31.592  1.00  0.00     0.083 A 
HETATM   14  C   UNL     1      -5.169   3.847 -30.400  1.00  0.00     0.037 A 
HETATM   15  C   UNL     1      -5.992   4.350 -29.393  1.00  0.00     0.003 A 
HETATM   16  C   UNL     1      -7.372   4.371 -29.566  1.00  0.00     0.001 A 
HETATM   17  C   UNL     1      -7.933   3.872 -30.741  1.00  0.00     0.012 A 
BRANCH  13  18
HETATM   18  O   UNL     1      -4.972   2.871 -32.626  1.00  0.00    -0.290 OA
BRANCH  18  19
HETATM   19  C   UNL     1      -3.596   2.600 -32.379  1.00  0.00     0.505 C 
HETATM   20  F   UNL     1      -3.285   1.325 -32.712  1.00  0.00    -0.184 F 
HETATM   21  F   UNL     1      -2.833   3.429 -33.134  1.00  0.00    -0.184 F 
ENDBRANCH  18  19
ENDBRANCH  13  18
ENDBRANCH   9  12
BRANCH  10  22
HETATM   22  C   UNL     1      -7.628   0.328 -32.695  1.00  0.00     0.256 C 
HETATM   23  N   UNL     1      -7.262  -0.308 -33.862  1.00  0.00    -0.323 N 
HETATM   24  H   UNL     1      -7.646   0.055 -34.724  1.00  0.00     0.169 HD
HETATM   25  O   UNL     1      -7.336   0.015 -31.548  1.00  0.00    -0.267 OA
BRANCH  23  26
HETATM   26  C   UNL     1      -6.358  -1.384 -33.999  1.00  0.00     0.035 A 
HETATM   27  C   UNL     1      -5.020  -1.333 -33.606  1.00  0.00     0.029 A 
HETATM   28  C   UNL     1      -4.179  -2.434 -33.805  1.00  0.00     0.002 A 
HETATM   29  C   UNL     1      -4.669  -3.592 -34.405  1.00  0.00     0.000 A 
HETATM   30  C   UNL     1      -6.003  -3.654 -34.797  1.00  0.00     0.002 A 
HETATM   31  C   UNL     1      -6.844  -2.557 -34.591  1.00  0.00     0.029 A 
ENDBRANCH  23  26
ENDBRANCH  10  22
TORSDOF 5
ENDMDL
MODEL 4
REMARK VINA RESULT:      -8.1      2.958      6.738
REMARK  5 active torsions:
REMARK  status: ('A' for Active; 'I' for Inactive)
REMARK    1  A    between atoms: C_9  and  C_10 
REMARK    2  A    between atoms: C_11  and  O_12 
REMARK    3  A    between atoms: O_12  and  C_13 
REMARK    4  A    between atoms: C_20  and  C_21 
REMARK       I    between atoms: C_21  and  N_22 
REMARK    5  A    between atoms: N_22  and  C_23 
ROOT
HETATM    1  C   UNL     1      -2.996   0.003 -31.208  1.00  0.00     0.070 C 
HETATM    2  C   UNL     1      -4.210   0.366 -32.026  1.00  0.00     0.037 C 
HETATM    3  N   UNL     1      -4.896  -0.709 -32.586  1.00  0.00    -0.192 N 
HETATM    4  C   UNL     1      -5.796  -0.559 -33.580  1.00  0.00     0.725 A 
HETATM    5  N   UNL     1      -6.212   0.697 -33.927  1.00  0.00    -0.084 N 
HETATM    6  N   UNL     1      -7.007   0.665 -35.020  1.00  0.00    -0.149 NA
HETATM    7  C   UNL     1      -7.081  -0.655 -35.229  1.00  0.00     0.275 A 
HETATM    8  N   UNL     1      -6.353  -1.439 -34.371  1.00  0.00    -0.054 NA
HETATM    9  C   UNL     1      -5.781   1.922 -33.244  1.00  0.00     0.205 C 
HETATM   10  C   UNL     1      -4.612   1.633 -32.300  1.00  0.00     0.063 C 
HETATM   11  H   UNL     1      -4.505  -1.637 -32.446  1.00  0.00     0.184 HD
ENDROOT
BRANCH   9  12
HETATM   12  C   UNL     1      -6.989   2.551 -32.545  1.00  0.00     0.005 A 
HETATM   13  C   UNL     1      -7.534   3.765 -33.015  1.00  0.00     0.083 A 
HETATM   14  C   UNL     1      -8.650   4.321 -32.379  1.00  0.00     0.037 A 
HETATM   15  C   UNL     1      -9.258   3.663 -31.311  1.00  0.00     0.003 A 
HETATM   16  C   UNL     1      -8.756   2.445 -30.866  1.00  0.00     0.001 A 
HETATM   17  C   UNL     1      -7.633   1.890 -31.478  1.00  0.00     0.012 A 
BRANCH  13  18
HETATM   18  O   UNL     1      -6.899   4.346 -34.077  1.00  0.00    -0.290 OA
BRANCH  18  19
HETATM   19  C   UNL     1      -6.028   5.440 -33.809  1.00  0.00     0.505 C 
HETATM   20  F   UNL     1      -5.647   5.452 -32.510  1.00  0.00    -0.184 F 
HETATM   21  F   UNL     1      -4.913   5.323 -34.572  1.00  0.00    -0.184 F 
ENDBRANCH  18  19
ENDBRANCH  13  18
ENDBRANCH   9  12
BRANCH  10  22
HETATM   22  C   UNL     1      -3.890   2.851 -31.841  1.00  0.00     0.256 C 
HETATM   23  N   UNL     1      -2.894   3.257 -32.702  1.00  0.00    -0.323 N 
HETATM   24  H   UNL     1      -2.724   2.682 -33.516  1.00  0.00     0.169 HD
HETATM   25  O   UNL     1      -4.212   3.358 -30.775  1.00  0.00    -0.267 OA
BRANCH  23  26
HETATM   26  C   UNL     1      -2.112   4.430 -32.608  1.00  0.00     0.035 A 
HETATM   27  C   UNL     1      -1.484   4.857 -31.437  1.00  0.00     0.029 A 
HETATM   28  C   UNL     1      -0.752   6.050 -31.419  1.00  0.00     0.002 A 
HETATM   29  C   UNL     1      -0.647   6.827 -32.570  1.00  0.00     0.000 A 
HETATM   30  C   UNL     1      -1.268   6.408 -33.744  1.00  0.00     0.002 A 
HETATM   31  C   UNL     1      -1.993   5.213 -33.764  1.00  0.00     0.029 A 
ENDBRANCH  23  26
ENDBRANCH  10  22
TORSDOF 5
ENDMDL
MODEL 5
REMARK VINA RESULT:      -7.8      2.044      2.307
REMARK  5 active torsions:
REMARK  status: ('A' for Active; 'I' for Inactive)
REMARK    1  A    between atoms: C_9  and  C_10 
REMARK    2  A    between atoms: C_11  and  O_12 
REMARK    3  A    between atoms: O_12  and  C_13 
REMARK    4  A    between atoms: C_20  and  C_21 
REMARK       I    between atoms: C_21  and  N_22 
REMARK    5  A    between atoms: N_22  and  C_23 
ROOT
HETATM    1  C   UNL     1      -8.924   5.539 -30.690  1.00  0.00     0.070 C 
HETATM    2  C   UNL     1      -7.912   4.871 -31.586  1.00  0.00     0.037 C 
HETATM    3  N   UNL     1      -6.769   5.619 -31.858  1.00  0.00    -0.192 N 
HETATM    4  C   UNL     1      -5.925   5.317 -32.866  1.00  0.00     0.725 A 
HETATM    5  N   UNL     1      -6.065   4.127 -33.527  1.00  0.00    -0.084 N 
HETATM    6  N   UNL     1      -5.224   4.052 -34.583  1.00  0.00    -0.149 NA
HETATM    7  C   UNL     1      -4.559   5.205 -34.447  1.00  0.00     0.275 A 
HETATM    8  N   UNL     1      -4.958   6.010 -33.410  1.00  0.00    -0.054 NA
HETATM    9  C   UNL     1      -7.058   3.106 -33.176  1.00  0.00     0.205 C 
HETATM   10  C   UNL     1      -8.077   3.661 -32.179  1.00  0.00     0.063 C 
HETATM   11  H   UNL     1      -6.728   6.563 -31.481  1.00  0.00     0.184 HD
ENDROOT
BRANCH   9  12
HETATM   12  C   UNL     1      -6.328   1.857 -32.673  1.00  0.00     0.005 A 
HETATM   13  C   UNL     1      -6.149   0.745 -33.521  1.00  0.00     0.083 A 
HETATM   14  C   UNL     1      -5.464  -0.384 -33.057  1.00  0.00     0.037 A 
HETATM   15  C   UNL     1      -4.916  -0.402 -31.774  1.00  0.00     0.003 A 
HETATM   16  C   UNL     1      -5.049   0.705 -30.944  1.00  0.00     0.001 A 
HETATM   17  C   UNL     1      -5.747   1.828 -31.388  1.00  0.00     0.012 A 
BRANCH  13  18
HETATM   18  O   UNL     1      -6.696   0.838 -34.771  1.00  0.00    -0.290 OA
BRANCH  18  19
HETATM   19  C   UNL     1      -7.830   0.027 -35.059  1.00  0.00     0.505 C 
HETATM   20  F   UNL     1      -7.454  -1.227 -35.408  1.00  0.00    -0.184 F 
HETATM   21  F   UNL     1      -8.612  -0.060 -33.955  1.00  0.00    -0.184 F 
ENDBRANCH  18  19
ENDBRANCH  13  18
ENDBRANCH   9  12
BRANCH  10  22
HETATM   22  C   UNL     1      -9.302   2.828 -32.039  1.00  0.00     0.256 C 
HETATM   23  N   UNL     1     -10.273   3.118 -32.974  1.00  0.00    -0.323 N 
HETATM   24  H   UNL     1     -10.084   3.875 -33.617  1.00  0.00     0.169 HD
HETATM   25  O   UNL     1      -9.355   2.005 -31.135  1.00  0.00    -0.267 OA
BRANCH  23  26
HETATM   26  C   UNL     1     -11.491   2.433 -33.177  1.00  0.00     0.035 A 
HETATM   27  C   UNL     1     -11.588   1.165 -33.752  1.00  0.00     0.029 A 
HETATM   28  C   UNL     1     -12.837   0.567 -33.948  1.00  0.00     0.002 A 
HETATM   29  C   UNL     1     -14.001   1.235 -33.575  1.00  0.00     0.000 A 
HETATM   30  C   UNL     1     -13.916   2.499 -32.998  1.00  0.00     0.002 A 
HETATM   31  C   UNL     1     -12.668   3.093 -32.796  1.00  0.00     0.029 A 
ENDBRANCH  23  26
ENDBRANCH  10  22
TORSDOF 5
ENDMDL
MODEL 6
REMARK VINA RESULT:      -7.8      2.512      5.337
REMARK  5 active torsions:
REMARK  status: ('A' for Active; 'I' for Inactive)
REMARK    1  A    between atoms: C_9  and  C_10 
REMARK    2  A    between atoms: C_11  and  O_12 
REMARK    3  A    between atoms: O_12  and  C_13 
REMARK    4  A    between atoms: C_20  and  C_21 
REMARK       I    between atoms: C_21  and  N_22 
REMARK    5  A    between atoms: N_22  and  C_23 
ROOT
HETATM    1  C   UNL     1      -3.433   2.152 -32.306  1.00  0.00     0.070 C 
HETATM    2  C   UNL     1      -4.856   2.409 -31.879  1.00  0.00     0.037 C 
HETATM    3  N   UNL     1      -5.150   3.728 -31.542  1.00  0.00    -0.192 N 
HETATM    4  C   UNL     1      -6.258   4.073 -30.855  1.00  0.00     0.725 A 
HETATM    5  N   UNL     1      -7.239   3.142 -30.647  1.00  0.00    -0.084 N 
HETATM    6  N   UNL     1      -8.206   3.623 -29.834  1.00  0.00    -0.149 NA
HETATM    7  C   UNL     1      -7.773   4.876 -29.654  1.00  0.00     0.275 A 
HETATM    8  N   UNL     1      -6.583   5.192 -30.260  1.00  0.00    -0.054 NA
HETATM    9  C   UNL     1      -7.196   1.774 -31.177  1.00  0.00     0.205 C 
HETATM   10  C   UNL     1      -5.809   1.453 -31.737  1.00  0.00     0.063 C 
HETATM   11  H   UNL     1      -4.384   4.397 -31.560  1.00  0.00     0.184 HD
ENDROOT
BRANCH   9  12
HETATM   12  C   UNL     1      -8.323   1.604 -32.200  1.00  0.00     0.005 A 
HETATM   13  C   UNL     1      -8.376   2.424 -33.347  1.00  0.00     0.083 A 
HETATM   14  C   UNL     1      -9.399   2.247 -34.284  1.00  0.00     0.037 A 
HETATM   15  C   UNL     1     -10.345   1.235 -34.119  1.00  0.00     0.003 A 
HETATM   16  C   UNL     1     -10.278   0.393 -33.015  1.00  0.00     0.001 A 
HETATM   17  C   UNL     1      -9.275   0.572 -32.063  1.00  0.00     0.012 A 
BRANCH  13  18
HETATM   18  O   UNL     1      -7.407   3.383 -33.454  1.00  0.00    -0.290 OA
BRANCH  18  19
HETATM   19  C   UNL     1      -7.812   4.694 -33.834  1.00  0.00     0.505 C 
HETATM   20  F   UNL     1      -8.665   5.222 -32.924  1.00  0.00    -0.184 F 
HETATM   21  F   UNL     1      -6.723   5.497 -33.905  1.00  0.00    -0.184 F 
ENDBRANCH  18  19
ENDBRANCH  13  18
ENDBRANCH   9  12
BRANCH  10  22
HETATM   22  C   UNL     1      -5.572   0.002 -31.967  1.00  0.00     0.256 C 
HETATM   23  N   UNL     1      -5.953  -0.425 -33.221  1.00  0.00    -0.323 N 
HETATM   24  H   UNL     1      -6.386   0.257 -33.829  1.00  0.00     0.169 HD
HETATM   25  O   UNL     1      -5.097  -0.668 -31.060  1.00  0.00    -0.267 OA
BRANCH  23  26
HETATM   26  C   UNL     1      -5.755  -1.705 -33.782  1.00  0.00     0.035 A 
HETATM   27  C   UNL     1      -4.507  -2.318 -33.907  1.00  0.00     0.029 A 
HETATM   28  C   UNL     1      -4.391  -3.579 -34.504  1.00  0.00     0.002 A 
HETATM   29  C   UNL     1      -5.522  -4.233 -34.986  1.00  0.00     0.000 A 
HETATM   30  C   UNL     1      -6.772  -3.633 -34.864  1.00  0.00     0.002 A 
HETATM   31  C   UNL     1      -6.888  -2.377 -34.261  1.00  0.00     0.029 A 
ENDBRANCH  23  26
ENDBRANCH  10  22
TORSDOF 5
ENDMDL
MODEL 7
REMARK VINA RESULT:      -7.5      4.140      6.458
REMARK  5 active torsions:
REMARK  status: ('A' for Active; 'I' for Inactive)
REMARK    1  A    between atoms: C_9  and  C_10 
REMARK    2  A    between atoms: C_11  and  O_12 
REMARK    3  A    between atoms: O_12  and  C_13 
REMARK    4  A    between atoms: C_20  and  C_21 
REMARK       I    between atoms: C_21  and  N_22 
REMARK    5  A    between atoms: N_22  and  C_23 
ROOT
HETATM    1  C   UNL     1      -6.446   5.224 -29.055  1.00  0.00     0.070 C 
HETATM    2  C   UNL     1      -5.414   6.126 -29.683  1.00  0.00     0.037 C 
HETATM    3  N   UNL     1      -5.329   7.407 -29.141  1.00  0.00    -0.192 N 
HETATM    4  C   UNL     1      -4.699   8.422 -29.768  1.00  0.00     0.725 A 
HETATM    5  N   UNL     1      -3.939   8.160 -30.875  1.00  0.00    -0.084 N 
HETATM    6  N   UNL     1      -3.494   9.304 -31.444  1.00  0.00    -0.149 NA
HETATM    7  C   UNL     1      -3.968  10.207 -30.578  1.00  0.00     0.275 A 
HETATM    8  N   UNL     1      -4.713   9.709 -29.539  1.00  0.00    -0.054 NA
HETATM    9  C   UNL     1      -3.709   6.815 -31.413  1.00  0.00     0.205 C 
HETATM   10  C   UNL     1      -4.645   5.801 -30.753  1.00  0.00     0.063 C 
HETATM   11  H   UNL     1      -5.993   7.649 -28.410  1.00  0.00     0.184 HD
ENDROOT
BRANCH   9  12
HETATM   12  C   UNL     1      -2.225   6.467 -31.261  1.00  0.00     0.005 A 
HETATM   13  C   UNL     1      -1.409   6.311 -32.401  1.00  0.00     0.083 A 
HETATM   14  C   UNL     1      -0.050   6.012 -32.250  1.00  0.00     0.037 A 
HETATM   15  C   UNL     1       0.516   5.910 -30.979  1.00  0.00     0.003 A 
HETATM   16  C   UNL     1      -0.270   6.105 -29.848  1.00  0.00     0.001 A 
HETATM   17  C   UNL     1      -1.629   6.384 -29.986  1.00  0.00     0.012 A 
BRANCH  13  18
HETATM   18  O   UNL     1      -2.025   6.442 -33.614  1.00  0.00    -0.290 OA
BRANCH  18  19
HETATM   19  C   UNL     1      -2.100   5.290 -34.446  1.00  0.00     0.505 C 
HETATM   20  F   UNL     1      -1.046   5.234 -35.295  1.00  0.00    -0.184 F 
HETATM   21  F   UNL     1      -2.078   4.176 -33.674  1.00  0.00    -0.184 F 
ENDBRANCH  18  19
ENDBRANCH  13  18
ENDBRANCH   9  12
BRANCH  10  22
HETATM   22  C   UNL     1      -4.731   4.500 -31.472  1.00  0.00     0.256 C 
HETATM   23  N   UNL     1      -4.237   3.437 -30.747  1.00  0.00    -0.323 N 
HETATM   24  H   UNL     1      -3.835   3.643 -29.842  1.00  0.00     0.169 HD
HETATM   25  O   UNL     1      -5.194   4.484 -32.605  1.00  0.00    -0.267 OA
BRANCH  23  26
HETATM   26  C   UNL     1      -4.280   2.071 -31.101  1.00  0.00     0.035 A 
HETATM   27  C   UNL     1      -3.347   1.451 -31.934  1.00  0.00     0.029 A 
HETATM   28  C   UNL     1      -3.478   0.097 -32.263  1.00  0.00     0.002 A 
HETATM   29  C   UNL     1      -4.546  -0.646 -31.766  1.00  0.00     0.000 A 
HETATM   30  C   UNL     1      -5.480  -0.038 -30.931  1.00  0.00     0.002 A 
HETATM   31  C   UNL     1      -5.345   1.312 -30.597  1.00  0.00     0.029 A 
ENDBRANCH  23  26
ENDBRANCH  10  22
TORSDOF 5
ENDMDL
MODEL 8
REMARK VINA RESULT:      -7.5      3.062      6.136
REMARK  5 active torsions:
REMARK  status: ('A' for Active; 'I' for Inactive)
REMARK    1  A    between atoms: C_9  and  C_10 
REMARK    2  A    between atoms: C_11  and  O_12 
REMARK    3  A    between atoms: O_12  and  C_13 
REMARK    4  A    between atoms: C_20  and  C_21 
REMARK       I    between atoms: C_21  and  N_22 
REMARK    5  A    between atoms: N_22  and  C_23 
ROOT
HETATM    1  C   UNL     1      -5.621   3.749 -34.420  1.00  0.00     0.070 C 
HETATM    2  C   UNL     1      -6.855   3.456 -33.603  1.00  0.00     0.037 C 
HETATM    3  N   UNL     1      -7.292   4.497 -32.786  1.00  0.00    -0.192 N 
HETATM    4  C   UNL     1      -8.169   4.311 -31.779  1.00  0.00     0.725 A 
HETATM    5  N   UNL     1      -8.818   3.111 -31.664  1.00  0.00    -0.084 N 
HETATM    6  N   UNL     1      -9.553   3.059 -30.531  1.00  0.00    -0.149 NA
HETATM    7  C   UNL     1      -9.354   4.293 -30.054  1.00  0.00     0.275 A 
HETATM    8  N   UNL     1      -8.512   5.091 -30.787  1.00  0.00    -0.054 NA
HETATM    9  C   UNL     1      -8.664   2.002 -32.612  1.00  0.00     0.205 C 
HETATM   10  C   UNL     1      -7.494   2.260 -33.562  1.00  0.00     0.063 C 
HETATM   11  H   UNL     1      -6.728   5.342 -32.765  1.00  0.00     0.184 HD
ENDROOT
BRANCH   9  12
HETATM   12  C   UNL     1      -9.998   1.777 -33.332  1.00  0.00     0.005 A 
HETATM   13  C   UNL     1     -10.449   2.697 -34.301  1.00  0.00     0.083 A 
HETATM   14  C   UNL     1     -11.660   2.472 -34.965  1.00  0.00     0.037 A 
HETATM   15  C   UNL     1     -12.405   1.321 -34.711  1.00  0.00     0.003 A 
HETATM   16  C   UNL     1     -11.948   0.385 -33.789  1.00  0.00     0.001 A 
HETATM   17  C   UNL     1     -10.754   0.608 -33.106  1.00  0.00     0.012 A 
BRANCH  13  18
HETATM   18  O   UNL     1      -9.661   3.794 -34.513  1.00  0.00    -0.290 OA
BRANCH  18  19
HETATM   19  C   UNL     1     -10.304   5.058 -34.636  1.00  0.00     0.505 C 
HETATM   20  F   UNL     1     -10.848   5.444 -33.457  1.00  0.00    -0.184 F 
HETATM   21  F   UNL     1      -9.393   5.991 -35.005  1.00  0.00    -0.184 F 
ENDBRANCH  18  19
ENDBRANCH  13  18
ENDBRANCH   9  12
BRANCH  10  22
HETATM   22  C   UNL     1      -7.047   1.054 -34.313  1.00  0.00     0.256 C 
HETATM   23  N   UNL     1      -6.503   0.076 -33.508  1.00  0.00    -0.323 N 
HETATM   24  H   UNL     1      -6.420   0.283 -32.522  1.00  0.00     0.169 HD
HETATM   25  O   UNL     1      -7.176   1.037 -35.529  1.00  0.00    -0.267 OA
BRANCH  23  26
HETATM   26  C   UNL     1      -6.095  -1.218 -33.897  1.00  0.00     0.035 A 
HETATM   27  C   UNL     1      -4.764  -1.636 -33.946  1.00  0.00     0.029 A 
HETATM   28  C   UNL     1      -4.440  -2.929 -34.374  1.00  0.00     0.002 A 
HETATM   29  C   UNL     1      -5.445  -3.812 -34.762  1.00  0.00     0.000 A 
HETATM   30  C   UNL     1      -6.776  -3.406 -34.715  1.00  0.00     0.002 A 
HETATM   31  C   UNL     1      -7.100  -2.118 -34.280  1.00  0.00     0.029 A 
ENDBRANCH  23  26
ENDBRANCH  10  22
TORSDOF 5
ENDMDL
MODEL 9
REMARK VINA RESULT:      -7.4      4.575      7.594
REMARK  5 active torsions:
REMARK  status: ('A' for Active; 'I' for Inactive)
REMARK    1  A    between atoms: C_9  and  C_10 
REMARK    2  A    between atoms: C_11  and  O_12 
REMARK    3  A    between atoms: O_12  and  C_13 
REMARK    4  A    between atoms: C_20  and  C_21 
REMARK       I    between atoms: C_21  and  N_22 
REMARK    5  A    between atoms: N_22  and  C_23 
ROOT
HETATM    1  C   UNL     1      -7.607   4.494 -30.434  1.00  0.00     0.070 C 
HETATM    2  C   UNL     1      -6.281   3.929 -30.876  1.00  0.00     0.037 C 
HETATM    3  N   UNL     1      -6.311   2.610 -31.322  1.00  0.00    -0.192 N 
HETATM    4  C   UNL     1      -5.198   1.861 -31.454  1.00  0.00     0.725 A 
HETATM    5  N   UNL     1      -3.970   2.456 -31.347  1.00  0.00    -0.084 N 
HETATM    6  N   UNL     1      -2.977   1.539 -31.376  1.00  0.00    -0.149 NA
HETATM    7  C   UNL     1      -3.685   0.421 -31.576  1.00  0.00     0.275 A 
HETATM    8  N   UNL     1      -5.047   0.574 -31.629  1.00  0.00    -0.054 NA
HETATM    9  C   UNL     1      -3.771   3.896 -31.146  1.00  0.00     0.205 C 
HETATM   10  C   UNL     1      -5.093   4.582 -30.796  1.00  0.00     0.063 C 
HETATM   11  H   UNL     1      -7.201   2.120 -31.269  1.00  0.00     0.184 HD
ENDROOT
BRANCH   9  12
HETATM   12  C   UNL     1      -3.090   4.480 -32.387  1.00  0.00     0.005 A 
HETATM   13  C   UNL     1      -1.709   4.766 -32.375  1.00  0.00     0.083 A 
HETATM   14  C   UNL     1      -1.093   5.282 -33.521  1.00  0.00     0.037 A 
HETATM   15  C   UNL     1      -1.824   5.475 -34.693  1.00  0.00     0.003 A 
HETATM   16  C   UNL     1      -3.177   5.156 -34.730  1.00  0.00     0.001 A 
HETATM   17  C   UNL     1      -3.806   4.660 -33.589  1.00  0.00     0.012 A 
BRANCH  13  18
HETATM   18  O   UNL     1      -1.050   4.536 -31.199  1.00  0.00    -0.290 OA
BRANCH  18  19
HETATM   19  C   UNL     1       0.031   5.400 -30.866  1.00  0.00     0.505 C 
HETATM   20  F   UNL     1       0.031   5.689 -29.542  1.00  0.00    -0.184 F 
HETATM   21  F   UNL     1       1.204   4.788 -31.162  1.00  0.00    -0.184 F 
ENDBRANCH  18  19
ENDBRANCH  13  18
ENDBRANCH   9  12
BRANCH  10  22
HETATM   22  C   UNL     1      -4.934   5.952 -30.238  1.00  0.00     0.256 C 
HETATM   23  N   UNL     1      -4.162   5.995 -29.097  1.00  0.00    -0.323 N 
HETATM   24  H   UNL     1      -3.826   5.113 -28.734  1.00  0.00     0.169 HD
HETATM   25  O   UNL     1      -5.492   6.885 -30.800  1.00  0.00    -0.267 OA
BRANCH  23  26
HETATM   26  C   UNL     1      -3.735   7.146 -28.400  1.00  0.00     0.035 A 
HETATM   27  C   UNL     1      -4.464   7.756 -27.378  1.00  0.00     0.029 A 
HETATM   28  C   UNL     1      -3.985   8.915 -26.757  1.00  0.00     0.002 A 
HETATM   29  C   UNL     1      -2.774   9.476 -27.157  1.00  0.00     0.000 A 
HETATM   30  C   UNL     1      -2.037   8.873 -28.173  1.00  0.00     0.002 A 
HETATM   31  C   UNL     1      -2.513   7.712 -28.787  1.00  0.00     0.029 A 
ENDBRANCH  23  26
ENDBRANCH  10  22
TORSDOF 5
ENDMDL
MODEL 10
REMARK VINA RESULT:      -7.4      2.498      5.975
REMARK  5 active torsions:
REMARK  status: ('A' for Active; 'I' for Inactive)
REMARK    1  A    between atoms: C_9  and  C_10 
REMARK    2  A    between atoms: C_11  and  O_12 
REMARK    3  A    between atoms: O_12  and  C_13 
REMARK    4  A    between atoms: C_20  and  C_21 
REMARK       I    between atoms: C_21  and  N_22 
REMARK    5  A    between atoms: N_22  and  C_23 
ROOT
HETATM    1  C   UNL     1      -5.124   3.864 -33.709  1.00  0.00     0.070 C 
HETATM    2  C   UNL     1      -6.544   3.828 -33.204  1.00  0.00     0.037 C 
HETATM    3  N   UNL     1      -6.918   4.896 -32.393  1.00  0.00    -0.192 N 
HETATM    4  C   UNL     1      -8.021   4.869 -31.616  1.00  0.00     0.725 A 
HETATM    5  N   UNL     1      -8.924   3.852 -31.766  1.00  0.00    -0.084 N 
HETATM    6  N   UNL     1      -9.891   3.914 -30.823  1.00  0.00    -0.149 NA
HETATM    7  C   UNL     1      -9.541   5.039 -30.188  1.00  0.00     0.275 A 
HETATM    8  N   UNL     1      -8.401   5.654 -30.641  1.00  0.00    -0.054 NA
HETATM    9  C   UNL     1      -8.805   2.791 -32.771  1.00  0.00     0.205 C 
HETATM   10  C   UNL     1      -7.421   2.815 -33.423  1.00  0.00     0.063 C 
HETATM   11  H   UNL     1      -6.203   5.583 -32.165  1.00  0.00     0.184 HD
ENDROOT
BRANCH   9  12
HETATM   12  C   UNL     1      -9.955   2.926 -33.773  1.00  0.00     0.005 A 
HETATM   13  C   UNL     1     -11.027   2.009 -33.758  1.00  0.00     0.083 A 
HETATM   14  C   UNL     1     -12.082   2.154 -34.666  1.00  0.00     0.037 A 
HETATM   15  C   UNL     1     -12.107   3.225 -35.559  1.00  0.00     0.003 A 
HETATM   16  C   UNL     1     -11.077   4.160 -35.555  1.00  0.00     0.001 A 
HETATM   17  C   UNL     1     -10.011   4.015 -34.668  1.00  0.00     0.012 A 
BRANCH  13  18
HETATM   18  O   UNL     1     -10.947   0.995 -32.845  1.00  0.00    -0.290 OA
BRANCH  18  19
HETATM   19  C   UNL     1     -11.229  -0.326 -33.296  1.00  0.00     0.505 C 
HETATM   20  F   UNL     1     -10.676  -1.248 -32.472  1.00  0.00    -0.184 F 
HETATM   21  F   UNL     1     -12.570  -0.520 -33.304  1.00  0.00    -0.184 F 
ENDBRANCH  18  19
ENDBRANCH  13  18
ENDBRANCH   9  12
BRANCH  10  22
HETATM   22  C   UNL     1      -7.090   1.581 -34.185  1.00  0.00     0.256 C 
HETATM   23  N   UNL     1      -6.528   0.589 -33.410  1.00  0.00    -0.323 N 
HETATM   24  H   UNL     1      -6.359   0.806 -32.436  1.00  0.00     0.169 HD
HETATM   25  O   UNL     1      -7.315   1.553 -35.388  1.00  0.00    -0.267 OA
BRANCH  23  26
HETATM   26  C   UNL     1      -6.211  -0.728 -33.808  1.00  0.00     0.035 A 
HETATM   27  C   UNL     1      -7.149  -1.646 -34.283  1.00  0.00     0.029 A 
HETATM   28  C   UNL     1      -6.759  -2.945 -34.628  1.00  0.00     0.002 A 
HETATM   29  C   UNL     1      -5.429  -3.337 -34.495  1.00  0.00     0.000 A 
HETATM   30  C   UNL     1      -4.485  -2.428 -34.025  1.00  0.00     0.002 A 
HETATM   31  C   UNL     1      -4.874  -1.129 -33.687  1.00  0.00     0.029 A 
ENDBRANCH  23  26
ENDBRANCH  10  22
TORSDOF 5
ENDMDL
