MODEL 1
REMARK VINA RESULT:      -8.6      0.000      0.000
REMARK  6 active torsions:
REMARK  status: ('A' for Active; 'I' for Inactive)
REMARK    1  A    between atoms: C_3  and  N_4 
REMARK       I    between atoms: N_4  and  C_5 
REMARK       I    between atoms: C_5  and  N_6 
REMARK    2  A    between atoms: N_6  and  C_7 
REMARK    3  A    between atoms: C_7  and  C_8 
REMARK    4  A    between atoms: C_10  and  C_11 
REMARK       I    between atoms: C_11  and  N_12 
REMARK    5  A    between atoms: N_12  and  C_13 
REMARK    6  A    between atoms: C_13  and  C_14 
ROOT
HETATM    1  C   UNL     1      -6.010   0.579 -33.011  1.00  0.00    -0.040 A 
HETATM    2  C   UNL     1      -7.166   1.375 -33.006  1.00  0.00     0.026 A 
HETATM    3  C   UNL     1      -8.173   1.181 -33.959  1.00  0.00     0.032 A 
HETATM    4  C   UNL     1      -8.005   0.213 -34.954  1.00  0.00     0.017 A 
HETATM    5  C   UNL     1      -6.858  -0.583 -34.968  1.00  0.00     0.002 A 
HETATM    6  C   UNL     1      -5.871  -0.409 -33.995  1.00  0.00     0.009 A 
ENDROOT
BRANCH   1   7
HETATM    7  C   UNL     1      -4.962   0.773 -31.945  1.00  0.00     0.162 C 
BRANCH   7   8
HETATM    8  N   UNL     1      -3.810   1.508 -32.429  1.00  0.00    -0.339 N 
HETATM    9  C   UNL     1      -3.757   2.886 -32.314  1.00  0.00     0.321 C 
HETATM   10  N   UNL     1      -2.606   3.362 -32.899  1.00  0.00    -0.307 N 
HETATM   11  O   UNL     1      -4.614   3.538 -31.737  1.00  0.00    -0.247 OA
HETATM   12  H   UNL     1      -1.866   2.675 -32.894  1.00  0.00     0.170 HD
HETATM   13  H   UNL     1      -3.383   1.145 -33.267  1.00  0.00     0.164 HD
BRANCH  10  14
HETATM   14  C   UNL     1      -2.195   4.703 -33.089  1.00  0.00     0.059 A 
HETATM   15  C   UNL     1      -2.640   5.601 -34.070  1.00  0.00    -0.032 A 
HETATM   16  C   UNL     1      -3.626   5.286 -35.157  1.00  0.00     0.050 C 
HETATM   17  C   UNL     1      -2.116   6.910 -34.060  1.00  0.00     0.028 A 
HETATM   18  C   UNL     1      -1.145   7.259 -33.137  1.00  0.00     0.117 A 
HETATM   19  N   UNL     1      -0.655   6.407 -32.221  1.00  0.00    -0.271 NA
HETATM   20  C   UNL     1      -1.191   5.164 -32.224  1.00  0.00     0.146 A 
ENDBRANCH  10  14
ENDBRANCH   7   8
ENDBRANCH   1   7
BRANCH   3  21
HETATM   21  C   UNL     1      -9.419   1.995 -33.951  1.00  0.00     0.252 C 
HETATM   22  N   UNL     1     -10.334   1.716 -34.937  1.00  0.00    -0.351 N 
HETATM   23  H   UNL     1     -10.151   1.013 -35.644  1.00  0.00     0.163 HD
HETATM   24  O   UNL     1      -9.581   2.871 -33.108  1.00  0.00    -0.268 OA
BRANCH  22  25
HETATM   25  C   UNL     1     -11.622   2.365 -34.971  1.00  0.00     0.187 C 
BRANCH  25  26
HETATM   26  C   UNL     1     -12.663   1.423 -34.487  1.00  0.00     0.070 A 
HETATM   27  O   UNL     1     -13.939   1.621 -34.933  1.00  0.00    -0.325 OA
HETATM   28  C   UNL     1     -14.715   0.666 -34.361  1.00  0.00     0.142 A 
HETATM   29  C   UNL     1     -13.956  -0.156 -33.562  1.00  0.00     0.027 A 
HETATM   30  C   UNL     1     -12.629   0.331 -33.643  1.00  0.00     0.036 A 
ENDBRANCH  25  26
ENDBRANCH  22  25
ENDBRANCH   3  21
TORSDOF 6
ENDMDL
MODEL 2
REMARK VINA RESULT:      -8.2      3.418      9.153
REMARK  6 active torsions:
REMARK  status: ('A' for Active; 'I' for Inactive)
REMARK    1  A    between atoms: C_3  and  N_4 
REMARK       I    between atoms: N_4  and  C_5 
REMARK       I    between atoms: C_5  and  N_6 
REMARK    2  A    between atoms: N_6  and  C_7 
REMARK    3  A    between atoms: C_7  and  C_8 
REMARK    4  A    between atoms: C_10  and  C_11 
REMARK       I    between atoms: C_11  and  N_12 
REMARK    5  A    between atoms: N_12  and  C_13 
REMARK    6  A    between atoms: C_13  and  C_14 
ROOT
HETATM    1  C   UNL     1      -7.366   2.826 -33.727  1.00  0.00    -0.040 A 
HETATM    2  C   UNL     1      -6.129   3.235 -34.249  1.00  0.00     0.026 A 
HETATM    3  C   UNL     1      -5.573   4.469 -33.892  1.00  0.00     0.032 A 
HETATM    4  C   UNL     1      -6.279   5.322 -33.040  1.00  0.00     0.017 A 
HETATM    5  C   UNL     1      -7.511   4.925 -32.516  1.00  0.00     0.002 A 
HETATM    6  C   UNL     1      -8.046   3.679 -32.848  1.00  0.00     0.009 A 
ENDROOT
BRANCH   1   7
HETATM    7  C   UNL     1      -7.921   1.471 -34.088  1.00  0.00     0.162 C 
BRANCH   7   8
HETATM    8  N   UNL     1      -6.898   0.567 -34.574  1.00  0.00    -0.339 N 
HETATM    9  C   UNL     1      -6.727  -0.678 -33.994  1.00  0.00     0.321 C 
HETATM   10  N   UNL     1      -5.662  -1.325 -34.576  1.00  0.00    -0.307 N 
HETATM   11  O   UNL     1      -7.464  -1.110 -33.121  1.00  0.00    -0.247 OA
HETATM   12  H   UNL     1      -5.502  -1.016 -35.524  1.00  0.00     0.170 HD
HETATM   13  H   UNL     1      -6.042   1.002 -34.880  1.00  0.00     0.164 HD
BRANCH  10  14
HETATM   14  C   UNL     1      -5.083  -2.570 -34.232  1.00  0.00     0.059 A 
HETATM   15  C   UNL     1      -5.483  -3.845 -34.658  1.00  0.00    -0.032 A 
HETATM   16  C   UNL     1      -6.659  -4.138 -35.543  1.00  0.00     0.050 C 
HETATM   17  C   UNL     1      -4.740  -4.958 -34.214  1.00  0.00     0.028 A 
HETATM   18  C   UNL     1      -3.686  -4.779 -33.334  1.00  0.00     0.117 A 
HETATM   19  N   UNL     1      -3.312  -3.578 -32.861  1.00  0.00    -0.271 NA
HETATM   20  C   UNL     1      -4.016  -2.518 -33.322  1.00  0.00     0.146 A 
ENDBRANCH  10  14
ENDBRANCH   7   8
ENDBRANCH   1   7
BRANCH   3  21
HETATM   21  C   UNL     1      -4.249   4.906 -34.412  1.00  0.00     0.252 C 
HETATM   22  N   UNL     1      -3.208   4.892 -33.514  1.00  0.00    -0.351 N 
HETATM   23  H   UNL     1      -3.349   4.625 -32.547  1.00  0.00     0.163 HD
HETATM   24  O   UNL     1      -4.129   5.269 -35.577  1.00  0.00    -0.268 OA
BRANCH  22  25
HETATM   25  C   UNL     1      -1.859   5.194 -33.925  1.00  0.00     0.187 C 
BRANCH  25  26
HETATM   26  C   UNL     1      -1.091   5.703 -32.760  1.00  0.00     0.070 A 
HETATM   27  O   UNL     1      -0.528   4.774 -31.930  1.00  0.00    -0.325 OA
HETATM   28  C   UNL     1       0.105   5.454 -30.941  1.00  0.00     0.142 A 
HETATM   29  C   UNL     1      -0.028   6.809 -31.127  1.00  0.00     0.027 A 
HETATM   30  C   UNL     1      -0.800   6.973 -32.302  1.00  0.00     0.036 A 
ENDBRANCH  25  26
ENDBRANCH  22  25
ENDBRANCH   3  21
TORSDOF 6
ENDMDL
MODEL 3
REMARK VINA RESULT:      -8.2      3.551     10.562
REMARK  6 active torsions:
REMARK  status: ('A' for Active; 'I' for Inactive)
REMARK    1  A    between atoms: C_3  and  N_4 
REMARK       I    between atoms: N_4  and  C_5 
REMARK       I    between atoms: C_5  and  N_6 
REMARK    2  A    between atoms: N_6  and  C_7 
REMARK    3  A    between atoms: C_7  and  C_8 
REMARK    4  A    between atoms: C_10  and  C_11 
REMARK       I    between atoms: C_11  and  N_12 
REMARK    5  A    between atoms: N_12  and  C_13 
REMARK    6  A    between atoms: C_13  and  C_14 
ROOT
HETATM    1  C   UNL     1      -3.533   4.388 -32.420  1.00  0.00    -0.040 A 
HETATM    2  C   UNL     1      -2.471   4.390 -31.502  1.00  0.00     0.026 A 
HETATM    3  C   UNL     1      -1.280   5.067 -31.787  1.00  0.00     0.032 A 
HETATM    4  C   UNL     1      -1.130   5.713 -33.017  1.00  0.00     0.017 A 
HETATM    5  C   UNL     1      -2.181   5.716 -33.937  1.00  0.00     0.002 A 
HETATM    6  C   UNL     1      -3.380   5.068 -33.636  1.00  0.00     0.009 A 
ENDROOT
BRANCH   1   7
HETATM    7  C   UNL     1      -4.825   3.694 -32.070  1.00  0.00     0.162 C 
BRANCH   7   8
HETATM    8  N   UNL     1      -4.683   2.252 -32.027  1.00  0.00    -0.339 N 
HETATM    9  C   UNL     1      -5.190   1.465 -33.047  1.00  0.00     0.321 C 
HETATM   10  N   UNL     1      -4.994   0.135 -32.755  1.00  0.00    -0.307 N 
HETATM   11  O   UNL     1      -5.695   1.930 -34.056  1.00  0.00    -0.247 OA
HETATM   12  H   UNL     1      -4.197  -0.008 -32.150  1.00  0.00     0.170 HD
HETATM   13  H   UNL     1      -4.748   1.835 -31.111  1.00  0.00     0.164 HD
BRANCH  10  14
HETATM   14  C   UNL     1      -5.432  -1.006 -33.469  1.00  0.00     0.059 A 
HETATM   15  C   UNL     1      -6.752  -1.359 -33.787  1.00  0.00    -0.032 A 
HETATM   16  C   UNL     1      -7.979  -0.600 -33.377  1.00  0.00     0.050 C 
HETATM   17  C   UNL     1      -6.963  -2.533 -34.539  1.00  0.00     0.028 A 
HETATM   18  C   UNL     1      -5.888  -3.331 -34.891  1.00  0.00     0.117 A 
HETATM   19  N   UNL     1      -4.618  -3.052 -34.554  1.00  0.00    -0.271 NA
HETATM   20  C   UNL     1      -4.429  -1.906 -33.860  1.00  0.00     0.146 A 
ENDBRANCH  10  14
ENDBRANCH   7   8
ENDBRANCH   1   7
BRANCH   3  21
HETATM   21  C   UNL     1      -0.155   5.105 -30.813  1.00  0.00     0.252 C 
HETATM   22  N   UNL     1      -0.438   5.633 -29.576  1.00  0.00    -0.351 N 
HETATM   23  H   UNL     1      -1.357   5.999 -29.357  1.00  0.00     0.163 HD
HETATM   24  O   UNL     1       0.957   4.698 -31.134  1.00  0.00    -0.268 OA
BRANCH  22  25
HETATM   25  C   UNL     1       0.541   5.629 -28.517  1.00  0.00     0.187 C 
BRANCH  25  26
HETATM   26  C   UNL     1       0.606   6.978 -27.899  1.00  0.00     0.070 A 
HETATM   27  O   UNL     1      -0.057   7.155 -26.717  1.00  0.00    -0.325 OA
HETATM   28  C   UNL     1       0.124   8.447 -26.347  1.00  0.00     0.142 A 
HETATM   29  C   UNL     1       0.906   9.106 -27.265  1.00  0.00     0.027 A 
HETATM   30  C   UNL     1       1.219   8.158 -28.269  1.00  0.00     0.036 A 
ENDBRANCH  25  26
ENDBRANCH  22  25
ENDBRANCH   3  21
TORSDOF 6
ENDMDL
MODEL 4
REMARK VINA RESULT:      -8.2      2.407      8.518
REMARK  6 active torsions:
REMARK  status: ('A' for Active; 'I' for Inactive)
REMARK    1  A    between atoms: C_3  and  N_4 
REMARK       I    between atoms: N_4  and  C_5 
REMARK       I    between atoms: C_5  and  N_6 
REMARK    2  A    between atoms: N_6  and  C_7 
REMARK    3  A    between atoms: C_7  and  C_8 
REMARK    4  A    between atoms: C_10  and  C_11 
REMARK       I    between atoms: C_11  and  N_12 
REMARK    5  A    between atoms: N_12  and  C_13 
REMARK    6  A    between atoms: C_13  and  C_14 
ROOT
HETATM    1  C   UNL     1      -6.595  -0.660 -34.589  1.00  0.00    -0.040 A 
HETATM    2  C   UNL     1      -5.860   0.130 -33.692  1.00  0.00     0.026 A 
HETATM    3  C   UNL     1      -4.705  -0.368 -33.078  1.00  0.00     0.032 A 
HETATM    4  C   UNL     1      -4.304  -1.684 -33.329  1.00  0.00     0.017 A 
HETATM    5  C   UNL     1      -5.029  -2.478 -34.220  1.00  0.00     0.002 A 
HETATM    6  C   UNL     1      -6.161  -1.965 -34.856  1.00  0.00     0.009 A 
ENDROOT
BRANCH   1   7
HETATM    7  C   UNL     1      -7.808  -0.083 -35.275  1.00  0.00     0.162 C 
BRANCH   7   8
HETATM    8  N   UNL     1      -8.200   1.197 -34.721  1.00  0.00    -0.339 N 
HETATM    9  C   UNL     1      -9.271   1.287 -33.849  1.00  0.00     0.321 C 
HETATM   10  N   UNL     1      -9.491   2.603 -33.511  1.00  0.00    -0.307 N 
HETATM   11  O   UNL     1      -9.877   0.310 -33.438  1.00  0.00    -0.247 OA
HETATM   12  H   UNL     1      -8.650   3.158 -33.576  1.00  0.00     0.170 HD
HETATM   13  H   UNL     1      -8.102   1.987 -35.340  1.00  0.00     0.164 HD
BRANCH  10  14
HETATM   14  C   UNL     1     -10.530   3.156 -32.725  1.00  0.00     0.059 A 
HETATM   15  C   UNL     1     -10.460   3.572 -31.387  1.00  0.00    -0.032 A 
HETATM   16  C   UNL     1      -9.252   3.463 -30.504  1.00  0.00     0.050 C 
HETATM   17  C   UNL     1     -11.616   4.128 -30.802  1.00  0.00     0.028 A 
HETATM   18  C   UNL     1     -12.794   4.194 -31.526  1.00  0.00     0.117 A 
HETATM   19  N   UNL     1     -12.911   3.752 -32.790  1.00  0.00    -0.271 NA
HETATM   20  C   UNL     1     -11.785   3.251 -33.347  1.00  0.00     0.146 A 
ENDBRANCH  10  14
ENDBRANCH   7   8
ENDBRANCH   1   7
BRANCH   3  21
HETATM   21  C   UNL     1      -3.896   0.465 -32.148  1.00  0.00     0.252 C 
HETATM   22  N   UNL     1      -4.143   1.817 -32.170  1.00  0.00    -0.351 N 
HETATM   23  H   UNL     1      -4.821   2.219 -32.808  1.00  0.00     0.163 HD
HETATM   24  O   UNL     1      -3.050  -0.054 -31.427  1.00  0.00    -0.268 OA
BRANCH  22  25
HETATM   25  C   UNL     1      -3.498   2.713 -31.243  1.00  0.00     0.187 C 
BRANCH  25  26
HETATM   26  C   UNL     1      -2.666   3.687 -31.995  1.00  0.00     0.070 A 
HETATM   27  O   UNL     1      -1.619   4.259 -31.328  1.00  0.00    -0.325 OA
HETATM   28  C   UNL     1      -1.014   5.113 -32.191  1.00  0.00     0.142 A 
HETATM   29  C   UNL     1      -1.646   5.092 -33.412  1.00  0.00     0.027 A 
HETATM   30  C   UNL     1      -2.714   4.170 -33.288  1.00  0.00     0.036 A 
ENDBRANCH  25  26
ENDBRANCH  22  25
ENDBRANCH   3  21
TORSDOF 6
ENDMDL
MODEL 5
REMARK VINA RESULT:      -8.1      2.026      8.392
REMARK  6 active torsions:
REMARK  status: ('A' for Active; 'I' for Inactive)
REMARK    1  A    between atoms: C_3  and  N_4 
REMARK       I    between atoms: N_4  and  C_5 
REMARK       I    between atoms: C_5  and  N_6 
REMARK    2  A    between atoms: N_6  and  C_7 
REMARK    3  A    between atoms: C_7  and  C_8 
REMARK    4  A    between atoms: C_10  and  C_11 
REMARK       I    between atoms: C_11  and  N_12 
REMARK    5  A    between atoms: N_12  and  C_13 
REMARK    6  A    between atoms: C_13  and  C_14 
ROOT
HETATM    1  C   UNL     1      -6.716  -0.661 -33.278  1.00  0.00    -0.040 A 
HETATM    2  C   UNL     1      -5.892   0.275 -32.632  1.00  0.00     0.026 A 
HETATM    3  C   UNL     1      -4.499   0.140 -32.657  1.00  0.00     0.032 A 
HETATM    4  C   UNL     1      -3.924  -0.962 -33.296  1.00  0.00     0.017 A 
HETATM    5  C   UNL     1      -4.735  -1.899 -33.940  1.00  0.00     0.002 A 
HETATM    6  C   UNL     1      -6.122  -1.743 -33.942  1.00  0.00     0.009 A 
ENDROOT
BRANCH   1   7
HETATM    7  C   UNL     1      -8.211  -0.468 -33.279  1.00  0.00     0.162 C 
BRANCH   7   8
HETATM    8  N   UNL     1      -8.636   0.559 -34.210  1.00  0.00    -0.339 N 
HETATM    9  C   UNL     1      -9.440   1.602 -33.787  1.00  0.00     0.321 C 
HETATM   10  N   UNL     1      -9.763   2.408 -34.854  1.00  0.00    -0.307 N 
HETATM   11  O   UNL     1      -9.760   1.763 -32.619  1.00  0.00    -0.247 OA
HETATM   12  H   UNL     1      -9.064   2.373 -35.582  1.00  0.00     0.170 HD
HETATM   13  H   UNL     1      -8.826   0.243 -35.148  1.00  0.00     0.164 HD
BRANCH  10  14
HETATM   14  C   UNL     1     -10.631   3.526 -34.893  1.00  0.00     0.059 A 
HETATM   15  C   UNL     1     -12.027   3.518 -35.028  1.00  0.00    -0.032 A 
HETATM   16  C   UNL     1     -12.878   2.296 -35.208  1.00  0.00     0.050 C 
HETATM   17  C   UNL     1     -12.703   4.755 -35.012  1.00  0.00     0.028 A 
HETATM   18  C   UNL     1     -11.985   5.935 -34.926  1.00  0.00     0.117 A 
HETATM   19  N   UNL     1     -10.644   5.981 -34.853  1.00  0.00    -0.271 NA
HETATM   20  C   UNL     1     -10.012   4.784 -34.838  1.00  0.00     0.146 A 
ENDBRANCH  10  14
ENDBRANCH   7   8
ENDBRANCH   1   7
BRANCH   3  21
HETATM   21  C   UNL     1      -3.609   1.139 -32.004  1.00  0.00     0.252 C 
HETATM   22  N   UNL     1      -3.743   2.440 -32.425  1.00  0.00    -0.351 N 
HETATM   23  H   UNL     1      -4.394   2.693 -33.159  1.00  0.00     0.163 HD
HETATM   24  O   UNL     1      -2.799   0.784 -31.154  1.00  0.00    -0.268 OA
BRANCH  22  25
HETATM   25  C   UNL     1      -3.010   3.511 -31.795  1.00  0.00     0.187 C 
BRANCH  25  26
HETATM   26  C   UNL     1      -2.443   4.402 -32.840  1.00  0.00     0.070 A 
HETATM   27  O   UNL     1      -3.157   4.538 -33.998  1.00  0.00    -0.325 OA
HETATM   28  C   UNL     1      -2.456   5.375 -34.803  1.00  0.00     0.142 A 
HETATM   29  C   UNL     1      -1.306   5.794 -34.177  1.00  0.00     0.027 A 
HETATM   30  C   UNL     1      -1.296   5.167 -32.908  1.00  0.00     0.036 A 
ENDBRANCH  25  26
ENDBRANCH  22  25
ENDBRANCH   3  21
TORSDOF 6
ENDMDL
MODEL 6
REMARK VINA RESULT:      -8.0      3.361      5.346
REMARK  6 active torsions:
REMARK  status: ('A' for Active; 'I' for Inactive)
REMARK    1  A    between atoms: C_3  and  N_4 
REMARK       I    between atoms: N_4  and  C_5 
REMARK       I    between atoms: C_5  and  N_6 
REMARK    2  A    between atoms: N_6  and  C_7 
REMARK    3  A    between atoms: C_7  and  C_8 
REMARK    4  A    between atoms: C_10  and  C_11 
REMARK       I    between atoms: C_11  and  N_12 
REMARK    5  A    between atoms: N_12  and  C_13 
REMARK    6  A    between atoms: C_13  and  C_14 
ROOT
HETATM    1  C   UNL     1      -7.224   3.673 -33.621  1.00  0.00    -0.040 A 
HETATM    2  C   UNL     1      -6.429   2.560 -33.305  1.00  0.00     0.026 A 
HETATM    3  C   UNL     1      -6.989   1.280 -33.224  1.00  0.00     0.032 A 
HETATM    4  C   UNL     1      -8.363   1.115 -33.419  1.00  0.00     0.017 A 
HETATM    5  C   UNL     1      -9.162   2.216 -33.733  1.00  0.00     0.002 A 
HETATM    6  C   UNL     1      -8.594   3.486 -33.846  1.00  0.00     0.009 A 
ENDROOT
BRANCH   1   7
HETATM    7  C   UNL     1      -6.589   5.035 -33.751  1.00  0.00     0.162 C 
BRANCH   7   8
HETATM    8  N   UNL     1      -5.678   5.326 -32.662  1.00  0.00    -0.339 N 
HETATM    9  C   UNL     1      -4.334   5.545 -32.909  1.00  0.00     0.321 C 
HETATM   10  N   UNL     1      -3.663   5.735 -31.723  1.00  0.00    -0.307 N 
HETATM   11  O   UNL     1      -3.865   5.591 -34.036  1.00  0.00    -0.247 OA
HETATM   12  H   UNL     1      -4.266   6.104 -31.000  1.00  0.00     0.170 HD
HETATM   13  H   UNL     1      -5.866   4.844 -31.796  1.00  0.00     0.164 HD
BRANCH  10  14
HETATM   14  C   UNL     1      -2.275   5.898 -31.504  1.00  0.00     0.059 A 
HETATM   15  C   UNL     1      -1.535   7.089 -31.561  1.00  0.00    -0.032 A 
HETATM   16  C   UNL     1      -2.084   8.438 -31.922  1.00  0.00     0.050 C 
HETATM   17  C   UNL     1      -0.156   7.029 -31.276  1.00  0.00     0.028 A 
HETATM   18  C   UNL     1       0.443   5.810 -31.009  1.00  0.00     0.117 A 
HETATM   19  N   UNL     1      -0.224   4.644 -31.002  1.00  0.00    -0.271 NA
HETATM   20  C   UNL     1      -1.553   4.723 -31.247  1.00  0.00     0.146 A 
ENDBRANCH  10  14
ENDBRANCH   7   8
ENDBRANCH   1   7
BRANCH   3  21
HETATM   21  C   UNL     1      -6.156   0.085 -32.920  1.00  0.00     0.252 C 
HETATM   22  N   UNL     1      -5.465  -0.461 -33.975  1.00  0.00    -0.351 N 
HETATM   23  H   UNL     1      -5.545  -0.080 -34.911  1.00  0.00     0.163 HD
HETATM   24  O   UNL     1      -6.125  -0.376 -31.783  1.00  0.00    -0.268 OA
BRANCH  22  25
HETATM   25  C   UNL     1      -4.546  -1.556 -33.784  1.00  0.00     0.187 C 
BRANCH  25  26
HETATM   26  C   UNL     1      -5.177  -2.817 -34.251  1.00  0.00     0.070 A 
HETATM   27  O   UNL     1      -4.438  -3.961 -34.142  1.00  0.00    -0.325 OA
HETATM   28  C   UNL     1      -5.194  -4.974 -34.633  1.00  0.00     0.142 A 
HETATM   29  C   UNL     1      -6.419  -4.504 -35.046  1.00  0.00     0.027 A 
HETATM   30  C   UNL     1      -6.410  -3.110 -34.799  1.00  0.00     0.036 A 
ENDBRANCH  25  26
ENDBRANCH  22  25
ENDBRANCH   3  21
TORSDOF 6
ENDMDL
MODEL 7
REMARK VINA RESULT:      -8.0      2.578      8.213
REMARK  6 active torsions:
REMARK  status: ('A' for Active; 'I' for Inactive)
REMARK    1  A    between atoms: C_3  and  N_4 
REMARK       I    between atoms: N_4  and  C_5 
REMARK       I    between atoms: C_5  and  N_6 
REMARK    2  A    between atoms: N_6  and  C_7 
REMARK    3  A    between atoms: C_7  and  C_8 
REMARK    4  A    between atoms: C_10  and  C_11 
REMARK       I    between atoms: C_11  and  N_12 
REMARK    5  A    between atoms: N_12  and  C_13 
REMARK    6  A    between atoms: C_13  and  C_14 
ROOT
HETATM    1  C   UNL     1      -5.550   4.604 -32.836  1.00  0.00    -0.040 A 
HETATM    2  C   UNL     1      -5.259   3.245 -32.639  1.00  0.00     0.026 A 
HETATM    3  C   UNL     1      -3.968   2.832 -32.291  1.00  0.00     0.032 A 
HETATM    4  C   UNL     1      -2.947   3.780 -32.180  1.00  0.00     0.017 A 
HETATM    5  C   UNL     1      -3.226   5.135 -32.375  1.00  0.00     0.002 A 
HETATM    6  C   UNL     1      -4.523   5.546 -32.689  1.00  0.00     0.009 A 
ENDROOT
BRANCH   1   7
HETATM    7  C   UNL     1      -6.960   5.029 -33.162  1.00  0.00     0.162 C 
BRANCH   7   8
HETATM    8  N   UNL     1      -7.695   4.003 -33.874  1.00  0.00    -0.339 N 
HETATM    9  C   UNL     1      -9.037   3.787 -33.608  1.00  0.00     0.321 C 
HETATM   10  N   UNL     1      -9.498   2.727 -34.354  1.00  0.00    -0.307 N 
HETATM   11  O   UNL     1      -9.683   4.485 -32.842  1.00  0.00    -0.247 OA
HETATM   12  H   UNL     1      -8.971   2.604 -35.207  1.00  0.00     0.170 HD
HETATM   13  H   UNL     1      -7.176   3.166 -34.091  1.00  0.00     0.164 HD
BRANCH  10  14
HETATM   14  C   UNL     1     -10.772   2.110 -34.328  1.00  0.00     0.059 A 
HETATM   15  C   UNL     1     -11.140   0.938 -33.651  1.00  0.00    -0.032 A 
HETATM   16  C   UNL     1     -10.216   0.072 -32.845  1.00  0.00     0.050 C 
HETATM   17  C   UNL     1     -12.481   0.514 -33.736  1.00  0.00     0.028 A 
HETATM   18  C   UNL     1     -13.380   1.215 -34.522  1.00  0.00     0.117 A 
HETATM   19  N   UNL     1     -13.047   2.308 -35.230  1.00  0.00    -0.271 NA
HETATM   20  C   UNL     1     -11.764   2.720 -35.111  1.00  0.00     0.146 A 
ENDBRANCH  10  14
ENDBRANCH   7   8
ENDBRANCH   1   7
BRANCH   3  21
HETATM   21  C   UNL     1      -3.648   1.399 -32.049  1.00  0.00     0.252 C 
HETATM   22  N   UNL     1      -4.267   0.490 -32.873  1.00  0.00    -0.351 N 
HETATM   23  H   UNL     1      -4.924   0.785 -33.585  1.00  0.00     0.163 HD
HETATM   24  O   UNL     1      -2.885   1.079 -31.144  1.00  0.00    -0.268 OA
BRANCH  22  25
HETATM   25  C   UNL     1      -3.958  -0.917 -32.803  1.00  0.00     0.187 C 
BRANCH  25  26
HETATM   26  C   UNL     1      -4.953  -1.681 -33.598  1.00  0.00     0.070 A 
HETATM   27  O   UNL     1      -4.486  -2.729 -34.341  1.00  0.00    -0.325 OA
HETATM   28  C   UNL     1      -5.551  -3.267 -34.986  1.00  0.00     0.142 A 
HETATM   29  C   UNL     1      -6.704  -2.591 -34.660  1.00  0.00     0.027 A 
HETATM   30  C   UNL     1      -6.319  -1.566 -33.762  1.00  0.00     0.036 A 
ENDBRANCH  25  26
ENDBRANCH  22  25
ENDBRANCH   3  21
TORSDOF 6
ENDMDL
MODEL 8
REMARK VINA RESULT:      -7.8      3.827      5.480
REMARK  6 active torsions:
REMARK  status: ('A' for Active; 'I' for Inactive)
REMARK    1  A    between atoms: C_3  and  N_4 
REMARK       I    between atoms: N_4  and  C_5 
REMARK       I    between atoms: C_5  and  N_6 
REMARK    2  A    between atoms: N_6  and  C_7 
REMARK    3  A    between atoms: C_7  and  C_8 
REMARK    4  A    between atoms: C_10  and  C_11 
REMARK       I    between atoms: C_11  and  N_12 
REMARK    5  A    between atoms: N_12  and  C_13 
REMARK    6  A    between atoms: C_13  and  C_14 
ROOT
HETATM    1  C   UNL     1      -6.357   2.687 -31.126  1.00  0.00    -0.040 A 
HETATM    2  C   UNL     1      -6.720   1.853 -32.196  1.00  0.00     0.026 A 
HETATM    3  C   UNL     1      -6.729   0.461 -32.048  1.00  0.00     0.032 A 
HETATM    4  C   UNL     1      -6.332  -0.106 -30.834  1.00  0.00     0.017 A 
HETATM    5  C   UNL     1      -5.969   0.714 -29.764  1.00  0.00     0.002 A 
HETATM    6  C   UNL     1      -5.993   2.103 -29.905  1.00  0.00     0.009 A 
ENDROOT
BRANCH   1   7
HETATM    7  C   UNL     1      -6.402   4.185 -31.294  1.00  0.00     0.162 C 
BRANCH   7   8
HETATM    8  N   UNL     1      -5.272   4.845 -30.672  1.00  0.00    -0.339 N 
HETATM    9  C   UNL     1      -4.090   5.024 -31.371  1.00  0.00     0.321 C 
HETATM   10  N   UNL     1      -3.148   5.610 -30.558  1.00  0.00    -0.307 N 
HETATM   11  O   UNL     1      -3.963   4.722 -32.547  1.00  0.00    -0.247 OA
HETATM   12  H   UNL     1      -3.570   6.168 -29.829  1.00  0.00     0.170 HD
HETATM   13  H   UNL     1      -5.147   4.660 -29.689  1.00  0.00     0.164 HD
BRANCH  10  14
HETATM   14  C   UNL     1      -1.788   5.888 -30.831  1.00  0.00     0.059 A 
HETATM   15  C   UNL     1      -1.246   7.072 -31.353  1.00  0.00    -0.032 A 
HETATM   16  C   UNL     1      -2.033   8.278 -31.774  1.00  0.00     0.050 C 
HETATM   17  C   UNL     1       0.152   7.146 -31.519  1.00  0.00     0.028 A 
HETATM   18  C   UNL     1       0.943   6.048 -31.226  1.00  0.00     0.117 A 
HETATM   19  N   UNL     1       0.451   4.881 -30.779  1.00  0.00    -0.271 NA
HETATM   20  C   UNL     1      -0.889   4.836 -30.595  1.00  0.00     0.146 A 
ENDBRANCH  10  14
ENDBRANCH   7   8
ENDBRANCH   1   7
BRANCH   3  21
HETATM   21  C   UNL     1      -7.139  -0.436 -33.162  1.00  0.00     0.252 C 
HETATM   22  N   UNL     1      -6.125  -0.953 -33.932  1.00  0.00    -0.351 N 
HETATM   23  H   UNL     1      -5.156  -0.709 -33.762  1.00  0.00     0.163 HD
HETATM   24  O   UNL     1      -8.326  -0.668 -33.366  1.00  0.00    -0.268 OA
BRANCH  22  25
HETATM   25  C   UNL     1      -6.389  -1.915 -34.974  1.00  0.00     0.187 C 
BRANCH  25  26
HETATM   26  C   UNL     1      -5.640  -3.166 -34.691  1.00  0.00     0.070 A 
HETATM   27  O   UNL     1      -4.400  -3.037 -34.132  1.00  0.00    -0.325 OA
HETATM   28  C   UNL     1      -3.901  -4.289 -33.975  1.00  0.00     0.142 A 
HETATM   29  C   UNL     1      -4.806  -5.227 -34.412  1.00  0.00     0.027 A 
HETATM   30  C   UNL     1      -5.931  -4.503 -34.875  1.00  0.00     0.036 A 
ENDBRANCH  25  26
ENDBRANCH  22  25
ENDBRANCH   3  21
TORSDOF 6
ENDMDL
MODEL 9
REMARK VINA RESULT:      -7.8      2.590      9.413
REMARK  6 active torsions:
REMARK  status: ('A' for Active; 'I' for Inactive)
REMARK    1  A    between atoms: C_3  and  N_4 
REMARK       I    between atoms: N_4  and  C_5 
REMARK       I    between atoms: C_5  and  N_6 
REMARK    2  A    between atoms: N_6  and  C_7 
REMARK    3  A    between atoms: C_7  and  C_8 
REMARK    4  A    between atoms: C_10  and  C_11 
REMARK       I    between atoms: C_11  and  N_12 
REMARK    5  A    between atoms: N_12  and  C_13 
REMARK    6  A    between atoms: C_13  and  C_14 
ROOT
HETATM    1  C   UNL     1      -5.965   0.405 -31.268  1.00  0.00    -0.040 A 
HETATM    2  C   UNL     1      -5.831   1.792 -31.099  1.00  0.00     0.026 A 
HETATM    3  C   UNL     1      -4.626   2.437 -31.399  1.00  0.00     0.032 A 
HETATM    4  C   UNL     1      -3.530   1.685 -31.831  1.00  0.00     0.017 A 
HETATM    5  C   UNL     1      -3.653   0.304 -32.001  1.00  0.00     0.002 A 
HETATM    6  C   UNL     1      -4.867  -0.331 -31.733  1.00  0.00     0.009 A 
ENDROOT
BRANCH   1   7
HETATM    7  C   UNL     1      -7.288  -0.261 -30.985  1.00  0.00     0.162 C 
BRANCH   7   8
HETATM    8  N   UNL     1      -8.414   0.616 -31.242  1.00  0.00    -0.339 N 
HETATM    9  C   UNL     1      -9.072   0.578 -32.459  1.00  0.00     0.321 C 
HETATM   10  N   UNL     1     -10.056   1.539 -32.491  1.00  0.00    -0.307 N 
HETATM   11  O   UNL     1      -8.807  -0.234 -33.332  1.00  0.00    -0.247 OA
HETATM   12  H   UNL     1     -10.398   1.764 -31.567  1.00  0.00     0.170 HD
HETATM   13  H   UNL     1      -8.350   1.536 -30.835  1.00  0.00     0.164 HD
BRANCH  10  14
HETATM   14  C   UNL     1     -10.902   1.908 -33.564  1.00  0.00     0.059 A 
HETATM   15  C   UNL     1     -12.033   1.224 -34.034  1.00  0.00    -0.032 A 
HETATM   16  C   UNL     1     -12.540  -0.085 -33.505  1.00  0.00     0.050 C 
HETATM   17  C   UNL     1     -12.755   1.790 -35.104  1.00  0.00     0.028 A 
HETATM   18  C   UNL     1     -12.308   2.957 -35.699  1.00  0.00     0.117 A 
HETATM   19  N   UNL     1     -11.198   3.608 -35.311  1.00  0.00    -0.271 NA
HETATM   20  C   UNL     1     -10.534   3.068 -34.263  1.00  0.00     0.146 A 
ENDBRANCH  10  14
ENDBRANCH   7   8
ENDBRANCH   1   7
BRANCH   3  21
HETATM   21  C   UNL     1      -4.475   3.910 -31.255  1.00  0.00     0.252 C 
HETATM   22  N   UNL     1      -3.196   4.375 -31.060  1.00  0.00    -0.351 N 
HETATM   23  H   UNL     1      -2.409   3.740 -30.992  1.00  0.00     0.163 HD
HETATM   24  O   UNL     1      -5.459   4.641 -31.293  1.00  0.00    -0.268 OA
BRANCH  22  25
HETATM   25  C   UNL     1      -2.911   5.788 -31.010  1.00  0.00     0.187 C 
BRANCH  25  26
HETATM   26  C   UNL     1      -1.440   5.993 -30.966  1.00  0.00     0.070 A 
HETATM   27  O   UNL     1      -0.652   4.889 -31.133  1.00  0.00    -0.325 OA
HETATM   28  C   UNL     1       0.637   5.302 -31.045  1.00  0.00     0.142 A 
HETATM   29  C   UNL     1       0.695   6.660 -30.839  1.00  0.00     0.027 A 
HETATM   30  C   UNL     1      -0.647   7.108 -30.788  1.00  0.00     0.036 A 
ENDBRANCH  25  26
ENDBRANCH  22  25
ENDBRANCH   3  21
TORSDOF 6
ENDMDL
MODEL 10
REMARK VINA RESULT:      -7.8      4.119      6.006
REMARK  6 active torsions:
REMARK  status: ('A' for Active; 'I' for Inactive)
REMARK    1  A    between atoms: C_3  and  N_4 
REMARK       I    between atoms: N_4  and  C_5 
REMARK       I    between atoms: C_5  and  N_6 
REMARK    2  A    between atoms: N_6  and  C_7 
REMARK    3  A    between atoms: C_7  and  C_8 
REMARK    4  A    between atoms: C_10  and  C_11 
REMARK       I    between atoms: C_11  and  N_12 
REMARK    5  A    between atoms: N_12  and  C_13 
REMARK    6  A    between atoms: C_13  and  C_14 
ROOT
HETATM    1  C   UNL     1      -4.370   3.568 -31.925  1.00  0.00    -0.040 A 
HETATM    2  C   UNL     1      -5.255   2.876 -32.767  1.00  0.00     0.026 A 
HETATM    3  C   UNL     1      -5.162   1.488 -32.920  1.00  0.00     0.032 A 
HETATM    4  C   UNL     1      -4.148   0.788 -32.260  1.00  0.00     0.017 A 
HETATM    5  C   UNL     1      -3.261   1.467 -31.422  1.00  0.00     0.002 A 
HETATM    6  C   UNL     1      -3.379   2.847 -31.245  1.00  0.00     0.009 A 
ENDROOT
BRANCH   1   7
HETATM    7  C   UNL     1      -4.521   5.056 -31.739  1.00  0.00     0.162 C 
BRANCH   7   8
HETATM    8  N   UNL     1      -3.971   5.514 -30.478  1.00  0.00    -0.339 N 
HETATM    9  C   UNL     1      -2.855   6.332 -30.454  1.00  0.00     0.321 C 
HETATM   10  N   UNL     1      -2.482   6.579 -29.153  1.00  0.00    -0.307 N 
HETATM   11  O   UNL     1      -2.334   6.774 -31.466  1.00  0.00    -0.247 OA
HETATM   12  H   UNL     1      -3.263   6.517 -28.516  1.00  0.00     0.170 HD
HETATM   13  H   UNL     1      -4.017   4.853 -29.718  1.00  0.00     0.164 HD
BRANCH  10  14
HETATM   14  C   UNL     1      -1.353   7.284 -28.671  1.00  0.00     0.059 A 
HETATM   15  C   UNL     1      -0.008   6.890 -28.736  1.00  0.00    -0.032 A 
HETATM   16  C   UNL     1       0.493   5.594 -29.300  1.00  0.00     0.050 C 
HETATM   17  C   UNL     1       0.966   7.766 -28.216  1.00  0.00     0.028 A 
HETATM   18  C   UNL     1       0.581   8.949 -27.609  1.00  0.00     0.117 A 
HETATM   19  N   UNL     1      -0.702   9.329 -27.479  1.00  0.00    -0.271 NA
HETATM   20  C   UNL     1      -1.623   8.493 -28.010  1.00  0.00     0.146 A 
ENDBRANCH  10  14
ENDBRANCH   7   8
ENDBRANCH   1   7
BRANCH   3  21
HETATM   21  C   UNL     1      -6.111   0.735 -33.784  1.00  0.00     0.252 C 
HETATM   22  N   UNL     1      -5.988  -0.634 -33.773  1.00  0.00    -0.351 N 
HETATM   23  H   UNL     1      -5.270  -1.095 -33.226  1.00  0.00     0.163 HD
HETATM   24  O   UNL     1      -6.933   1.333 -34.469  1.00  0.00    -0.268 OA
BRANCH  22  25
HETATM   25  C   UNL     1      -6.916  -1.476 -34.488  1.00  0.00     0.187 C 
BRANCH  25  26
HETATM   26  C   UNL     1      -6.335  -2.835 -34.636  1.00  0.00     0.070 A 
HETATM   27  O   UNL     1      -5.049  -3.013 -34.208  1.00  0.00    -0.325 OA
HETATM   28  C   UNL     1      -4.725  -4.309 -34.449  1.00  0.00     0.142 A 
HETATM   29  C   UNL     1      -5.787  -4.975 -35.012  1.00  0.00     0.027 A 
HETATM   30  C   UNL     1      -6.829  -4.024 -35.134  1.00  0.00     0.036 A 
ENDBRANCH  25  26
ENDBRANCH  22  25
ENDBRANCH   3  21
TORSDOF 6
ENDMDL
