MODEL 1
REMARK VINA RESULT:      -9.5      0.000      0.000
REMARK  6 active torsions:
REMARK  status: ('A' for Active; 'I' for Inactive)
REMARK    1  A    between atoms: O_2  and  C_3 
REMARK    2  A    between atoms: C_6  and  C_7 
REMARK    3  A    between atoms: C_13  and  C_14 
REMARK       I    between atoms: C_14  and  N_15 
REMARK    4  A    between atoms: N_15  and  C_16 
REMARK    5  A    between atoms: C_18  and  O_19 
REMARK    6  A    between atoms: C_24  and  C_25 
ROOT
HETATM    1  C   UNL     1      -7.013   0.326 -32.708  1.00  0.00     0.118 C 
HETATM    2  N   UNL     1      -6.373   1.553 -33.208  1.00  0.00    -0.365 N 
HETATM    3  C   UNL     1      -7.093   2.713 -33.187  1.00  0.00     0.138 C 
HETATM    4  N   UNL     1      -8.455   2.697 -32.962  1.00  0.00    -0.240 N 
HETATM    5  N   UNL     1      -8.981   3.916 -32.779  1.00  0.00    -0.181 NA
HETATM    6  C   UNL     1      -7.966   4.734 -33.058  1.00  0.00     0.160 C 
HETATM    7  C   UNL     1      -6.762   4.048 -33.353  1.00  0.00     0.096 C 
HETATM    8  C   UNL     1      -9.239   1.499 -32.722  1.00  0.00     0.221 C 
HETATM    9  C   UNL     1      -8.466   0.259 -33.191  1.00  0.00     0.066 C 
HETATM   10  H   UNL     1      -5.396   1.594 -32.911  1.00  0.00     0.161 HD
ENDROOT
BRANCH   7  11
HETATM   11  C   UNL     1      -5.503   4.683 -33.711  1.00  0.00     0.261 C 
HETATM   12  N   UNL     1      -4.736   5.070 -32.629  1.00  0.00    -0.323 N 
HETATM   13  H   UNL     1      -5.114   4.840 -31.718  1.00  0.00     0.169 HD
HETATM   14  O   UNL     1      -5.196   4.816 -34.891  1.00  0.00    -0.267 OA
BRANCH  12  15
HETATM   15  C   UNL     1      -3.471   5.696 -32.651  1.00  0.00     0.037 A 
HETATM   16  C   UNL     1      -3.276   7.068 -32.462  1.00  0.00     0.066 A 
HETATM   17  C   UNL     1      -1.988   7.600 -32.510  1.00  0.00     0.067 A 
HETATM   18  C   UNL     1      -0.884   6.789 -32.731  1.00  0.00     0.036 A 
HETATM   19  C   UNL     1      -1.068   5.422 -32.918  1.00  0.00     0.005 A 
HETATM   20  C   UNL     1      -2.357   4.879 -32.886  1.00  0.00     0.029 A 
BRANCH  17  21
HETATM   21  O   UNL     1      -1.770   8.938 -32.349  1.00  0.00    -0.361 OA
HETATM   22  H   UNL     1      -0.884   9.148 -32.688  1.00  0.00     0.217 HD
ENDBRANCH  17  21
ENDBRANCH  12  15
ENDBRANCH   7  11
BRANCH   1  23
HETATM   23  C   UNL     1      -6.248  -0.896 -33.177  1.00  0.00    -0.035 A 
HETATM   24  C   UNL     1      -6.817  -1.762 -34.123  1.00  0.00     0.012 A 
HETATM   25  C   UNL     1      -6.090  -2.841 -34.641  1.00  0.00     0.037 A 
HETATM   26  C   UNL     1      -4.779  -3.069 -34.224  1.00  0.00     0.068 A 
HETATM   27  C   UNL     1      -4.215  -2.229 -33.263  1.00  0.00     0.037 A 
HETATM   28  C   UNL     1      -4.937  -1.150 -32.746  1.00  0.00     0.012 A 
BRANCH  26  29
HETATM   29  O   UNL     1      -3.958  -4.066 -34.670  1.00  0.00    -0.356 OA
HETATM   30  C   UNL     1      -3.431  -4.948 -33.686  1.00  0.00     0.210 C 
ENDBRANCH  26  29
ENDBRANCH   1  23
BRANCH   8  31
HETATM   31  C   UNL     1     -10.583   1.551 -33.416  1.00  0.00     0.409 C 
HETATM   32  F   UNL     1     -10.479   1.907 -34.716  1.00  0.00    -0.169 F 
HETATM   33  F   UNL     1     -11.147   0.311 -33.399  1.00  0.00    -0.169 F 
HETATM   34  F   UNL     1     -11.470   2.370 -32.818  1.00  0.00    -0.169 F 
ENDBRANCH   8  31
TORSDOF 6
ENDMDL
MODEL 2
REMARK VINA RESULT:      -9.0      2.208      7.645
REMARK  6 active torsions:
REMARK  status: ('A' for Active; 'I' for Inactive)
REMARK    1  A    between atoms: O_2  and  C_3 
REMARK    2  A    between atoms: C_6  and  C_7 
REMARK    3  A    between atoms: C_13  and  C_14 
REMARK       I    between atoms: C_14  and  N_15 
REMARK    4  A    between atoms: N_15  and  C_16 
REMARK    5  A    between atoms: C_18  and  O_19 
REMARK    6  A    between atoms: C_24  and  C_25 
ROOT
HETATM    1  C   UNL     1      -6.678   4.722 -33.519  1.00  0.00     0.118 C 
HETATM    2  N   UNL     1      -6.727   3.268 -33.746  1.00  0.00    -0.365 N 
HETATM    3  C   UNL     1      -7.834   2.587 -33.331  1.00  0.00     0.138 C 
HETATM    4  N   UNL     1      -8.756   3.177 -32.491  1.00  0.00    -0.240 N 
HETATM    5  N   UNL     1      -9.875   2.456 -32.333  1.00  0.00    -0.181 NA
HETATM    6  C   UNL     1      -9.590   1.308 -32.949  1.00  0.00     0.160 C 
HETATM    7  C   UNL     1      -8.316   1.309 -33.569  1.00  0.00     0.096 C 
HETATM    8  C   UNL     1      -8.664   4.535 -31.985  1.00  0.00     0.221 C 
HETATM    9  C   UNL     1      -7.226   5.053 -32.127  1.00  0.00     0.066 C 
HETATM   10  H   UNL     1      -6.340   3.036 -34.663  1.00  0.00     0.161 HD
ENDROOT
BRANCH   7  11
HETATM   11  C   UNL     1      -7.738   0.189 -34.294  1.00  0.00     0.261 C 
HETATM   12  N   UNL     1      -7.000  -0.675 -33.507  1.00  0.00    -0.323 N 
HETATM   13  H   UNL     1      -6.972  -0.454 -32.520  1.00  0.00     0.169 HD
HETATM   14  O   UNL     1      -7.943   0.064 -35.497  1.00  0.00    -0.267 OA
BRANCH  12  15
HETATM   15  C   UNL     1      -6.331  -1.850 -33.914  1.00  0.00     0.037 A 
HETATM   16  C   UNL     1      -6.963  -2.933 -34.532  1.00  0.00     0.066 A 
HETATM   17  C   UNL     1      -6.223  -4.059 -34.891  1.00  0.00     0.067 A 
HETATM   18  C   UNL     1      -4.856  -4.123 -34.656  1.00  0.00     0.036 A 
HETATM   19  C   UNL     1      -4.218  -3.049 -34.043  1.00  0.00     0.005 A 
HETATM   20  C   UNL     1      -4.954  -1.920 -33.666  1.00  0.00     0.029 A 
BRANCH  17  21
HETATM   21  O   UNL     1      -6.817  -5.138 -35.478  1.00  0.00    -0.361 OA
HETATM   22  H   UNL     1      -6.120  -5.736 -35.797  1.00  0.00     0.217 HD
ENDBRANCH  17  21
ENDBRANCH  12  15
ENDBRANCH   7  11
BRANCH   1  23
HETATM   23  C   UNL     1      -5.256   5.229 -33.657  1.00  0.00    -0.035 A 
HETATM   24  C   UNL     1      -4.500   4.906 -34.795  1.00  0.00     0.012 A 
HETATM   25  C   UNL     1      -3.221   5.442 -34.987  1.00  0.00     0.037 A 
HETATM   26  C   UNL     1      -2.679   6.316 -34.045  1.00  0.00     0.068 A 
HETATM   27  C   UNL     1      -3.412   6.622 -32.898  1.00  0.00     0.037 A 
HETATM   28  C   UNL     1      -4.689   6.089 -32.705  1.00  0.00     0.012 A 
BRANCH  26  29
HETATM   29  O   UNL     1      -1.458   6.925 -34.128  1.00  0.00    -0.356 OA
HETATM   30  C   UNL     1      -0.819   7.247 -32.898  1.00  0.00     0.210 C 
ENDBRANCH  26  29
ENDBRANCH   1  23
BRANCH   8  31
HETATM   31  C   UNL     1      -9.096   4.633 -30.538  1.00  0.00     0.409 C 
HETATM   32  F   UNL     1     -10.431   4.805 -30.408  1.00  0.00    -0.169 F 
HETATM   33  F   UNL     1      -8.792   3.471 -29.897  1.00  0.00    -0.169 F 
HETATM   34  F   UNL     1      -8.471   5.611 -29.852  1.00  0.00    -0.169 F 
ENDBRANCH   8  31
TORSDOF 6
ENDMDL
MODEL 3
REMARK VINA RESULT:      -9.0      3.742      7.017
REMARK  6 active torsions:
REMARK  status: ('A' for Active; 'I' for Inactive)
REMARK    1  A    between atoms: O_2  and  C_3 
REMARK    2  A    between atoms: C_6  and  C_7 
REMARK    3  A    between atoms: C_13  and  C_14 
REMARK       I    between atoms: C_14  and  N_15 
REMARK    4  A    between atoms: N_15  and  C_16 
REMARK    5  A    between atoms: C_18  and  O_19 
REMARK    6  A    between atoms: C_24  and  C_25 
ROOT
HETATM    1  C   UNL     1      -5.899   0.977 -33.933  1.00  0.00     0.118 C 
HETATM    2  N   UNL     1      -7.311   1.392 -33.908  1.00  0.00    -0.365 N 
HETATM    3  C   UNL     1      -7.607   2.651 -33.471  1.00  0.00     0.138 C 
HETATM    4  N   UNL     1      -6.659   3.416 -32.821  1.00  0.00    -0.240 N 
HETATM    5  N   UNL     1      -7.038   4.688 -32.630  1.00  0.00    -0.181 NA
HETATM    6  C   UNL     1      -8.315   4.690 -33.014  1.00  0.00     0.160 C 
HETATM    7  C   UNL     1      -8.746   3.439 -33.522  1.00  0.00     0.096 C 
HETATM    8  C   UNL     1      -5.298   2.993 -32.551  1.00  0.00     0.221 C 
HETATM    9  C   UNL     1      -5.188   1.466 -32.666  1.00  0.00     0.066 C 
HETATM   10  H   UNL     1      -7.799   1.050 -34.738  1.00  0.00     0.161 HD
ENDROOT
BRANCH   7  11
HETATM   11  C   UNL     1     -10.090   3.147 -33.995  1.00  0.00     0.261 C 
HETATM   12  N   UNL     1     -10.836   2.365 -33.134  1.00  0.00    -0.323 N 
HETATM   13  H   UNL     1     -10.383   2.115 -32.264  1.00  0.00     0.169 HD
HETATM   14  O   UNL     1     -10.477   3.602 -35.066  1.00  0.00    -0.267 OA
BRANCH  12  15
HETATM   15  C   UNL     1     -12.167   1.927 -33.305  1.00  0.00     0.037 A 
HETATM   16  C   UNL     1     -13.290   2.690 -32.968  1.00  0.00     0.066 A 
HETATM   17  C   UNL     1     -14.569   2.170 -33.163  1.00  0.00     0.067 A 
HETATM   18  C   UNL     1     -14.754   0.904 -33.701  1.00  0.00     0.036 A 
HETATM   19  C   UNL     1     -13.643   0.137 -34.041  1.00  0.00     0.005 A 
HETATM   20  C   UNL     1     -12.355   0.644 -33.836  1.00  0.00     0.029 A 
BRANCH  17  21
HETATM   21  O   UNL     1     -15.681   2.885 -32.826  1.00  0.00    -0.361 OA
HETATM   22  H   UNL     1     -16.436   2.274 -32.777  1.00  0.00     0.217 HD
ENDBRANCH  17  21
ENDBRANCH  12  15
ENDBRANCH   7  11
BRANCH   1  23
HETATM   23  C   UNL     1      -5.795  -0.532 -34.043  1.00  0.00    -0.035 A 
HETATM   24  C   UNL     1      -6.857  -1.272 -34.584  1.00  0.00     0.012 A 
HETATM   25  C   UNL     1      -6.744  -2.653 -34.783  1.00  0.00     0.037 A 
HETATM   26  C   UNL     1      -5.564  -3.316 -34.449  1.00  0.00     0.068 A 
HETATM   27  C   UNL     1      -4.513  -2.592 -33.885  1.00  0.00     0.037 A 
HETATM   28  C   UNL     1      -4.622  -1.214 -33.686  1.00  0.00     0.012 A 
BRANCH  26  29
HETATM   29  O   UNL     1      -5.319  -4.651 -34.618  1.00  0.00    -0.356 OA
HETATM   30  C   UNL     1      -4.148  -5.168 -33.998  1.00  0.00     0.210 C 
ENDBRANCH  26  29
ENDBRANCH   1  23
BRANCH   8  31
HETATM   31  C   UNL     1      -4.826   3.432 -31.181  1.00  0.00     0.409 C 
HETATM   32  F   UNL     1      -5.761   3.234 -30.225  1.00  0.00    -0.169 F 
HETATM   33  F   UNL     1      -3.741   2.694 -30.820  1.00  0.00    -0.169 F 
HETATM   34  F   UNL     1      -4.432   4.720 -31.133  1.00  0.00    -0.169 F 
ENDBRANCH   8  31
TORSDOF 6
ENDMDL
MODEL 4
REMARK VINA RESULT:      -8.8      2.418      7.681
REMARK  6 active torsions:
REMARK  status: ('A' for Active; 'I' for Inactive)
REMARK    1  A    between atoms: O_2  and  C_3 
REMARK    2  A    between atoms: C_6  and  C_7 
REMARK    3  A    between atoms: C_13  and  C_14 
REMARK       I    between atoms: C_14  and  N_15 
REMARK    4  A    between atoms: N_15  and  C_16 
REMARK    5  A    between atoms: C_18  and  O_19 
REMARK    6  A    between atoms: C_24  and  C_25 
ROOT
HETATM    1  C   UNL     1      -4.962   4.435 -33.789  1.00  0.00     0.118 C 
HETATM    2  N   UNL     1      -5.385   3.080 -33.400  1.00  0.00    -0.365 N 
HETATM    3  C   UNL     1      -6.715   2.778 -33.453  1.00  0.00     0.138 C 
HETATM    4  N   UNL     1      -7.662   3.771 -33.602  1.00  0.00    -0.240 N 
HETATM    5  N   UNL     1      -8.897   3.303 -33.830  1.00  0.00    -0.181 NA
HETATM    6  C   UNL     1      -8.764   1.988 -33.658  1.00  0.00     0.160 C 
HETATM    7  C   UNL     1      -7.430   1.593 -33.388  1.00  0.00     0.096 C 
HETATM    8  C   UNL     1      -7.363   5.186 -33.725  1.00  0.00     0.221 C 
HETATM    9  C   UNL     1      -5.941   5.470 -33.223  1.00  0.00     0.066 C 
HETATM   10  H   UNL     1      -4.724   2.384 -33.753  1.00  0.00     0.161 HD
ENDROOT
BRANCH   7  11
HETATM   11  C   UNL     1      -6.997   0.227 -33.139  1.00  0.00     0.261 C 
HETATM   12  N   UNL     1      -6.462  -0.408 -34.244  1.00  0.00    -0.323 N 
HETATM   13  H   UNL     1      -6.401   0.152 -35.085  1.00  0.00     0.169 HD
HETATM   14  O   UNL     1      -7.103  -0.257 -32.017  1.00  0.00    -0.267 OA
BRANCH  12  15
HETATM   15  C   UNL     1      -5.948  -1.721 -34.317  1.00  0.00     0.037 A 
HETATM   16  C   UNL     1      -6.642  -2.801 -34.871  1.00  0.00     0.066 A 
HETATM   17  C   UNL     1      -6.058  -4.067 -34.892  1.00  0.00     0.067 A 
HETATM   18  C   UNL     1      -4.785  -4.277 -34.380  1.00  0.00     0.036 A 
HETATM   19  C   UNL     1      -4.085  -3.208 -33.828  1.00  0.00     0.005 A 
HETATM   20  C   UNL     1      -4.668  -1.937 -33.790  1.00  0.00     0.029 A 
BRANCH  17  21
HETATM   21  O   UNL     1      -6.721  -5.143 -35.408  1.00  0.00    -0.361 OA
HETATM   22  H   UNL     1      -7.668  -4.928 -35.452  1.00  0.00     0.217 HD
ENDBRANCH  17  21
ENDBRANCH  12  15
ENDBRANCH   7  11
BRANCH   1  23
HETATM   23  C   UNL     1      -3.558   4.713 -33.288  1.00  0.00    -0.035 A 
HETATM   24  C   UNL     1      -2.702   5.549 -34.022  1.00  0.00     0.012 A 
HETATM   25  C   UNL     1      -1.438   5.895 -33.530  1.00  0.00     0.037 A 
HETATM   26  C   UNL     1      -1.011   5.414 -32.292  1.00  0.00     0.068 A 
HETATM   27  C   UNL     1      -1.845   4.561 -31.569  1.00  0.00     0.037 A 
HETATM   28  C   UNL     1      -3.108   4.215 -32.056  1.00  0.00     0.012 A 
BRANCH  26  29
HETATM   29  O   UNL     1       0.184   5.698 -31.691  1.00  0.00    -0.356 OA
HETATM   30  C   UNL     1       0.134   6.503 -30.519  1.00  0.00     0.210 C 
ENDBRANCH  26  29
ENDBRANCH   1  23
BRANCH   8  31
HETATM   31  C   UNL     1      -8.349   6.044 -32.962  1.00  0.00     0.409 C 
HETATM   32  F   UNL     1      -8.767   5.458 -31.818  1.00  0.00    -0.169 F 
HETATM   33  F   UNL     1      -7.747   7.211 -32.601  1.00  0.00    -0.169 F 
HETATM   34  F   UNL     1      -9.433   6.394 -33.683  1.00  0.00    -0.169 F 
ENDBRANCH   8  31
TORSDOF 6
ENDMDL
MODEL 5
REMARK VINA RESULT:      -8.7      3.644      7.841
REMARK  6 active torsions:
REMARK  status: ('A' for Active; 'I' for Inactive)
REMARK    1  A    between atoms: O_2  and  C_3 
REMARK    2  A    between atoms: C_6  and  C_7 
REMARK    3  A    between atoms: C_13  and  C_14 
REMARK       I    between atoms: C_14  and  N_15 
REMARK    4  A    between atoms: N_15  and  C_16 
REMARK    5  A    between atoms: C_18  and  O_19 
REMARK    6  A    between atoms: C_24  and  C_25 
ROOT
HETATM    1  C   UNL     1      -8.388   2.699 -32.235  1.00  0.00     0.118 C 
HETATM    2  N   UNL     1      -7.432   1.611 -32.498  1.00  0.00    -0.365 N 
HETATM    3  C   UNL     1      -6.098   1.882 -32.384  1.00  0.00     0.138 C 
HETATM    4  N   UNL     1      -5.644   3.182 -32.294  1.00  0.00    -0.240 N 
HETATM    5  N   UNL     1      -4.341   3.274 -31.995  1.00  0.00    -0.181 NA
HETATM    6  C   UNL     1      -3.921   2.010 -32.060  1.00  0.00     0.160 C 
HETATM    7  C   UNL     1      -4.963   1.089 -32.331  1.00  0.00     0.096 C 
HETATM    8  C   UNL     1      -6.496   4.357 -32.298  1.00  0.00     0.221 C 
HETATM    9  C   UNL     1      -7.880   4.003 -32.859  1.00  0.00     0.066 C 
HETATM   10  H   UNL     1      -7.774   0.732 -32.105  1.00  0.00     0.161 HD
ENDROOT
BRANCH   7  11
HETATM   11  C   UNL     1      -4.792  -0.348 -32.476  1.00  0.00     0.261 C 
HETATM   12  N   UNL     1      -5.404  -0.881 -33.595  1.00  0.00    -0.323 N 
HETATM   13  H   UNL     1      -5.868  -0.216 -34.200  1.00  0.00     0.169 HD
HETATM   14  O   UNL     1      -4.131  -0.974 -31.655  1.00  0.00    -0.267 OA
BRANCH  12  15
HETATM   15  C   UNL     1      -5.408  -2.230 -34.013  1.00  0.00     0.037 A 
HETATM   16  C   UNL     1      -4.309  -3.086 -33.895  1.00  0.00     0.066 A 
HETATM   17  C   UNL     1      -4.402  -4.403 -34.344  1.00  0.00     0.067 A 
HETATM   18  C   UNL     1      -5.577  -4.890 -34.900  1.00  0.00     0.036 A 
HETATM   19  C   UNL     1      -6.677  -4.046 -35.019  1.00  0.00     0.005 A 
HETATM   20  C   UNL     1      -6.590  -2.719 -34.585  1.00  0.00     0.029 A 
BRANCH  17  21
HETATM   21  O   UNL     1      -3.338  -5.255 -34.260  1.00  0.00    -0.361 OA
HETATM   22  H   UNL     1      -3.180  -5.456 -33.322  1.00  0.00     0.217 HD
ENDBRANCH  17  21
ENDBRANCH  12  15
ENDBRANCH   7  11
BRANCH   1  23
HETATM   23  C   UNL     1      -9.753   2.347 -32.794  1.00  0.00    -0.035 A 
HETATM   24  C   UNL     1     -10.054   1.018 -33.129  1.00  0.00     0.012 A 
HETATM   25  C   UNL     1     -11.338   0.657 -33.555  1.00  0.00     0.037 A 
HETATM   26  C   UNL     1     -12.343   1.618 -33.648  1.00  0.00     0.068 A 
HETATM   27  C   UNL     1     -12.045   2.947 -33.343  1.00  0.00     0.037 A 
HETATM   28  C   UNL     1     -10.766   3.311 -32.916  1.00  0.00     0.012 A 
BRANCH  26  29
HETATM   29  O   UNL     1     -13.638   1.391 -34.023  1.00  0.00    -0.356 OA
HETATM   30  C   UNL     1     -14.638   1.612 -33.036  1.00  0.00     0.210 C 
ENDBRANCH  26  29
ENDBRANCH   1  23
BRANCH   8  31
HETATM   31  C   UNL     1      -5.898   5.490 -33.104  1.00  0.00     0.409 C 
HETATM   32  F   UNL     1      -4.753   5.962 -32.562  1.00  0.00    -0.169 F 
HETATM   33  F   UNL     1      -5.580   5.039 -34.349  1.00  0.00    -0.169 F 
HETATM   34  F   UNL     1      -6.741   6.526 -33.289  1.00  0.00    -0.169 F 
ENDBRANCH   8  31
TORSDOF 6
ENDMDL
MODEL 6
REMARK VINA RESULT:      -8.5     16.055     17.411
REMARK  6 active torsions:
REMARK  status: ('A' for Active; 'I' for Inactive)
REMARK    1  A    between atoms: O_2  and  C_3 
REMARK    2  A    between atoms: C_6  and  C_7 
REMARK    3  A    between atoms: C_13  and  C_14 
REMARK       I    between atoms: C_14  and  N_15 
REMARK    4  A    between atoms: N_15  and  C_16 
REMARK    5  A    between atoms: C_18  and  O_19 
REMARK    6  A    between atoms: C_24  and  C_25 
ROOT
HETATM    1  C   UNL     1      -6.497 -13.180 -35.789  1.00  0.00     0.118 C 
HETATM    2  N   UNL     1      -5.187 -13.277 -36.453  1.00  0.00    -0.365 N 
HETATM    3  C   UNL     1      -5.087 -12.854 -37.747  1.00  0.00     0.138 C 
HETATM    4  N   UNL     1      -6.216 -12.597 -38.499  1.00  0.00    -0.240 N 
HETATM    5  N   UNL     1      -5.954 -12.009 -39.674  1.00  0.00    -0.181 NA
HETATM    6  C   UNL     1      -4.622 -12.043 -39.745  1.00  0.00     0.160 C 
HETATM    7  C   UNL     1      -4.016 -12.588 -38.586  1.00  0.00     0.096 C 
HETATM    8  C   UNL     1      -7.578 -12.731 -38.016  1.00  0.00     0.221 C 
HETATM    9  C   UNL     1      -7.607 -13.606 -36.755  1.00  0.00     0.066 C 
HETATM   10  H   UNL     1      -4.439 -13.017 -35.808  1.00  0.00     0.161 HD
ENDROOT
BRANCH   7  11
HETATM   11  C   UNL     1      -2.585 -12.765 -38.396  1.00  0.00     0.261 C 
HETATM   12  N   UNL     1      -2.164 -14.080 -38.456  1.00  0.00    -0.323 N 
HETATM   13  H   UNL     1      -2.884 -14.762 -38.658  1.00  0.00     0.169 HD
HETATM   14  O   UNL     1      -1.863 -11.789 -38.223  1.00  0.00    -0.267 OA
BRANCH  12  15
HETATM   15  C   UNL     1      -0.846 -14.567 -38.322  1.00  0.00     0.037 A 
HETATM   16  C   UNL     1       0.116 -14.505 -39.336  1.00  0.00     0.066 A 
HETATM   17  C   UNL     1       1.392 -15.022 -39.117  1.00  0.00     0.067 A 
HETATM   18  C   UNL     1       1.736 -15.592 -37.899  1.00  0.00     0.036 A 
HETATM   19  C   UNL     1       0.786 -15.656 -36.883  1.00  0.00     0.005 A 
HETATM   20  C   UNL     1      -0.501 -15.153 -37.097  1.00  0.00     0.029 A 
BRANCH  17  21
HETATM   21  O   UNL     1       2.344 -14.993 -40.095  1.00  0.00    -0.361 OA
HETATM   22  H   UNL     1       2.521 -15.906 -40.378  1.00  0.00     0.217 HD
ENDBRANCH  17  21
ENDBRANCH  12  15
ENDBRANCH   7  11
BRANCH   1  23
HETATM   23  C   UNL     1      -6.523 -14.048 -34.546  1.00  0.00    -0.035 A 
HETATM   24  C   UNL     1      -7.066 -15.341 -34.601  1.00  0.00     0.012 A 
HETATM   25  C   UNL     1      -7.012 -16.193 -33.492  1.00  0.00     0.037 A 
HETATM   26  C   UNL     1      -6.408 -15.768 -32.309  1.00  0.00     0.068 A 
HETATM   27  C   UNL     1      -5.889 -14.475 -32.236  1.00  0.00     0.037 A 
HETATM   28  C   UNL     1      -5.940 -13.622 -33.342  1.00  0.00     0.012 A 
BRANCH  26  29
HETATM   29  O   UNL     1      -6.268 -16.510 -31.169  1.00  0.00    -0.356 OA
HETATM   30  C   UNL     1      -5.220 -16.130 -30.285  1.00  0.00     0.210 C 
ENDBRANCH  26  29
ENDBRANCH   1  23
BRANCH   8  31
HETATM   31  C   UNL     1      -8.497 -13.323 -39.064  1.00  0.00     0.409 C 
HETATM   32  F   UNL     1      -7.906 -14.313 -39.769  1.00  0.00    -0.169 F 
HETATM   33  F   UNL     1      -9.580 -13.877 -38.452  1.00  0.00    -0.169 F 
HETATM   34  F   UNL     1      -8.985 -12.413 -39.931  1.00  0.00    -0.169 F 
ENDBRANCH   8  31
TORSDOF 6
ENDMDL
MODEL 7
REMARK VINA RESULT:      -8.3      3.751      7.750
REMARK  6 active torsions:
REMARK  status: ('A' for Active; 'I' for Inactive)
REMARK    1  A    between atoms: O_2  and  C_3 
REMARK    2  A    between atoms: C_6  and  C_7 
REMARK    3  A    between atoms: C_13  and  C_14 
REMARK       I    between atoms: C_14  and  N_15 
REMARK    4  A    between atoms: N_15  and  C_16 
REMARK    5  A    between atoms: C_18  and  O_19 
REMARK    6  A    between atoms: C_24  and  C_25 
ROOT
HETATM    1  C   UNL     1      -5.963   1.922 -32.355  1.00  0.00     0.118 C 
HETATM    2  N   UNL     1      -7.286   2.534 -32.562  1.00  0.00    -0.365 N 
HETATM    3  C   UNL     1      -8.353   1.710 -32.775  1.00  0.00     0.138 C 
HETATM    4  N   UNL     1      -8.169   0.371 -33.057  1.00  0.00    -0.240 N 
HETATM    5  N   UNL     1      -9.306  -0.339 -33.047  1.00  0.00    -0.181 NA
HETATM    6  C   UNL     1     -10.250   0.594 -32.922  1.00  0.00     0.160 C 
HETATM    7  C   UNL     1      -9.725   1.903 -32.778  1.00  0.00     0.096 C 
HETATM    8  C   UNL     1      -6.877  -0.285 -33.144  1.00  0.00     0.221 C 
HETATM    9  C   UNL     1      -5.767   0.758 -33.332  1.00  0.00     0.066 C 
HETATM   10  H   UNL     1      -7.416   3.328 -31.931  1.00  0.00     0.161 HD
ENDROOT
BRANCH   7  11
HETATM   11  C   UNL     1     -10.521   3.113 -32.643  1.00  0.00     0.261 C 
HETATM   12  N   UNL     1     -11.792   2.902 -32.144  1.00  0.00    -0.323 N 
HETATM   13  H   UNL     1     -12.014   1.945 -31.899  1.00  0.00     0.169 HD
HETATM   14  O   UNL     1     -10.040   4.201 -32.941  1.00  0.00    -0.267 OA
BRANCH  12  15
HETATM   15  C   UNL     1     -12.788   3.869 -31.889  1.00  0.00     0.037 A 
HETATM   16  C   UNL     1     -13.596   4.436 -32.880  1.00  0.00     0.066 A 
HETATM   17  C   UNL     1     -14.549   5.394 -32.537  1.00  0.00     0.067 A 
HETATM   18  C   UNL     1     -14.724   5.791 -31.219  1.00  0.00     0.036 A 
HETATM   19  C   UNL     1     -13.926   5.231 -30.225  1.00  0.00     0.005 A 
HETATM   20  C   UNL     1     -12.957   4.280 -30.560  1.00  0.00     0.029 A 
BRANCH  17  21
HETATM   21  O   UNL     1     -15.338   5.978 -33.486  1.00  0.00    -0.361 OA
HETATM   22  H   UNL     1     -14.817   6.075 -34.301  1.00  0.00     0.217 HD
ENDBRANCH  17  21
ENDBRANCH  12  15
ENDBRANCH   7  11
BRANCH   1  23
HETATM   23  C   UNL     1      -4.869   2.955 -32.545  1.00  0.00    -0.035 A 
HETATM   24  C   UNL     1      -3.687   2.875 -31.794  1.00  0.00     0.012 A 
HETATM   25  C   UNL     1      -2.627   3.761 -32.022  1.00  0.00     0.037 A 
HETATM   26  C   UNL     1      -2.730   4.739 -33.010  1.00  0.00     0.068 A 
HETATM   27  C   UNL     1      -3.912   4.843 -33.744  1.00  0.00     0.037 A 
HETATM   28  C   UNL     1      -4.972   3.960 -33.520  1.00  0.00     0.012 A 
BRANCH  26  29
HETATM   29  O   UNL     1      -1.761   5.643 -33.348  1.00  0.00    -0.356 OA
HETATM   30  C   UNL     1      -2.185   6.795 -34.066  1.00  0.00     0.210 C 
ENDBRANCH  26  29
ENDBRANCH   1  23
BRANCH   8  31
HETATM   31  C   UNL     1      -6.825  -1.289 -34.276  1.00  0.00     0.409 C 
HETATM   32  F   UNL     1      -7.431  -0.837 -35.396  1.00  0.00    -0.169 F 
HETATM   33  F   UNL     1      -5.526  -1.526 -34.608  1.00  0.00    -0.169 F 
HETATM   34  F   UNL     1      -7.352  -2.489 -33.960  1.00  0.00    -0.169 F 
ENDBRANCH   8  31
TORSDOF 6
ENDMDL
MODEL 8
REMARK VINA RESULT:      -8.1      3.659      7.319
REMARK  6 active torsions:
REMARK  status: ('A' for Active; 'I' for Inactive)
REMARK    1  A    between atoms: O_2  and  C_3 
REMARK    2  A    between atoms: C_6  and  C_7 
REMARK    3  A    between atoms: C_13  and  C_14 
REMARK       I    between atoms: C_14  and  N_15 
REMARK    4  A    between atoms: N_15  and  C_16 
REMARK    5  A    between atoms: C_18  and  O_19 
REMARK    6  A    between atoms: C_24  and  C_25 
ROOT
HETATM    1  C   UNL     1      -5.939   2.323 -32.777  1.00  0.00     0.118 C 
HETATM    2  N   UNL     1      -7.251   2.883 -33.142  1.00  0.00    -0.365 N 
HETATM    3  C   UNL     1      -8.305   2.026 -33.275  1.00  0.00     0.138 C 
HETATM    4  N   UNL     1      -8.105   0.662 -33.335  1.00  0.00    -0.240 N 
HETATM    5  N   UNL     1      -9.239  -0.049 -33.271  1.00  0.00    -0.181 NA
HETATM    6  C   UNL     1     -10.190   0.884 -33.340  1.00  0.00     0.160 C 
HETATM    7  C   UNL     1      -9.675   2.203 -33.377  1.00  0.00     0.096 C 
HETATM    8  C   UNL     1      -6.810   0.011 -33.255  1.00  0.00     0.221 C 
HETATM    9  C   UNL     1      -5.693   1.023 -33.549  1.00  0.00     0.066 C 
HETATM   10  H   UNL     1      -7.413   3.764 -32.649  1.00  0.00     0.161 HD
ENDROOT
BRANCH   7  11
HETATM   11  C   UNL     1     -10.479   3.412 -33.471  1.00  0.00     0.261 C 
HETATM   12  N   UNL     1     -10.539   3.954 -34.741  1.00  0.00    -0.323 N 
HETATM   13  H   UNL     1     -10.052   3.437 -35.463  1.00  0.00     0.169 HD
HETATM   14  O   UNL     1     -11.048   3.851 -32.478  1.00  0.00    -0.267 OA
BRANCH  12  15
HETATM   15  C   UNL     1     -11.242   5.107 -35.152  1.00  0.00     0.037 A 
HETATM   16  C   UNL     1     -12.632   5.164 -35.296  1.00  0.00     0.066 A 
HETATM   17  C   UNL     1     -13.240   6.346 -35.717  1.00  0.00     0.067 A 
HETATM   18  C   UNL     1     -12.490   7.482 -35.986  1.00  0.00     0.036 A 
HETATM   19  C   UNL     1     -11.106   7.437 -35.842  1.00  0.00     0.005 A 
HETATM   20  C   UNL     1     -10.484   6.252 -35.435  1.00  0.00     0.029 A 
BRANCH  17  21
HETATM   21  O   UNL     1     -14.593   6.423 -35.886  1.00  0.00    -0.361 OA
HETATM   22  H   UNL     1     -14.906   5.578 -36.250  1.00  0.00     0.217 HD
ENDBRANCH  17  21
ENDBRANCH  12  15
ENDBRANCH   7  11
BRANCH   1  23
HETATM   23  C   UNL     1      -4.839   3.325 -33.072  1.00  0.00    -0.035 A 
HETATM   24  C   UNL     1      -3.563   3.153 -32.513  1.00  0.00     0.012 A 
HETATM   25  C   UNL     1      -2.509   4.011 -32.848  1.00  0.00     0.037 A 
HETATM   26  C   UNL     1      -2.712   5.051 -33.754  1.00  0.00     0.068 A 
HETATM   27  C   UNL     1      -3.984   5.246 -34.294  1.00  0.00     0.037 A 
HETATM   28  C   UNL     1      -5.038   4.391 -33.962  1.00  0.00     0.012 A 
BRANCH  26  29
HETATM   29  O   UNL     1      -1.763   5.937 -34.183  1.00  0.00    -0.356 OA
HETATM   30  C   UNL     1      -1.889   7.279 -33.727  1.00  0.00     0.210 C 
ENDBRANCH  26  29
ENDBRANCH   1  23
BRANCH   8  31
HETATM   31  C   UNL     1      -6.699  -1.156 -34.212  1.00  0.00     0.409 C 
HETATM   32  F   UNL     1      -5.423  -1.577 -34.368  1.00  0.00    -0.169 F 
HETATM   33  F   UNL     1      -7.397  -2.214 -33.715  1.00  0.00    -0.169 F 
HETATM   34  F   UNL     1      -7.219  -0.908 -35.431  1.00  0.00    -0.169 F 
ENDBRANCH   8  31
TORSDOF 6
ENDMDL
MODEL 9
REMARK VINA RESULT:      -8.1      3.253      5.700
REMARK  6 active torsions:
REMARK  status: ('A' for Active; 'I' for Inactive)
REMARK    1  A    between atoms: O_2  and  C_3 
REMARK    2  A    between atoms: C_6  and  C_7 
REMARK    3  A    between atoms: C_13  and  C_14 
REMARK       I    between atoms: C_14  and  N_15 
REMARK    4  A    between atoms: N_15  and  C_16 
REMARK    5  A    between atoms: C_18  and  O_19 
REMARK    6  A    between atoms: C_24  and  C_25 
ROOT
HETATM    1  C   UNL     1      -7.567   0.877 -34.411  1.00  0.00     0.118 C 
HETATM    2  N   UNL     1      -6.657   1.355 -33.358  1.00  0.00    -0.365 N 
HETATM    3  C   UNL     1      -5.453   0.727 -33.211  1.00  0.00     0.138 C 
HETATM    4  N   UNL     1      -5.202  -0.478 -33.836  1.00  0.00    -0.240 N 
HETATM    5  N   UNL     1      -3.921  -0.866 -33.753  1.00  0.00    -0.181 NA
HETATM    6  C   UNL     1      -3.383   0.024 -32.919  1.00  0.00     0.160 C 
HETATM    7  C   UNL     1      -4.294   1.032 -32.515  1.00  0.00     0.096 C 
HETATM    8  C   UNL     1      -6.142  -1.178 -34.691  1.00  0.00     0.221 C 
HETATM    9  C   UNL     1      -7.565  -0.655 -34.449  1.00  0.00     0.066 C 
HETATM   10  H   UNL     1      -6.670   2.376 -33.309  1.00  0.00     0.161 HD
ENDROOT
BRANCH   7  11
HETATM   11  C   UNL     1      -3.988   2.117 -31.596  1.00  0.00     0.261 C 
HETATM   12  N   UNL     1      -3.319   3.178 -32.177  1.00  0.00    -0.323 N 
HETATM   13  H   UNL     1      -3.150   3.099 -33.172  1.00  0.00     0.169 HD
HETATM   14  O   UNL     1      -4.339   2.047 -30.423  1.00  0.00    -0.267 OA
BRANCH  12  15
HETATM   15  C   UNL     1      -2.898   4.373 -31.554  1.00  0.00     0.037 A 
HETATM   16  C   UNL     1      -1.559   4.693 -31.305  1.00  0.00     0.066 A 
HETATM   17  C   UNL     1      -1.237   5.894 -30.675  1.00  0.00     0.067 A 
HETATM   18  C   UNL     1      -2.224   6.794 -30.298  1.00  0.00     0.036 A 
HETATM   19  C   UNL     1      -3.559   6.486 -30.545  1.00  0.00     0.005 A 
HETATM   20  C   UNL     1      -3.895   5.277 -31.163  1.00  0.00     0.029 A 
BRANCH  17  21
HETATM   21  O   UNL     1       0.060   6.223 -30.401  1.00  0.00    -0.361 OA
HETATM   22  H   UNL     1       0.640   5.659 -30.941  1.00  0.00     0.217 HD
ENDBRANCH  17  21
ENDBRANCH  12  15
ENDBRANCH   7  11
BRANCH   1  23
HETATM   23  C   UNL     1      -8.972   1.393 -34.166  1.00  0.00    -0.035 A 
HETATM   24  C   UNL     1      -9.957   0.535 -33.654  1.00  0.00     0.012 A 
HETATM   25  C   UNL     1     -11.233   1.015 -33.330  1.00  0.00     0.037 A 
HETATM   26  C   UNL     1     -11.541   2.362 -33.509  1.00  0.00     0.068 A 
HETATM   27  C   UNL     1     -10.576   3.217 -34.043  1.00  0.00     0.037 A 
HETATM   28  C   UNL     1      -9.302   2.742 -34.365  1.00  0.00     0.012 A 
BRANCH  26  29
HETATM   29  O   UNL     1     -12.735   2.958 -33.208  1.00  0.00    -0.356 OA
HETATM   30  C   UNL     1     -13.890   2.130 -33.251  1.00  0.00     0.210 C 
ENDBRANCH  26  29
ENDBRANCH   1  23
BRANCH   8  31
HETATM   31  C   UNL     1      -6.108  -2.674 -34.469  1.00  0.00     0.409 C 
HETATM   32  F   UNL     1      -7.328  -3.181 -34.181  1.00  0.00    -0.169 F 
HETATM   33  F   UNL     1      -5.692  -3.291 -35.609  1.00  0.00    -0.169 F 
HETATM   34  F   UNL     1      -5.248  -3.059 -33.504  1.00  0.00    -0.169 F 
ENDBRANCH   8  31
TORSDOF 6
ENDMDL
MODEL 10
REMARK VINA RESULT:      -8.0      3.921      7.488
REMARK  6 active torsions:
REMARK  status: ('A' for Active; 'I' for Inactive)
REMARK    1  A    between atoms: O_2  and  C_3 
REMARK    2  A    between atoms: C_6  and  C_7 
REMARK    3  A    between atoms: C_13  and  C_14 
REMARK       I    between atoms: C_14  and  N_15 
REMARK    4  A    between atoms: N_15  and  C_16 
REMARK    5  A    between atoms: C_18  and  O_19 
REMARK    6  A    between atoms: C_24  and  C_25 
ROOT
HETATM    1  C   UNL     1      -6.781   2.380 -34.114  1.00  0.00     0.118 C 
HETATM    2  N   UNL     1      -8.003   2.554 -33.313  1.00  0.00    -0.365 N 
HETATM    3  C   UNL     1      -8.287   3.798 -32.829  1.00  0.00     0.138 C 
HETATM    4  N   UNL     1      -7.340   4.801 -32.853  1.00  0.00    -0.240 N 
HETATM    5  N   UNL     1      -7.827   6.006 -32.526  1.00  0.00    -0.181 NA
HETATM    6  C   UNL     1      -9.070   5.736 -32.124  1.00  0.00     0.160 C 
HETATM    7  C   UNL     1      -9.414   4.368 -32.258  1.00  0.00     0.096 C 
HETATM    8  C   UNL     1      -5.996   4.656 -33.383  1.00  0.00     0.221 C 
HETATM    9  C   UNL     1      -5.627   3.170 -33.486  1.00  0.00     0.066 C 
HETATM   10  H   UNL     1      -8.772   2.011 -33.712  1.00  0.00     0.161 HD
ENDROOT
BRANCH   7  11
HETATM   11  C   UNL     1     -10.693   3.787 -31.881  1.00  0.00     0.261 C 
HETATM   12  N   UNL     1     -11.489   3.427 -32.952  1.00  0.00    -0.323 N 
HETATM   13  H   UNL     1     -11.084   3.574 -33.868  1.00  0.00     0.169 HD
HETATM   14  O   UNL     1     -10.974   3.635 -30.697  1.00  0.00    -0.267 OA
BRANCH  12  15
HETATM   15  C   UNL     1     -12.769   2.833 -32.911  1.00  0.00     0.037 A 
HETATM   16  C   UNL     1     -13.106   1.659 -33.591  1.00  0.00     0.066 A 
HETATM   17  C   UNL     1     -14.401   1.149 -33.500  1.00  0.00     0.067 A 
HETATM   18  C   UNL     1     -15.368   1.782 -32.731  1.00  0.00     0.036 A 
HETATM   19  C   UNL     1     -15.041   2.950 -32.049  1.00  0.00     0.005 A 
HETATM   20  C   UNL     1     -13.749   3.478 -32.145  1.00  0.00     0.029 A 
BRANCH  17  21
HETATM   21  O   UNL     1     -14.763   0.016 -34.169  1.00  0.00    -0.361 OA
HETATM   22  H   UNL     1     -14.272  -0.016 -35.007  1.00  0.00     0.217 HD
ENDBRANCH  17  21
ENDBRANCH  12  15
ENDBRANCH   7  11
BRANCH   1  23
HETATM   23  C   UNL     1      -6.418   0.911 -34.211  1.00  0.00    -0.035 A 
HETATM   24  C   UNL     1      -5.404   0.382 -33.399  1.00  0.00     0.012 A 
HETATM   25  C   UNL     1      -5.120  -0.990 -33.404  1.00  0.00     0.037 A 
HETATM   26  C   UNL     1      -5.851  -1.855 -34.217  1.00  0.00     0.068 A 
HETATM   27  C   UNL     1      -6.844  -1.334 -35.047  1.00  0.00     0.037 A 
HETATM   28  C   UNL     1      -7.130   0.034 -35.044  1.00  0.00     0.012 A 
BRANCH  26  29
HETATM   29  O   UNL     1      -5.690  -3.211 -34.292  1.00  0.00    -0.356 OA
HETATM   30  C   UNL     1      -6.744  -3.945 -34.904  1.00  0.00     0.210 C 
ENDBRANCH  26  29
ENDBRANCH   1  23
BRANCH   8  31
HETATM   31  C   UNL     1      -4.969   5.374 -32.533  1.00  0.00     0.409 C 
HETATM   32  F   UNL     1      -4.927   6.702 -32.785  1.00  0.00    -0.169 F 
HETATM   33  F   UNL     1      -5.299   5.240 -31.218  1.00  0.00    -0.169 F 
HETATM   34  F   UNL     1      -3.722   4.876 -32.655  1.00  0.00    -0.169 F 
ENDBRANCH   8  31
TORSDOF 6
ENDMDL
