MODEL 1
REMARK VINA RESULT:      -8.8      0.000      0.000
REMARK  7 active torsions:
REMARK  status: ('A' for Active; 'I' for Inactive)
REMARK    1  A    between atoms: C_4  and  N_5 
REMARK    2  A    between atoms: N_8  and  C_10 
REMARK    3  A    between atoms: C_10  and  C_11 
REMARK    4  A    between atoms: C_11  and  C_12 
REMARK    5  A    between atoms: C_12  and  C_13 
REMARK    6  A    between atoms: C_13  and  N_14 
REMARK       I    between atoms: N_14  and  C_15 
REMARK    7  A    between atoms: C_15  and  C_16 
ROOT
HETATM    1  C   UNL     1      -7.139   4.895 -30.001  1.00  0.00     0.123 C 
ENDROOT
BRANCH   1   2
HETATM    2  C   UNL     1      -8.560   4.671 -30.521  1.00  0.00     0.021 C 
BRANCH   2   3
HETATM    3  C   UNL     1      -8.915   3.182 -30.545  1.00  0.00     0.029 C 
BRANCH   3   4
HETATM    4  C   UNL     1      -8.673   2.583 -31.930  1.00  0.00     0.235 C 
BRANCH   4   5
HETATM    5  N   UNL     1      -7.351   1.854 -31.971  1.00  0.00    -0.068 N 
HETATM    6  C   UNL     1      -7.462   0.455 -31.344  1.00  0.00     0.254 C 
HETATM    7  C   UNL     1      -6.076  -0.223 -31.287  1.00  0.00     0.150 C 
HETATM    8  N   UNL     1      -5.456  -0.255 -32.627  1.00  0.00    -0.378 N 
HETATM    9  C   UNL     1      -5.366   1.048 -33.303  1.00  0.00     0.150 C 
HETATM   10  C   UNL     1      -6.744   1.738 -33.377  1.00  0.00     0.254 C 
HETATM   11  H   UNL     1      -6.680   2.376 -31.394  1.00  0.00     0.280 HD
BRANCH   8  12
HETATM   12  C   UNL     1      -5.511  -1.445 -33.351  1.00  0.00     0.030 A 
HETATM   13  C   UNL     1      -4.449  -2.365 -33.404  1.00  0.00     0.036 A 
HETATM   14  C   UNL     1      -4.536  -3.570 -34.126  1.00  0.00    -0.060 A 
HETATM   15  C   UNL     1      -3.398  -4.551 -34.128  1.00  0.00     0.048 C 
HETATM   16  C   UNL     1      -5.719  -3.882 -34.795  1.00  0.00     0.007 A 
HETATM   17  C   UNL     1      -6.791  -3.001 -34.750  1.00  0.00     0.003 A 
HETATM   18  C   UNL     1      -6.685  -1.804 -34.034  1.00  0.00     0.029 A 
ENDBRANCH   8  12
ENDBRANCH   4   5
ENDBRANCH   3   4
ENDBRANCH   2   3
ENDBRANCH   1   2
BRANCH   1  19
HETATM   19  N   UNL     1      -6.191   5.110 -31.073  1.00  0.00    -0.357 N 
HETATM   20  C   UNL     1      -5.081   4.299 -31.218  1.00  0.00     0.254 C 
HETATM   21  O   UNL     1      -4.899   3.311 -30.512  1.00  0.00    -0.268 OA
HETATM   22  H   UNL     1      -6.381   5.847 -31.738  1.00  0.00     0.162 HD
BRANCH  20  23
HETATM   23  C   UNL     1      -4.118   4.648 -32.296  1.00  0.00     0.064 A 
HETATM   24  C   UNL     1      -2.779   4.835 -31.999  1.00  0.00     0.077 A 
HETATM   25  C   UNL     1      -1.837   5.160 -32.980  1.00  0.00     0.065 A 
HETATM   26  N   UNL     1      -2.101   4.759 -30.779  1.00  0.00    -0.330 N 
HETATM   27  N   UNL     1      -0.591   5.278 -32.366  1.00  0.00    -0.331 N 
HETATM   28  C   UNL     1      -2.176   5.325 -34.300  1.00  0.00     0.074 A 
HETATM   29  C   UNL     1      -0.750   5.039 -30.995  1.00  0.00     0.176 A 
HETATM   30  H   UNL     1       0.283   5.518 -32.810  1.00  0.00     0.168 HD
HETATM   31  S   UNL     1       0.434   5.083 -29.852  1.00  0.00    -0.041 SA
HETATM   32  C   UNL     1      -3.524   5.158 -34.610  1.00  0.00     0.119 A 
HETATM   33  F   UNL     1      -3.925   5.319 -35.878  1.00  0.00    -0.206 F 
HETATM   34  C   UNL     1      -4.490   4.829 -33.637  1.00  0.00     0.061 A 
HETATM   35  H   UNL     1      -2.546   4.584 -29.885  1.00  0.00     0.168 HD
ENDBRANCH  20  23
ENDBRANCH   1  19
TORSDOF 7
ENDMDL
MODEL 2
REMARK VINA RESULT:      -8.7      1.713      2.355
REMARK  7 active torsions:
REMARK  status: ('A' for Active; 'I' for Inactive)
REMARK    1  A    between atoms: C_4  and  N_5 
REMARK    2  A    between atoms: N_8  and  C_10 
REMARK    3  A    between atoms: C_10  and  C_11 
REMARK    4  A    between atoms: C_11  and  C_12 
REMARK    5  A    between atoms: C_12  and  C_13 
REMARK    6  A    between atoms: C_13  and  N_14 
REMARK       I    between atoms: N_14  and  C_15 
REMARK    7  A    between atoms: C_15  and  C_16 
ROOT
HETATM    1  C   UNL     1      -5.294   2.895 -30.030  1.00  0.00     0.123 C 
ENDROOT
BRANCH   1   2
HETATM    2  C   UNL     1      -6.600   3.565 -29.600  1.00  0.00     0.021 C 
BRANCH   2   3
HETATM    3  C   UNL     1      -7.511   3.831 -30.801  1.00  0.00     0.029 C 
BRANCH   3   4
HETATM    4  C   UNL     1      -8.712   2.886 -30.799  1.00  0.00     0.235 C 
BRANCH   4   5
HETATM    5  N   UNL     1      -8.758   2.081 -32.077  1.00  0.00    -0.068 N 
HETATM    6  C   UNL     1      -7.458   2.235 -32.884  1.00  0.00     0.254 C 
HETATM    7  C   UNL     1      -7.574   1.503 -34.239  1.00  0.00     0.150 C 
HETATM    8  N   UNL     1      -7.948   0.089 -34.038  1.00  0.00    -0.378 N 
HETATM    9  C   UNL     1      -9.157  -0.127 -33.229  1.00  0.00     0.150 C 
HETATM   10  C   UNL     1      -9.056   0.589 -31.866  1.00  0.00     0.254 C 
HETATM   11  H   UNL     1      -9.509   2.460 -32.667  1.00  0.00     0.280 HD
BRANCH   8  12
HETATM   12  C   UNL     1      -6.944  -0.875 -34.112  1.00  0.00     0.030 A 
HETATM   13  C   UNL     1      -7.165  -2.183 -34.580  1.00  0.00     0.036 A 
HETATM   14  C   UNL     1      -6.130  -3.133 -34.665  1.00  0.00    -0.060 A 
HETATM   15  C   UNL     1      -6.391  -4.509 -35.208  1.00  0.00     0.048 C 
HETATM   16  C   UNL     1      -4.835  -2.769 -34.298  1.00  0.00     0.007 A 
HETATM   17  C   UNL     1      -4.581  -1.480 -33.847  1.00  0.00     0.003 A 
HETATM   18  C   UNL     1      -5.622  -0.550 -33.761  1.00  0.00     0.029 A 
ENDBRANCH   8  12
ENDBRANCH   4   5
ENDBRANCH   3   4
ENDBRANCH   2   3
ENDBRANCH   1   2
BRANCH   1  19
HETATM   19  N   UNL     1      -4.487   3.757 -30.866  1.00  0.00    -0.357 N 
HETATM   20  C   UNL     1      -3.245   3.352 -31.321  1.00  0.00     0.254 C 
HETATM   21  O   UNL     1      -2.815   2.220 -31.119  1.00  0.00    -0.268 OA
HETATM   22  H   UNL     1      -4.870   4.651 -31.142  1.00  0.00     0.162 HD
BRANCH  20  23
HETATM   23  C   UNL     1      -2.451   4.337 -32.103  1.00  0.00     0.064 A 
HETATM   24  C   UNL     1      -1.827   5.393 -31.461  1.00  0.00     0.077 A 
HETATM   25  C   UNL     1      -1.068   6.341 -32.155  1.00  0.00     0.065 A 
HETATM   26  N   UNL     1      -1.801   5.746 -30.110  1.00  0.00    -0.330 N 
HETATM   27  N   UNL     1      -0.577   7.265 -31.233  1.00  0.00    -0.331 N 
HETATM   28  C   UNL     1      -0.897   6.294 -33.516  1.00  0.00     0.074 A 
HETATM   29  C   UNL     1      -1.038   6.906 -29.960  1.00  0.00     0.176 A 
HETATM   30  H   UNL     1      -0.007   8.074 -31.431  1.00  0.00     0.168 HD
HETATM   31  S   UNL     1      -0.738   7.704 -28.552  1.00  0.00    -0.041 SA
HETATM   32  C   UNL     1      -1.535   5.246 -34.176  1.00  0.00     0.119 A 
HETATM   33  F   UNL     1      -1.421   5.151 -35.508  1.00  0.00    -0.206 F 
HETATM   34  C   UNL     1      -2.304   4.280 -33.497  1.00  0.00     0.061 A 
HETATM   35  H   UNL     1      -2.308   5.259 -29.379  1.00  0.00     0.168 HD
ENDBRANCH  20  23
ENDBRANCH   1  19
TORSDOF 7
ENDMDL
MODEL 3
REMARK VINA RESULT:      -8.6      1.074      1.660
REMARK  7 active torsions:
REMARK  status: ('A' for Active; 'I' for Inactive)
REMARK    1  A    between atoms: C_4  and  N_5 
REMARK    2  A    between atoms: N_8  and  C_10 
REMARK    3  A    between atoms: C_10  and  C_11 
REMARK    4  A    between atoms: C_11  and  C_12 
REMARK    5  A    between atoms: C_12  and  C_13 
REMARK    6  A    between atoms: C_13  and  N_14 
REMARK       I    between atoms: N_14  and  C_15 
REMARK    7  A    between atoms: C_15  and  C_16 
ROOT
HETATM    1  C   UNL     1      -7.517   5.561 -30.151  1.00  0.00     0.123 C 
ENDROOT
BRANCH   1   2
HETATM    2  C   UNL     1      -8.759   4.710 -30.422  1.00  0.00     0.021 C 
BRANCH   2   3
HETATM    3  C   UNL     1      -8.395   3.233 -30.589  1.00  0.00     0.029 C 
BRANCH   3   4
HETATM    4  C   UNL     1      -9.346   2.541 -31.565  1.00  0.00     0.235 C 
BRANCH   4   5
HETATM    5  N   UNL     1      -8.612   2.119 -32.816  1.00  0.00    -0.068 N 
HETATM    6  C   UNL     1      -7.098   2.006 -32.566  1.00  0.00     0.254 C 
HETATM    7  C   UNL     1      -6.356   1.692 -33.884  1.00  0.00     0.150 C 
HETATM    8  N   UNL     1      -6.913   0.482 -34.521  1.00  0.00    -0.378 N 
HETATM    9  C   UNL     1      -8.367   0.507 -34.741  1.00  0.00     0.150 C 
HETATM   10  C   UNL     1      -9.128   0.810 -33.433  1.00  0.00     0.254 C 
HETATM   11  H   UNL     1      -8.732   2.855 -33.522  1.00  0.00     0.280 HD
BRANCH   8  12
HETATM   12  C   UNL     1      -6.224  -0.720 -34.370  1.00  0.00     0.030 A 
HETATM   13  C   UNL     1      -6.705  -1.950 -34.852  1.00  0.00     0.036 A 
HETATM   14  C   UNL     1      -5.980  -3.148 -34.705  1.00  0.00    -0.060 A 
HETATM   15  C   UNL     1      -6.503  -4.438 -35.269  1.00  0.00     0.048 C 
HETATM   16  C   UNL     1      -4.732  -3.120 -34.084  1.00  0.00     0.007 A 
HETATM   17  C   UNL     1      -4.222  -1.919 -33.610  1.00  0.00     0.003 A 
HETATM   18  C   UNL     1      -4.959  -0.739 -33.757  1.00  0.00     0.029 A 
ENDBRANCH   8  12
ENDBRANCH   4   5
ENDBRANCH   3   4
ENDBRANCH   2   3
ENDBRANCH   1   2
BRANCH   1  19
HETATM   19  N   UNL     1      -6.548   5.471 -31.222  1.00  0.00    -0.357 N 
HETATM   20  C   UNL     1      -5.241   5.095 -30.973  1.00  0.00     0.254 C 
HETATM   21  O   UNL     1      -4.869   4.731 -29.861  1.00  0.00    -0.268 OA
HETATM   22  H   UNL     1      -6.860   5.654 -32.166  1.00  0.00     0.162 HD
BRANCH  20  23
HETATM   23  C   UNL     1      -4.295   5.112 -32.120  1.00  0.00     0.064 A 
HETATM   24  C   UNL     1      -2.929   5.129 -31.895  1.00  0.00     0.077 A 
HETATM   25  C   UNL     1      -2.003   5.141 -32.943  1.00  0.00     0.065 A 
HETATM   26  N   UNL     1      -2.207   5.138 -30.699  1.00  0.00    -0.330 N 
HETATM   27  N   UNL     1      -0.722   5.154 -32.392  1.00  0.00    -0.331 N 
HETATM   28  C   UNL     1      -2.383   5.149 -34.262  1.00  0.00     0.074 A 
HETATM   29  C   UNL     1      -0.842   5.162 -30.997  1.00  0.00     0.176 A 
HETATM   30  H   UNL     1       0.153   5.180 -32.894  1.00  0.00     0.168 HD
HETATM   31  S   UNL     1       0.394   5.197 -29.910  1.00  0.00    -0.041 SA
HETATM   32  C   UNL     1      -3.756   5.151 -34.502  1.00  0.00     0.119 A 
HETATM   33  F   UNL     1      -4.194   5.173 -35.768  1.00  0.00    -0.206 F 
HETATM   34  C   UNL     1      -4.706   5.137 -33.461  1.00  0.00     0.061 A 
HETATM   35  H   UNL     1      -2.624   5.178 -29.777  1.00  0.00     0.168 HD
ENDBRANCH  20  23
ENDBRANCH   1  19
TORSDOF 7
ENDMDL
MODEL 4
REMARK VINA RESULT:      -8.4      1.299      1.411
REMARK  7 active torsions:
REMARK  status: ('A' for Active; 'I' for Inactive)
REMARK    1  A    between atoms: C_4  and  N_5 
REMARK    2  A    between atoms: N_8  and  C_10 
REMARK    3  A    between atoms: C_10  and  C_11 
REMARK    4  A    between atoms: C_11  and  C_12 
REMARK    5  A    between atoms: C_12  and  C_13 
REMARK    6  A    between atoms: C_13  and  N_14 
REMARK       I    between atoms: N_14  and  C_15 
REMARK    7  A    between atoms: C_15  and  C_16 
ROOT
HETATM    1  C   UNL     1      -6.220   4.613 -30.077  1.00  0.00     0.123 C 
ENDROOT
BRANCH   1   2
HETATM    2  C   UNL     1      -7.377   4.043 -30.900  1.00  0.00     0.021 C 
BRANCH   2   3
HETATM    3  C   UNL     1      -7.944   2.775 -30.259  1.00  0.00     0.029 C 
BRANCH   3   4
HETATM    4  C   UNL     1      -8.437   1.795 -31.323  1.00  0.00     0.235 C 
BRANCH   4   5
HETATM    5  N   UNL     1      -7.308   1.395 -32.243  1.00  0.00    -0.068 N 
HETATM    6  C   UNL     1      -6.393   0.349 -31.586  1.00  0.00     0.254 C 
HETATM    7  C   UNL     1      -5.181   0.044 -32.494  1.00  0.00     0.150 C 
HETATM    8  N   UNL     1      -5.628  -0.365 -33.840  1.00  0.00    -0.378 N 
HETATM    9  C   UNL     1      -6.548   0.571 -34.503  1.00  0.00     0.150 C 
HETATM   10  C   UNL     1      -7.771   0.881 -33.615  1.00  0.00     0.254 C 
HETATM   11  H   UNL     1      -6.724   2.223 -32.412  1.00  0.00     0.280 HD
BRANCH   8  12
HETATM   12  C   UNL     1      -5.631  -1.725 -34.148  1.00  0.00     0.030 A 
HETATM   13  C   UNL     1      -4.528  -2.568 -33.926  1.00  0.00     0.036 A 
HETATM   14  C   UNL     1      -4.563  -3.943 -34.227  1.00  0.00    -0.060 A 
HETATM   15  C   UNL     1      -3.382  -4.825 -33.939  1.00  0.00     0.048 C 
HETATM   16  C   UNL     1      -5.733  -4.500 -34.741  1.00  0.00     0.007 A 
HETATM   17  C   UNL     1      -6.845  -3.697 -34.958  1.00  0.00     0.003 A 
HETATM   18  C   UNL     1      -6.791  -2.331 -34.661  1.00  0.00     0.029 A 
ENDBRANCH   8  12
ENDBRANCH   4   5
ENDBRANCH   3   4
ENDBRANCH   2   3
ENDBRANCH   1   2
BRANCH   1  19
HETATM   19  N   UNL     1      -5.127   5.067 -30.910  1.00  0.00    -0.357 N 
HETATM   20  C   UNL     1      -4.101   4.213 -31.270  1.00  0.00     0.254 C 
HETATM   21  O   UNL     1      -4.117   3.019 -30.985  1.00  0.00    -0.268 OA
HETATM   22  H   UNL     1      -5.151   6.017 -31.253  1.00  0.00     0.162 HD
BRANCH  20  23
HETATM   23  C   UNL     1      -2.978   4.791 -32.056  1.00  0.00     0.064 A 
HETATM   24  C   UNL     1      -2.055   5.621 -31.442  1.00  0.00     0.077 A 
HETATM   25  C   UNL     1      -0.981   6.183 -32.140  1.00  0.00     0.065 A 
HETATM   26  N   UNL     1      -1.970   6.062 -30.119  1.00  0.00    -0.330 N 
HETATM   27  N   UNL     1      -0.242   6.960 -31.249  1.00  0.00    -0.331 N 
HETATM   28  C   UNL     1      -0.775   5.959 -33.478  1.00  0.00     0.074 A 
HETATM   29  C   UNL     1      -0.857   6.896 -29.992  1.00  0.00     0.176 A 
HETATM   30  H   UNL     1       0.583   7.503 -31.458  1.00  0.00     0.168 HD
HETATM   31  S   UNL     1      -0.363   7.665 -28.623  1.00  0.00    -0.041 SA
HETATM   32  C   UNL     1      -1.707   5.140 -34.112  1.00  0.00     0.119 A 
HETATM   33  F   UNL     1      -1.572   4.893 -35.422  1.00  0.00    -0.206 F 
HETATM   34  C   UNL     1      -2.796   4.562 -33.428  1.00  0.00     0.061 A 
HETATM   35  H   UNL     1      -2.648   5.847 -29.397  1.00  0.00     0.168 HD
ENDBRANCH  20  23
ENDBRANCH   1  19
TORSDOF 7
ENDMDL
MODEL 5
REMARK VINA RESULT:      -8.3      3.349      4.827
REMARK  7 active torsions:
REMARK  status: ('A' for Active; 'I' for Inactive)
REMARK    1  A    between atoms: C_4  and  N_5 
REMARK    2  A    between atoms: N_8  and  C_10 
REMARK    3  A    between atoms: C_10  and  C_11 
REMARK    4  A    between atoms: C_11  and  C_12 
REMARK    5  A    between atoms: C_12  and  C_13 
REMARK    6  A    between atoms: C_13  and  N_14 
REMARK       I    between atoms: N_14  and  C_15 
REMARK    7  A    between atoms: C_15  and  C_16 
ROOT
HETATM    1  C   UNL     1      -2.149   4.419 -32.061  1.00  0.00     0.123 C 
ENDROOT
BRANCH   1   2
HETATM    2  C   UNL     1      -3.414   3.657 -31.663  1.00  0.00     0.021 C 
BRANCH   2   3
HETATM    3  C   UNL     1      -4.606   4.062 -32.534  1.00  0.00     0.029 C 
BRANCH   3   4
HETATM    4  C   UNL     1      -5.919   3.925 -31.767  1.00  0.00     0.235 C 
BRANCH   4   5
HETATM    5  N   UNL     1      -6.720   2.753 -32.284  1.00  0.00    -0.068 N 
HETATM    6  C   UNL     1      -6.306   2.381 -33.718  1.00  0.00     0.254 C 
HETATM    7  C   UNL     1      -7.216   1.262 -34.270  1.00  0.00     0.150 C 
HETATM    8  N   UNL     1      -7.217   0.097 -33.364  1.00  0.00    -0.378 N 
HETATM    9  C   UNL     1      -7.557   0.395 -31.964  1.00  0.00     0.150 C 
HETATM   10  C   UNL     1      -6.651   1.505 -31.391  1.00  0.00     0.254 C 
HETATM   11  H   UNL     1      -7.706   3.036 -32.334  1.00  0.00     0.280 HD
BRANCH   8  12
HETATM   12  C   UNL     1      -6.425  -1.000 -33.699  1.00  0.00     0.030 A 
HETATM   13  C   UNL     1      -6.929  -2.150 -34.332  1.00  0.00     0.036 A 
HETATM   14  C   UNL     1      -6.103  -3.236 -34.679  1.00  0.00    -0.060 A 
HETATM   15  C   UNL     1      -6.666  -4.434 -35.392  1.00  0.00     0.048 C 
HETATM   16  C   UNL     1      -4.737  -3.170 -34.412  1.00  0.00     0.007 A 
HETATM   17  C   UNL     1      -4.206  -2.042 -33.801  1.00  0.00     0.003 A 
HETATM   18  C   UNL     1      -5.041  -0.974 -33.456  1.00  0.00     0.029 A 
ENDBRANCH   8  12
ENDBRANCH   4   5
ENDBRANCH   3   4
ENDBRANCH   2   3
ENDBRANCH   1   2
BRANCH   1  19
HETATM   19  N   UNL     1      -1.839   5.487 -31.136  1.00  0.00    -0.357 N 
HETATM   20  C   UNL     1      -0.650   5.498 -30.430  1.00  0.00     0.254 C 
HETATM   21  O   UNL     1       0.230   4.664 -30.624  1.00  0.00    -0.268 OA
HETATM   22  H   UNL     1      -2.499   6.247 -31.045  1.00  0.00     0.162 HD
BRANCH  20  23
HETATM   23  C   UNL     1      -0.456   6.590 -29.439  1.00  0.00     0.064 A 
HETATM   24  C   UNL     1      -1.516   7.015 -28.656  1.00  0.00     0.077 A 
HETATM   25  C   UNL     1      -1.380   8.034 -27.709  1.00  0.00     0.065 A 
HETATM   26  N   UNL     1      -2.845   6.585 -28.618  1.00  0.00    -0.330 N 
HETATM   27  N   UNL     1      -2.616   8.224 -27.092  1.00  0.00    -0.331 N 
HETATM   28  C   UNL     1      -0.192   8.688 -27.497  1.00  0.00     0.074 A 
HETATM   29  C   UNL     1      -3.534   7.333 -27.661  1.00  0.00     0.176 A 
HETATM   30  H   UNL     1      -2.839   8.900 -26.376  1.00  0.00     0.168 HD
HETATM   31  S   UNL     1      -5.129   7.194 -27.273  1.00  0.00    -0.041 SA
HETATM   32  C   UNL     1       0.879   8.283 -28.291  1.00  0.00     0.119 A 
HETATM   33  F   UNL     1       2.064   8.891 -28.145  1.00  0.00    -0.206 F 
HETATM   34  C   UNL     1       0.764   7.256 -29.251  1.00  0.00     0.061 A 
HETATM   35  H   UNL     1      -3.240   5.883 -29.234  1.00  0.00     0.168 HD
ENDBRANCH  20  23
ENDBRANCH   1  19
TORSDOF 7
ENDMDL
MODEL 6
REMARK VINA RESULT:      -8.2      1.226      1.959
REMARK  7 active torsions:
REMARK  status: ('A' for Active; 'I' for Inactive)
REMARK    1  A    between atoms: C_4  and  N_5 
REMARK    2  A    between atoms: N_8  and  C_10 
REMARK    3  A    between atoms: C_10  and  C_11 
REMARK    4  A    between atoms: C_11  and  C_12 
REMARK    5  A    between atoms: C_12  and  C_13 
REMARK    6  A    between atoms: C_13  and  N_14 
REMARK       I    between atoms: N_14  and  C_15 
REMARK    7  A    between atoms: C_15  and  C_16 
ROOT
HETATM    1  C   UNL     1      -6.446   4.171 -29.499  1.00  0.00     0.123 C 
ENDROOT
BRANCH   1   2
HETATM    2  C   UNL     1      -7.927   4.488 -29.712  1.00  0.00     0.021 C 
BRANCH   2   3
HETATM    3  C   UNL     1      -8.359   4.189 -31.150  1.00  0.00     0.029 C 
BRANCH   3   4
HETATM    4  C   UNL     1      -9.551   3.234 -31.178  1.00  0.00     0.235 C 
BRANCH   4   5
HETATM    5  N   UNL     1      -9.399   2.225 -32.292  1.00  0.00    -0.068 N 
HETATM    6  C   UNL     1      -8.148   2.508 -33.138  1.00  0.00     0.254 C 
HETATM    7  C   UNL     1      -8.078   1.540 -34.340  1.00  0.00     0.150 C 
HETATM    8  N   UNL     1      -8.143   0.137 -33.883  1.00  0.00    -0.378 N 
HETATM    9  C   UNL     1      -9.293  -0.187 -33.025  1.00  0.00     0.150 C 
HETATM   10  C   UNL     1      -9.375   0.765 -31.814  1.00  0.00     0.254 C 
HETATM   11  H   UNL     1     -10.203   2.322 -32.924  1.00  0.00     0.280 HD
BRANCH   8  12
HETATM   12  C   UNL     1      -6.954  -0.587 -33.805  1.00  0.00     0.030 A 
HETATM   13  C   UNL     1      -5.951  -0.321 -32.857  1.00  0.00     0.036 A 
HETATM   14  C   UNL     1      -4.768  -1.080 -32.785  1.00  0.00    -0.060 A 
HETATM   15  C   UNL     1      -3.733  -0.796 -31.733  1.00  0.00     0.048 C 
HETATM   16  C   UNL     1      -4.586  -2.148 -33.662  1.00  0.00     0.007 A 
HETATM   17  C   UNL     1      -5.565  -2.446 -34.600  1.00  0.00     0.003 A 
HETATM   18  C   UNL     1      -6.731  -1.677 -34.664  1.00  0.00     0.029 A 
ENDBRANCH   8  12
ENDBRANCH   4   5
ENDBRANCH   3   4
ENDBRANCH   2   3
ENDBRANCH   1   2
BRANCH   1  19
HETATM   19  N   UNL     1      -5.625   4.629 -30.599  1.00  0.00    -0.357 N 
HETATM   20  C   UNL     1      -4.831   3.749 -31.313  1.00  0.00     0.254 C 
HETATM   21  O   UNL     1      -4.859   2.538 -31.112  1.00  0.00    -0.268 OA
HETATM   22  H   UNL     1      -5.673   5.605 -30.858  1.00  0.00     0.162 HD
BRANCH  20  23
HETATM   23  C   UNL     1      -3.957   4.324 -32.370  1.00  0.00     0.064 A 
HETATM   24  C   UNL     1      -2.650   4.672 -32.077  1.00  0.00     0.077 A 
HETATM   25  C   UNL     1      -1.790   5.211 -33.039  1.00  0.00     0.065 A 
HETATM   26  N   UNL     1      -1.934   4.586 -30.880  1.00  0.00    -0.330 N 
HETATM   27  N   UNL     1      -0.556   5.449 -32.436  1.00  0.00    -0.331 N 
HETATM   28  C   UNL     1      -2.186   5.440 -34.333  1.00  0.00     0.074 A 
HETATM   29  C   UNL     1      -0.642   5.072 -31.090  1.00  0.00     0.176 A 
HETATM   30  H   UNL     1       0.264   5.849 -32.869  1.00  0.00     0.168 HD
HETATM   31  S   UNL     1       0.556   5.183 -29.965  1.00  0.00    -0.041 SA
HETATM   32  C   UNL     1      -3.505   5.112 -34.637  1.00  0.00     0.119 A 
HETATM   33  F   UNL     1      -3.959   5.325 -35.879  1.00  0.00    -0.206 F 
HETATM   34  C   UNL     1      -4.388   4.566 -33.683  1.00  0.00     0.061 A 
HETATM   35  H   UNL     1      -2.325   4.272 -29.998  1.00  0.00     0.168 HD
ENDBRANCH  20  23
ENDBRANCH   1  19
TORSDOF 7
ENDMDL
MODEL 7
REMARK VINA RESULT:      -8.2      4.310      6.471
REMARK  7 active torsions:
REMARK  status: ('A' for Active; 'I' for Inactive)
REMARK    1  A    between atoms: C_4  and  N_5 
REMARK    2  A    between atoms: N_8  and  C_10 
REMARK    3  A    between atoms: C_10  and  C_11 
REMARK    4  A    between atoms: C_11  and  C_12 
REMARK    5  A    between atoms: C_12  and  C_13 
REMARK    6  A    between atoms: C_13  and  N_14 
REMARK       I    between atoms: N_14  and  C_15 
REMARK    7  A    between atoms: C_15  and  C_16 
ROOT
HETATM    1  C   UNL     1      -6.975   4.715 -31.754  1.00  0.00     0.123 C 
ENDROOT
BRANCH   1   2
HETATM    2  C   UNL     1      -5.907   3.855 -31.076  1.00  0.00     0.021 C 
BRANCH   2   3
HETATM    3  C   UNL     1      -6.498   3.042 -29.922  1.00  0.00     0.029 C 
BRANCH   3   4
HETATM    4  C   UNL     1      -6.175   1.556 -30.075  1.00  0.00     0.235 C 
BRANCH   4   5
HETATM    5  N   UNL     1      -5.833   1.231 -31.510  1.00  0.00    -0.068 N 
HETATM    6  C   UNL     1      -4.619   0.292 -31.599  1.00  0.00     0.254 C 
HETATM    7  C   UNL     1      -4.214   0.069 -33.072  1.00  0.00     0.150 C 
HETATM    8  N   UNL     1      -5.362  -0.420 -33.860  1.00  0.00    -0.378 N 
HETATM    9  C   UNL     1      -6.574   0.409 -33.778  1.00  0.00     0.150 C 
HETATM   10  C   UNL     1      -7.000   0.635 -32.312  1.00  0.00     0.254 C 
HETATM   11  H   UNL     1      -5.558   2.102 -31.980  1.00  0.00     0.280 HD
BRANCH   8  12
HETATM   12  C   UNL     1      -5.435  -1.783 -34.143  1.00  0.00     0.030 A 
HETATM   13  C   UNL     1      -4.379  -2.678 -33.898  1.00  0.00     0.036 A 
HETATM   14  C   UNL     1      -4.485  -4.055 -34.173  1.00  0.00    -0.060 A 
HETATM   15  C   UNL     1      -3.352  -4.992 -33.862  1.00  0.00     0.048 C 
HETATM   16  C   UNL     1      -5.680  -4.561 -34.683  1.00  0.00     0.007 A 
HETATM   17  C   UNL     1      -6.746  -3.705 -34.922  1.00  0.00     0.003 A 
HETATM   18  C   UNL     1      -6.622  -2.338 -34.650  1.00  0.00     0.029 A 
ENDBRANCH   8  12
ENDBRANCH   4   5
ENDBRANCH   3   4
ENDBRANCH   2   3
ENDBRANCH   1   2
BRANCH   1  19
HETATM   19  N   UNL     1      -8.141   3.945 -32.130  1.00  0.00    -0.357 N 
HETATM   20  C   UNL     1      -8.695   4.057 -33.392  1.00  0.00     0.254 C 
HETATM   21  O   UNL     1      -8.175   4.735 -34.273  1.00  0.00    -0.268 OA
HETATM   22  H   UNL     1      -8.519   3.291 -31.457  1.00  0.00     0.162 HD
BRANCH  20  23
HETATM   23  C   UNL     1      -9.941   3.292 -33.659  1.00  0.00     0.064 A 
HETATM   24  C   UNL     1     -11.016   3.907 -34.279  1.00  0.00     0.077 A 
HETATM   25  C   UNL     1     -12.205   3.226 -34.555  1.00  0.00     0.065 A 
HETATM   26  N   UNL     1     -11.171   5.219 -34.735  1.00  0.00    -0.330 N 
HETATM   27  N   UNL     1     -13.081   4.114 -35.179  1.00  0.00    -0.331 N 
HETATM   28  C   UNL     1     -12.393   1.908 -34.222  1.00  0.00     0.074 A 
HETATM   29  C   UNL     1     -12.447   5.358 -35.285  1.00  0.00     0.176 A 
HETATM   30  H   UNL     1     -14.023   3.921 -35.486  1.00  0.00     0.168 HD
HETATM   31  S   UNL     1     -13.088   6.729 -35.934  1.00  0.00    -0.041 SA
HETATM   32  C   UNL     1     -11.327   1.281 -33.581  1.00  0.00     0.119 A 
HETATM   33  F   UNL     1     -11.450  -0.001 -33.215  1.00  0.00    -0.206 F 
HETATM   34  C   UNL     1     -10.118   1.948 -33.295  1.00  0.00     0.061 A 
HETATM   35  H   UNL     1     -10.479   5.951 -34.624  1.00  0.00     0.168 HD
ENDBRANCH  20  23
ENDBRANCH   1  19
TORSDOF 7
ENDMDL
MODEL 8
REMARK VINA RESULT:      -8.1      2.682      3.573
REMARK  7 active torsions:
REMARK  status: ('A' for Active; 'I' for Inactive)
REMARK    1  A    between atoms: C_4  and  N_5 
REMARK    2  A    between atoms: N_8  and  C_10 
REMARK    3  A    between atoms: C_10  and  C_11 
REMARK    4  A    between atoms: C_11  and  C_12 
REMARK    5  A    between atoms: C_12  and  C_13 
REMARK    6  A    between atoms: C_13  and  N_14 
REMARK       I    between atoms: N_14  and  C_15 
REMARK    7  A    between atoms: C_15  and  C_16 
ROOT
HETATM    1  C   UNL     1      -5.648   5.819 -28.422  1.00  0.00     0.123 C 
ENDROOT
BRANCH   1   2
HETATM    2  C   UNL     1      -6.610   5.254 -29.468  1.00  0.00     0.021 C 
BRANCH   2   3
HETATM    3  C   UNL     1      -6.074   3.953 -30.072  1.00  0.00     0.029 C 
BRANCH   3   4
HETATM    4  C   UNL     1      -6.165   3.977 -31.596  1.00  0.00     0.235 C 
BRANCH   4   5
HETATM    5  N   UNL     1      -6.928   2.776 -32.104  1.00  0.00    -0.068 N 
HETATM    6  C   UNL     1      -6.555   2.448 -33.559  1.00  0.00     0.254 C 
HETATM    7  C   UNL     1      -7.431   1.295 -34.095  1.00  0.00     0.150 C 
HETATM    8  N   UNL     1      -7.340   0.116 -33.211  1.00  0.00    -0.378 N 
HETATM    9  C   UNL     1      -7.636   0.374 -31.794  1.00  0.00     0.150 C 
HETATM   10  C   UNL     1      -6.763   1.518 -31.237  1.00  0.00     0.254 C 
HETATM   11  H   UNL     1      -7.928   3.010 -32.109  1.00  0.00     0.280 HD
BRANCH   8  12
HETATM   12  C   UNL     1      -6.509  -0.935 -33.598  1.00  0.00     0.030 A 
HETATM   13  C   UNL     1      -6.983  -2.100 -34.225  1.00  0.00     0.036 A 
HETATM   14  C   UNL     1      -6.121  -3.139 -34.625  1.00  0.00    -0.060 A 
HETATM   15  C   UNL     1      -6.654  -4.354 -35.330  1.00  0.00     0.048 C 
HETATM   16  C   UNL     1      -4.749  -3.007 -34.418  1.00  0.00     0.007 A 
HETATM   17  C   UNL     1      -4.248  -1.861 -33.815  1.00  0.00     0.003 A 
HETATM   18  C   UNL     1      -5.119  -0.842 -33.416  1.00  0.00     0.029 A 
ENDBRANCH   8  12
ENDBRANCH   4   5
ENDBRANCH   3   4
ENDBRANCH   2   3
ENDBRANCH   1   2
BRANCH   1  19
HETATM   19  N   UNL     1      -4.285   5.874 -28.904  1.00  0.00    -0.357 N 
HETATM   20  C   UNL     1      -3.759   7.040 -29.428  1.00  0.00     0.254 C 
HETATM   21  O   UNL     1      -4.384   8.097 -29.421  1.00  0.00    -0.268 OA
HETATM   22  H   UNL     1      -3.712   5.046 -28.813  1.00  0.00     0.162 HD
BRANCH  20  23
HETATM   23  C   UNL     1      -2.378   6.979 -29.977  1.00  0.00     0.064 A 
HETATM   24  C   UNL     1      -2.166   6.562 -31.280  1.00  0.00     0.077 A 
HETATM   25  C   UNL     1      -0.887   6.493 -31.840  1.00  0.00     0.065 A 
HETATM   26  N   UNL     1      -3.073   6.149 -32.259  1.00  0.00    -0.330 N 
HETATM   27  N   UNL     1      -1.010   6.044 -33.154  1.00  0.00    -0.331 N 
HETATM   28  C   UNL     1       0.244   6.823 -31.135  1.00  0.00     0.074 A 
HETATM   29  C   UNL     1      -2.367   5.818 -33.418  1.00  0.00     0.176 A 
HETATM   30  H   UNL     1      -0.261   5.878 -33.811  1.00  0.00     0.168 HD
HETATM   31  S   UNL     1      -3.008   5.264 -34.830  1.00  0.00    -0.041 SA
HETATM   32  C   UNL     1       0.047   7.226 -29.817  1.00  0.00     0.119 A 
HETATM   33  F   UNL     1       1.110   7.548 -29.068  1.00  0.00    -0.206 F 
HETATM   34  C   UNL     1      -1.234   7.305 -29.233  1.00  0.00     0.061 A 
HETATM   35  H   UNL     1      -4.072   6.055 -32.115  1.00  0.00     0.168 HD
ENDBRANCH  20  23
ENDBRANCH   1  19
TORSDOF 7
ENDMDL
MODEL 9
REMARK VINA RESULT:      -8.1      2.246      2.657
REMARK  7 active torsions:
REMARK  status: ('A' for Active; 'I' for Inactive)
REMARK    1  A    between atoms: C_4  and  N_5 
REMARK    2  A    between atoms: N_8  and  C_10 
REMARK    3  A    between atoms: C_10  and  C_11 
REMARK    4  A    between atoms: C_11  and  C_12 
REMARK    5  A    between atoms: C_12  and  C_13 
REMARK    6  A    between atoms: C_13  and  N_14 
REMARK       I    between atoms: N_14  and  C_15 
REMARK    7  A    between atoms: C_15  and  C_16 
ROOT
HETATM    1  C   UNL     1      -7.665   4.446 -31.680  1.00  0.00     0.123 C 
ENDROOT
BRANCH   1   2
HETATM    2  C   UNL     1      -7.642   3.570 -30.426  1.00  0.00     0.021 C 
BRANCH   2   3
HETATM    3  C   UNL     1      -6.227   3.072 -30.121  1.00  0.00     0.029 C 
BRANCH   3   4
HETATM    4  C   UNL     1      -6.156   1.547 -30.187  1.00  0.00     0.235 C 
BRANCH   4   5
HETATM    5  N   UNL     1      -5.438   1.101 -31.439  1.00  0.00    -0.068 N 
HETATM    6  C   UNL     1      -4.332   0.083 -31.118  1.00  0.00     0.254 C 
HETATM    7  C   UNL     1      -3.533  -0.268 -32.392  1.00  0.00     0.150 C 
HETATM    8  N   UNL     1      -4.437  -0.737 -33.461  1.00  0.00    -0.378 N 
HETATM    9  C   UNL     1      -5.549   0.171 -33.782  1.00  0.00     0.150 C 
HETATM   10  C   UNL     1      -6.365   0.526 -32.521  1.00  0.00     0.254 C 
HETATM   11  H   UNL     1      -4.968   1.918 -31.847  1.00  0.00     0.280 HD
BRANCH   8  12
HETATM   12  C   UNL     1      -4.535  -2.110 -33.686  1.00  0.00     0.030 A 
HETATM   13  C   UNL     1      -5.529  -2.689 -34.495  1.00  0.00     0.036 A 
HETATM   14  C   UNL     1      -5.594  -4.076 -34.724  1.00  0.00    -0.060 A 
HETATM   15  C   UNL     1      -6.644  -4.659 -35.626  1.00  0.00     0.048 C 
HETATM   16  C   UNL     1      -4.632  -4.909 -34.155  1.00  0.00     0.007 A 
HETATM   17  C   UNL     1      -3.628  -4.366 -33.364  1.00  0.00     0.003 A 
HETATM   18  C   UNL     1      -3.582  -2.987 -33.140  1.00  0.00     0.029 A 
ENDBRANCH   8  12
ENDBRANCH   4   5
ENDBRANCH   3   4
ENDBRANCH   2   3
ENDBRANCH   1   2
BRANCH   1  19
HETATM   19  N   UNL     1      -6.336   4.721 -32.181  1.00  0.00    -0.357 N 
HETATM   20  C   UNL     1      -5.786   5.986 -32.091  1.00  0.00     0.254 C 
HETATM   21  O   UNL     1      -6.354   6.903 -31.504  1.00  0.00    -0.268 OA
HETATM   22  H   UNL     1      -5.802   3.953 -32.565  1.00  0.00     0.162 HD
BRANCH  20  23
HETATM   23  C   UNL     1      -4.449   6.194 -32.709  1.00  0.00     0.064 A 
HETATM   24  C   UNL     1      -3.610   7.187 -32.232  1.00  0.00     0.077 A 
HETATM   25  C   UNL     1      -2.343   7.416 -32.778  1.00  0.00     0.065 A 
HETATM   26  N   UNL     1      -3.793   8.112 -31.201  1.00  0.00    -0.330 N 
HETATM   27  N   UNL     1      -1.754   8.471 -32.083  1.00  0.00    -0.331 N 
HETATM   28  C   UNL     1      -1.850   6.681 -33.828  1.00  0.00     0.074 A 
HETATM   29  C   UNL     1      -2.655   8.915 -31.108  1.00  0.00     0.176 A 
HETATM   30  H   UNL     1      -0.846   8.878 -32.255  1.00  0.00     0.168 HD
HETATM   31  S   UNL     1      -2.417  10.155 -30.050  1.00  0.00    -0.041 SA
HETATM   32  C   UNL     1      -2.692   5.691 -34.329  1.00  0.00     0.119 A 
HETATM   33  F   UNL     1      -2.277   4.946 -35.363  1.00  0.00    -0.206 F 
HETATM   34  C   UNL     1      -3.972   5.442 -33.792  1.00  0.00     0.061 A 
HETATM   35  H   UNL     1      -4.645   8.206 -30.659  1.00  0.00     0.168 HD
ENDBRANCH  20  23
ENDBRANCH   1  19
TORSDOF 7
ENDMDL
MODEL 10
REMARK VINA RESULT:      -7.9      4.888      7.539
REMARK  7 active torsions:
REMARK  status: ('A' for Active; 'I' for Inactive)
REMARK    1  A    between atoms: C_4  and  N_5 
REMARK    2  A    between atoms: N_8  and  C_10 
REMARK    3  A    between atoms: C_10  and  C_11 
REMARK    4  A    between atoms: C_11  and  C_12 
REMARK    5  A    between atoms: C_12  and  C_13 
REMARK    6  A    between atoms: C_13  and  N_14 
REMARK       I    between atoms: N_14  and  C_15 
REMARK    7  A    between atoms: C_15  and  C_16 
ROOT
HETATM    1  C   UNL     1      -9.759   5.727 -30.595  1.00  0.00     0.123 C 
ENDROOT
BRANCH   1   2
HETATM    2  C   UNL     1      -8.238   5.675 -30.439  1.00  0.00     0.021 C 
BRANCH   2   3
HETATM    3  C   UNL     1      -7.770   4.279 -30.021  1.00  0.00     0.029 C 
BRANCH   3   4
HETATM    4  C   UNL     1      -6.729   3.734 -30.998  1.00  0.00     0.235 C 
BRANCH   4   5
HETATM    5  N   UNL     1      -7.339   2.683 -31.895  1.00  0.00    -0.068 N 
HETATM    6  C   UNL     1      -6.539   2.526 -33.199  1.00  0.00     0.254 C 
HETATM    7  C   UNL     1      -7.246   1.536 -34.151  1.00  0.00     0.150 C 
HETATM    8  N   UNL     1      -7.483   0.244 -33.477  1.00  0.00    -0.378 N 
HETATM    9  C   UNL     1      -8.201   0.331 -32.196  1.00  0.00     0.150 C 
HETATM   10  C   UNL     1      -7.504   1.309 -31.228  1.00  0.00     0.254 C 
HETATM   11  H   UNL     1      -8.277   3.000 -32.170  1.00  0.00     0.280 HD
BRANCH   8  12
HETATM   12  C   UNL     1      -6.614  -0.811 -33.750  1.00  0.00     0.030 A 
HETATM   13  C   UNL     1      -7.029  -2.018 -34.339  1.00  0.00     0.036 A 
HETATM   14  C   UNL     1      -6.129  -3.062 -34.624  1.00  0.00    -0.060 A 
HETATM   15  C   UNL     1      -6.598  -4.324 -35.292  1.00  0.00     0.048 C 
HETATM   16  C   UNL     1      -4.774  -2.894 -34.339  1.00  0.00     0.007 A 
HETATM   17  C   UNL     1      -4.330  -1.707 -33.771  1.00  0.00     0.003 A 
HETATM   18  C   UNL     1      -5.240  -0.683 -33.487  1.00  0.00     0.029 A 
ENDBRANCH   8  12
ENDBRANCH   4   5
ENDBRANCH   3   4
ENDBRANCH   2   3
ENDBRANCH   1   2
BRANCH   1  19
HETATM   19  N   UNL     1     -10.242   4.781 -31.578  1.00  0.00    -0.357 N 
HETATM   20  C   UNL     1     -11.488   4.195 -31.454  1.00  0.00     0.254 C 
HETATM   21  O   UNL     1     -12.274   4.518 -30.568  1.00  0.00    -0.268 OA
HETATM   22  H   UNL     1      -9.658   4.587 -32.380  1.00  0.00     0.162 HD
BRANCH  20  23
HETATM   23  C   UNL     1     -11.864   3.172 -32.465  1.00  0.00     0.064 A 
HETATM   24  C   UNL     1     -13.191   2.819 -32.637  1.00  0.00     0.077 A 
HETATM   25  C   UNL     1     -13.592   1.866 -33.578  1.00  0.00     0.065 A 
HETATM   26  N   UNL     1     -14.342   3.271 -31.985  1.00  0.00    -0.330 N 
HETATM   27  N   UNL     1     -14.979   1.738 -33.505  1.00  0.00    -0.331 N 
HETATM   28  C   UNL     1     -12.699   1.209 -34.387  1.00  0.00     0.074 A 
HETATM   29  C   UNL     1     -15.450   2.603 -32.510  1.00  0.00     0.176 A 
HETATM   30  H   UNL     1     -15.560   1.117 -34.050  1.00  0.00     0.168 HD
HETATM   31  S   UNL     1     -17.018   2.793 -32.043  1.00  0.00    -0.041 SA
HETATM   32  C   UNL     1     -11.357   1.542 -34.212  1.00  0.00     0.119 A 
HETATM   33  F   UNL     1     -10.432   0.927 -34.960  1.00  0.00    -0.206 F 
HETATM   34  C   UNL     1     -10.931   2.501 -33.271  1.00  0.00     0.061 A 
HETATM   35  H   UNL     1     -14.345   3.935 -31.219  1.00  0.00     0.168 HD
ENDBRANCH  20  23
ENDBRANCH   1  19
TORSDOF 7
ENDMDL
