MODEL 1
REMARK VINA RESULT:      -9.0      0.000      0.000
REMARK  3 active torsions:
REMARK  status: ('A' for Active; 'I' for Inactive)
REMARK    1  A    between atoms: C_6  and  N_7 
REMARK       I    between atoms: N_7  and  C_8 
REMARK    2  A    between atoms: C_8  and  C_9 
REMARK    3  A    between atoms: C_9  and  C_10 
ROOT
HETATM    1  C   UNL     1      -7.902   0.238 -34.881  1.00  0.00     0.165 C 
ENDROOT
BRANCH   1   2
HETATM    2  C   UNL     1      -9.132   0.510 -34.033  1.00  0.00     0.227 C 
HETATM    3  N   UNL     1     -10.073   1.356 -34.572  1.00  0.00    -0.327 N 
HETATM    4  H   UNL     1      -9.784   1.848 -35.418  1.00  0.00     0.169 HD
HETATM    5  O   UNL     1      -9.238  -0.076 -32.956  1.00  0.00    -0.273 OA
BRANCH   3   6
HETATM    6  C   UNL     1     -11.340   1.695 -34.058  1.00  0.00     0.036 A 
HETATM    7  C   UNL     1     -12.529   1.061 -34.419  1.00  0.00     0.053 A 
HETATM    8  C   UNL     1     -13.748   1.476 -33.870  1.00  0.00     0.042 A 
HETATM    9  C   UNL     1     -13.803   2.533 -32.949  1.00  0.00    -0.040 A 
HETATM   10 CL   UNL     1     -15.183   0.650 -34.372  1.00  0.00    -0.084 Cl
HETATM   11  C   UNL     1     -15.100   3.006 -32.355  1.00  0.00     0.050 C 
HETATM   12  C   UNL     1     -12.607   3.169 -32.595  1.00  0.00     0.011 A 
HETATM   13  C   UNL     1     -11.390   2.753 -33.144  1.00  0.00     0.030 A 
ENDBRANCH   3   6
ENDBRANCH   1   2
BRANCH   1  14
HETATM   14  C   UNL     1      -6.556  -0.071 -34.252  1.00  0.00     0.074 A 
HETATM   15  N   UNL     1      -5.893   0.877 -33.658  1.00  0.00    -0.175 NA
HETATM   16  N   UNL     1      -4.689   0.580 -33.101  1.00  0.00    -0.243 N 
HETATM   17  C   UNL     1      -4.076  -0.649 -33.101  1.00  0.00     0.272 A 
HETATM   18  H   UNL     1      -4.197   1.333 -32.628  1.00  0.00     0.192 HD
HETATM   19  O   UNL     1      -2.983  -0.835 -32.577  1.00  0.00    -0.266 OA
HETATM   20  C   UNL     1      -4.806  -1.736 -33.769  1.00  0.00     0.046 A 
HETATM   21  C   UNL     1      -6.046  -1.467 -34.343  1.00  0.00     0.006 A 
HETATM   22  C   UNL     1      -4.258  -3.024 -33.821  1.00  0.00     0.018 A 
HETATM   23  C   UNL     1      -6.749  -2.503 -34.972  1.00  0.00     0.014 A 
HETATM   24  C   UNL     1      -6.204  -3.789 -35.026  1.00  0.00     0.001 A 
HETATM   25  C   UNL     1      -4.960  -4.049 -34.452  1.00  0.00     0.001 A 
ENDBRANCH   1  14
TORSDOF 3
ENDMDL
MODEL 2
REMARK VINA RESULT:      -8.8      5.596      8.593
REMARK  3 active torsions:
REMARK  status: ('A' for Active; 'I' for Inactive)
REMARK    1  A    between atoms: C_6  and  N_7 
REMARK       I    between atoms: N_7  and  C_8 
REMARK    2  A    between atoms: C_8  and  C_9 
REMARK    3  A    between atoms: C_9  and  C_10 
ROOT
HETATM    1  C   UNL     1      -3.080   2.806 -31.211  1.00  0.00     0.165 C 
ENDROOT
BRANCH   1   2
HETATM    2  C   UNL     1      -4.041   1.688 -31.573  1.00  0.00     0.227 C 
HETATM    3  N   UNL     1      -3.748   0.971 -32.709  1.00  0.00    -0.327 N 
HETATM    4  H   UNL     1      -3.004   1.359 -33.291  1.00  0.00     0.169 HD
HETATM    5  O   UNL     1      -4.979   1.458 -30.810  1.00  0.00    -0.273 OA
BRANCH   3   6
HETATM    6  C   UNL     1      -4.399  -0.171 -33.214  1.00  0.00     0.036 A 
HETATM    7  C   UNL     1      -3.850  -1.453 -33.214  1.00  0.00     0.053 A 
HETATM    8  C   UNL     1      -4.562  -2.531 -33.754  1.00  0.00     0.042 A 
HETATM    9  C   UNL     1      -5.840  -2.348 -34.305  1.00  0.00    -0.040 A 
HETATM   10 CL   UNL     1      -3.812  -4.089 -33.730  1.00  0.00    -0.084 Cl
HETATM   11  C   UNL     1      -6.622  -3.484 -34.902  1.00  0.00     0.050 C 
HETATM   12  C   UNL     1      -6.385  -1.058 -34.306  1.00  0.00     0.011 A 
HETATM   13  C   UNL     1      -5.671   0.017 -33.767  1.00  0.00     0.030 A 
ENDBRANCH   3   6
ENDBRANCH   1   2
BRANCH   1  14
HETATM   14  C   UNL     1      -2.864   3.996 -32.126  1.00  0.00     0.074 A 
HETATM   15  N   UNL     1      -3.653   4.172 -33.147  1.00  0.00    -0.175 NA
HETATM   16  N   UNL     1      -3.443   5.245 -33.955  1.00  0.00    -0.243 N 
HETATM   17  C   UNL     1      -2.457   6.191 -33.809  1.00  0.00     0.272 A 
HETATM   18  H   UNL     1      -4.081   5.371 -34.735  1.00  0.00     0.192 HD
HETATM   19  O   UNL     1      -2.333   7.131 -34.586  1.00  0.00    -0.266 OA
HETATM   20  C   UNL     1      -1.553   6.012 -32.664  1.00  0.00     0.046 A 
HETATM   21  C   UNL     1      -1.745   4.927 -31.811  1.00  0.00     0.006 A 
HETATM   22  C   UNL     1      -0.516   6.925 -32.437  1.00  0.00     0.018 A 
HETATM   23  C   UNL     1      -0.891   4.758 -30.714  1.00  0.00     0.014 A 
HETATM   24  C   UNL     1       0.145   5.668 -30.485  1.00  0.00     0.001 A 
HETATM   25  C   UNL     1       0.333   6.750 -31.345  1.00  0.00     0.001 A 
ENDBRANCH   1  14
TORSDOF 3
ENDMDL
MODEL 3
REMARK VINA RESULT:      -8.5      2.971      8.274
REMARK  3 active torsions:
REMARK  status: ('A' for Active; 'I' for Inactive)
REMARK    1  A    between atoms: C_6  and  N_7 
REMARK       I    between atoms: N_7  and  C_8 
REMARK    2  A    between atoms: C_8  and  C_9 
REMARK    3  A    between atoms: C_9  and  C_10 
ROOT
HETATM    1  C   UNL     1      -8.797   1.750 -32.904  1.00  0.00     0.165 C 
ENDROOT
BRANCH   1   2
HETATM    2  C   UNL     1      -7.904   0.538 -32.710  1.00  0.00     0.227 C 
HETATM    3  N   UNL     1      -7.481  -0.101 -33.851  1.00  0.00    -0.327 N 
HETATM    4  H   UNL     1      -7.935   0.200 -34.714  1.00  0.00     0.169 HD
HETATM    5  O   UNL     1      -7.573   0.236 -31.563  1.00  0.00    -0.273 OA
BRANCH   3   6
HETATM    6  C   UNL     1      -6.573  -1.172 -33.969  1.00  0.00     0.036 A 
HETATM    7  C   UNL     1      -6.862  -2.379 -34.605  1.00  0.00     0.053 A 
HETATM    8  C   UNL     1      -5.903  -3.399 -34.660  1.00  0.00     0.042 A 
HETATM    9  C   UNL     1      -4.637  -3.232 -34.080  1.00  0.00    -0.040 A 
HETATM   10 CL   UNL     1      -6.337  -4.873 -35.456  1.00  0.00    -0.084 Cl
HETATM   11  C   UNL     1      -3.595  -4.314 -34.113  1.00  0.00     0.050 C 
HETATM   12  C   UNL     1      -4.355  -2.019 -33.438  1.00  0.00     0.011 A 
HETATM   13  C   UNL     1      -5.313  -1.003 -33.384  1.00  0.00     0.030 A 
ENDBRANCH   3   6
ENDBRANCH   1   2
BRANCH   1  14
HETATM   14  C   UNL     1     -10.222   1.616 -33.406  1.00  0.00     0.074 A 
HETATM   15  N   UNL     1     -10.883   0.520 -33.175  1.00  0.00    -0.175 NA
HETATM   16  N   UNL     1     -12.159   0.419 -33.634  1.00  0.00    -0.243 N 
HETATM   17  C   UNL     1     -12.846   1.377 -34.339  1.00  0.00     0.272 A 
HETATM   18  H   UNL     1     -12.661  -0.439 -33.426  1.00  0.00     0.192 HD
HETATM   19  O   UNL     1     -13.998   1.207 -34.721  1.00  0.00    -0.266 OA
HETATM   20  C   UNL     1     -12.117   2.624 -34.615  1.00  0.00     0.046 A 
HETATM   21  C   UNL     1     -10.811   2.763 -34.152  1.00  0.00     0.006 A 
HETATM   22  C   UNL     1     -12.736   3.657 -35.331  1.00  0.00     0.018 A 
HETATM   23  C   UNL     1     -10.117   3.953 -34.404  1.00  0.00     0.014 A 
HETATM   24  C   UNL     1     -10.732   4.985 -35.119  1.00  0.00     0.001 A 
HETATM   25  C   UNL     1     -12.039   4.837 -35.582  1.00  0.00     0.001 A 
ENDBRANCH   1  14
TORSDOF 3
ENDMDL
MODEL 4
REMARK VINA RESULT:      -8.4      5.291      7.842
REMARK  3 active torsions:
REMARK  status: ('A' for Active; 'I' for Inactive)
REMARK    1  A    between atoms: C_6  and  N_7 
REMARK       I    between atoms: N_7  and  C_8 
REMARK    2  A    between atoms: C_8  and  C_9 
REMARK    3  A    between atoms: C_9  and  C_10 
ROOT
HETATM    1  C   UNL     1      -5.188   0.841 -30.648  1.00  0.00     0.165 C 
ENDROOT
BRANCH   1   2
HETATM    2  C   UNL     1      -4.657   2.257 -30.780  1.00  0.00     0.227 C 
HETATM    3  N   UNL     1      -3.671   2.457 -31.717  1.00  0.00    -0.327 N 
HETATM    4  H   UNL     1      -3.273   1.609 -32.121  1.00  0.00     0.169 HD
HETATM    5  O   UNL     1      -5.172   3.138 -30.092  1.00  0.00    -0.273 OA
BRANCH   3   6
HETATM    6  C   UNL     1      -3.080   3.672 -32.119  1.00  0.00     0.036 A 
HETATM    7  C   UNL     1      -1.941   4.223 -31.531  1.00  0.00     0.053 A 
HETATM    8  C   UNL     1      -1.431   5.446 -31.984  1.00  0.00     0.042 A 
HETATM    9  C   UNL     1      -2.049   6.142 -33.034  1.00  0.00    -0.040 A 
HETATM   10 CL   UNL     1      -0.023   6.074 -31.200  1.00  0.00    -0.084 Cl
HETATM   11  C   UNL     1      -1.530   7.461 -33.531  1.00  0.00     0.050 C 
HETATM   12  C   UNL     1      -3.195   5.585 -33.617  1.00  0.00     0.011 A 
HETATM   13  C   UNL     1      -3.703   4.364 -33.163  1.00  0.00     0.030 A 
ENDBRANCH   3   6
ENDBRANCH   1   2
BRANCH   1  14
HETATM   14  C   UNL     1      -4.940  -0.204 -31.719  1.00  0.00     0.074 A 
HETATM   15  N   UNL     1      -3.912  -0.995 -31.618  1.00  0.00    -0.175 NA
HETATM   16  N   UNL     1      -3.707  -1.925 -32.589  1.00  0.00    -0.243 N 
HETATM   17  C   UNL     1      -4.489  -2.124 -33.700  1.00  0.00     0.272 A 
HETATM   18  H   UNL     1      -2.908  -2.542 -32.480  1.00  0.00     0.192 HD
HETATM   19  O   UNL     1      -4.235  -2.986 -34.534  1.00  0.00    -0.266 OA
HETATM   20  C   UNL     1      -5.657  -1.240 -33.836  1.00  0.00     0.046 A 
HETATM   21  C   UNL     1      -5.899  -0.281 -32.855  1.00  0.00     0.006 A 
HETATM   22  C   UNL     1      -6.511  -1.367 -34.939  1.00  0.00     0.018 A 
HETATM   23  C   UNL     1      -7.015   0.556 -32.977  1.00  0.00     0.014 A 
HETATM   24  C   UNL     1      -7.869   0.431 -34.077  1.00  0.00     0.001 A 
HETATM   25  C   UNL     1      -7.617  -0.529 -35.057  1.00  0.00     0.001 A 
ENDBRANCH   1  14
TORSDOF 3
ENDMDL
MODEL 5
REMARK VINA RESULT:      -8.4      5.527      7.307
REMARK  3 active torsions:
REMARK  status: ('A' for Active; 'I' for Inactive)
REMARK    1  A    between atoms: C_6  and  N_7 
REMARK       I    between atoms: N_7  and  C_8 
REMARK    2  A    between atoms: C_8  and  C_9 
REMARK    3  A    between atoms: C_9  and  C_10 
ROOT
HETATM    1  C   UNL     1      -5.983   1.131 -32.246  1.00  0.00     0.165 C 
ENDROOT
BRANCH   1   2
HETATM    2  C   UNL     1      -5.477   2.514 -32.616  1.00  0.00     0.227 C 
HETATM    3  N   UNL     1      -4.356   2.954 -31.953  1.00  0.00    -0.327 N 
HETATM    4  H   UNL     1      -4.062   2.380 -31.162  1.00  0.00     0.169 HD
HETATM    5  O   UNL     1      -6.059   3.127 -33.510  1.00  0.00    -0.273 OA
BRANCH   3   6
HETATM    6  C   UNL     1      -3.619   4.135 -32.169  1.00  0.00     0.036 A 
HETATM    7  C   UNL     1      -2.770   4.343 -33.257  1.00  0.00     0.053 A 
HETATM    8  C   UNL     1      -2.062   5.545 -33.383  1.00  0.00     0.042 A 
HETATM    9  C   UNL     1      -2.189   6.563 -32.426  1.00  0.00    -0.040 A 
HETATM   10 CL   UNL     1      -1.019   5.727 -34.752  1.00  0.00    -0.084 Cl
HETATM   11  C   UNL     1      -1.431   7.856 -32.531  1.00  0.00     0.050 C 
HETATM   12  C   UNL     1      -3.039   6.346 -31.335  1.00  0.00     0.011 A 
HETATM   13  C   UNL     1      -3.745   5.146 -31.209  1.00  0.00     0.030 A 
ENDBRANCH   3   6
ENDBRANCH   1   2
BRANCH   1  14
HETATM   14  C   UNL     1      -5.051  -0.063 -32.172  1.00  0.00     0.074 A 
HETATM   15  N   UNL     1      -4.119  -0.094 -31.264  1.00  0.00    -0.175 NA
HETATM   16  N   UNL     1      -3.293  -1.173 -31.215  1.00  0.00    -0.243 N 
HETATM   17  C   UNL     1      -3.334  -2.266 -32.047  1.00  0.00     0.272 A 
HETATM   18  H   UNL     1      -2.585  -1.183 -30.487  1.00  0.00     0.192 HD
HETATM   19  O   UNL     1      -2.549  -3.200 -31.938  1.00  0.00    -0.266 OA
HETATM   20  C   UNL     1      -4.378  -2.251 -33.083  1.00  0.00     0.046 A 
HETATM   21  C   UNL     1      -5.246  -1.164 -33.156  1.00  0.00     0.006 A 
HETATM   22  C   UNL     1      -4.495  -3.321 -33.978  1.00  0.00     0.018 A 
HETATM   23  C   UNL     1      -6.247  -1.151 -34.135  1.00  0.00     0.014 A 
HETATM   24  C   UNL     1      -6.366  -2.217 -35.031  1.00  0.00     0.001 A 
HETATM   25  C   UNL     1      -5.490  -3.301 -34.953  1.00  0.00     0.001 A 
ENDBRANCH   1  14
TORSDOF 3
ENDMDL
MODEL 6
REMARK VINA RESULT:      -8.4      4.991      7.720
REMARK  3 active torsions:
REMARK  status: ('A' for Active; 'I' for Inactive)
REMARK    1  A    between atoms: C_6  and  N_7 
REMARK       I    between atoms: N_7  and  C_8 
REMARK    2  A    between atoms: C_8  and  C_9 
REMARK    3  A    between atoms: C_9  and  C_10 
ROOT
HETATM    1  C   UNL     1      -4.609   0.359 -30.843  1.00  0.00     0.165 C 
ENDROOT
BRANCH   1   2
HETATM    2  C   UNL     1      -3.615   1.458 -31.173  1.00  0.00     0.227 C 
HETATM    3  N   UNL     1      -4.123   2.581 -31.782  1.00  0.00    -0.327 N 
HETATM    4  H   UNL     1      -5.089   2.506 -32.103  1.00  0.00     0.169 HD
HETATM    5  O   UNL     1      -2.443   1.304 -30.830  1.00  0.00    -0.273 OA
BRANCH   3   6
HETATM    6  C   UNL     1      -3.456   3.781 -32.100  1.00  0.00     0.036 A 
HETATM    7  C   UNL     1      -2.691   3.973 -33.251  1.00  0.00     0.053 A 
HETATM    8  C   UNL     1      -2.047   5.196 -33.478  1.00  0.00     0.042 A 
HETATM    9  C   UNL     1      -2.155   6.251 -32.559  1.00  0.00    -0.040 A 
HETATM   10 CL   UNL     1      -1.107   5.357 -34.921  1.00  0.00    -0.084 Cl
HETATM   11  C   UNL     1      -1.464   7.568 -32.773  1.00  0.00     0.050 C 
HETATM   12  C   UNL     1      -2.920   6.050 -31.404  1.00  0.00     0.011 A 
HETATM   13  C   UNL     1      -3.562   4.829 -31.178  1.00  0.00     0.030 A 
ENDBRANCH   3   6
ENDBRANCH   1   2
BRANCH   1  14
HETATM   14  C   UNL     1      -5.931   0.236 -31.578  1.00  0.00     0.074 A 
HETATM   15  N   UNL     1      -6.953   0.938 -31.182  1.00  0.00    -0.175 NA
HETATM   16  N   UNL     1      -8.129   0.813 -31.853  1.00  0.00    -0.243 N 
HETATM   17  C   UNL     1      -8.363   0.000 -32.936  1.00  0.00     0.272 A 
HETATM   18  H   UNL     1      -8.907   1.383 -31.537  1.00  0.00     0.192 HD
HETATM   19  O   UNL     1      -9.456  -0.057 -33.486  1.00  0.00    -0.266 OA
HETATM   20  C   UNL     1      -7.223  -0.804 -33.400  1.00  0.00     0.046 A 
HETATM   21  C   UNL     1      -6.002  -0.694 -32.738  1.00  0.00     0.006 A 
HETATM   22  C   UNL     1      -7.368  -1.665 -34.495  1.00  0.00     0.018 A 
HETATM   23  C   UNL     1      -4.911  -1.452 -33.183  1.00  0.00     0.014 A 
HETATM   24  C   UNL     1      -5.053  -2.312 -34.276  1.00  0.00     0.001 A 
HETATM   25  C   UNL     1      -6.280  -2.419 -34.931  1.00  0.00     0.001 A 
ENDBRANCH   1  14
TORSDOF 3
ENDMDL
MODEL 7
REMARK VINA RESULT:      -8.3      6.243      8.970
REMARK  3 active torsions:
REMARK  status: ('A' for Active; 'I' for Inactive)
REMARK    1  A    between atoms: C_6  and  N_7 
REMARK       I    between atoms: N_7  and  C_8 
REMARK    2  A    between atoms: C_8  and  C_9 
REMARK    3  A    between atoms: C_9  and  C_10 
ROOT
HETATM    1  C   UNL     1      -4.250   2.737 -32.317  1.00  0.00     0.165 C 
ENDROOT
BRANCH   1   2
HETATM    2  C   UNL     1      -3.698   3.770 -31.350  1.00  0.00     0.227 C 
HETATM    3  N   UNL     1      -2.381   4.126 -31.520  1.00  0.00    -0.327 N 
HETATM    4  H   UNL     1      -1.852   3.548 -32.175  1.00  0.00     0.169 HD
HETATM    5  O   UNL     1      -4.464   4.258 -30.520  1.00  0.00    -0.273 OA
BRANCH   3   6
HETATM    6  C   UNL     1      -1.650   5.123 -30.844  1.00  0.00     0.036 A 
HETATM    7  C   UNL     1      -2.103   6.427 -30.641  1.00  0.00     0.053 A 
HETATM    8  C   UNL     1      -1.302   7.360 -29.971  1.00  0.00     0.042 A 
HETATM    9  C   UNL     1      -0.032   7.007 -29.490  1.00  0.00    -0.040 A 
HETATM   10 CL   UNL     1      -1.924   8.961 -29.768  1.00  0.00    -0.084 Cl
HETATM   11  C   UNL     1       0.853   7.991 -28.779  1.00  0.00     0.050 C 
HETATM   12  C   UNL     1       0.419   5.698 -29.700  1.00  0.00     0.011 A 
HETATM   13  C   UNL     1      -0.383   4.768 -30.369  1.00  0.00     0.030 A 
ENDBRANCH   3   6
ENDBRANCH   1   2
BRANCH   1  14
HETATM   14  C   UNL     1      -3.917   1.263 -32.181  1.00  0.00     0.074 A 
HETATM   15  N   UNL     1      -2.954   0.893 -31.388  1.00  0.00    -0.175 NA
HETATM   16  N   UNL     1      -2.671  -0.432 -31.282  1.00  0.00    -0.243 N 
HETATM   17  C   UNL     1      -3.308  -1.454 -31.942  1.00  0.00     0.272 A 
HETATM   18  H   UNL     1      -1.926  -0.699 -30.644  1.00  0.00     0.192 HD
HETATM   19  O   UNL     1      -2.990  -2.628 -31.793  1.00  0.00    -0.266 OA
HETATM   20  C   UNL     1      -4.399  -1.060 -32.846  1.00  0.00     0.046 A 
HETATM   21  C   UNL     1      -4.719   0.290 -32.973  1.00  0.00     0.006 A 
HETATM   22  C   UNL     1      -5.104  -2.033 -33.564  1.00  0.00     0.018 A 
HETATM   23  C   UNL     1      -5.764   0.669 -33.825  1.00  0.00     0.014 A 
HETATM   24  C   UNL     1      -6.469  -0.301 -34.544  1.00  0.00     0.001 A 
HETATM   25  C   UNL     1      -6.139  -1.650 -34.414  1.00  0.00     0.001 A 
ENDBRANCH   1  14
TORSDOF 3
ENDMDL
MODEL 8
REMARK VINA RESULT:      -8.2      5.301      7.579
REMARK  3 active torsions:
REMARK  status: ('A' for Active; 'I' for Inactive)
REMARK    1  A    between atoms: C_6  and  N_7 
REMARK       I    between atoms: N_7  and  C_8 
REMARK    2  A    between atoms: C_8  and  C_9 
REMARK    3  A    between atoms: C_9  and  C_10 
ROOT
HETATM    1  C   UNL     1      -6.154   4.421 -32.498  1.00  0.00     0.165 C 
ENDROOT
BRANCH   1   2
HETATM    2  C   UNL     1      -6.480   2.939 -32.532  1.00  0.00     0.227 C 
HETATM    3  N   UNL     1      -6.034   2.237 -33.627  1.00  0.00    -0.327 N 
HETATM    4  H   UNL     1      -5.668   2.807 -34.391  1.00  0.00     0.169 HD
HETATM    5  O   UNL     1      -7.067   2.450 -31.567  1.00  0.00    -0.273 OA
BRANCH   3   6
HETATM    6  C   UNL     1      -6.102   0.850 -33.865  1.00  0.00     0.036 A 
HETATM    7  C   UNL     1      -5.148  -0.068 -33.428  1.00  0.00     0.053 A 
HETATM    8  C   UNL     1      -5.287  -1.430 -33.725  1.00  0.00     0.042 A 
HETATM    9  C   UNL     1      -6.384  -1.900 -34.463  1.00  0.00    -0.040 A 
HETATM   10 CL   UNL     1      -4.057  -2.509 -33.161  1.00  0.00    -0.084 Cl
HETATM   11  C   UNL     1      -6.550  -3.354 -34.805  1.00  0.00     0.050 C 
HETATM   12  C   UNL     1      -7.336  -0.972 -34.901  1.00  0.00     0.011 A 
HETATM   13  C   UNL     1      -7.195   0.387 -34.605  1.00  0.00     0.030 A 
ENDBRANCH   3   6
ENDBRANCH   1   2
BRANCH   1  14
HETATM   14  C   UNL     1      -4.856   4.936 -31.906  1.00  0.00     0.074 A 
HETATM   15  N   UNL     1      -4.772   5.139 -30.623  1.00  0.00    -0.175 NA
HETATM   16  N   UNL     1      -3.600   5.601 -30.112  1.00  0.00    -0.243 N 
HETATM   17  C   UNL     1      -2.461   5.889 -30.824  1.00  0.00     0.272 A 
HETATM   18  H   UNL     1      -3.553   5.735 -29.106  1.00  0.00     0.192 HD
HETATM   19  O   UNL     1      -1.442   6.306 -30.286  1.00  0.00    -0.266 OA
HETATM   20  C   UNL     1      -2.534   5.670 -32.276  1.00  0.00     0.046 A 
HETATM   21  C   UNL     1      -3.718   5.190 -32.831  1.00  0.00     0.006 A 
HETATM   22  C   UNL     1      -1.422   5.939 -33.084  1.00  0.00     0.018 A 
HETATM   23  C   UNL     1      -3.787   4.971 -34.213  1.00  0.00     0.014 A 
HETATM   24  C   UNL     1      -2.679   5.239 -35.022  1.00  0.00     0.001 A 
HETATM   25  C   UNL     1      -1.498   5.723 -34.458  1.00  0.00     0.001 A 
ENDBRANCH   1  14
TORSDOF 3
ENDMDL
MODEL 9
REMARK VINA RESULT:      -8.1      5.435      7.378
REMARK  3 active torsions:
REMARK  status: ('A' for Active; 'I' for Inactive)
REMARK    1  A    between atoms: C_6  and  N_7 
REMARK       I    between atoms: N_7  and  C_8 
REMARK    2  A    between atoms: C_8  and  C_9 
REMARK    3  A    between atoms: C_9  and  C_10 
ROOT
HETATM    1  C   UNL     1      -3.063   2.941 -31.980  1.00  0.00     0.165 C 
ENDROOT
BRANCH   1   2
HETATM    2  C   UNL     1      -4.509   2.560 -31.721  1.00  0.00     0.227 C 
HETATM    3  N   UNL     1      -5.273   2.266 -32.826  1.00  0.00    -0.327 N 
HETATM    4  H   UNL     1      -4.845   2.488 -33.725  1.00  0.00     0.169 HD
HETATM    5  O   UNL     1      -4.890   2.484 -30.553  1.00  0.00    -0.273 OA
BRANCH   3   6
HETATM    6  C   UNL     1      -6.597   1.788 -32.871  1.00  0.00     0.036 A 
HETATM    7  C   UNL     1      -7.728   2.587 -32.701  1.00  0.00     0.053 A 
HETATM    8  C   UNL     1      -9.009   2.023 -32.744  1.00  0.00     0.042 A 
HETATM    9  C   UNL     1      -9.185   0.648 -32.959  1.00  0.00    -0.040 A 
HETATM   10 CL   UNL     1     -10.363   3.075 -32.514  1.00  0.00    -0.084 Cl
HETATM   11  C   UNL     1     -10.547   0.015 -32.998  1.00  0.00     0.050 C 
HETATM   12  C   UNL     1      -8.047  -0.150 -33.125  1.00  0.00     0.011 A 
HETATM   13  C   UNL     1      -6.768   0.415 -33.080  1.00  0.00     0.030 A 
ENDBRANCH   3   6
ENDBRANCH   1   2
BRANCH   1  14
HETATM   14  C   UNL     1      -2.690   4.277 -32.595  1.00  0.00     0.074 A 
HETATM   15  N   UNL     1      -3.337   4.705 -33.640  1.00  0.00    -0.175 NA
HETATM   16  N   UNL     1      -2.987   5.904 -34.176  1.00  0.00    -0.243 N 
HETATM   17  C   UNL     1      -1.995   6.738 -33.722  1.00  0.00     0.272 A 
HETATM   18  H   UNL     1      -3.517   6.225 -34.981  1.00  0.00     0.192 HD
HETATM   19  O   UNL     1      -1.739   7.807 -34.265  1.00  0.00    -0.266 OA
HETATM   20  C   UNL     1      -1.249   6.274 -32.543  1.00  0.00     0.046 A 
HETATM   21  C   UNL     1      -1.587   5.053 -31.964  1.00  0.00     0.006 A 
HETATM   22  C   UNL     1      -0.217   7.057 -32.010  1.00  0.00     0.018 A 
HETATM   23  C   UNL     1      -0.885   4.612 -30.835  1.00  0.00     0.014 A 
HETATM   24  C   UNL     1       0.146   5.391 -30.302  1.00  0.00     0.001 A 
HETATM   25  C   UNL     1       0.480   6.612 -30.889  1.00  0.00     0.001 A 
ENDBRANCH   1  14
TORSDOF 3
ENDMDL
MODEL 10
REMARK VINA RESULT:      -8.1      4.932      7.742
REMARK  3 active torsions:
REMARK  status: ('A' for Active; 'I' for Inactive)
REMARK    1  A    between atoms: C_6  and  N_7 
REMARK       I    between atoms: N_7  and  C_8 
REMARK    2  A    between atoms: C_8  and  C_9 
REMARK    3  A    between atoms: C_9  and  C_10 
ROOT
HETATM    1  C   UNL     1      -4.529   0.324 -31.410  1.00  0.00     0.165 C 
ENDROOT
BRANCH   1   2
HETATM    2  C   UNL     1      -3.527   1.465 -31.407  1.00  0.00     0.227 C 
HETATM    3  N   UNL     1      -3.923   2.630 -32.020  1.00  0.00    -0.327 N 
HETATM    4  H   UNL     1      -4.787   2.569 -32.560  1.00  0.00     0.169 HD
HETATM    5  O   UNL     1      -2.460   1.299 -30.818  1.00  0.00    -0.273 OA
BRANCH   3   6
HETATM    6  C   UNL     1      -3.246   3.864 -32.072  1.00  0.00     0.036 A 
HETATM    7  C   UNL     1      -3.408   4.889 -31.139  1.00  0.00     0.053 A 
HETATM    8  C   UNL     1      -2.705   6.092 -31.278  1.00  0.00     0.042 A 
HETATM    9  C   UNL     1      -1.826   6.295 -32.353  1.00  0.00    -0.040 A 
HETATM   10 CL   UNL     1      -2.965   7.321 -30.089  1.00  0.00    -0.084 Cl
HETATM   11  C   UNL     1      -1.070   7.581 -32.533  1.00  0.00     0.050 C 
HETATM   12  C   UNL     1      -1.672   5.265 -33.289  1.00  0.00     0.011 A 
HETATM   13  C   UNL     1      -2.374   4.064 -33.148  1.00  0.00     0.030 A 
ENDBRANCH   3   6
ENDBRANCH   1   2
BRANCH   1  14
HETATM   14  C   UNL     1      -5.552   0.168 -32.520  1.00  0.00     0.074 A 
HETATM   15  N   UNL     1      -6.472   1.075 -32.678  1.00  0.00    -0.175 NA
HETATM   16  N   UNL     1      -7.379   0.915 -33.677  1.00  0.00    -0.243 N 
HETATM   17  C   UNL     1      -7.434  -0.132 -34.565  1.00  0.00     0.272 A 
HETATM   18  H   UNL     1      -8.077   1.645 -33.792  1.00  0.00     0.192 HD
HETATM   19  O   UNL     1      -8.289  -0.203 -35.440  1.00  0.00    -0.266 OA
HETATM   20  C   UNL     1      -6.406  -1.171 -34.404  1.00  0.00     0.046 A 
HETATM   21  C   UNL     1      -5.456  -1.034 -33.394  1.00  0.00     0.006 A 
HETATM   22  C   UNL     1      -6.384  -2.278 -35.261  1.00  0.00     0.018 A 
HETATM   23  C   UNL     1      -4.469  -2.017 -33.244  1.00  0.00     0.014 A 
HETATM   24  C   UNL     1      -4.446  -3.123 -34.098  1.00  0.00     0.001 A 
HETATM   25  C   UNL     1      -5.403  -3.254 -35.105  1.00  0.00     0.001 A 
ENDBRANCH   1  14
TORSDOF 3
ENDMDL
