MODEL 1
REMARK VINA RESULT:      -9.7      0.000      0.000
REMARK  9 active torsions:
REMARK  status: ('A' for Active; 'I' for Inactive)
REMARK    1  A    between atoms: C_4  and  S_5 
REMARK    2  A    between atoms: S_5  and  C_6 
REMARK    3  A    between atoms: C_6  and  C_7 
REMARK       I    between atoms: C_7  and  N_8 
REMARK    4  A    between atoms: N_8  and  C_9 
REMARK    5  A    between atoms: C_10  and  O_11 
REMARK    6  A    between atoms: C_16  and  O_17 
REMARK    7  A    between atoms: C_24  and  C_25 
REMARK    8  A    between atoms: C_31  and  C_32 
REMARK       I    between atoms: C_32  and  N_33 
REMARK    9  A    between atoms: N_33  and  C_34 
ROOT
HETATM    1  C   UNL     1      -6.011   1.000 -29.834  1.00  0.00     0.069 C 
HETATM    2  C   UNL     1      -6.041   2.348 -30.507  1.00  0.00     0.019 C 
HETATM    3  N   UNL     1      -5.987   3.450 -29.664  1.00  0.00    -0.353 N 
HETATM    4  C   UNL     1      -6.319   4.738 -30.048  1.00  0.00     0.087 C 
HETATM    5  C   UNL     1      -6.413   5.024 -31.365  1.00  0.00     0.055 C 
HETATM    6  C   UNL     1      -6.887   6.370 -31.888  1.00  0.00     0.019 C 
HETATM    7  N   UNL     1      -7.280   7.485 -32.323  1.00  0.00    -0.096 N 
HETATM    8  C   UNL     1      -6.098   3.961 -32.413  1.00  0.00     0.104 C 
HETATM    9  C   UNL     1      -6.122   2.541 -31.846  1.00  0.00     0.046 C 
HETATM   10  H   UNL     1      -5.988   3.283 -28.661  1.00  0.00     0.166 HD
ENDROOT
BRANCH   4  11
HETATM   11  S   UNL     1      -6.572   5.970 -28.844  1.00  0.00    -0.102 SA
BRANCH  11  12
HETATM   12  C   UNL     1      -5.433   5.406 -27.526  1.00  0.00     0.184 C 
BRANCH  12  13
HETATM   13  C   UNL     1      -4.758   6.659 -26.997  1.00  0.00     0.231 C 
HETATM   14  N   UNL     1      -3.508   6.404 -26.465  1.00  0.00    -0.324 N 
HETATM   15  H   UNL     1      -3.344   5.536 -25.965  1.00  0.00     0.169 HD
HETATM   16  O   UNL     1      -5.234   7.780 -27.160  1.00  0.00    -0.272 OA
BRANCH  14  17
HETATM   17  C   UNL     1      -2.330   7.107 -26.806  1.00  0.00     0.071 A 
HETATM   18  C   UNL     1      -1.701   7.847 -25.790  1.00  0.00     0.096 A 
HETATM   19  C   UNL     1      -0.452   8.417 -26.025  1.00  0.00     0.065 A 
HETATM   20  C   UNL     1       0.161   8.263 -27.273  1.00  0.00     0.070 A 
HETATM   21 CL   UNL     1       1.735   8.951 -27.485  1.00  0.00    -0.081 Cl
HETATM   22  C   UNL     1      -0.469   7.553 -28.306  1.00  0.00     0.092 A 
HETATM   23  C   UNL     1      -1.724   6.988 -28.062  1.00  0.00     0.071 A 
BRANCH  18  24
HETATM   24  O   UNL     1      -2.356   7.901 -24.581  1.00  0.00    -0.354 OA
HETATM   25  C   UNL     1      -2.268   9.156 -23.908  1.00  0.00     0.210 C 
ENDBRANCH  18  24
BRANCH  22  26
HETATM   26  O   UNL     1       0.215   7.432 -29.488  1.00  0.00    -0.354 OA
HETATM   27  C   UNL     1       0.254   6.147 -30.100  1.00  0.00     0.210 C 
ENDBRANCH  22  26
ENDBRANCH  14  17
ENDBRANCH  12  13
ENDBRANCH  11  12
ENDBRANCH   4  11
BRANCH   8  28
HETATM   28  C   UNL     1      -4.763   4.300 -33.089  1.00  0.00    -0.044 A 
HETATM   29  C   UNL     1      -3.535   4.043 -32.453  1.00  0.00     0.008 A 
HETATM   30  C   UNL     1      -2.329   4.372 -33.072  1.00  0.00     0.001 A 
HETATM   31  C   UNL     1      -2.332   4.974 -34.328  1.00  0.00     0.000 A 
HETATM   32  C   UNL     1      -3.540   5.248 -34.964  1.00  0.00     0.001 A 
HETATM   33  C   UNL     1      -4.750   4.917 -34.350  1.00  0.00     0.008 A 
ENDBRANCH   8  28
BRANCH   9  34
HETATM   34  C   UNL     1      -6.461   1.407 -32.765  1.00  0.00     0.255 C 
HETATM   35  N   UNL     1      -5.771   0.245 -32.515  1.00  0.00    -0.323 N 
HETATM   36  H   UNL     1      -5.177   0.210 -31.696  1.00  0.00     0.169 HD
HETATM   37  O   UNL     1      -7.252   1.602 -33.685  1.00  0.00    -0.268 OA
BRANCH  35  38
HETATM   38  C   UNL     1      -5.764  -0.931 -33.296  1.00  0.00     0.035 A 
HETATM   39  C   UNL     1      -6.913  -1.547 -33.795  1.00  0.00     0.029 A 
HETATM   40  C   UNL     1      -6.815  -2.700 -34.580  1.00  0.00     0.002 A 
HETATM   41  C   UNL     1      -5.569  -3.242 -34.881  1.00  0.00     0.000 A 
HETATM   42  C   UNL     1      -4.416  -2.636 -34.388  1.00  0.00     0.002 A 
HETATM   43  C   UNL     1      -4.514  -1.492 -33.593  1.00  0.00     0.029 A 
ENDBRANCH  35  38
ENDBRANCH   9  34
TORSDOF 9
ENDMDL
MODEL 2
REMARK VINA RESULT:      -9.6      5.503      8.820
REMARK  9 active torsions:
REMARK  status: ('A' for Active; 'I' for Inactive)
REMARK    1  A    between atoms: C_4  and  S_5 
REMARK    2  A    between atoms: S_5  and  C_6 
REMARK    3  A    between atoms: C_6  and  C_7 
REMARK       I    between atoms: C_7  and  N_8 
REMARK    4  A    between atoms: N_8  and  C_9 
REMARK    5  A    between atoms: C_10  and  O_11 
REMARK    6  A    between atoms: C_16  and  O_17 
REMARK    7  A    between atoms: C_24  and  C_25 
REMARK    8  A    between atoms: C_31  and  C_32 
REMARK       I    between atoms: C_32  and  N_33 
REMARK    9  A    between atoms: N_33  and  C_34 
ROOT
HETATM    1  C   UNL     1      -5.493   0.689 -29.803  1.00  0.00     0.069 C 
HETATM    2  C   UNL     1      -5.842   1.784 -30.777  1.00  0.00     0.019 C 
HETATM    3  N   UNL     1      -6.559   2.854 -30.259  1.00  0.00    -0.353 N 
HETATM    4  C   UNL     1      -7.238   3.780 -31.032  1.00  0.00     0.087 C 
HETATM    5  C   UNL     1      -6.965   3.855 -32.352  1.00  0.00     0.055 C 
HETATM    6  C   UNL     1      -7.737   4.751 -33.308  1.00  0.00     0.019 C 
HETATM    7  N   UNL     1      -8.377   5.492 -34.101  1.00  0.00    -0.096 N 
HETATM    8  C   UNL     1      -5.883   2.977 -32.972  1.00  0.00     0.104 C 
HETATM    9  C   UNL     1      -5.511   1.783 -32.092  1.00  0.00     0.046 C 
HETATM   10  H   UNL     1      -6.848   2.806 -29.286  1.00  0.00     0.166 HD
ENDROOT
BRANCH   4  11
HETATM   11  S   UNL     1      -8.395   4.852 -30.294  1.00  0.00    -0.102 SA
BRANCH  11  12
HETATM   12  C   UNL     1      -9.866   3.765 -30.203  1.00  0.00     0.184 C 
BRANCH  12  13
HETATM   13  C   UNL     1     -10.779   4.206 -31.333  1.00  0.00     0.231 C 
HETATM   14  N   UNL     1     -10.784   3.315 -32.390  1.00  0.00    -0.324 N 
HETATM   15  H   UNL     1      -9.929   2.830 -32.640  1.00  0.00     0.169 HD
HETATM   16  O   UNL     1     -11.521   5.180 -31.234  1.00  0.00    -0.272 OA
BRANCH  14  17
HETATM   17  C   UNL     1     -11.950   2.777 -32.982  1.00  0.00     0.071 A 
HETATM   18  C   UNL     1     -11.787   2.004 -34.144  1.00  0.00     0.096 A 
HETATM   19  C   UNL     1     -12.876   1.311 -34.670  1.00  0.00     0.065 A 
HETATM   20  C   UNL     1     -14.125   1.402 -34.047  1.00  0.00     0.070 A 
HETATM   21 CL   UNL     1     -15.426   0.478 -34.719  1.00  0.00    -0.081 Cl
HETATM   22  C   UNL     1     -14.309   2.195 -32.905  1.00  0.00     0.092 A 
HETATM   23  C   UNL     1     -13.212   2.889 -32.387  1.00  0.00     0.071 A 
BRANCH  18  24
HETATM   24  O   UNL     1     -10.512   1.933 -34.656  1.00  0.00    -0.354 OA
HETATM   25  C   UNL     1      -9.762   0.794 -34.238  1.00  0.00     0.210 C 
ENDBRANCH  18  24
BRANCH  22  26
HETATM   26  O   UNL     1     -15.562   2.207 -32.348  1.00  0.00    -0.354 OA
HETATM   27  C   UNL     1     -16.153   3.474 -32.076  1.00  0.00     0.210 C 
ENDBRANCH  22  26
ENDBRANCH  14  17
ENDBRANCH  12  13
ENDBRANCH  11  12
ENDBRANCH   4  11
BRANCH   8  28
HETATM   28  C   UNL     1      -4.669   3.846 -33.324  1.00  0.00    -0.044 A 
HETATM   29  C   UNL     1      -4.630   4.602 -34.509  1.00  0.00     0.008 A 
HETATM   30  C   UNL     1      -3.512   5.376 -34.825  1.00  0.00     0.001 A 
HETATM   31  C   UNL     1      -2.414   5.394 -33.970  1.00  0.00     0.000 A 
HETATM   32  C   UNL     1      -2.431   4.639 -32.800  1.00  0.00     0.001 A 
HETATM   33  C   UNL     1      -3.549   3.867 -32.477  1.00  0.00     0.008 A 
ENDBRANCH   8  28
BRANCH   9  34
HETATM   34  C   UNL     1      -4.991   0.540 -32.750  1.00  0.00     0.255 C 
HETATM   35  N   UNL     1      -5.966  -0.287 -33.254  1.00  0.00    -0.323 N 
HETATM   36  H   UNL     1      -6.925   0.037 -33.233  1.00  0.00     0.169 HD
HETATM   37  O   UNL     1      -3.784   0.320 -32.737  1.00  0.00    -0.268 OA
BRANCH  35  38
HETATM   38  C   UNL     1      -5.797  -1.584 -33.787  1.00  0.00     0.035 A 
HETATM   39  C   UNL     1      -4.567  -2.236 -33.885  1.00  0.00     0.029 A 
HETATM   40  C   UNL     1      -4.490  -3.531 -34.406  1.00  0.00     0.002 A 
HETATM   41  C   UNL     1      -5.643  -4.190 -34.825  1.00  0.00     0.000 A 
HETATM   42  C   UNL     1      -6.876  -3.548 -34.732  1.00  0.00     0.002 A 
HETATM   43  C   UNL     1      -6.951  -2.250 -34.223  1.00  0.00     0.029 A 
ENDBRANCH  35  38
ENDBRANCH   9  34
TORSDOF 9
ENDMDL
MODEL 3
REMARK VINA RESULT:      -9.5      3.478      5.487
REMARK  9 active torsions:
REMARK  status: ('A' for Active; 'I' for Inactive)
REMARK    1  A    between atoms: C_4  and  S_5 
REMARK    2  A    between atoms: S_5  and  C_6 
REMARK    3  A    between atoms: C_6  and  C_7 
REMARK       I    between atoms: C_7  and  N_8 
REMARK    4  A    between atoms: N_8  and  C_9 
REMARK    5  A    between atoms: C_10  and  O_11 
REMARK    6  A    between atoms: C_16  and  O_17 
REMARK    7  A    between atoms: C_24  and  C_25 
REMARK    8  A    between atoms: C_31  and  C_32 
REMARK       I    between atoms: C_32  and  N_33 
REMARK    9  A    between atoms: N_33  and  C_34 
ROOT
HETATM    1  C   UNL     1      -5.451   3.290 -34.509  1.00  0.00     0.069 C 
HETATM    2  C   UNL     1      -6.782   3.272 -33.803  1.00  0.00     0.019 C 
HETATM    3  N   UNL     1      -7.062   4.371 -33.003  1.00  0.00    -0.353 N 
HETATM    4  C   UNL     1      -8.059   4.399 -32.043  1.00  0.00     0.087 C 
HETATM    5  C   UNL     1      -9.015   3.445 -32.066  1.00  0.00     0.055 C 
HETATM    6  C   UNL     1     -10.082   3.315 -30.991  1.00  0.00     0.019 C 
HETATM    7  N   UNL     1     -10.966   3.207 -30.100  1.00  0.00    -0.096 N 
HETATM    8  C   UNL     1      -9.031   2.389 -33.168  1.00  0.00     0.104 C 
HETATM    9  C   UNL     1      -7.693   2.272 -33.897  1.00  0.00     0.046 C 
HETATM   10  H   UNL     1      -6.341   5.080 -32.900  1.00  0.00     0.166 HD
ENDROOT
BRANCH   4  11
HETATM   11  S   UNL     1      -8.092   5.670 -30.854  1.00  0.00    -0.102 SA
BRANCH  11  12
HETATM   12  C   UNL     1      -7.383   4.807 -29.403  1.00  0.00     0.184 C 
BRANCH  12  13
HETATM   13  C   UNL     1      -5.921   5.215 -29.351  1.00  0.00     0.231 C 
HETATM   14  N   UNL     1      -5.087   4.274 -29.926  1.00  0.00    -0.324 N 
HETATM   15  H   UNL     1      -5.303   3.287 -29.828  1.00  0.00     0.169 HD
HETATM   16  O   UNL     1      -5.563   6.322 -28.960  1.00  0.00    -0.272 OA
BRANCH  14  17
HETATM   17  C   UNL     1      -4.108   4.558 -30.906  1.00  0.00     0.071 A 
HETATM   18  C   UNL     1      -3.475   3.466 -31.523  1.00  0.00     0.096 A 
HETATM   19  C   UNL     1      -2.630   3.682 -32.610  1.00  0.00     0.065 A 
HETATM   20  C   UNL     1      -2.407   4.985 -33.069  1.00  0.00     0.070 A 
HETATM   21 CL   UNL     1      -1.388   5.183 -34.455  1.00  0.00    -0.081 Cl
HETATM   22  C   UNL     1      -3.009   6.087 -32.444  1.00  0.00     0.092 A 
HETATM   23  C   UNL     1      -3.851   5.859 -31.351  1.00  0.00     0.071 A 
BRANCH  18  24
HETATM   24  O   UNL     1      -3.795   2.220 -31.035  1.00  0.00    -0.354 OA
HETATM   25  C   UNL     1      -3.391   1.131 -31.863  1.00  0.00     0.210 C 
ENDBRANCH  18  24
BRANCH  22  26
HETATM   26  O   UNL     1      -2.752   7.324 -32.976  1.00  0.00    -0.354 OA
HETATM   27  C   UNL     1      -1.735   8.109 -32.361  1.00  0.00     0.210 C 
ENDBRANCH  22  26
ENDBRANCH  14  17
ENDBRANCH  12  13
ENDBRANCH  11  12
ENDBRANCH   4  11
BRANCH   8  28
HETATM   28  C   UNL     1     -10.196   2.677 -34.124  1.00  0.00    -0.044 A 
HETATM   29  C   UNL     1     -10.361   3.941 -34.717  1.00  0.00     0.008 A 
HETATM   30  C   UNL     1     -11.435   4.194 -35.572  1.00  0.00     0.001 A 
HETATM   31  C   UNL     1     -12.366   3.192 -35.834  1.00  0.00     0.000 A 
HETATM   32  C   UNL     1     -12.224   1.939 -35.243  1.00  0.00     0.001 A 
HETATM   33  C   UNL     1     -11.149   1.681 -34.391  1.00  0.00     0.008 A 
ENDBRANCH   8  28
BRANCH   9  34
HETATM   34  C   UNL     1      -7.325   0.956 -34.514  1.00  0.00     0.255 C 
HETATM   35  N   UNL     1      -6.813   0.036 -33.630  1.00  0.00    -0.323 N 
HETATM   36  H   UNL     1      -6.814   0.270 -32.645  1.00  0.00     0.169 HD
HETATM   37  O   UNL     1      -7.438   0.815 -35.728  1.00  0.00    -0.268 OA
BRANCH  35  38
HETATM   38  C   UNL     1      -6.244  -1.220 -33.935  1.00  0.00     0.035 A 
HETATM   39  C   UNL     1      -4.893  -1.528 -33.771  1.00  0.00     0.029 A 
HETATM   40  C   UNL     1      -4.414  -2.805 -34.077  1.00  0.00     0.002 A 
HETATM   41  C   UNL     1      -5.283  -3.789 -34.541  1.00  0.00     0.000 A 
HETATM   42  C   UNL     1      -6.633  -3.492 -34.710  1.00  0.00     0.002 A 
HETATM   43  C   UNL     1      -7.109  -2.213 -34.415  1.00  0.00     0.029 A 
ENDBRANCH  35  38
ENDBRANCH   9  34
TORSDOF 9
ENDMDL
MODEL 4
REMARK VINA RESULT:      -9.4      3.835      5.647
REMARK  9 active torsions:
REMARK  status: ('A' for Active; 'I' for Inactive)
REMARK    1  A    between atoms: C_4  and  S_5 
REMARK    2  A    between atoms: S_5  and  C_6 
REMARK    3  A    between atoms: C_6  and  C_7 
REMARK       I    between atoms: C_7  and  N_8 
REMARK    4  A    between atoms: N_8  and  C_9 
REMARK    5  A    between atoms: C_10  and  O_11 
REMARK    6  A    between atoms: C_16  and  O_17 
REMARK    7  A    between atoms: C_24  and  C_25 
REMARK    8  A    between atoms: C_31  and  C_32 
REMARK       I    between atoms: C_32  and  N_33 
REMARK    9  A    between atoms: N_33  and  C_34 
ROOT
HETATM    1  C   UNL     1      -5.837   3.627 -34.225  1.00  0.00     0.069 C 
HETATM    2  C   UNL     1      -7.218   3.861 -33.670  1.00  0.00     0.019 C 
HETATM    3  N   UNL     1      -7.640   5.182 -33.624  1.00  0.00    -0.353 N 
HETATM    4  C   UNL     1      -8.714   5.629 -32.873  1.00  0.00     0.087 C 
HETATM    5  C   UNL     1      -9.595   4.726 -32.392  1.00  0.00     0.055 C 
HETATM    6  C   UNL     1     -10.737   5.099 -31.460  1.00  0.00     0.019 C 
HETATM    7  N   UNL     1     -11.683   5.407 -30.686  1.00  0.00    -0.096 N 
HETATM    8  C   UNL     1      -9.446   3.244 -32.722  1.00  0.00     0.104 C 
HETATM    9  C   UNL     1      -8.046   2.885 -33.221  1.00  0.00     0.046 C 
HETATM   10  H   UNL     1      -6.981   5.902 -33.909  1.00  0.00     0.166 HD
ENDROOT
BRANCH   4  11
HETATM   11  S   UNL     1      -8.933   7.333 -32.592  1.00  0.00    -0.102 SA
BRANCH  11  12
HETATM   12  C   UNL     1      -7.941   7.565 -31.071  1.00  0.00     0.184 C 
BRANCH  12  13
HETATM   13  C   UNL     1      -6.510   7.231 -31.455  1.00  0.00     0.231 C 
HETATM   14  N   UNL     1      -5.821   6.599 -30.436  1.00  0.00    -0.324 N 
HETATM   15  H   UNL     1      -5.999   6.863 -29.473  1.00  0.00     0.169 HD
HETATM   16  O   UNL     1      -6.082   7.393 -32.595  1.00  0.00    -0.272 OA
BRANCH  14  17
HETATM   17  C   UNL     1      -5.096   5.394 -30.583  1.00  0.00     0.071 A 
HETATM   18  C   UNL     1      -5.783   4.193 -30.338  1.00  0.00     0.096 A 
HETATM   19  C   UNL     1      -5.170   2.976 -30.631  1.00  0.00     0.065 A 
HETATM   20  C   UNL     1      -3.871   2.959 -31.151  1.00  0.00     0.070 A 
HETATM   21 CL   UNL     1      -3.184   1.418 -31.541  1.00  0.00    -0.081 Cl
HETATM   22  C   UNL     1      -3.162   4.149 -31.371  1.00  0.00     0.092 A 
HETATM   23  C   UNL     1      -3.785   5.364 -31.070  1.00  0.00     0.071 A 
BRANCH  18  24
HETATM   24  O   UNL     1      -7.073   4.311 -29.875  1.00  0.00    -0.354 OA
HETATM   25  C   UNL     1      -7.696   3.078 -29.517  1.00  0.00     0.210 C 
ENDBRANCH  18  24
BRANCH  22  26
HETATM   26  O   UNL     1      -1.904   4.037 -31.904  1.00  0.00    -0.354 OA
HETATM   27  C   UNL     1      -1.043   5.168 -31.808  1.00  0.00     0.210 C 
ENDBRANCH  22  26
ENDBRANCH  14  17
ENDBRANCH  12  13
ENDBRANCH  11  12
ENDBRANCH   4  11
BRANCH   8  28
HETATM   28  C   UNL     1     -10.544   2.836 -33.712  1.00  0.00    -0.044 A 
HETATM   29  C   UNL     1     -10.870   3.642 -34.817  1.00  0.00     0.008 A 
HETATM   30  C   UNL     1     -11.883   3.267 -35.701  1.00  0.00     0.001 A 
HETATM   31  C   UNL     1     -12.592   2.088 -35.486  1.00  0.00     0.000 A 
HETATM   32  C   UNL     1     -12.290   1.285 -34.389  1.00  0.00     0.001 A 
HETATM   33  C   UNL     1     -11.275   1.655 -33.504  1.00  0.00     0.008 A 
ENDBRANCH   8  28
BRANCH   9  34
HETATM   34  C   UNL     1      -7.537   1.494 -32.992  1.00  0.00     0.255 C 
HETATM   35  N   UNL     1      -6.807   0.975 -34.034  1.00  0.00    -0.323 N 
HETATM   36  H   UNL     1      -6.589   1.584 -34.813  1.00  0.00     0.169 HD
HETATM   37  O   UNL     1      -7.850   0.909 -31.958  1.00  0.00    -0.268 OA
BRANCH  35  38
HETATM   38  C   UNL     1      -6.333  -0.347 -34.172  1.00  0.00     0.035 A 
HETATM   39  C   UNL     1      -7.068  -1.387 -34.743  1.00  0.00     0.029 A 
HETATM   40  C   UNL     1      -6.514  -2.666 -34.861  1.00  0.00     0.002 A 
HETATM   41  C   UNL     1      -5.217  -2.914 -34.419  1.00  0.00     0.000 A 
HETATM   42  C   UNL     1      -4.475  -1.884 -33.847  1.00  0.00     0.002 A 
HETATM   43  C   UNL     1      -5.033  -0.610 -33.718  1.00  0.00     0.029 A 
ENDBRANCH  35  38
ENDBRANCH   9  34
TORSDOF 9
ENDMDL
MODEL 5
REMARK VINA RESULT:      -9.3      3.484      9.693
REMARK  9 active torsions:
REMARK  status: ('A' for Active; 'I' for Inactive)
REMARK    1  A    between atoms: C_4  and  S_5 
REMARK    2  A    between atoms: S_5  and  C_6 
REMARK    3  A    between atoms: C_6  and  C_7 
REMARK       I    between atoms: C_7  and  N_8 
REMARK    4  A    between atoms: N_8  and  C_9 
REMARK    5  A    between atoms: C_10  and  O_11 
REMARK    6  A    between atoms: C_16  and  O_17 
REMARK    7  A    between atoms: C_24  and  C_25 
REMARK    8  A    between atoms: C_31  and  C_32 
REMARK       I    between atoms: C_32  and  N_33 
REMARK    9  A    between atoms: N_33  and  C_34 
ROOT
HETATM    1  C   UNL     1      -5.695   7.594 -29.592  1.00  0.00     0.069 C 
HETATM    2  C   UNL     1      -5.062   6.356 -30.174  1.00  0.00     0.019 C 
HETATM    3  N   UNL     1      -5.935   5.344 -30.547  1.00  0.00    -0.353 N 
HETATM    4  C   UNL     1      -5.549   4.037 -30.793  1.00  0.00     0.087 C 
HETATM    5  C   UNL     1      -4.240   3.767 -30.983  1.00  0.00     0.055 C 
HETATM    6  C   UNL     1      -3.699   2.355 -31.140  1.00  0.00     0.019 C 
HETATM    7  N   UNL     1      -3.251   1.185 -31.270  1.00  0.00    -0.096 N 
HETATM    8  C   UNL     1      -3.209   4.892 -30.988  1.00  0.00     0.104 C 
HETATM    9  C   UNL     1      -3.728   6.177 -30.343  1.00  0.00     0.046 C 
HETATM   10  H   UNL     1      -6.925   5.475 -30.356  1.00  0.00     0.166 HD
ENDROOT
BRANCH   4  11
HETATM   11  S   UNL     1      -6.747   2.778 -30.892  1.00  0.00    -0.102 SA
BRANCH  11  12
HETATM   12  C   UNL     1      -7.342   2.998 -32.610  1.00  0.00     0.184 C 
BRANCH  12  13
HETATM   13  C   UNL     1      -6.466   2.105 -33.470  1.00  0.00     0.231 C 
HETATM   14  N   UNL     1      -6.041   0.973 -32.799  1.00  0.00    -0.324 N 
HETATM   15  H   UNL     1      -5.825   1.029 -31.809  1.00  0.00     0.169 HD
HETATM   16  O   UNL     1      -6.284   2.320 -34.666  1.00  0.00    -0.272 OA
BRANCH  14  17
HETATM   17  C   UNL     1      -6.163  -0.347 -33.292  1.00  0.00     0.071 A 
HETATM   18  C   UNL     1      -7.445  -0.781 -33.669  1.00  0.00     0.096 A 
HETATM   19  C   UNL     1      -7.596  -2.005 -34.317  1.00  0.00     0.065 A 
HETATM   20  C   UNL     1      -6.474  -2.800 -34.572  1.00  0.00     0.070 A 
HETATM   21 CL   UNL     1      -6.721  -4.286 -35.425  1.00  0.00    -0.081 Cl
HETATM   22  C   UNL     1      -5.192  -2.394 -34.174  1.00  0.00     0.092 A 
HETATM   23  C   UNL     1      -5.051  -1.166 -33.521  1.00  0.00     0.071 A 
BRANCH  18  24
HETATM   24  O   UNL     1      -8.481   0.091 -33.422  1.00  0.00    -0.354 OA
HETATM   25  C   UNL     1      -9.329  -0.280 -32.337  1.00  0.00     0.210 C 
ENDBRANCH  18  24
BRANCH  22  26
HETATM   26  O   UNL     1      -4.148  -3.225 -34.487  1.00  0.00    -0.354 OA
HETATM   27  C   UNL     1      -3.663  -4.090 -33.464  1.00  0.00     0.210 C 
ENDBRANCH  22  26
ENDBRANCH  14  17
ENDBRANCH  12  13
ENDBRANCH  11  12
ENDBRANCH   4  11
BRANCH   8  28
HETATM   28  C   UNL     1      -2.713   5.115 -32.422  1.00  0.00    -0.044 A 
HETATM   29  C   UNL     1      -3.596   5.074 -33.516  1.00  0.00     0.008 A 
HETATM   30  C   UNL     1      -3.129   5.262 -34.818  1.00  0.00     0.001 A 
HETATM   31  C   UNL     1      -1.773   5.481 -35.045  1.00  0.00     0.000 A 
HETATM   32  C   UNL     1      -0.884   5.510 -33.974  1.00  0.00     0.001 A 
HETATM   33  C   UNL     1      -1.347   5.327 -32.670  1.00  0.00     0.008 A 
ENDBRANCH   8  28
BRANCH   9  34
HETATM   34  C   UNL     1      -2.743   7.110 -29.706  1.00  0.00     0.255 C 
HETATM   35  N   UNL     1      -1.693   6.485 -29.075  1.00  0.00    -0.323 N 
HETATM   36  H   UNL     1      -1.612   5.480 -29.167  1.00  0.00     0.169 HD
HETATM   37  O   UNL     1      -2.963   8.317 -29.731  1.00  0.00    -0.268 OA
BRANCH  35  38
HETATM   38  C   UNL     1      -0.702   7.083 -28.266  1.00  0.00     0.035 A 
HETATM   39  C   UNL     1      -0.697   7.038 -26.871  1.00  0.00     0.029 A 
HETATM   40  C   UNL     1       0.336   7.639 -26.146  1.00  0.00     0.002 A 
HETATM   41  C   UNL     1       1.378   8.282 -26.808  1.00  0.00     0.000 A 
HETATM   42  C   UNL     1       1.383   8.333 -28.200  1.00  0.00     0.002 A 
HETATM   43  C   UNL     1       0.344   7.743 -28.924  1.00  0.00     0.029 A 
ENDBRANCH  35  38
ENDBRANCH   9  34
TORSDOF 9
ENDMDL
MODEL 6
REMARK VINA RESULT:      -9.3      1.129      2.552
REMARK  9 active torsions:
REMARK  status: ('A' for Active; 'I' for Inactive)
REMARK    1  A    between atoms: C_4  and  S_5 
REMARK    2  A    between atoms: S_5  and  C_6 
REMARK    3  A    between atoms: C_6  and  C_7 
REMARK       I    between atoms: C_7  and  N_8 
REMARK    4  A    between atoms: N_8  and  C_9 
REMARK    5  A    between atoms: C_10  and  O_11 
REMARK    6  A    between atoms: C_16  and  O_17 
REMARK    7  A    between atoms: C_24  and  C_25 
REMARK    8  A    between atoms: C_31  and  C_32 
REMARK       I    between atoms: C_32  and  N_33 
REMARK    9  A    between atoms: N_33  and  C_34 
ROOT
HETATM    1  C   UNL     1      -6.061   0.895 -29.752  1.00  0.00     0.069 C 
HETATM    2  C   UNL     1      -6.183   2.222 -30.456  1.00  0.00     0.019 C 
HETATM    3  N   UNL     1      -6.194   3.345 -29.641  1.00  0.00    -0.353 N 
HETATM    4  C   UNL     1      -6.612   4.599 -30.052  1.00  0.00     0.087 C 
HETATM    5  C   UNL     1      -6.733   4.846 -31.374  1.00  0.00     0.055 C 
HETATM    6  C   UNL     1      -7.297   6.146 -31.925  1.00  0.00     0.019 C 
HETATM    7  N   UNL     1      -7.765   7.223 -32.383  1.00  0.00    -0.096 N 
HETATM    8  C   UNL     1      -6.358   3.781 -32.400  1.00  0.00     0.104 C 
HETATM    9  C   UNL     1      -6.285   2.377 -31.799  1.00  0.00     0.046 C 
HETATM   10  H   UNL     1      -6.176   3.202 -28.634  1.00  0.00     0.166 HD
ENDROOT
BRANCH   4  11
HETATM   11  S   UNL     1      -6.935   5.841 -28.875  1.00  0.00    -0.102 SA
BRANCH  11  12
HETATM   12  C   UNL     1      -5.548   6.993 -29.197  1.00  0.00     0.184 C 
BRANCH  12  13
HETATM   13  C   UNL     1      -4.358   6.432 -28.440  1.00  0.00     0.231 C 
HETATM   14  N   UNL     1      -3.180   6.526 -29.158  1.00  0.00    -0.324 N 
HETATM   15  H   UNL     1      -3.197   6.402 -30.165  1.00  0.00     0.169 HD
HETATM   16  O   UNL     1      -4.438   6.068 -27.270  1.00  0.00    -0.272 OA
BRANCH  14  17
HETATM   17  C   UNL     1      -1.978   7.080 -28.662  1.00  0.00     0.071 A 
HETATM   18  C   UNL     1      -0.773   6.606 -29.208  1.00  0.00     0.096 A 
HETATM   19  C   UNL     1       0.427   7.235 -28.882  1.00  0.00     0.065 A 
HETATM   20  C   UNL     1       0.426   8.322 -28.001  1.00  0.00     0.070 A 
HETATM   21 CL   UNL     1       1.942   9.091 -27.675  1.00  0.00    -0.081 Cl
HETATM   22  C   UNL     1      -0.765   8.786 -27.424  1.00  0.00     0.092 A 
HETATM   23  C   UNL     1      -1.963   8.146 -27.755  1.00  0.00     0.071 A 
BRANCH  18  24
HETATM   24  O   UNL     1      -0.877   5.566 -30.103  1.00  0.00    -0.354 OA
HETATM   25  C   UNL     1       0.179   5.492 -31.059  1.00  0.00     0.210 C 
ENDBRANCH  18  24
BRANCH  22  26
HETATM   26  O   UNL     1      -0.674   9.871 -26.591  1.00  0.00    -0.354 OA
HETATM   27  C   UNL     1      -0.617   9.624 -25.190  1.00  0.00     0.210 C 
ENDBRANCH  22  26
ENDBRANCH  14  17
ENDBRANCH  12  13
ENDBRANCH  11  12
ENDBRANCH   4  11
BRANCH   8  28
HETATM   28  C   UNL     1      -5.053   4.189 -33.095  1.00  0.00    -0.044 A 
HETATM   29  C   UNL     1      -5.060   4.838 -34.343  1.00  0.00     0.008 A 
HETATM   30  C   UNL     1      -3.865   5.189 -34.972  1.00  0.00     0.001 A 
HETATM   31  C   UNL     1      -2.647   4.884 -34.371  1.00  0.00     0.000 A 
HETATM   32  C   UNL     1      -2.623   4.229 -33.142  1.00  0.00     0.001 A 
HETATM   33  C   UNL     1      -3.816   3.880 -32.507  1.00  0.00     0.008 A 
ENDBRANCH   8  28
BRANCH   9  34
HETATM   34  C   UNL     1      -6.558   1.201 -32.688  1.00  0.00     0.255 C 
HETATM   35  N   UNL     1      -5.663   0.166 -32.554  1.00  0.00    -0.323 N 
HETATM   36  H   UNL     1      -4.968   0.230 -31.821  1.00  0.00     0.169 HD
HETATM   37  O   UNL     1      -7.485   1.264 -33.491  1.00  0.00    -0.268 OA
BRANCH  35  38
HETATM   38  C   UNL     1      -5.571  -0.994 -33.353  1.00  0.00     0.035 A 
HETATM   39  C   UNL     1      -4.370  -1.615 -33.698  1.00  0.00     0.029 A 
HETATM   40  C   UNL     1      -4.369  -2.776 -34.476  1.00  0.00     0.002 A 
HETATM   41  C   UNL     1      -5.569  -3.334 -34.909  1.00  0.00     0.000 A 
HETATM   42  C   UNL     1      -6.774  -2.723 -34.571  1.00  0.00     0.002 A 
HETATM   43  C   UNL     1      -6.774  -1.555 -33.804  1.00  0.00     0.029 A 
ENDBRANCH  35  38
ENDBRANCH   9  34
TORSDOF 9
ENDMDL
MODEL 7
REMARK VINA RESULT:      -9.2      4.171      9.867
REMARK  9 active torsions:
REMARK  status: ('A' for Active; 'I' for Inactive)
REMARK    1  A    between atoms: C_4  and  S_5 
REMARK    2  A    between atoms: S_5  and  C_6 
REMARK    3  A    between atoms: C_6  and  C_7 
REMARK       I    between atoms: C_7  and  N_8 
REMARK    4  A    between atoms: N_8  and  C_9 
REMARK    5  A    between atoms: C_10  and  O_11 
REMARK    6  A    between atoms: C_16  and  O_17 
REMARK    7  A    between atoms: C_24  and  C_25 
REMARK    8  A    between atoms: C_31  and  C_32 
REMARK       I    between atoms: C_32  and  N_33 
REMARK    9  A    between atoms: N_33  and  C_34 
ROOT
HETATM    1  C   UNL     1      -7.538   5.691 -30.140  1.00  0.00     0.069 C 
HETATM    2  C   UNL     1      -6.461   4.746 -30.606  1.00  0.00     0.019 C 
HETATM    3  N   UNL     1      -6.898   3.543 -31.143  1.00  0.00    -0.353 N 
HETATM    4  C   UNL     1      -6.088   2.435 -31.326  1.00  0.00     0.087 C 
HETATM    5  C   UNL     1      -4.748   2.590 -31.274  1.00  0.00     0.055 C 
HETATM    6  C   UNL     1      -3.776   1.422 -31.341  1.00  0.00     0.019 C 
HETATM    7  N   UNL     1      -2.970   0.455 -31.396  1.00  0.00    -0.096 N 
HETATM    8  C   UNL     1      -4.133   3.972 -31.077  1.00  0.00     0.104 C 
HETATM    9  C   UNL     1      -5.130   4.993 -30.527  1.00  0.00     0.046 C 
HETATM   10  H   UNL     1      -7.897   3.354 -31.138  1.00  0.00     0.166 HD
ENDROOT
BRANCH   4  11
HETATM   11  S   UNL     1      -6.798   0.880 -31.656  1.00  0.00    -0.102 SA
BRANCH  11  12
HETATM   12  C   UNL     1      -6.574   0.774 -33.470  1.00  0.00     0.184 C 
BRANCH  12  13
HETATM   13  C   UNL     1      -7.956   0.520 -34.045  1.00  0.00     0.231 C 
HETATM   14  N   UNL     1      -8.960   1.094 -33.287  1.00  0.00    -0.324 N 
HETATM   15  H   UNL     1      -8.870   1.123 -32.277  1.00  0.00     0.169 HD
HETATM   16  O   UNL     1      -8.124  -0.020 -35.136  1.00  0.00    -0.272 OA
BRANCH  14  17
HETATM   17  C   UNL     1      -9.981   1.926 -33.801  1.00  0.00     0.071 A 
HETATM   18  C   UNL     1      -9.657   3.271 -34.047  1.00  0.00     0.096 A 
HETATM   19  C   UNL     1     -10.569   4.090 -34.710  1.00  0.00     0.065 A 
HETATM   20  C   UNL     1     -11.805   3.573 -35.111  1.00  0.00     0.070 A 
HETATM   21 CL   UNL     1     -12.873   4.627 -35.975  1.00  0.00    -0.081 Cl
HETATM   22  C   UNL     1     -12.154   2.241 -34.845  1.00  0.00     0.092 A 
HETATM   23  C   UNL     1     -11.234   1.428 -34.176  1.00  0.00     0.071 A 
BRANCH  18  24
HETATM   24  O   UNL     1      -8.399   3.676 -33.662  1.00  0.00    -0.354 OA
HETATM   25  C   UNL     1      -8.095   5.039 -33.949  1.00  0.00     0.210 C 
ENDBRANCH  18  24
BRANCH  22  26
HETATM   26  O   UNL     1     -13.376   1.814 -35.296  1.00  0.00    -0.354 OA
HETATM   27  C   UNL     1     -14.242   1.181 -34.358  1.00  0.00     0.210 C 
ENDBRANCH  22  26
ENDBRANCH  14  17
ENDBRANCH  12  13
ENDBRANCH  11  12
ENDBRANCH   4  11
BRANCH   8  28
HETATM   28  C   UNL     1      -3.492   4.430 -32.393  1.00  0.00    -0.044 A 
HETATM   29  C   UNL     1      -2.099   4.581 -32.514  1.00  0.00     0.008 A 
HETATM   30  C   UNL     1      -1.529   5.014 -33.713  1.00  0.00     0.001 A 
HETATM   31  C   UNL     1      -2.344   5.315 -34.801  1.00  0.00     0.000 A 
HETATM   32  C   UNL     1      -3.726   5.184 -34.692  1.00  0.00     0.001 A 
HETATM   33  C   UNL     1      -4.299   4.747 -33.497  1.00  0.00     0.008 A 
ENDBRANCH   8  28
BRANCH   9  34
HETATM   34  C   UNL     1      -4.609   6.136 -29.710  1.00  0.00     0.255 C 
HETATM   35  N   UNL     1      -4.602   5.911 -28.354  1.00  0.00    -0.323 N 
HETATM   36  H   UNL     1      -4.848   4.986 -28.024  1.00  0.00     0.169 HD
HETATM   37  O   UNL     1      -4.299   7.180 -30.277  1.00  0.00    -0.268 OA
BRANCH  35  38
HETATM   38  C   UNL     1      -4.316   6.843 -27.333  1.00  0.00     0.035 A 
HETATM   39  C   UNL     1      -5.149   7.908 -26.988  1.00  0.00     0.029 A 
HETATM   40  C   UNL     1      -4.800   8.774 -25.947  1.00  0.00     0.002 A 
HETATM   41  C   UNL     1      -3.619   8.578 -25.236  1.00  0.00     0.000 A 
HETATM   42  C   UNL     1      -2.779   7.519 -25.573  1.00  0.00     0.002 A 
HETATM   43  C   UNL     1      -3.122   6.662 -26.621  1.00  0.00     0.029 A 
ENDBRANCH  35  38
ENDBRANCH   9  34
TORSDOF 9
ENDMDL
MODEL 8
REMARK VINA RESULT:      -9.2      3.779      4.998
REMARK  9 active torsions:
REMARK  status: ('A' for Active; 'I' for Inactive)
REMARK    1  A    between atoms: C_4  and  S_5 
REMARK    2  A    between atoms: S_5  and  C_6 
REMARK    3  A    between atoms: C_6  and  C_7 
REMARK       I    between atoms: C_7  and  N_8 
REMARK    4  A    between atoms: N_8  and  C_9 
REMARK    5  A    between atoms: C_10  and  O_11 
REMARK    6  A    between atoms: C_16  and  O_17 
REMARK    7  A    between atoms: C_24  and  C_25 
REMARK    8  A    between atoms: C_31  and  C_32 
REMARK       I    between atoms: C_32  and  N_33 
REMARK    9  A    between atoms: N_33  and  C_34 
ROOT
HETATM    1  C   UNL     1     -10.696  -0.586 -32.979  1.00  0.00     0.069 C 
HETATM    2  C   UNL     1      -9.980   0.740 -32.997  1.00  0.00     0.019 C 
HETATM    3  N   UNL     1     -10.689   1.821 -32.492  1.00  0.00    -0.353 N 
HETATM    4  C   UNL     1     -10.345   3.144 -32.709  1.00  0.00     0.087 C 
HETATM    5  C   UNL     1      -9.108   3.431 -33.171  1.00  0.00     0.055 C 
HETATM    6  C   UNL     1      -8.673   4.836 -33.555  1.00  0.00     0.019 C 
HETATM    7  N   UNL     1      -8.312   6.000 -33.874  1.00  0.00    -0.096 N 
HETATM    8  C   UNL     1      -8.086   2.320 -33.391  1.00  0.00     0.104 C 
HETATM    9  C   UNL     1      -8.724   0.933 -33.469  1.00  0.00     0.046 C 
HETATM   10  H   UNL     1     -11.649   1.665 -32.199  1.00  0.00     0.166 HD
ENDROOT
BRANCH   4  11
HETATM   11  S   UNL     1     -11.484   4.412 -32.352  1.00  0.00    -0.102 SA
BRANCH  11  12
HETATM   12  C   UNL     1     -11.184   4.654 -30.562  1.00  0.00     0.184 C 
BRANCH  12  13
HETATM   13  C   UNL     1     -10.488   5.998 -30.436  1.00  0.00     0.231 C 
HETATM   14  N   UNL     1      -9.695   6.081 -29.307  1.00  0.00    -0.324 N 
HETATM   15  H   UNL     1      -9.994   5.624 -28.451  1.00  0.00     0.169 HD
HETATM   16  O   UNL     1     -10.535   6.846 -31.323  1.00  0.00    -0.272 OA
BRANCH  14  17
HETATM   17  C   UNL     1      -8.343   6.493 -29.302  1.00  0.00     0.071 A 
HETATM   18  C   UNL     1      -7.900   7.248 -28.203  1.00  0.00     0.096 A 
HETATM   19  C   UNL     1      -6.544   7.534 -28.063  1.00  0.00     0.065 A 
HETATM   20  C   UNL     1      -5.635   7.082 -29.025  1.00  0.00     0.070 A 
HETATM   21 CL   UNL     1      -3.958   7.426 -28.769  1.00  0.00    -0.081 Cl
HETATM   22  C   UNL     1      -6.066   6.353 -30.144  1.00  0.00     0.092 A 
HETATM   23  C   UNL     1      -7.430   6.075 -30.277  1.00  0.00     0.071 A 
BRANCH  18  24
HETATM   24  O   UNL     1      -8.859   7.604 -27.282  1.00  0.00    -0.354 OA
HETATM   25  C   UNL     1      -9.060   9.009 -27.141  1.00  0.00     0.210 C 
ENDBRANCH  18  24
BRANCH  22  26
HETATM   26  O   UNL     1      -5.103   5.931 -31.023  1.00  0.00    -0.354 OA
HETATM   27  C   UNL     1      -5.079   6.531 -32.315  1.00  0.00     0.210 C 
ENDBRANCH  22  26
ENDBRANCH  14  17
ENDBRANCH  12  13
ENDBRANCH  11  12
ENDBRANCH   4  11
BRANCH   8  28
HETATM   28  C   UNL     1      -7.005   2.408 -32.307  1.00  0.00    -0.044 A 
HETATM   29  C   UNL     1      -7.336   2.396 -30.940  1.00  0.00     0.008 A 
HETATM   30  C   UNL     1      -6.344   2.493 -29.964  1.00  0.00     0.001 A 
HETATM   31  C   UNL     1      -5.009   2.618 -30.339  1.00  0.00     0.000 A 
HETATM   32  C   UNL     1      -4.666   2.646 -31.689  1.00  0.00     0.001 A 
HETATM   33  C   UNL     1      -5.655   2.545 -32.668  1.00  0.00     0.008 A 
ENDBRANCH   8  28
BRANCH   9  34
HETATM   34  C   UNL     1      -8.034  -0.130 -34.271  1.00  0.00     0.255 C 
HETATM   35  N   UNL     1      -7.375  -1.073 -33.519  1.00  0.00    -0.323 N 
HETATM   36  H   UNL     1      -7.481  -1.040 -32.513  1.00  0.00     0.169 HD
HETATM   37  O   UNL     1      -8.047  -0.054 -35.496  1.00  0.00    -0.268 OA
BRANCH  35  38
HETATM   38  C   UNL     1      -6.520  -2.095 -33.985  1.00  0.00     0.035 A 
HETATM   39  C   UNL     1      -5.127  -2.014 -33.979  1.00  0.00     0.029 A 
HETATM   40  C   UNL     1      -4.352  -3.083 -34.441  1.00  0.00     0.002 A 
HETATM   41  C   UNL     1      -4.962  -4.246 -34.903  1.00  0.00     0.000 A 
HETATM   42  C   UNL     1      -6.352  -4.337 -34.914  1.00  0.00     0.002 A 
HETATM   43  C   UNL     1      -7.126  -3.264 -34.465  1.00  0.00     0.029 A 
ENDBRANCH  35  38
ENDBRANCH   9  34
TORSDOF 9
ENDMDL
MODEL 9
REMARK VINA RESULT:      -9.0      3.146      4.732
REMARK  9 active torsions:
REMARK  status: ('A' for Active; 'I' for Inactive)
REMARK    1  A    between atoms: C_4  and  S_5 
REMARK    2  A    between atoms: S_5  and  C_6 
REMARK    3  A    between atoms: C_6  and  C_7 
REMARK       I    between atoms: C_7  and  N_8 
REMARK    4  A    between atoms: N_8  and  C_9 
REMARK    5  A    between atoms: C_10  and  O_11 
REMARK    6  A    between atoms: C_16  and  O_17 
REMARK    7  A    between atoms: C_24  and  C_25 
REMARK    8  A    between atoms: C_31  and  C_32 
REMARK       I    between atoms: C_32  and  N_33 
REMARK    9  A    between atoms: N_33  and  C_34 
ROOT
HETATM    1  C   UNL     1      -5.410   3.719 -34.574  1.00  0.00     0.069 C 
HETATM    2  C   UNL     1      -6.734   3.637 -33.858  1.00  0.00     0.019 C 
HETATM    3  N   UNL     1      -7.087   4.746 -33.102  1.00  0.00    -0.353 N 
HETATM    4  C   UNL     1      -8.079   4.743 -32.136  1.00  0.00     0.087 C 
HETATM    5  C   UNL     1      -8.965   3.724 -32.113  1.00  0.00     0.055 C 
HETATM    6  C   UNL     1     -10.015   3.564 -31.026  1.00  0.00     0.019 C 
HETATM    7  N   UNL     1     -10.885   3.431 -30.124  1.00  0.00    -0.096 N 
HETATM    8  C   UNL     1      -8.912   2.626 -33.170  1.00  0.00     0.104 C 
HETATM    9  C   UNL     1      -7.572   2.572 -33.905  1.00  0.00     0.046 C 
HETATM   10  H   UNL     1      -6.417   5.507 -33.033  1.00  0.00     0.166 HD
ENDROOT
BRANCH   4  11
HETATM   11  S   UNL     1      -8.196   6.057 -31.001  1.00  0.00    -0.102 SA
BRANCH  11  12
HETATM   12  C   UNL     1      -7.250   7.358 -31.877  1.00  0.00     0.184 C 
BRANCH  12  13
HETATM   13  C   UNL     1      -6.096   7.722 -30.959  1.00  0.00     0.231 C 
HETATM   14  N   UNL     1      -5.140   6.726 -30.888  1.00  0.00    -0.324 N 
HETATM   15  H   UNL     1      -5.427   5.753 -30.918  1.00  0.00     0.169 HD
HETATM   16  O   UNL     1      -5.985   8.837 -30.457  1.00  0.00    -0.272 OA
BRANCH  14  17
HETATM   17  C   UNL     1      -3.754   6.927 -31.080  1.00  0.00     0.071 A 
HETATM   18  C   UNL     1      -2.937   6.934 -29.938  1.00  0.00     0.096 A 
HETATM   19  C   UNL     1      -1.551   6.957 -30.081  1.00  0.00     0.065 A 
HETATM   20  C   UNL     1      -0.984   6.989 -31.359  1.00  0.00     0.070 A 
HETATM   21 CL   UNL     1       0.744   6.965 -31.471  1.00  0.00    -0.081 Cl
HETATM   22  C   UNL     1      -1.788   7.013 -32.508  1.00  0.00     0.092 A 
HETATM   23  C   UNL     1      -3.177   6.994 -32.354  1.00  0.00     0.071 A 
BRANCH  18  24
HETATM   24  O   UNL     1      -3.583   6.850 -28.725  1.00  0.00    -0.354 OA
HETATM   25  C   UNL     1      -3.180   7.823 -27.763  1.00  0.00     0.210 C 
ENDBRANCH  18  24
BRANCH  22  26
HETATM   26  O   UNL     1      -1.145   7.020 -33.719  1.00  0.00    -0.354 OA
HETATM   27  C   UNL     1      -1.240   5.849 -34.524  1.00  0.00     0.210 C 
ENDBRANCH  22  26
ENDBRANCH  14  17
ENDBRANCH  12  13
ENDBRANCH  11  12
ENDBRANCH   4  11
BRANCH   8  28
HETATM   28  C   UNL     1     -10.099   2.790 -34.128  1.00  0.00    -0.044 A 
HETATM   29  C   UNL     1     -10.318   3.994 -34.821  1.00  0.00     0.008 A 
HETATM   30  C   UNL     1     -11.411   4.136 -35.677  1.00  0.00     0.001 A 
HETATM   31  C   UNL     1     -12.307   3.083 -35.842  1.00  0.00     0.000 A 
HETATM   32  C   UNL     1     -12.111   1.889 -35.152  1.00  0.00     0.001 A 
HETATM   33  C   UNL     1     -11.017   1.741 -34.298  1.00  0.00     0.008 A 
ENDBRANCH   8  28
BRANCH   9  34
HETATM   34  C   UNL     1      -7.115   1.261 -34.469  1.00  0.00     0.255 C 
HETATM   35  N   UNL     1      -6.646   0.370 -33.533  1.00  0.00    -0.323 N 
HETATM   36  H   UNL     1      -6.731   0.617 -32.555  1.00  0.00     0.169 HD
HETATM   37  O   UNL     1      -7.127   1.100 -35.687  1.00  0.00    -0.268 OA
BRANCH  35  38
HETATM   38  C   UNL     1      -6.014  -0.870 -33.773  1.00  0.00     0.035 A 
HETATM   39  C   UNL     1      -4.698  -1.162 -33.411  1.00  0.00     0.029 A 
HETATM   40  C   UNL     1      -4.156  -2.425 -33.666  1.00  0.00     0.002 A 
HETATM   41  C   UNL     1      -4.927  -3.411 -34.276  1.00  0.00     0.000 A 
HETATM   42  C   UNL     1      -6.241  -3.130 -34.642  1.00  0.00     0.002 A 
HETATM   43  C   UNL     1      -6.779  -1.864 -34.398  1.00  0.00     0.029 A 
ENDBRANCH  35  38
ENDBRANCH   9  34
TORSDOF 9
ENDMDL
MODEL 10
REMARK VINA RESULT:      -9.0      3.391      5.055
REMARK  9 active torsions:
REMARK  status: ('A' for Active; 'I' for Inactive)
REMARK    1  A    between atoms: C_4  and  S_5 
REMARK    2  A    between atoms: S_5  and  C_6 
REMARK    3  A    between atoms: C_6  and  C_7 
REMARK       I    between atoms: C_7  and  N_8 
REMARK    4  A    between atoms: N_8  and  C_9 
REMARK    5  A    between atoms: C_10  and  O_11 
REMARK    6  A    between atoms: C_16  and  O_17 
REMARK    7  A    between atoms: C_24  and  C_25 
REMARK    8  A    between atoms: C_31  and  C_32 
REMARK       I    between atoms: C_32  and  N_33 
REMARK    9  A    between atoms: N_33  and  C_34 
ROOT
HETATM    1  C   UNL     1      -9.061   3.972 -30.067  1.00  0.00     0.069 C 
HETATM    2  C   UNL     1      -8.089   3.875 -31.215  1.00  0.00     0.019 C 
HETATM    3  N   UNL     1      -6.762   4.146 -30.913  1.00  0.00    -0.353 N 
HETATM    4  C   UNL     1      -5.790   4.420 -31.860  1.00  0.00     0.087 C 
HETATM    5  C   UNL     1      -6.038   4.124 -33.155  1.00  0.00     0.055 C 
HETATM    6  C   UNL     1      -5.091   4.494 -34.284  1.00  0.00     0.019 C 
HETATM    7  N   UNL     1      -4.306   4.801 -35.222  1.00  0.00    -0.096 N 
HETATM    8  C   UNL     1      -7.342   3.442 -33.559  1.00  0.00     0.104 C 
HETATM    9  C   UNL     1      -8.427   3.554 -32.488  1.00  0.00     0.046 C 
HETATM   10  H   UNL     1      -6.540   4.442 -29.966  1.00  0.00     0.166 HD
ENDROOT
BRANCH   4  11
HETATM   11  S   UNL     1      -4.264   5.100 -31.373  1.00  0.00    -0.102 SA
BRANCH  11  12
HETATM   12  C   UNL     1      -4.669   6.886 -31.355  1.00  0.00     0.184 C 
BRANCH  12  13
HETATM   13  C   UNL     1      -4.213   7.401 -30.001  1.00  0.00     0.231 C 
HETATM   14  N   UNL     1      -3.282   6.572 -29.405  1.00  0.00    -0.324 N 
HETATM   15  H   UNL     1      -3.357   5.567 -29.523  1.00  0.00     0.169 HD
HETATM   16  O   UNL     1      -4.548   8.502 -29.571  1.00  0.00    -0.272 OA
BRANCH  14  17
HETATM   17  C   UNL     1      -2.040   7.002 -28.881  1.00  0.00     0.071 A 
HETATM   18  C   UNL     1      -0.929   6.968 -29.741  1.00  0.00     0.096 A 
HETATM   19  C   UNL     1       0.276   7.537 -29.334  1.00  0.00     0.065 A 
HETATM   20  C   UNL     1       0.375   8.124 -28.068  1.00  0.00     0.070 A 
HETATM   21 CL   UNL     1       1.884   8.859 -27.641  1.00  0.00    -0.081 Cl
HETATM   22  C   UNL     1      -0.717   8.138 -27.188  1.00  0.00     0.092 A 
HETATM   23  C   UNL     1      -1.920   7.561 -27.604  1.00  0.00     0.071 A 
BRANCH  18  24
HETATM   24  O   UNL     1      -1.137   6.416 -30.984  1.00  0.00    -0.354 OA
HETATM   25  C   UNL     1      -0.338   5.270 -31.272  1.00  0.00     0.210 C 
ENDBRANCH  18  24
BRANCH  22  26
HETATM   26  O   UNL     1      -0.535   8.755 -25.977  1.00  0.00    -0.354 OA
HETATM   27  C   UNL     1      -1.618   8.729 -25.053  1.00  0.00     0.210 C 
ENDBRANCH  22  26
ENDBRANCH  14  17
ENDBRANCH  12  13
ENDBRANCH  11  12
ENDBRANCH   4  11
BRANCH   8  28
HETATM   28  C   UNL     1      -7.050   1.988 -33.948  1.00  0.00    -0.044 A 
HETATM   29  C   UNL     1      -7.814   1.323 -34.923  1.00  0.00     0.008 A 
HETATM   30  C   UNL     1      -7.548  -0.006 -35.256  1.00  0.00     0.001 A 
HETATM   31  C   UNL     1      -6.525  -0.693 -34.609  1.00  0.00     0.000 A 
HETATM   32  C   UNL     1      -5.768  -0.054 -33.631  1.00  0.00     0.001 A 
HETATM   33  C   UNL     1      -6.027   1.277 -33.298  1.00  0.00     0.008 A 
ENDBRANCH   8  28
BRANCH   9  34
HETATM   34  C   UNL     1      -9.863   3.530 -32.917  1.00  0.00     0.255 C 
HETATM   35  N   UNL     1     -10.515   2.348 -32.657  1.00  0.00    -0.323 N 
HETATM   36  H   UNL     1     -10.025   1.640 -32.126  1.00  0.00     0.169 HD
HETATM   37  O   UNL     1     -10.325   4.502 -33.507  1.00  0.00    -0.268 OA
BRANCH  35  38
HETATM   38  C   UNL     1     -11.811   1.975 -33.077  1.00  0.00     0.035 A 
HETATM   39  C   UNL     1     -12.960   2.730 -32.837  1.00  0.00     0.029 A 
HETATM   40  C   UNL     1     -14.204   2.298 -33.307  1.00  0.00     0.002 A 
HETATM   41  C   UNL     1     -14.310   1.113 -34.029  1.00  0.00     0.000 A 
HETATM   42  C   UNL     1     -13.169   0.351 -34.274  1.00  0.00     0.002 A 
HETATM   43  C   UNL     1     -11.929   0.776 -33.793  1.00  0.00     0.029 A 
ENDBRANCH  35  38
ENDBRANCH   9  34
TORSDOF 9
ENDMDL
