MODEL 1
REMARK VINA RESULT:      -8.4      0.000      0.000
REMARK  9 active torsions:
REMARK  status: ('A' for Active; 'I' for Inactive)
REMARK    1  A    between atoms: N_2  and  C_4 
REMARK    2  A    between atoms: N_2  and  C_10 
REMARK    3  A    between atoms: C_10  and  C_11 
REMARK    4  A    between atoms: N_12  and  C_13 
REMARK    5  A    between atoms: C_17  and  N_18 
REMARK    6  A    between atoms: C_21  and  C_22 
REMARK       I    between atoms: C_22  and  N_23 
REMARK    7  A    between atoms: N_23  and  N_24 
REMARK    8  A    between atoms: C_25  and  C_26 
REMARK    9  A    between atoms: C_27  and  O_28 
ROOT
HETATM    1  C   UNL     1      -9.065   3.732 -33.070  1.00  0.00     0.102 A 
HETATM    2  N   UNL     1     -10.350   4.033 -33.546  1.00  0.00    -0.191 N 
HETATM    3  N   UNL     1     -10.249   5.029 -34.467  1.00  0.00    -0.058 NA
HETATM    4  N   UNL     1      -8.977   5.284 -34.700  1.00  0.00    -0.124 NA
HETATM    5  C   UNL     1      -8.226   4.491 -33.882  1.00  0.00     0.176 A 
ENDROOT
BRANCH   5   6
HETATM    6  C   UNL     1      -6.772   4.517 -33.902  1.00  0.00     0.294 C 
HETATM    7  N   UNL     1      -6.215   5.743 -33.588  1.00  0.00    -0.242 N 
HETATM    8  H   UNL     1      -6.812   6.543 -33.388  1.00  0.00     0.192 HD
HETATM    9  O   UNL     1      -6.130   3.498 -34.154  1.00  0.00    -0.264 OA
BRANCH   7  10
HETATM   10  N   UNL     1      -4.863   5.845 -33.481  1.00  0.00    -0.183 NA
HETATM   11  C   UNL     1      -4.415   6.492 -32.451  1.00  0.00     0.153 C 
BRANCH  11  12
HETATM   12  C   UNL     1      -2.959   6.636 -32.230  1.00  0.00     0.018 A 
HETATM   13  C   UNL     1      -2.072   6.916 -33.278  1.00  0.00     0.077 A 
HETATM   14  C   UNL     1      -0.706   7.028 -33.033  1.00  0.00     0.039 A 
HETATM   15  C   UNL     1      -0.218   6.862 -31.736  1.00  0.00     0.026 A 
HETATM   16  C   UNL     1      -1.102   6.586 -30.694  1.00  0.00     0.035 A 
HETATM   17 CL   UNL     1      -0.498   6.381 -29.096  1.00  0.00    -0.084 Cl
HETATM   18  C   UNL     1      -2.472   6.471 -30.930  1.00  0.00     0.039 A 
BRANCH  13  19
HETATM   19  O   UNL     1      -2.472   7.089 -34.576  1.00  0.00    -0.360 OA
HETATM   20  H   UNL     1      -1.931   6.493 -35.138  1.00  0.00     0.217 HD
ENDBRANCH  13  19
ENDBRANCH  11  12
ENDBRANCH   7  10
ENDBRANCH   5   6
BRANCH   1  21
HETATM   21  C   UNL     1      -8.813   2.726 -31.997  1.00  0.00     0.296 C 
BRANCH  21  22
HETATM   22  N   UNL     1      -7.557   1.876 -32.123  1.00  0.00    -0.065 N 
HETATM   23  C   UNL     1      -6.620   2.143 -30.963  1.00  0.00     0.270 C 
HETATM   24  H   UNL     1      -7.053   2.200 -32.973  1.00  0.00     0.280 HD
BRANCH  22  25
HETATM   25  C   UNL     1      -7.840   0.373 -32.313  1.00  0.00     0.188 C 
HETATM   26  C   UNL     1      -8.805   0.105 -33.484  1.00  0.00     0.033 C 
HETATM   27  C   UNL     1      -8.208   0.440 -34.851  1.00  0.00     0.002 C 
HETATM   28  C   UNL     1      -6.881  -0.279 -35.079  1.00  0.00     0.000 C 
HETATM   29  C   UNL     1      -5.903  -0.084 -33.924  1.00  0.00     0.002 C 
HETATM   30  C   UNL     1      -6.545  -0.421 -32.578  1.00  0.00     0.033 C 
ENDBRANCH  22  25
ENDBRANCH  21  22
ENDBRANCH   1  21
BRANCH   2  31
HETATM   31  C   UNL     1     -11.597   3.449 -33.211  1.00  0.00     0.229 A 
HETATM   32  N   UNL     1     -12.313   3.930 -32.192  1.00  0.00    -0.081 NA
HETATM   33  O   UNL     1     -13.442   3.107 -32.159  1.00  0.00    -0.103 OA
HETATM   34  N   UNL     1     -13.389   2.144 -33.157  1.00  0.00    -0.083 NA
HETATM   35  C   UNL     1     -12.244   2.351 -33.805  1.00  0.00     0.201 A 
BRANCH  35  36
HETATM   36  N   UNL     1     -11.821   1.623 -34.852  1.00  0.00    -0.379 N 
HETATM   37  H   UNL     1     -11.320   0.754 -34.689  1.00  0.00     0.158 HD
HETATM   38  H   UNL     1     -11.714   2.002 -35.790  1.00  0.00     0.158 HD
ENDBRANCH  35  36
ENDBRANCH   2  31
TORSDOF 9
ENDMDL
MODEL 2
REMARK VINA RESULT:      -8.0      4.494      8.791
REMARK  9 active torsions:
REMARK  status: ('A' for Active; 'I' for Inactive)
REMARK    1  A    between atoms: N_2  and  C_4 
REMARK    2  A    between atoms: N_2  and  C_10 
REMARK    3  A    between atoms: C_10  and  C_11 
REMARK    4  A    between atoms: N_12  and  C_13 
REMARK    5  A    between atoms: C_17  and  N_18 
REMARK    6  A    between atoms: C_21  and  C_22 
REMARK       I    between atoms: C_22  and  N_23 
REMARK    7  A    between atoms: N_23  and  N_24 
REMARK    8  A    between atoms: C_25  and  C_26 
REMARK    9  A    between atoms: C_27  and  O_28 
ROOT
HETATM    1  C   UNL     1      -5.063   5.426 -30.287  1.00  0.00     0.102 A 
HETATM    2  N   UNL     1      -5.274   6.031 -29.038  1.00  0.00    -0.191 N 
HETATM    3  N   UNL     1      -6.357   5.452 -28.453  1.00  0.00    -0.058 NA
HETATM    4  N   UNL     1      -6.762   4.435 -29.189  1.00  0.00    -0.124 NA
HETATM    5  C   UNL     1      -5.977   4.376 -30.303  1.00  0.00     0.176 A 
ENDROOT
BRANCH   5   6
HETATM    6  C   UNL     1      -6.154   3.350 -31.320  1.00  0.00     0.294 C 
HETATM    7  N   UNL     1      -5.867   2.066 -30.896  1.00  0.00    -0.242 N 
HETATM    8  H   UNL     1      -5.539   1.898 -29.947  1.00  0.00     0.192 HD
HETATM    9  O   UNL     1      -6.558   3.646 -32.443  1.00  0.00    -0.264 OA
BRANCH   7  10
HETATM   10  N   UNL     1      -6.097   1.026 -31.742  1.00  0.00    -0.183 NA
HETATM   11  C   UNL     1      -5.050   0.467 -32.265  1.00  0.00     0.153 C 
BRANCH  11  12
HETATM   12  C   UNL     1      -5.193  -0.688 -33.177  1.00  0.00     0.018 A 
HETATM   13  C   UNL     1      -6.140  -0.708 -34.211  1.00  0.00     0.077 A 
HETATM   14  C   UNL     1      -6.255  -1.822 -35.038  1.00  0.00     0.039 A 
HETATM   15  C   UNL     1      -5.421  -2.923 -34.839  1.00  0.00     0.026 A 
HETATM   16  C   UNL     1      -4.477  -2.901 -33.812  1.00  0.00     0.035 A 
HETATM   17 CL   UNL     1      -3.452  -4.261 -33.568  1.00  0.00    -0.084 Cl
HETATM   18  C   UNL     1      -4.356  -1.790 -32.977  1.00  0.00     0.039 A 
BRANCH  13  19
HETATM   19  O   UNL     1      -6.993   0.330 -34.468  1.00  0.00    -0.360 OA
HETATM   20  H   UNL     1      -7.641   0.376 -33.731  1.00  0.00     0.217 HD
ENDBRANCH  13  19
ENDBRANCH  11  12
ENDBRANCH   7  10
ENDBRANCH   5   6
BRANCH   1  21
HETATM   21  C   UNL     1      -3.992   5.864 -31.229  1.00  0.00     0.296 C 
BRANCH  21  22
HETATM   22  N   UNL     1      -2.617   5.234 -31.059  1.00  0.00    -0.065 N 
HETATM   23  C   UNL     1      -2.638   3.791 -31.518  1.00  0.00     0.270 C 
HETATM   24  H   UNL     1      -2.420   5.203 -30.039  1.00  0.00     0.280 HD
BRANCH  22  25
HETATM   25  C   UNL     1      -1.479   6.041 -31.714  1.00  0.00     0.188 C 
HETATM   26  C   UNL     1      -1.377   7.470 -31.149  1.00  0.00     0.033 C 
HETATM   27  C   UNL     1      -0.931   7.515 -29.688  1.00  0.00     0.002 C 
HETATM   28  C   UNL     1       0.380   6.764 -29.474  1.00  0.00     0.000 C 
HETATM   29  C   UNL     1       0.349   5.354 -30.058  1.00  0.00     0.002 C 
HETATM   30  C   UNL     1      -0.111   5.357 -31.515  1.00  0.00     0.033 C 
ENDBRANCH  22  25
ENDBRANCH  21  22
ENDBRANCH   1  21
BRANCH   2  31
HETATM   31  C   UNL     1      -4.536   7.055 -28.395  1.00  0.00     0.229 A 
HETATM   32  N   UNL     1      -4.460   8.272 -28.938  1.00  0.00    -0.081 NA
HETATM   33  O   UNL     1      -3.654   8.986 -28.048  1.00  0.00    -0.103 OA
HETATM   34  N   UNL     1      -3.257   8.190 -26.983  1.00  0.00    -0.083 NA
HETATM   35  C   UNL     1      -3.798   6.993 -27.200  1.00  0.00     0.201 A 
BRANCH  35  36
HETATM   36  N   UNL     1      -3.651   5.934 -26.386  1.00  0.00    -0.379 N 
HETATM   37  H   UNL     1      -3.819   6.039 -25.389  1.00  0.00     0.158 HD
HETATM   38  H   UNL     1      -3.118   5.104 -26.639  1.00  0.00     0.158 HD
ENDBRANCH  35  36
ENDBRANCH   2  31
TORSDOF 9
ENDMDL
MODEL 3
REMARK VINA RESULT:      -8.0      3.408      8.329
REMARK  9 active torsions:
REMARK  status: ('A' for Active; 'I' for Inactive)
REMARK    1  A    between atoms: N_2  and  C_4 
REMARK    2  A    between atoms: N_2  and  C_10 
REMARK    3  A    between atoms: C_10  and  C_11 
REMARK    4  A    between atoms: N_12  and  C_13 
REMARK    5  A    between atoms: C_17  and  N_18 
REMARK    6  A    between atoms: C_21  and  C_22 
REMARK       I    between atoms: C_22  and  N_23 
REMARK    7  A    between atoms: N_23  and  N_24 
REMARK    8  A    between atoms: C_25  and  C_26 
REMARK    9  A    between atoms: C_27  and  O_28 
ROOT
HETATM    1  C   UNL     1      -6.026   4.707 -33.284  1.00  0.00     0.102 A 
HETATM    2  N   UNL     1      -4.914   5.560 -33.210  1.00  0.00    -0.191 N 
HETATM    3  N   UNL     1      -5.238   6.629 -32.433  1.00  0.00    -0.058 NA
HETATM    4  N   UNL     1      -6.432   6.440 -31.905  1.00  0.00    -0.124 NA
HETATM    5  C   UNL     1      -6.930   5.264 -32.383  1.00  0.00     0.176 A 
ENDROOT
BRANCH   5   6
HETATM    6  C   UNL     1      -8.232   4.755 -31.981  1.00  0.00     0.294 C 
HETATM    7  N   UNL     1      -9.247   4.989 -32.890  1.00  0.00    -0.242 N 
HETATM    8  H   UNL     1      -9.058   5.502 -33.750  1.00  0.00     0.192 HD
HETATM    9  O   UNL     1      -8.365   4.143 -30.922  1.00  0.00    -0.264 OA
BRANCH   7  10
HETATM   10  N   UNL     1     -10.479   4.466 -32.653  1.00  0.00    -0.183 NA
HETATM   11  C   UNL     1     -10.887   3.557 -33.482  1.00  0.00     0.153 C 
BRANCH  11  12
HETATM   12  C   UNL     1     -12.202   2.907 -33.296  1.00  0.00     0.018 A 
HETATM   13  C   UNL     1     -13.324   3.613 -32.840  1.00  0.00     0.077 A 
HETATM   14  C   UNL     1     -14.541   2.962 -32.661  1.00  0.00     0.039 A 
HETATM   15  C   UNL     1     -14.646   1.598 -32.939  1.00  0.00     0.026 A 
HETATM   16  C   UNL     1     -13.530   0.897 -33.395  1.00  0.00     0.035 A 
HETATM   17 CL   UNL     1     -13.661  -0.785 -33.735  1.00  0.00    -0.084 Cl
HETATM   18  C   UNL     1     -12.306   1.541 -33.575  1.00  0.00     0.039 A 
BRANCH  13  19
HETATM   19  O   UNL     1     -13.302   4.949 -32.545  1.00  0.00    -0.360 OA
HETATM   20  H   UNL     1     -14.204   5.208 -32.256  1.00  0.00     0.217 HD
ENDBRANCH  13  19
ENDBRANCH  11  12
ENDBRANCH   7  10
ENDBRANCH   5   6
BRANCH   1  21
HETATM   21  C   UNL     1      -6.041   3.465 -34.112  1.00  0.00     0.296 C 
BRANCH  21  22
HETATM   22  N   UNL     1      -5.892   2.140 -33.378  1.00  0.00    -0.065 N 
HETATM   23  C   UNL     1      -5.071   2.324 -32.118  1.00  0.00     0.270 C 
HETATM   24  H   UNL     1      -5.333   1.513 -33.990  1.00  0.00     0.280 HD
BRANCH  22  25
HETATM   25  C   UNL     1      -7.231   1.427 -33.106  1.00  0.00     0.188 C 
HETATM   26  C   UNL     1      -8.044   1.201 -34.395  1.00  0.00     0.033 C 
HETATM   27  C   UNL     1      -7.398   0.202 -35.353  1.00  0.00     0.002 C 
HETATM   28  C   UNL     1      -7.107  -1.130 -34.668  1.00  0.00     0.000 C 
HETATM   29  C   UNL     1      -6.341  -0.961 -33.359  1.00  0.00     0.002 C 
HETATM   30  C   UNL     1      -7.018   0.054 -32.437  1.00  0.00     0.033 C 
ENDBRANCH  22  25
ENDBRANCH  21  22
ENDBRANCH   1  21
BRANCH   2  31
HETATM   31  C   UNL     1      -3.627   5.419 -33.786  1.00  0.00     0.229 A 
HETATM   32  N   UNL     1      -3.463   5.547 -35.105  1.00  0.00    -0.081 NA
HETATM   33  O   UNL     1      -2.096   5.330 -35.294  1.00  0.00    -0.103 OA
HETATM   34  N   UNL     1      -1.458   5.074 -34.088  1.00  0.00    -0.083 NA
HETATM   35  C   UNL     1      -2.406   5.124 -33.155  1.00  0.00     0.201 A 
BRANCH  35  36
HETATM   36  N   UNL     1      -2.192   4.932 -31.842  1.00  0.00    -0.379 N 
HETATM   37  H   UNL     1      -2.964   4.655 -31.243  1.00  0.00     0.158 HD
HETATM   38  H   UNL     1      -1.387   5.308 -31.347  1.00  0.00     0.158 HD
ENDBRANCH  35  36
ENDBRANCH   2  31
TORSDOF 9
ENDMDL
MODEL 4
REMARK VINA RESULT:      -7.9      4.099      8.183
REMARK  9 active torsions:
REMARK  status: ('A' for Active; 'I' for Inactive)
REMARK    1  A    between atoms: N_2  and  C_4 
REMARK    2  A    between atoms: N_2  and  C_10 
REMARK    3  A    between atoms: C_10  and  C_11 
REMARK    4  A    between atoms: N_12  and  C_13 
REMARK    5  A    between atoms: C_17  and  N_18 
REMARK    6  A    between atoms: C_21  and  C_22 
REMARK       I    between atoms: C_22  and  N_23 
REMARK    7  A    between atoms: N_23  and  N_24 
REMARK    8  A    between atoms: C_25  and  C_26 
REMARK    9  A    between atoms: C_27  and  O_28 
ROOT
HETATM    1  C   UNL     1      -5.392   5.352 -30.358  1.00  0.00     0.102 A 
HETATM    2  N   UNL     1      -6.210   5.974 -29.402  1.00  0.00    -0.191 N 
HETATM    3  N   UNL     1      -7.505   5.646 -29.660  1.00  0.00    -0.058 NA
HETATM    4  N   UNL     1      -7.546   4.754 -30.630  1.00  0.00    -0.124 NA
HETATM    5  C   UNL     1      -6.271   4.533 -31.061  1.00  0.00     0.176 A 
ENDROOT
BRANCH   5   6
HETATM    6  C   UNL     1      -5.968   3.585 -32.123  1.00  0.00     0.294 C 
HETATM    7  N   UNL     1      -6.093   2.257 -31.760  1.00  0.00    -0.242 N 
HETATM    8  H   UNL     1      -6.357   2.006 -30.808  1.00  0.00     0.192 HD
HETATM    9  O   UNL     1      -5.658   3.980 -33.245  1.00  0.00    -0.264 OA
BRANCH   7  10
HETATM   10  N   UNL     1      -5.928   1.296 -32.708  1.00  0.00    -0.183 NA
HETATM   11  C   UNL     1      -5.861   0.073 -32.281  1.00  0.00     0.153 C 
BRANCH  11  12
HETATM   12  C   UNL     1      -5.708  -1.047 -33.235  1.00  0.00     0.018 A 
HETATM   13  C   UNL     1      -6.532  -1.183 -34.361  1.00  0.00     0.077 A 
HETATM   14  C   UNL     1      -6.368  -2.261 -35.227  1.00  0.00     0.039 A 
HETATM   15  C   UNL     1      -5.377  -3.209 -34.974  1.00  0.00     0.026 A 
HETATM   16  C   UNL     1      -4.555  -3.071 -33.855  1.00  0.00     0.035 A 
HETATM   17 CL   UNL     1      -3.334  -4.243 -33.545  1.00  0.00    -0.084 Cl
HETATM   18  C   UNL     1      -4.714  -1.995 -32.981  1.00  0.00     0.039 A 
BRANCH  13  19
HETATM   19  O   UNL     1      -7.526  -0.297 -34.676  1.00  0.00    -0.360 OA
HETATM   20  H   UNL     1      -7.559   0.382 -33.967  1.00  0.00     0.217 HD
ENDBRANCH  13  19
ENDBRANCH  11  12
ENDBRANCH   7  10
ENDBRANCH   5   6
BRANCH   1  21
HETATM   21  C   UNL     1      -3.914   5.550 -30.413  1.00  0.00     0.296 C 
BRANCH  21  22
HETATM   22  N   UNL     1      -3.376   6.463 -31.506  1.00  0.00    -0.065 N 
HETATM   23  C   UNL     1      -3.736   7.905 -31.213  1.00  0.00     0.270 C 
HETATM   24  H   UNL     1      -3.880   6.219 -32.382  1.00  0.00     0.280 HD
BRANCH  22  25
HETATM   25  C   UNL     1      -1.872   6.279 -31.784  1.00  0.00     0.188 C 
HETATM   26  C   UNL     1      -1.528   4.837 -32.203  1.00  0.00     0.033 C 
HETATM   27  C   UNL     1      -2.102   4.446 -33.564  1.00  0.00     0.002 C 
HETATM   28  C   UNL     1      -1.687   5.429 -34.655  1.00  0.00     0.000 C 
HETATM   29  C   UNL     1      -1.964   6.881 -34.272  1.00  0.00     0.002 C 
HETATM   30  C   UNL     1      -1.381   7.223 -32.901  1.00  0.00     0.033 C 
ENDBRANCH  22  25
ENDBRANCH  21  22
ENDBRANCH   1  21
BRANCH   2  31
HETATM   31  C   UNL     1      -5.852   6.800 -28.308  1.00  0.00     0.229 A 
HETATM   32  N   UNL     1      -6.111   8.109 -28.341  1.00  0.00    -0.081 NA
HETATM   33  O   UNL     1      -5.609   8.579 -27.124  1.00  0.00    -0.103 OA
HETATM   34  N   UNL     1      -5.058   7.548 -26.378  1.00  0.00    -0.083 NA
HETATM   35  C   UNL     1      -5.202   6.447 -27.112  1.00  0.00     0.201 A 
BRANCH  35  36
HETATM   36  N   UNL     1      -4.795   5.223 -26.736  1.00  0.00    -0.379 N 
HETATM   37  H   UNL     1      -4.207   5.120 -25.913  1.00  0.00     0.158 HD
HETATM   38  H   UNL     1      -4.794   4.418 -27.358  1.00  0.00     0.158 HD
ENDBRANCH  35  36
ENDBRANCH   2  31
TORSDOF 9
ENDMDL
MODEL 5
REMARK VINA RESULT:      -7.9      3.671      5.976
REMARK  9 active torsions:
REMARK  status: ('A' for Active; 'I' for Inactive)
REMARK    1  A    between atoms: N_2  and  C_4 
REMARK    2  A    between atoms: N_2  and  C_10 
REMARK    3  A    between atoms: C_10  and  C_11 
REMARK    4  A    between atoms: N_12  and  C_13 
REMARK    5  A    between atoms: C_17  and  N_18 
REMARK    6  A    between atoms: C_21  and  C_22 
REMARK       I    between atoms: C_22  and  N_23 
REMARK    7  A    between atoms: N_23  and  N_24 
REMARK    8  A    between atoms: C_25  and  C_26 
REMARK    9  A    between atoms: C_27  and  O_28 
ROOT
HETATM    1  C   UNL     1      -5.503  -0.880 -33.322  1.00  0.00     0.102 A 
HETATM    2  N   UNL     1      -4.854  -1.986 -33.893  1.00  0.00    -0.191 N 
HETATM    3  N   UNL     1      -3.513  -1.761 -33.873  1.00  0.00    -0.058 NA
HETATM    4  N   UNL     1      -3.265  -0.649 -33.209  1.00  0.00    -0.124 NA
HETATM    5  C   UNL     1      -4.457  -0.100 -32.836  1.00  0.00     0.176 A 
ENDROOT
BRANCH   5   6
HETATM    6  C   UNL     1      -4.534   1.135 -32.070  1.00  0.00     0.294 C 
HETATM    7  N   UNL     1      -3.354   1.853 -32.018  1.00  0.00    -0.242 N 
HETATM    8  H   UNL     1      -2.515   1.499 -32.475  1.00  0.00     0.192 HD
HETATM    9  O   UNL     1      -5.593   1.485 -31.552  1.00  0.00    -0.264 OA
BRANCH   7  10
HETATM   10  N   UNL     1      -3.349   3.070 -31.410  1.00  0.00    -0.183 NA
HETATM   11  C   UNL     1      -2.438   3.905 -31.803  1.00  0.00     0.153 C 
BRANCH  11  12
HETATM   12  C   UNL     1      -2.365   5.263 -31.222  1.00  0.00     0.018 A 
HETATM   13  C   UNL     1      -3.467   6.129 -31.213  1.00  0.00     0.077 A 
HETATM   14  C   UNL     1      -3.354   7.407 -30.672  1.00  0.00     0.039 A 
HETATM   15  C   UNL     1      -2.138   7.827 -30.133  1.00  0.00     0.026 A 
HETATM   16  C   UNL     1      -1.042   6.963 -30.140  1.00  0.00     0.035 A 
HETATM   17 CL   UNL     1       0.457   7.484 -29.476  1.00  0.00    -0.084 Cl
HETATM   18  C   UNL     1      -1.146   5.682 -30.682  1.00  0.00     0.039 A 
BRANCH  13  19
HETATM   19  O   UNL     1      -4.692   5.792 -31.724  1.00  0.00    -0.360 OA
HETATM   20  H   UNL     1      -5.068   5.084 -31.157  1.00  0.00     0.217 HD
ENDBRANCH  13  19
ENDBRANCH  11  12
ENDBRANCH   7  10
ENDBRANCH   5   6
BRANCH   1  21
HETATM   21  C   UNL     1      -6.988  -0.764 -33.242  1.00  0.00     0.296 C 
BRANCH  21  22
HETATM   22  N   UNL     1      -7.627   0.443 -33.915  1.00  0.00    -0.065 N 
HETATM   23  C   UNL     1      -7.236   0.500 -35.377  1.00  0.00     0.270 C 
HETATM   24  H   UNL     1      -7.212   1.291 -33.478  1.00  0.00     0.280 HD
BRANCH  22  25
HETATM   25  C   UNL     1      -9.152   0.532 -33.712  1.00  0.00     0.188 C 
HETATM   26  C   UNL     1      -9.547   0.471 -32.224  1.00  0.00     0.033 C 
HETATM   27  C   UNL     1      -9.098   1.694 -31.426  1.00  0.00     0.002 C 
HETATM   28  C   UNL     1      -9.595   2.992 -32.055  1.00  0.00     0.000 C 
HETATM   29  C   UNL     1      -9.270   3.085 -33.543  1.00  0.00     0.002 C 
HETATM   30  C   UNL     1      -9.727   1.837 -34.299  1.00  0.00     0.033 C 
ENDBRANCH  22  25
ENDBRANCH  21  22
ENDBRANCH   1  21
BRANCH   2  31
HETATM   31  C   UNL     1      -5.402  -3.187 -34.410  1.00  0.00     0.229 A 
HETATM   32  N   UNL     1      -6.621  -3.190 -34.953  1.00  0.00    -0.081 NA
HETATM   33  O   UNL     1      -6.817  -4.523 -35.324  1.00  0.00    -0.103 OA
HETATM   34  N   UNL     1      -5.715  -5.301 -34.999  1.00  0.00    -0.083 NA
HETATM   35  C   UNL     1      -4.841  -4.476 -34.428  1.00  0.00     0.201 A 
BRANCH  35  36
HETATM   36  N   UNL     1      -3.633  -4.846 -33.970  1.00  0.00    -0.379 N 
HETATM   37  H   UNL     1      -3.350  -5.821 -34.030  1.00  0.00     0.158 HD
HETATM   38  H   UNL     1      -3.087  -4.288 -33.317  1.00  0.00     0.158 HD
ENDBRANCH  35  36
ENDBRANCH   2  31
TORSDOF 9
ENDMDL
MODEL 6
REMARK VINA RESULT:      -7.9      2.204      2.785
REMARK  9 active torsions:
REMARK  status: ('A' for Active; 'I' for Inactive)
REMARK    1  A    between atoms: N_2  and  C_4 
REMARK    2  A    between atoms: N_2  and  C_10 
REMARK    3  A    between atoms: C_10  and  C_11 
REMARK    4  A    between atoms: N_12  and  C_13 
REMARK    5  A    between atoms: C_17  and  N_18 
REMARK    6  A    between atoms: C_21  and  C_22 
REMARK       I    between atoms: C_22  and  N_23 
REMARK    7  A    between atoms: N_23  and  N_24 
REMARK    8  A    between atoms: C_25  and  C_26 
REMARK    9  A    between atoms: C_27  and  O_28 
ROOT
HETATM    1  C   UNL     1      -7.608   2.904 -32.168  1.00  0.00     0.102 A 
HETATM    2  N   UNL     1      -9.005   2.766 -32.146  1.00  0.00    -0.191 N 
HETATM    3  N   UNL     1      -9.444   2.999 -30.880  1.00  0.00    -0.058 NA
HETATM    4  N   UNL     1      -8.435   3.404 -30.133  1.00  0.00    -0.124 NA
HETATM    5  C   UNL     1      -7.304   3.382 -30.896  1.00  0.00     0.176 A 
ENDROOT
BRANCH   5   6
HETATM    6  C   UNL     1      -6.009   3.788 -30.371  1.00  0.00     0.294 C 
HETATM    7  N   UNL     1      -5.580   5.030 -30.800  1.00  0.00    -0.242 N 
HETATM    8  H   UNL     1      -6.145   5.573 -31.450  1.00  0.00     0.192 HD
HETATM    9  O   UNL     1      -5.397   3.065 -29.587  1.00  0.00    -0.264 OA
BRANCH   7  10
HETATM   10  N   UNL     1      -4.429   5.543 -30.288  1.00  0.00    -0.183 NA
HETATM   11  C   UNL     1      -3.424   5.628 -31.103  1.00  0.00     0.153 C 
BRANCH  11  12
HETATM   12  C   UNL     1      -2.136   6.196 -30.650  1.00  0.00     0.018 A 
HETATM   13  C   UNL     1      -0.904   5.680 -31.074  1.00  0.00     0.077 A 
HETATM   14  C   UNL     1       0.287   6.232 -30.612  1.00  0.00     0.039 A 
HETATM   15  C   UNL     1       0.255   7.307 -29.723  1.00  0.00     0.026 A 
HETATM   16  C   UNL     1      -0.972   7.822 -29.304  1.00  0.00     0.035 A 
HETATM   17 CL   UNL     1      -1.009   9.147 -28.207  1.00  0.00    -0.084 Cl
HETATM   18  C   UNL     1      -2.171   7.274 -29.761  1.00  0.00     0.039 A 
BRANCH  13  19
HETATM   19  O   UNL     1      -0.789   4.627 -31.941  1.00  0.00    -0.360 OA
HETATM   20  H   UNL     1      -1.524   4.691 -32.590  1.00  0.00     0.217 HD
ENDBRANCH  13  19
ENDBRANCH  11  12
ENDBRANCH   7  10
ENDBRANCH   5   6
BRANCH   1  21
HETATM   21  C   UNL     1      -6.788   2.652 -33.389  1.00  0.00     0.296 C 
BRANCH  21  22
HETATM   22  N   UNL     1      -5.845   1.457 -33.357  1.00  0.00    -0.065 N 
HETATM   23  C   UNL     1      -4.524   1.845 -32.725  1.00  0.00     0.270 C 
HETATM   24  H   UNL     1      -5.625   1.216 -34.344  1.00  0.00     0.280 HD
BRANCH  22  25
HETATM   25  C   UNL     1      -6.457   0.200 -32.710  1.00  0.00     0.188 C 
HETATM   26  C   UNL     1      -7.451  -0.513 -33.646  1.00  0.00     0.033 C 
HETATM   27  C   UNL     1      -6.788  -1.138 -34.873  1.00  0.00     0.002 C 
HETATM   28  C   UNL     1      -5.655  -2.082 -34.483  1.00  0.00     0.000 C 
HETATM   29  C   UNL     1      -4.664  -1.440 -33.516  1.00  0.00     0.002 C 
HETATM   30  C   UNL     1      -5.371  -0.820 -32.312  1.00  0.00     0.033 C 
ENDBRANCH  22  25
ENDBRANCH  21  22
ENDBRANCH   1  21
BRANCH   2  31
HETATM   31  C   UNL     1      -9.899   2.463 -33.202  1.00  0.00     0.229 A 
HETATM   32  N   UNL     1     -10.141   3.362 -34.158  1.00  0.00    -0.081 NA
HETATM   33  O   UNL     1     -11.063   2.724 -34.992  1.00  0.00    -0.103 OA
HETATM   34  N   UNL     1     -11.362   1.451 -34.527  1.00  0.00    -0.083 NA
HETATM   35  C   UNL     1     -10.646   1.291 -33.415  1.00  0.00     0.201 A 
BRANCH  35  36
HETATM   36  N   UNL     1     -10.653   0.179 -32.661  1.00  0.00    -0.379 N 
HETATM   37  H   UNL     1      -9.817  -0.084 -32.146  1.00  0.00     0.158 HD
HETATM   38  H   UNL     1     -11.330  -0.572 -32.778  1.00  0.00     0.158 HD
ENDBRANCH  35  36
ENDBRANCH   2  31
TORSDOF 9
ENDMDL
MODEL 7
REMARK VINA RESULT:      -7.8      2.606      3.525
REMARK  9 active torsions:
REMARK  status: ('A' for Active; 'I' for Inactive)
REMARK    1  A    between atoms: N_2  and  C_4 
REMARK    2  A    between atoms: N_2  and  C_10 
REMARK    3  A    between atoms: C_10  and  C_11 
REMARK    4  A    between atoms: N_12  and  C_13 
REMARK    5  A    between atoms: C_17  and  N_18 
REMARK    6  A    between atoms: C_21  and  C_22 
REMARK       I    between atoms: C_22  and  N_23 
REMARK    7  A    between atoms: N_23  and  N_24 
REMARK    8  A    between atoms: C_25  and  C_26 
REMARK    9  A    between atoms: C_27  and  O_28 
ROOT
HETATM    1  C   UNL     1      -6.381   3.519 -32.413  1.00  0.00     0.102 A 
HETATM    2  N   UNL     1      -7.557   3.236 -33.125  1.00  0.00    -0.191 N 
HETATM    3  N   UNL     1      -7.810   4.268 -33.973  1.00  0.00    -0.058 NA
HETATM    4  N   UNL     1      -6.803   5.120 -33.940  1.00  0.00    -0.124 NA
HETATM    5  C   UNL     1      -5.902   4.678 -33.017  1.00  0.00     0.176 A 
ENDROOT
BRANCH   5   6
HETATM    6  C   UNL     1      -4.661   5.389 -32.746  1.00  0.00     0.294 C 
HETATM    7  N   UNL     1      -4.565   5.912 -31.470  1.00  0.00    -0.242 N 
HETATM    8  H   UNL     1      -5.335   5.805 -30.811  1.00  0.00     0.192 HD
HETATM    9  O   UNL     1      -3.784   5.466 -33.604  1.00  0.00    -0.264 OA
BRANCH   7  10
HETATM   10  N   UNL     1      -3.404   6.507 -31.086  1.00  0.00    -0.183 NA
HETATM   11  C   UNL     1      -3.190   6.582 -29.810  1.00  0.00     0.153 C 
BRANCH  11  12
HETATM   12  C   UNL     1      -1.945   7.188 -29.292  1.00  0.00     0.018 A 
HETATM   13  C   UNL     1      -0.711   6.527 -29.361  1.00  0.00     0.077 A 
HETATM   14  C   UNL     1       0.438   7.124 -28.847  1.00  0.00     0.039 A 
HETATM   15  C   UNL     1       0.360   8.388 -28.262  1.00  0.00     0.026 A 
HETATM   16  C   UNL     1      -0.868   9.046 -28.196  1.00  0.00     0.035 A 
HETATM   17 CL   UNL     1      -0.962  10.605 -27.473  1.00  0.00    -0.084 Cl
HETATM   18  C   UNL     1      -2.024   8.455 -28.707  1.00  0.00     0.039 A 
BRANCH  13  19
HETATM   19  O   UNL     1      -0.553   5.286 -29.917  1.00  0.00    -0.360 OA
HETATM   20  H   UNL     1       0.200   5.333 -30.545  1.00  0.00     0.217 HD
ENDBRANCH  13  19
ENDBRANCH  11  12
ENDBRANCH   7  10
ENDBRANCH   5   6
BRANCH   1  21
HETATM   21  C   UNL     1      -5.845   2.625 -31.345  1.00  0.00     0.296 C 
BRANCH  21  22
HETATM   22  N   UNL     1      -4.684   1.714 -31.721  1.00  0.00    -0.065 N 
HETATM   23  C   UNL     1      -3.363   2.400 -31.439  1.00  0.00     0.270 C 
HETATM   24  H   UNL     1      -4.720   1.583 -32.751  1.00  0.00     0.280 HD
BRANCH  22  25
HETATM   25  C   UNL     1      -4.764   0.313 -31.085  1.00  0.00     0.188 C 
HETATM   26  C   UNL     1      -6.029  -0.453 -31.515  1.00  0.00     0.033 C 
HETATM   27  C   UNL     1      -6.037  -0.829 -32.997  1.00  0.00     0.002 C 
HETATM   28  C   UNL     1      -4.785  -1.610 -33.386  1.00  0.00     0.000 C 
HETATM   29  C   UNL     1      -3.500  -0.917 -32.941  1.00  0.00     0.002 C 
HETATM   30  C   UNL     1      -3.541  -0.550 -31.458  1.00  0.00     0.033 C 
ENDBRANCH  22  25
ENDBRANCH  21  22
ENDBRANCH   1  21
BRANCH   2  31
HETATM   31  C   UNL     1      -8.398   2.096 -33.064  1.00  0.00     0.229 A 
HETATM   32  N   UNL     1      -8.528   1.300 -34.127  1.00  0.00    -0.081 NA
HETATM   33  O   UNL     1      -9.429   0.319 -33.700  1.00  0.00    -0.103 OA
HETATM   34  N   UNL     1      -9.826   0.540 -32.389  1.00  0.00    -0.083 NA
HETATM   35  C   UNL     1      -9.192   1.644 -31.996  1.00  0.00     0.201 A 
BRANCH  35  36
HETATM   36  N   UNL     1      -9.308   2.192 -30.775  1.00  0.00    -0.379 N 
HETATM   37  H   UNL     1      -9.773   1.675 -30.034  1.00  0.00     0.158 HD
HETATM   38  H   UNL     1      -9.219   3.191 -30.600  1.00  0.00     0.158 HD
ENDBRANCH  35  36
ENDBRANCH   2  31
TORSDOF 9
ENDMDL
MODEL 8
REMARK VINA RESULT:      -7.8      3.609      8.438
REMARK  9 active torsions:
REMARK  status: ('A' for Active; 'I' for Inactive)
REMARK    1  A    between atoms: N_2  and  C_4 
REMARK    2  A    between atoms: N_2  and  C_10 
REMARK    3  A    between atoms: C_10  and  C_11 
REMARK    4  A    between atoms: N_12  and  C_13 
REMARK    5  A    between atoms: C_17  and  N_18 
REMARK    6  A    between atoms: C_21  and  C_22 
REMARK       I    between atoms: C_22  and  N_23 
REMARK    7  A    between atoms: N_23  and  N_24 
REMARK    8  A    between atoms: C_25  and  C_26 
REMARK    9  A    between atoms: C_27  and  O_28 
ROOT
HETATM    1  C   UNL     1      -5.790   3.024 -32.969  1.00  0.00     0.102 A 
HETATM    2  N   UNL     1      -4.893   4.043 -33.325  1.00  0.00    -0.191 N 
HETATM    3  N   UNL     1      -5.529   4.909 -34.159  1.00  0.00    -0.058 NA
HETATM    4  N   UNL     1      -6.803   4.579 -34.244  1.00  0.00    -0.124 NA
HETATM    5  C   UNL     1      -7.001   3.448 -33.509  1.00  0.00     0.176 A 
ENDROOT
BRANCH   5   6
HETATM    6  C   UNL     1      -8.311   2.827 -33.384  1.00  0.00     0.294 C 
HETATM    7  N   UNL     1      -9.089   3.328 -32.356  1.00  0.00    -0.242 N 
HETATM    8  H   UNL     1      -8.726   4.058 -31.746  1.00  0.00     0.192 HD
HETATM    9  O   UNL     1      -8.667   1.951 -34.171  1.00  0.00    -0.264 OA
BRANCH   7  10
HETATM   10  N   UNL     1     -10.366   2.883 -32.219  1.00  0.00    -0.183 NA
HETATM   11  C   UNL     1     -11.300   3.670 -32.656  1.00  0.00     0.153 C 
BRANCH  11  12
HETATM   12  C   UNL     1     -12.720   3.266 -32.577  1.00  0.00     0.018 A 
HETATM   13  C   UNL     1     -13.153   1.988 -32.956  1.00  0.00     0.077 A 
HETATM   14  C   UNL     1     -14.502   1.651 -32.883  1.00  0.00     0.039 A 
HETATM   15  C   UNL     1     -15.428   2.590 -32.426  1.00  0.00     0.026 A 
HETATM   16  C   UNL     1     -14.996   3.861 -32.046  1.00  0.00     0.035 A 
HETATM   17 CL   UNL     1     -16.139   5.017 -31.486  1.00  0.00    -0.084 Cl
HETATM   18  C   UNL     1     -13.646   4.208 -32.119  1.00  0.00     0.039 A 
BRANCH  13  19
HETATM   19  O   UNL     1     -12.308   1.014 -33.415  1.00  0.00    -0.360 OA
HETATM   20  H   UNL     1     -11.528   0.989 -32.820  1.00  0.00     0.217 HD
ENDBRANCH  13  19
ENDBRANCH  11  12
ENDBRANCH   7  10
ENDBRANCH   5   6
BRANCH   1  21
HETATM   21  C   UNL     1      -5.402   1.865 -32.113  1.00  0.00     0.296 C 
BRANCH  21  22
HETATM   22  N   UNL     1      -4.868   0.628 -32.821  1.00  0.00    -0.065 N 
HETATM   23  C   UNL     1      -3.363   0.543 -32.671  1.00  0.00     0.270 C 
HETATM   24  H   UNL     1      -5.043   0.759 -33.837  1.00  0.00     0.280 HD
BRANCH  22  25
HETATM   25  C   UNL     1      -5.572  -0.678 -32.406  1.00  0.00     0.188 C 
HETATM   26  C   UNL     1      -6.922  -0.867 -33.125  1.00  0.00     0.033 C 
HETATM   27  C   UNL     1      -6.781  -1.104 -34.628  1.00  0.00     0.002 C 
HETATM   28  C   UNL     1      -5.850  -2.274 -34.930  1.00  0.00     0.000 C 
HETATM   29  C   UNL     1      -4.512  -2.161 -34.205  1.00  0.00     0.002 C 
HETATM   30  C   UNL     1      -4.701  -1.914 -32.708  1.00  0.00     0.033 C 
ENDBRANCH  22  25
ENDBRANCH  21  22
ENDBRANCH   1  21
BRANCH   2  31
HETATM   31  C   UNL     1      -3.547   4.241 -32.928  1.00  0.00     0.229 A 
HETATM   32  N   UNL     1      -3.172   3.985 -31.673  1.00  0.00    -0.081 NA
HETATM   33  O   UNL     1      -1.813   4.309 -31.658  1.00  0.00    -0.103 OA
HETATM   34  N   UNL     1      -1.390   4.754 -32.903  1.00  0.00    -0.083 NA
HETATM   35  C   UNL     1      -2.465   4.718 -33.688  1.00  0.00     0.201 A 
BRANCH  35  36
HETATM   36  N   UNL     1      -2.471   5.072 -34.984  1.00  0.00    -0.379 N 
HETATM   37  H   UNL     1      -2.294   4.370 -35.698  1.00  0.00     0.158 HD
HETATM   38  H   UNL     1      -2.363   6.032 -35.302  1.00  0.00     0.158 HD
ENDBRANCH  35  36
ENDBRANCH   2  31
TORSDOF 9
ENDMDL
MODEL 9
REMARK VINA RESULT:      -7.8      1.598      1.873
REMARK  9 active torsions:
REMARK  status: ('A' for Active; 'I' for Inactive)
REMARK    1  A    between atoms: N_2  and  C_4 
REMARK    2  A    between atoms: N_2  and  C_10 
REMARK    3  A    between atoms: C_10  and  C_11 
REMARK    4  A    between atoms: N_12  and  C_13 
REMARK    5  A    between atoms: C_17  and  N_18 
REMARK    6  A    between atoms: C_21  and  C_22 
REMARK       I    between atoms: C_22  and  N_23 
REMARK    7  A    between atoms: N_23  and  N_24 
REMARK    8  A    between atoms: C_25  and  C_26 
REMARK    9  A    between atoms: C_27  and  O_28 
ROOT
HETATM    1  C   UNL     1      -7.793   3.354 -33.854  1.00  0.00     0.102 A 
HETATM    2  N   UNL     1      -9.173   3.605 -33.809  1.00  0.00    -0.191 N 
HETATM    3  N   UNL     1      -9.365   4.934 -33.589  1.00  0.00    -0.058 NA
HETATM    4  N   UNL     1      -8.203   5.557 -33.626  1.00  0.00    -0.124 NA
HETATM    5  C   UNL     1      -7.225   4.624 -33.812  1.00  0.00     0.176 A 
ENDROOT
BRANCH   5   6
HETATM    6  C   UNL     1      -5.819   4.987 -33.914  1.00  0.00     0.294 C 
HETATM    7  N   UNL     1      -5.316   5.648 -32.809  1.00  0.00    -0.242 N 
HETATM    8  H   UNL     1      -5.921   5.864 -32.018  1.00  0.00     0.192 HD
HETATM    9  O   UNL     1      -5.164   4.682 -34.909  1.00  0.00    -0.264 OA
BRANCH   7  10
HETATM   10  N   UNL     1      -3.988   5.941 -32.764  1.00  0.00    -0.183 NA
HETATM   11  C   UNL     1      -3.428   5.892 -31.596  1.00  0.00     0.153 C 
BRANCH  11  12
HETATM   12  C   UNL     1      -1.983   6.169 -31.446  1.00  0.00     0.018 A 
HETATM   13  C   UNL     1      -1.353   7.226 -32.117  1.00  0.00     0.077 A 
HETATM   14  C   UNL     1       0.014   7.444 -31.963  1.00  0.00     0.039 A 
HETATM   15  C   UNL     1       0.760   6.607 -31.132  1.00  0.00     0.026 A 
HETATM   16  C   UNL     1       0.132   5.557 -30.462  1.00  0.00     0.035 A 
HETATM   17 CL   UNL     1       1.055   4.525 -29.440  1.00  0.00    -0.084 Cl
HETATM   18  C   UNL     1      -1.237   5.330 -30.613  1.00  0.00     0.039 A 
BRANCH  13  19
HETATM   19  O   UNL     1      -2.014   8.088 -32.949  1.00  0.00    -0.360 OA
HETATM   20  H   UNL     1      -1.818   7.822 -33.874  1.00  0.00     0.217 HD
ENDBRANCH  13  19
ENDBRANCH  11  12
ENDBRANCH   7  10
ENDBRANCH   5   6
BRANCH   1  21
HETATM   21  C   UNL     1      -7.223   1.983 -34.014  1.00  0.00     0.296 C 
BRANCH  21  22
HETATM   22  N   UNL     1      -6.475   1.399 -32.825  1.00  0.00    -0.065 N 
HETATM   23  C   UNL     1      -6.568   2.331 -31.634  1.00  0.00     0.270 C 
HETATM   24  H   UNL     1      -5.468   1.370 -33.082  1.00  0.00     0.280 HD
BRANCH  22  25
HETATM   25  C   UNL     1      -6.893  -0.042 -32.475  1.00  0.00     0.188 C 
HETATM   26  C   UNL     1      -7.335  -0.839 -33.716  1.00  0.00     0.033 C 
HETATM   27  C   UNL     1      -6.196  -1.120 -34.695  1.00  0.00     0.002 C 
HETATM   28  C   UNL     1      -5.021  -1.812 -34.009  1.00  0.00     0.000 C 
HETATM   29  C   UNL     1      -4.571  -1.088 -32.744  1.00  0.00     0.002 C 
HETATM   30  C   UNL     1      -5.744  -0.818 -31.801  1.00  0.00     0.033 C 
ENDBRANCH  22  25
ENDBRANCH  21  22
ENDBRANCH   1  21
BRANCH   2  31
HETATM   31  C   UNL     1     -10.260   2.711 -33.971  1.00  0.00     0.229 A 
HETATM   32  N   UNL     1     -11.074   2.826 -35.023  1.00  0.00    -0.081 NA
HETATM   33  O   UNL     1     -12.010   1.806 -34.834  1.00  0.00    -0.103 OA
HETATM   34  N   UNL     1     -11.746   1.093 -33.673  1.00  0.00    -0.083 NA
HETATM   35  C   UNL     1     -10.666   1.656 -33.135  1.00  0.00     0.201 A 
BRANCH  35  36
HETATM   36  N   UNL     1     -10.085   1.249 -31.994  1.00  0.00    -0.379 N 
HETATM   37  H   UNL     1     -10.516   1.476 -31.102  1.00  0.00     0.158 HD
HETATM   38  H   UNL     1      -9.107   0.973 -31.932  1.00  0.00     0.158 HD
ENDBRANCH  35  36
ENDBRANCH   2  31
TORSDOF 9
ENDMDL
MODEL 10
REMARK VINA RESULT:      -7.7      4.589      7.166
REMARK  9 active torsions:
REMARK  status: ('A' for Active; 'I' for Inactive)
REMARK    1  A    between atoms: N_2  and  C_4 
REMARK    2  A    between atoms: N_2  and  C_10 
REMARK    3  A    between atoms: C_10  and  C_11 
REMARK    4  A    between atoms: N_12  and  C_13 
REMARK    5  A    between atoms: C_17  and  N_18 
REMARK    6  A    between atoms: C_21  and  C_22 
REMARK       I    between atoms: C_22  and  N_23 
REMARK    7  A    between atoms: N_23  and  N_24 
REMARK    8  A    between atoms: C_25  and  C_26 
REMARK    9  A    between atoms: C_27  and  O_28 
ROOT
HETATM    1  C   UNL     1      -5.100  -0.383 -32.958  1.00  0.00     0.102 A 
HETATM    2  N   UNL     1      -4.022  -1.274 -33.070  1.00  0.00    -0.191 N 
HETATM    3  N   UNL     1      -2.869  -0.593 -32.828  1.00  0.00    -0.058 NA
HETATM    4  N   UNL     1      -3.159   0.635 -32.442  1.00  0.00    -0.124 NA
HETATM    5  C   UNL     1      -4.513   0.788 -32.485  1.00  0.00     0.176 A 
ENDROOT
BRANCH   5   6
HETATM    6  C   UNL     1      -5.163   2.032 -32.103  1.00  0.00     0.294 C 
HETATM    7  N   UNL     1      -4.936   2.421 -30.796  1.00  0.00    -0.242 N 
HETATM    8  H   UNL     1      -4.371   1.841 -30.178  1.00  0.00     0.192 HD
HETATM    9  O   UNL     1      -5.828   2.668 -32.920  1.00  0.00    -0.264 OA
BRANCH   7  10
HETATM   10  N   UNL     1      -5.417   3.620 -30.372  1.00  0.00    -0.183 NA
HETATM   11  C   UNL     1      -6.584   3.603 -29.805  1.00  0.00     0.153 C 
BRANCH  11  12
HETATM   12  C   UNL     1      -7.183   4.851 -29.286  1.00  0.00     0.018 A 
HETATM   13  C   UNL     1      -6.560   5.620 -28.293  1.00  0.00     0.077 A 
HETATM   14  C   UNL     1      -7.165   6.780 -27.818  1.00  0.00     0.039 A 
HETATM   15  C   UNL     1      -8.397   7.182 -28.334  1.00  0.00     0.026 A 
HETATM   16  C   UNL     1      -9.015   6.418 -29.325  1.00  0.00     0.035 A 
HETATM   17 CL   UNL     1     -10.535   6.915 -29.959  1.00  0.00    -0.084 Cl
HETATM   18  C   UNL     1      -8.417   5.253 -29.805  1.00  0.00     0.039 A 
BRANCH  13  19
HETATM   19  O   UNL     1      -5.354   5.292 -27.735  1.00  0.00    -0.360 OA
HETATM   20  H   UNL     1      -5.496   4.517 -27.148  1.00  0.00     0.217 HD
ENDBRANCH  13  19
ENDBRANCH  11  12
ENDBRANCH   7  10
ENDBRANCH   5   6
BRANCH   1  21
HETATM   21  C   UNL     1      -6.513  -0.783 -33.226  1.00  0.00     0.296 C 
BRANCH  21  22
HETATM   22  N   UNL     1      -7.408   0.244 -33.905  1.00  0.00    -0.065 N 
HETATM   23  C   UNL     1      -7.165   0.249 -35.400  1.00  0.00     0.270 C 
HETATM   24  H   UNL     1      -7.109   1.181 -33.567  1.00  0.00     0.280 HD
BRANCH  22  25
HETATM   25  C   UNL     1      -8.901   0.094 -33.555  1.00  0.00     0.188 C 
HETATM   26  C   UNL     1      -9.161   0.216 -32.041  1.00  0.00     0.033 C 
HETATM   27  C   UNL     1      -8.896   1.617 -31.491  1.00  0.00     0.002 C 
HETATM   28  C   UNL     1      -9.681   2.681 -32.253  1.00  0.00     0.000 C 
HETATM   29  C   UNL     1      -9.496   2.576 -33.764  1.00  0.00     0.002 C 
HETATM   30  C   UNL     1      -9.761   1.157 -34.268  1.00  0.00     0.033 C 
ENDBRANCH  22  25
ENDBRANCH  21  22
ENDBRANCH   1  21
BRANCH   2  31
HETATM   31  C   UNL     1      -4.023  -2.662 -33.357  1.00  0.00     0.229 A 
HETATM   32  N   UNL     1      -4.650  -3.123 -34.441  1.00  0.00    -0.081 NA
HETATM   33  O   UNL     1      -4.451  -4.506 -34.378  1.00  0.00    -0.103 OA
HETATM   34  N   UNL     1      -3.707  -4.854 -33.259  1.00  0.00    -0.083 NA
HETATM   35  C   UNL     1      -3.447  -3.714 -32.624  1.00  0.00     0.201 A 
BRANCH  35  36
HETATM   36  N   UNL     1      -2.739  -3.624 -31.485  1.00  0.00    -0.379 N 
HETATM   37  H   UNL     1      -2.104  -2.842 -31.349  1.00  0.00     0.158 HD
HETATM   38  H   UNL     1      -2.575  -4.413 -30.865  1.00  0.00     0.158 HD
ENDBRANCH  35  36
ENDBRANCH   2  31
TORSDOF 9
ENDMDL
