MODEL 1
REMARK VINA RESULT:      -9.2      0.000      0.000
REMARK  9 active torsions:
REMARK  status: ('A' for Active; 'I' for Inactive)
REMARK    1  A    between atoms: C_4  and  S_5 
REMARK    2  A    between atoms: S_5  and  C_6 
REMARK    3  A    between atoms: C_6  and  C_7 
REMARK       I    between atoms: C_7  and  N_8 
REMARK    4  A    between atoms: N_8  and  C_9 
REMARK    5  A    between atoms: C_10  and  O_11 
REMARK    6  A    between atoms: C_22  and  C_23 
REMARK    7  A    between atoms: C_29  and  C_30 
REMARK       I    between atoms: C_30  and  N_31 
REMARK    8  A    between atoms: N_31  and  C_32 
REMARK    9  A    between atoms: C_33  and  O_34 
ROOT
HETATM    1  C   UNL     1      -9.990   0.495 -32.726  1.00  0.00     0.069 C 
HETATM    2  C   UNL     1      -9.252   1.614 -32.025  1.00  0.00     0.019 A 
HETATM    3  N   UNL     1     -10.039   2.705 -31.703  1.00  0.00    -0.353 N 
HETATM    4  C   UNL     1      -9.598   3.874 -31.135  1.00  0.00     0.087 A 
HETATM    5  C   UNL     1      -8.293   3.995 -30.801  1.00  0.00     0.055 A 
HETATM    6  C   UNL     1      -7.752   5.355 -30.391  1.00  0.00     0.019 C 
HETATM    7  N   UNL     1      -7.302   6.483 -30.051  1.00  0.00    -0.096 N 
HETATM    8  C   UNL     1      -7.284   2.883 -31.135  1.00  0.00     0.104 A 
HETATM    9  C   UNL     1      -7.923   1.622 -31.743  1.00  0.00     0.046 A 
HETATM   10  H   UNL     1     -11.019   2.687 -31.969  1.00  0.00     0.166 HD
ENDROOT
BRANCH   4  11
HETATM   11  S   UNL     1     -10.723   5.203 -30.909  1.00  0.00    -0.102 SA
BRANCH  11  12
HETATM   12  C   UNL     1     -12.221   4.269 -30.436  1.00  0.00     0.184 C 
BRANCH  12  13
HETATM   13  C   UNL     1     -13.434   4.820 -31.145  1.00  0.00     0.231 C 
HETATM   14  N   UNL     1     -13.887   4.338 -32.334  1.00  0.00    -0.324 N 
HETATM   15  H   UNL     1     -14.655   4.906 -32.688  1.00  0.00     0.169 HD
HETATM   16  O   UNL     1     -14.047   5.777 -30.651  1.00  0.00    -0.272 OA
BRANCH  14  17
HETATM   17  C   UNL     1     -13.510   3.308 -33.224  1.00  0.00     0.070 A 
HETATM   18  C   UNL     1     -12.865   3.738 -34.412  1.00  0.00     0.095 A 
HETATM   19  C   UNL     1     -12.425   2.805 -35.354  1.00  0.00     0.041 A 
HETATM   20  C   UNL     1     -12.635   1.444 -35.139  1.00  0.00     0.026 A 
HETATM   21  C   UNL     1     -13.289   1.023 -33.986  1.00  0.00     0.036 A 
HETATM   22 CL   UNL     1     -13.565  -0.658 -33.735  1.00  0.00    -0.084 Cl
HETATM   23  C   UNL     1     -13.730   1.945 -33.034  1.00  0.00     0.056 A 
BRANCH  18  24
HETATM   24  O   UNL     1     -12.710   5.101 -34.531  1.00  0.00    -0.354 OA
HETATM   25  C   UNL     1     -13.161   5.707 -35.734  1.00  0.00     0.210 C 
ENDBRANCH  18  24
ENDBRANCH  14  17
ENDBRANCH  12  13
ENDBRANCH  11  12
ENDBRANCH   4  11
BRANCH   8  26
HETATM   26  C   UNL     1      -6.185   3.490 -32.021  1.00  0.00    -0.044 A 
HETATM   27  C   UNL     1      -6.497   3.912 -33.326  1.00  0.00     0.008 A 
HETATM   28  C   UNL     1      -5.502   4.412 -34.167  1.00  0.00     0.001 A 
HETATM   29  C   UNL     1      -4.187   4.496 -33.718  1.00  0.00     0.000 A 
HETATM   30  C   UNL     1      -3.862   4.073 -32.430  1.00  0.00     0.001 A 
HETATM   31  C   UNL     1      -4.851   3.567 -31.586  1.00  0.00     0.008 A 
ENDBRANCH   8  26
BRANCH   9  32
HETATM   32  C   UNL     1      -7.134   0.348 -31.945  1.00  0.00     0.255 C 
HETATM   33  N   UNL     1      -6.766   0.040 -33.230  1.00  0.00    -0.321 N 
HETATM   34  H   UNL     1      -6.854   0.720 -33.973  1.00  0.00     0.169 HD
HETATM   35  O   UNL     1      -6.809  -0.328 -30.969  1.00  0.00    -0.268 OA
BRANCH  33  36
HETATM   36  C   UNL     1      -6.255  -1.195 -33.704  1.00  0.00     0.068 A 
HETATM   37  C   UNL     1      -4.852  -1.353 -33.711  1.00  0.00     0.095 A 
HETATM   38  C   UNL     1      -4.286  -2.524 -34.225  1.00  0.00     0.039 A 
HETATM   39  C   UNL     1      -5.105  -3.530 -34.741  1.00  0.00     0.003 A 
HETATM   40  C   UNL     1      -6.489  -3.374 -34.738  1.00  0.00     0.002 A 
HETATM   41  C   UNL     1      -7.062  -2.213 -34.218  1.00  0.00     0.032 A 
BRANCH  37  42
HETATM   42  O   UNL     1      -4.136  -0.305 -33.177  1.00  0.00    -0.354 OA
HETATM   43  C   UNL     1      -3.318  -0.589 -32.050  1.00  0.00     0.210 C 
ENDBRANCH  37  42
ENDBRANCH  33  36
ENDBRANCH   9  32
TORSDOF 9
ENDMDL
MODEL 2
REMARK VINA RESULT:      -9.1      4.740      8.453
REMARK  9 active torsions:
REMARK  status: ('A' for Active; 'I' for Inactive)
REMARK    1  A    between atoms: C_4  and  S_5 
REMARK    2  A    between atoms: S_5  and  C_6 
REMARK    3  A    between atoms: C_6  and  C_7 
REMARK       I    between atoms: C_7  and  N_8 
REMARK    4  A    between atoms: N_8  and  C_9 
REMARK    5  A    between atoms: C_10  and  O_11 
REMARK    6  A    between atoms: C_22  and  C_23 
REMARK    7  A    between atoms: C_29  and  C_30 
REMARK       I    between atoms: C_30  and  N_31 
REMARK    8  A    between atoms: N_31  and  C_32 
REMARK    9  A    between atoms: C_33  and  O_34 
ROOT
HETATM    1  C   UNL     1      -2.965   0.398 -30.935  1.00  0.00     0.069 C 
HETATM    2  C   UNL     1      -3.841   1.375 -31.688  1.00  0.00     0.019 A 
HETATM    3  N   UNL     1      -3.381   2.678 -31.680  1.00  0.00    -0.353 N 
HETATM    4  C   UNL     1      -4.027   3.762 -32.223  1.00  0.00     0.087 A 
HETATM    5  C   UNL     1      -5.198   3.574 -32.874  1.00  0.00     0.055 A 
HETATM    6  C   UNL     1      -6.030   4.782 -33.272  1.00  0.00     0.019 C 
HETATM    7  N   UNL     1      -6.721   5.785 -33.603  1.00  0.00    -0.096 N 
HETATM    8  C   UNL     1      -5.859   2.187 -32.931  1.00  0.00     0.104 A 
HETATM    9  C   UNL     1      -5.011   1.065 -32.307  1.00  0.00     0.046 A 
HETATM   10  H   UNL     1      -2.527   2.885 -31.169  1.00  0.00     0.166 HD
ENDROOT
BRANCH   4  11
HETATM   11  S   UNL     1      -3.349   5.367 -32.011  1.00  0.00    -0.102 SA
BRANCH  11  12
HETATM   12  C   UNL     1      -1.706   5.118 -32.771  1.00  0.00     0.184 C 
BRANCH  12  13
HETATM   13  C   UNL     1      -1.133   6.433 -33.238  1.00  0.00     0.231 C 
HETATM   14  N   UNL     1      -0.799   7.444 -32.390  1.00  0.00    -0.324 N 
HETATM   15  H   UNL     1      -0.522   8.277 -32.908  1.00  0.00     0.169 HD
HETATM   16  O   UNL     1      -0.976   6.636 -34.449  1.00  0.00    -0.272 OA
BRANCH  14  17
HETATM   17  C   UNL     1      -0.816   7.648 -30.992  1.00  0.00     0.070 A 
HETATM   18  C   UNL     1      -1.860   8.479 -30.512  1.00  0.00     0.095 A 
HETATM   19  C   UNL     1      -1.991   8.729 -29.144  1.00  0.00     0.041 A 
HETATM   20  C   UNL     1      -1.082   8.177 -28.244  1.00  0.00     0.026 A 
HETATM   21  C   UNL     1      -0.043   7.382 -28.715  1.00  0.00     0.036 A 
HETATM   22 CL   UNL     1       1.090   6.720 -27.600  1.00  0.00    -0.084 Cl
HETATM   23  C   UNL     1       0.096   7.120 -30.080  1.00  0.00     0.056 A 
BRANCH  18  24
HETATM   24  O   UNL     1      -2.702   8.977 -31.482  1.00  0.00    -0.354 OA
HETATM   25  C   UNL     1      -4.083   9.070 -31.163  1.00  0.00     0.210 C 
ENDBRANCH  18  24
ENDBRANCH  14  17
ENDBRANCH  12  13
ENDBRANCH  11  12
ENDBRANCH   4  11
BRANCH   8  26
HETATM   26  C   UNL     1      -7.258   2.303 -32.308  1.00  0.00    -0.044 A 
HETATM   27  C   UNL     1      -7.392   2.704 -30.966  1.00  0.00     0.008 A 
HETATM   28  C   UNL     1      -8.650   2.760 -30.364  1.00  0.00     0.001 A 
HETATM   29  C   UNL     1      -9.786   2.416 -31.091  1.00  0.00     0.000 A 
HETATM   30  C   UNL     1      -9.668   2.008 -32.418  1.00  0.00     0.001 A 
HETATM   31  C   UNL     1      -8.413   1.944 -33.025  1.00  0.00     0.008 A 
ENDBRANCH   8  26
BRANCH   9  32
HETATM   32  C   UNL     1      -5.388  -0.392 -32.449  1.00  0.00     0.255 C 
HETATM   33  N   UNL     1      -4.909  -1.056 -33.550  1.00  0.00    -0.321 N 
HETATM   34  H   UNL     1      -4.192  -0.645 -34.132  1.00  0.00     0.169 HD
HETATM   35  O   UNL     1      -6.051  -0.938 -31.568  1.00  0.00    -0.268 OA
BRANCH  33  36
HETATM   36  C   UNL     1      -5.318  -2.325 -34.033  1.00  0.00     0.068 A 
HETATM   37  C   UNL     1      -4.420  -3.401 -33.859  1.00  0.00     0.095 A 
HETATM   38  C   UNL     1      -4.740  -4.663 -34.371  1.00  0.00     0.039 A 
HETATM   39  C   UNL     1      -5.939  -4.856 -35.059  1.00  0.00     0.003 A 
HETATM   40  C   UNL     1      -6.824  -3.796 -35.234  1.00  0.00     0.002 A 
HETATM   41  C   UNL     1      -6.516  -2.535 -34.718  1.00  0.00     0.032 A 
BRANCH  37  42
HETATM   42  O   UNL     1      -3.269  -3.106 -33.164  1.00  0.00    -0.354 OA
HETATM   43  C   UNL     1      -3.120  -3.698 -31.880  1.00  0.00     0.210 C 
ENDBRANCH  37  42
ENDBRANCH  33  36
ENDBRANCH   9  32
TORSDOF 9
ENDMDL
MODEL 3
REMARK VINA RESULT:      -8.9      4.338      9.179
REMARK  9 active torsions:
REMARK  status: ('A' for Active; 'I' for Inactive)
REMARK    1  A    between atoms: C_4  and  S_5 
REMARK    2  A    between atoms: S_5  and  C_6 
REMARK    3  A    between atoms: C_6  and  C_7 
REMARK       I    between atoms: C_7  and  N_8 
REMARK    4  A    between atoms: N_8  and  C_9 
REMARK    5  A    between atoms: C_10  and  O_11 
REMARK    6  A    between atoms: C_22  and  C_23 
REMARK    7  A    between atoms: C_29  and  C_30 
REMARK       I    between atoms: C_30  and  N_31 
REMARK    8  A    between atoms: N_31  and  C_32 
REMARK    9  A    between atoms: C_33  and  O_34 
ROOT
HETATM    1  C   UNL     1      -7.817   5.195 -33.501  1.00  0.00     0.069 C 
HETATM    2  C   UNL     1      -6.980   4.062 -32.951  1.00  0.00     0.019 A 
HETATM    3  N   UNL     1      -5.634   4.352 -32.828  1.00  0.00    -0.353 N 
HETATM    4  C   UNL     1      -4.656   3.475 -32.429  1.00  0.00     0.087 A 
HETATM    5  C   UNL     1      -5.003   2.218 -32.068  1.00  0.00     0.055 A 
HETATM    6  C   UNL     1      -3.916   1.179 -31.849  1.00  0.00     0.019 C 
HETATM    7  N   UNL     1      -3.013   0.317 -31.668  1.00  0.00    -0.096 N 
HETATM    8  C   UNL     1      -6.457   1.732 -32.191  1.00  0.00     0.104 A 
HETATM    9  C   UNL     1      -7.447   2.828 -32.624  1.00  0.00     0.046 A 
HETATM   10  H   UNL     1      -5.310   5.268 -33.125  1.00  0.00     0.166 HD
ENDROOT
BRANCH   4  11
HETATM   11  S   UNL     1      -2.977   3.986 -32.449  1.00  0.00    -0.102 SA
BRANCH  11  12
HETATM   12  C   UNL     1      -3.052   5.261 -33.756  1.00  0.00     0.184 C 
BRANCH  12  13
HETATM   13  C   UNL     1      -1.666   5.754 -34.096  1.00  0.00     0.231 C 
HETATM   14  N   UNL     1      -0.982   6.643 -33.326  1.00  0.00    -0.324 N 
HETATM   15  H   UNL     1      -0.111   6.919 -33.777  1.00  0.00     0.169 HD
HETATM   16  O   UNL     1      -1.118   5.365 -35.136  1.00  0.00    -0.272 OA
BRANCH  14  17
HETATM   17  C   UNL     1      -1.213   7.329 -32.113  1.00  0.00     0.070 A 
HETATM   18  C   UNL     1      -0.464   6.864 -31.001  1.00  0.00     0.095 A 
HETATM   19  C   UNL     1      -0.592   7.484 -29.755  1.00  0.00     0.041 A 
HETATM   20  C   UNL     1      -1.472   8.552 -29.594  1.00  0.00     0.026 A 
HETATM   21  C   UNL     1      -2.225   8.992 -30.678  1.00  0.00     0.036 A 
HETATM   22 CL   UNL     1      -3.328  10.299 -30.468  1.00  0.00    -0.084 Cl
HETATM   23  C   UNL     1      -2.103   8.385 -31.930  1.00  0.00     0.056 A 
BRANCH  18  24
HETATM   24  O   UNL     1       0.373   5.803 -31.263  1.00  0.00    -0.354 OA
HETATM   25  C   UNL     1       0.603   4.877 -30.211  1.00  0.00     0.210 C 
ENDBRANCH  18  24
ENDBRANCH  14  17
ENDBRANCH  12  13
ENDBRANCH  11  12
ENDBRANCH   4  11
BRANCH   8  26
HETATM   26  C   UNL     1      -6.470   0.507 -33.117  1.00  0.00    -0.044 A 
HETATM   27  C   UNL     1      -6.663   0.681 -34.500  1.00  0.00     0.008 A 
HETATM   28  C   UNL     1      -6.737  -0.423 -35.350  1.00  0.00     0.001 A 
HETATM   29  C   UNL     1      -6.621  -1.710 -34.833  1.00  0.00     0.000 A 
HETATM   30  C   UNL     1      -6.439  -1.899 -33.464  1.00  0.00     0.001 A 
HETATM   31  C   UNL     1      -6.370  -0.799 -32.607  1.00  0.00     0.008 A 
ENDBRANCH   8  26
BRANCH   9  32
HETATM   32  C   UNL     1      -8.943   2.605 -32.600  1.00  0.00     0.255 C 
HETATM   33  N   UNL     1      -9.481   1.876 -33.630  1.00  0.00    -0.321 N 
HETATM   34  H   UNL     1      -8.888   1.360 -34.266  1.00  0.00     0.169 HD
HETATM   35  O   UNL     1      -9.606   3.026 -31.653  1.00  0.00    -0.268 OA
BRANCH  33  36
HETATM   36  C   UNL     1     -10.852   1.745 -33.965  1.00  0.00     0.068 A 
HETATM   37  C   UNL     1     -11.412   2.743 -34.792  1.00  0.00     0.095 A 
HETATM   38  C   UNL     1     -12.775   2.703 -35.105  1.00  0.00     0.039 A 
HETATM   39  C   UNL     1     -13.582   1.685 -34.593  1.00  0.00     0.003 A 
HETATM   40  C   UNL     1     -13.032   0.702 -33.775  1.00  0.00     0.002 A 
HETATM   41  C   UNL     1     -11.670   0.729 -33.465  1.00  0.00     0.032 A 
BRANCH  37  42
HETATM   42  O   UNL     1     -10.531   3.698 -35.246  1.00  0.00    -0.354 OA
HETATM   43  C   UNL     1     -10.999   5.040 -35.292  1.00  0.00     0.210 C 
ENDBRANCH  37  42
ENDBRANCH  33  36
ENDBRANCH   9  32
TORSDOF 9
ENDMDL
MODEL 4
REMARK VINA RESULT:      -8.8      1.794      2.336
REMARK  9 active torsions:
REMARK  status: ('A' for Active; 'I' for Inactive)
REMARK    1  A    between atoms: C_4  and  S_5 
REMARK    2  A    between atoms: S_5  and  C_6 
REMARK    3  A    between atoms: C_6  and  C_7 
REMARK       I    between atoms: C_7  and  N_8 
REMARK    4  A    between atoms: N_8  and  C_9 
REMARK    5  A    between atoms: C_10  and  O_11 
REMARK    6  A    between atoms: C_22  and  C_23 
REMARK    7  A    between atoms: C_29  and  C_30 
REMARK       I    between atoms: C_30  and  N_31 
REMARK    8  A    between atoms: N_31  and  C_32 
REMARK    9  A    between atoms: C_33  and  O_34 
ROOT
HETATM    1  C   UNL     1      -9.537   0.652 -32.623  1.00  0.00     0.069 C 
HETATM    2  C   UNL     1      -8.702   1.588 -31.778  1.00  0.00     0.019 A 
HETATM    3  N   UNL     1      -9.366   2.725 -31.358  1.00  0.00    -0.353 N 
HETATM    4  C   UNL     1      -8.813   3.763 -30.648  1.00  0.00     0.087 A 
HETATM    5  C   UNL     1      -7.519   3.684 -30.264  1.00  0.00     0.055 A 
HETATM    6  C   UNL     1      -6.838   4.914 -29.686  1.00  0.00     0.019 C 
HETATM    7  N   UNL     1      -6.272   5.934 -29.207  1.00  0.00    -0.096 N 
HETATM    8  C   UNL     1      -6.636   2.499 -30.691  1.00  0.00     0.104 A 
HETATM    9  C   UNL     1      -7.394   1.401 -31.457  1.00  0.00     0.046 A 
HETATM   10  H   UNL     1     -10.329   2.858 -31.653  1.00  0.00     0.166 HD
ENDROOT
BRANCH   4  11
HETATM   11  S   UNL     1      -9.780   5.187 -30.306  1.00  0.00    -0.102 SA
BRANCH  11  12
HETATM   12  C   UNL     1     -11.419   4.596 -30.860  1.00  0.00     0.184 C 
BRANCH  12  13
HETATM   13  C   UNL     1     -11.550   4.724 -32.358  1.00  0.00     0.231 C 
HETATM   14  N   UNL     1     -12.667   4.359 -33.043  1.00  0.00    -0.324 N 
HETATM   15  H   UNL     1     -12.518   4.434 -34.048  1.00  0.00     0.169 HD
HETATM   16  O   UNL     1     -10.595   5.154 -33.019  1.00  0.00    -0.272 OA
BRANCH  14  17
HETATM   17  C   UNL     1     -13.937   3.834 -32.714  1.00  0.00     0.070 A 
HETATM   18  C   UNL     1     -14.090   2.440 -32.924  1.00  0.00     0.095 A 
HETATM   19  C   UNL     1     -15.295   1.807 -32.609  1.00  0.00     0.041 A 
HETATM   20  C   UNL     1     -16.361   2.548 -32.103  1.00  0.00     0.026 A 
HETATM   21  C   UNL     1     -16.220   3.920 -31.920  1.00  0.00     0.036 A 
HETATM   22 CL   UNL     1     -17.548   4.835 -31.315  1.00  0.00    -0.084 Cl
HETATM   23  C   UNL     1     -15.019   4.564 -32.226  1.00  0.00     0.056 A 
BRANCH  18  24
HETATM   24  O   UNL     1     -12.981   1.800 -33.430  1.00  0.00    -0.354 OA
HETATM   25  C   UNL     1     -13.134   0.446 -33.830  1.00  0.00     0.210 C 
ENDBRANCH  18  24
ENDBRANCH  14  17
ENDBRANCH  12  13
ENDBRANCH  11  12
ENDBRANCH   4  11
BRANCH   8  26
HETATM   26  C   UNL     1      -5.436   3.059 -31.469  1.00  0.00    -0.044 A 
HETATM   27  C   UNL     1      -5.648   3.737 -32.684  1.00  0.00     0.008 A 
HETATM   28  C   UNL     1      -4.568   4.201 -33.435  1.00  0.00     0.001 A 
HETATM   29  C   UNL     1      -3.267   3.995 -32.986  1.00  0.00     0.000 A 
HETATM   30  C   UNL     1      -3.041   3.317 -31.789  1.00  0.00     0.001 A 
HETATM   31  C   UNL     1      -4.116   2.845 -31.036  1.00  0.00     0.008 A 
ENDBRANCH   8  26
BRANCH   9  32
HETATM   32  C   UNL     1      -6.756   0.068 -31.778  1.00  0.00     0.255 C 
HETATM   33  N   UNL     1      -6.487  -0.192 -33.099  1.00  0.00    -0.321 N 
HETATM   34  H   UNL     1      -6.541   0.541 -33.793  1.00  0.00     0.169 HD
HETATM   35  O   UNL     1      -6.455  -0.699 -30.865  1.00  0.00    -0.268 OA
BRANCH  33  36
HETATM   36  C   UNL     1      -6.133  -1.439 -33.673  1.00  0.00     0.068 A 
HETATM   37  C   UNL     1      -4.756  -1.731 -33.784  1.00  0.00     0.095 A 
HETATM   38  C   UNL     1      -4.345  -2.918 -34.399  1.00  0.00     0.039 A 
HETATM   39  C   UNL     1      -5.292  -3.806 -34.912  1.00  0.00     0.003 A 
HETATM   40  C   UNL     1      -6.649  -3.518 -34.807  1.00  0.00     0.002 A 
HETATM   41  C   UNL     1      -7.069  -2.340 -34.186  1.00  0.00     0.032 A 
BRANCH  37  42
HETATM   42  O   UNL     1      -3.907  -0.793 -33.243  1.00  0.00    -0.354 OA
HETATM   43  C   UNL     1      -3.146  -1.186 -32.109  1.00  0.00     0.210 C 
ENDBRANCH  37  42
ENDBRANCH  33  36
ENDBRANCH   9  32
TORSDOF 9
ENDMDL
MODEL 5
REMARK VINA RESULT:      -8.7      2.278      2.798
REMARK  9 active torsions:
REMARK  status: ('A' for Active; 'I' for Inactive)
REMARK    1  A    between atoms: C_4  and  S_5 
REMARK    2  A    between atoms: S_5  and  C_6 
REMARK    3  A    between atoms: C_6  and  C_7 
REMARK       I    between atoms: C_7  and  N_8 
REMARK    4  A    between atoms: N_8  and  C_9 
REMARK    5  A    between atoms: C_10  and  O_11 
REMARK    6  A    between atoms: C_22  and  C_23 
REMARK    7  A    between atoms: C_29  and  C_30 
REMARK       I    between atoms: C_30  and  N_31 
REMARK    8  A    between atoms: N_31  and  C_32 
REMARK    9  A    between atoms: C_33  and  O_34 
ROOT
HETATM    1  C   UNL     1      -9.251   1.421 -31.528  1.00  0.00     0.069 C 
HETATM    2  C   UNL     1      -8.158   2.326 -31.003  1.00  0.00     0.019 A 
HETATM    3  N   UNL     1      -8.608   3.528 -30.492  1.00  0.00    -0.353 N 
HETATM    4  C   UNL     1      -7.818   4.550 -30.026  1.00  0.00     0.087 A 
HETATM    5  C   UNL     1      -6.475   4.388 -30.004  1.00  0.00     0.055 A 
HETATM    6  C   UNL     1      -5.585   5.586 -29.712  1.00  0.00     0.019 C 
HETATM    7  N   UNL     1      -4.847   6.579 -29.471  1.00  0.00    -0.096 N 
HETATM    8  C   UNL     1      -5.820   3.121 -30.579  1.00  0.00     0.104 A 
HETATM    9  C   UNL     1      -6.827   2.052 -31.039  1.00  0.00     0.046 A 
HETATM   10  H   UNL     1      -9.605   3.722 -30.522  1.00  0.00     0.166 HD
ENDROOT
BRANCH   4  11
HETATM   11  S   UNL     1      -8.562   6.059 -29.525  1.00  0.00    -0.102 SA
BRANCH  11  12
HETATM   12  C   UNL     1      -9.480   6.478 -31.049  1.00  0.00     0.184 C 
BRANCH  12  13
HETATM   13  C   UNL     1      -8.526   6.716 -32.194  1.00  0.00     0.231 C 
HETATM   14  N   UNL     1      -8.705   6.189 -33.435  1.00  0.00    -0.324 N 
HETATM   15  H   UNL     1      -7.905   6.387 -34.033  1.00  0.00     0.169 HD
HETATM   16  O   UNL     1      -7.508   7.397 -32.009  1.00  0.00    -0.272 OA
BRANCH  14  17
HETATM   17  C   UNL     1      -9.676   5.380 -34.067  1.00  0.00     0.070 A 
HETATM   18  C   UNL     1     -10.666   6.081 -34.801  1.00  0.00     0.095 A 
HETATM   19  C   UNL     1     -11.662   5.383 -35.489  1.00  0.00     0.041 A 
HETATM   20  C   UNL     1     -11.697   3.991 -35.442  1.00  0.00     0.026 A 
HETATM   21  C   UNL     1     -10.741   3.303 -34.702  1.00  0.00     0.036 A 
HETATM   22 CL   UNL     1     -10.802   1.583 -34.629  1.00  0.00    -0.084 Cl
HETATM   23  C   UNL     1      -9.737   3.988 -34.014  1.00  0.00     0.056 A 
BRANCH  18  24
HETATM   24  O   UNL     1     -10.545   7.452 -34.782  1.00  0.00    -0.354 OA
HETATM   25  C   UNL     1     -10.751   8.143 -36.006  1.00  0.00     0.210 C 
ENDBRANCH  18  24
ENDBRANCH  14  17
ENDBRANCH  12  13
ENDBRANCH  11  12
ENDBRANCH   4  11
BRANCH   8  26
HETATM   26  C   UNL     1      -4.849   3.551 -31.688  1.00  0.00    -0.044 A 
HETATM   27  C   UNL     1      -3.464   3.377 -31.507  1.00  0.00     0.008 A 
HETATM   28  C   UNL     1      -2.562   3.815 -32.477  1.00  0.00     0.001 A 
HETATM   29  C   UNL     1      -3.027   4.431 -33.635  1.00  0.00     0.000 A 
HETATM   30  C   UNL     1      -4.395   4.619 -33.824  1.00  0.00     0.001 A 
HETATM   31  C   UNL     1      -5.303   4.189 -32.855  1.00  0.00     0.008 A 
ENDBRANCH   8  26
BRANCH   9  32
HETATM   32  C   UNL     1      -6.387   0.661 -31.437  1.00  0.00     0.255 C 
HETATM   33  N   UNL     1      -6.137   0.443 -32.768  1.00  0.00    -0.321 N 
HETATM   34  H   UNL     1      -6.070   1.216 -33.417  1.00  0.00     0.169 HD
HETATM   35  O   UNL     1      -6.218  -0.195 -30.570  1.00  0.00    -0.268 OA
BRANCH  33  36
HETATM   36  C   UNL     1      -5.961  -0.806 -33.416  1.00  0.00     0.068 A 
HETATM   37  C   UNL     1      -4.635  -1.255 -33.602  1.00  0.00     0.095 A 
HETATM   38  C   UNL     1      -4.396  -2.449 -34.290  1.00  0.00     0.039 A 
HETATM   39  C   UNL     1      -5.464  -3.190 -34.801  1.00  0.00     0.003 A 
HETATM   40  C   UNL     1      -6.771  -2.746 -34.621  1.00  0.00     0.002 A 
HETATM   41  C   UNL     1      -7.020  -1.560 -33.927  1.00  0.00     0.032 A 
BRANCH  37  42
HETATM   42  O   UNL     1      -3.657  -0.454 -33.058  1.00  0.00    -0.354 OA
HETATM   43  C   UNL     1      -2.899  -0.999 -31.985  1.00  0.00     0.210 C 
ENDBRANCH  37  42
ENDBRANCH  33  36
ENDBRANCH   9  32
TORSDOF 9
ENDMDL
MODEL 6
REMARK VINA RESULT:      -8.5      1.144      1.764
REMARK  9 active torsions:
REMARK  status: ('A' for Active; 'I' for Inactive)
REMARK    1  A    between atoms: C_4  and  S_5 
REMARK    2  A    between atoms: S_5  and  C_6 
REMARK    3  A    between atoms: C_6  and  C_7 
REMARK       I    between atoms: C_7  and  N_8 
REMARK    4  A    between atoms: N_8  and  C_9 
REMARK    5  A    between atoms: C_10  and  O_11 
REMARK    6  A    between atoms: C_22  and  C_23 
REMARK    7  A    between atoms: C_29  and  C_30 
REMARK       I    between atoms: C_30  and  N_31 
REMARK    8  A    between atoms: N_31  and  C_32 
REMARK    9  A    between atoms: C_33  and  O_34 
ROOT
HETATM    1  C   UNL     1     -10.027   0.526 -32.685  1.00  0.00     0.069 C 
HETATM    2  C   UNL     1      -9.284   1.639 -31.980  1.00  0.00     0.019 A 
HETATM    3  N   UNL     1     -10.068   2.727 -31.645  1.00  0.00    -0.353 N 
HETATM    4  C   UNL     1      -9.623   3.893 -31.071  1.00  0.00     0.087 A 
HETATM    5  C   UNL     1      -8.316   4.009 -30.744  1.00  0.00     0.055 A 
HETATM    6  C   UNL     1      -7.771   5.366 -30.326  1.00  0.00     0.019 C 
HETATM    7  N   UNL     1      -7.319   6.491 -29.980  1.00  0.00    -0.096 N 
HETATM    8  C   UNL     1      -7.310   2.899 -31.092  1.00  0.00     0.104 A 
HETATM    9  C   UNL     1      -7.953   1.644 -31.706  1.00  0.00     0.046 A 
HETATM   10  H   UNL     1     -11.050   2.712 -31.906  1.00  0.00     0.166 HD
ENDROOT
BRANCH   4  11
HETATM   11  S   UNL     1     -10.745   5.220 -30.828  1.00  0.00    -0.102 SA
BRANCH  11  12
HETATM   12  C   UNL     1     -10.764   5.929 -32.512  1.00  0.00     0.184 C 
BRANCH  12  13
HETATM   13  C   UNL     1     -12.105   6.554 -32.809  1.00  0.00     0.231 C 
HETATM   14  N   UNL     1     -13.236   5.827 -33.022  1.00  0.00    -0.324 N 
HETATM   15  H   UNL     1     -14.008   6.431 -33.300  1.00  0.00     0.169 HD
HETATM   16  O   UNL     1     -12.199   7.786 -32.896  1.00  0.00    -0.272 OA
BRANCH  14  17
HETATM   17  C   UNL     1     -13.579   4.457 -33.030  1.00  0.00     0.070 A 
HETATM   18  C   UNL     1     -14.515   4.060 -32.041  1.00  0.00     0.095 A 
HETATM   19  C   UNL     1     -14.948   2.733 -31.971  1.00  0.00     0.041 A 
HETATM   20  C   UNL     1     -14.446   1.788 -32.863  1.00  0.00     0.026 A 
HETATM   21  C   UNL     1     -13.509   2.171 -33.817  1.00  0.00     0.036 A 
HETATM   22 CL   UNL     1     -12.875   0.994 -34.902  1.00  0.00    -0.084 Cl
HETATM   23  C   UNL     1     -13.072   3.495 -33.901  1.00  0.00     0.056 A 
BRANCH  18  24
HETATM   24  O   UNL     1     -14.947   5.068 -31.208  1.00  0.00    -0.354 OA
HETATM   25  C   UNL     1     -16.321   5.423 -31.270  1.00  0.00     0.210 C 
ENDBRANCH  18  24
ENDBRANCH  14  17
ENDBRANCH  12  13
ENDBRANCH  11  12
ENDBRANCH   4  11
BRANCH   8  26
HETATM   26  C   UNL     1      -6.216   3.513 -31.979  1.00  0.00    -0.044 A 
HETATM   27  C   UNL     1      -6.529   3.922 -33.288  1.00  0.00     0.008 A 
HETATM   28  C   UNL     1      -5.538   4.426 -34.130  1.00  0.00     0.001 A 
HETATM   29  C   UNL     1      -4.225   4.528 -33.678  1.00  0.00     0.000 A 
HETATM   30  C   UNL     1      -3.898   4.119 -32.387  1.00  0.00     0.001 A 
HETATM   31  C   UNL     1      -4.884   3.607 -31.542  1.00  0.00     0.008 A 
ENDBRANCH   8  26
BRANCH   9  32
HETATM   32  C   UNL     1      -7.167   0.370 -31.922  1.00  0.00     0.255 C 
HETATM   33  N   UNL     1      -6.821   0.063 -33.214  1.00  0.00    -0.321 N 
HETATM   34  H   UNL     1      -6.923   0.744 -33.954  1.00  0.00     0.169 HD
HETATM   35  O   UNL     1      -6.824  -0.305 -30.953  1.00  0.00    -0.268 OA
BRANCH  33  36
HETATM   36  C   UNL     1      -6.317  -1.171 -33.697  1.00  0.00     0.068 A 
HETATM   37  C   UNL     1      -4.916  -1.348 -33.676  1.00  0.00     0.095 A 
HETATM   38  C   UNL     1      -4.356  -2.518 -34.198  1.00  0.00     0.039 A 
HETATM   39  C   UNL     1      -5.177  -3.504 -34.748  1.00  0.00     0.003 A 
HETATM   40  C   UNL     1      -6.558  -3.329 -34.772  1.00  0.00     0.002 A 
HETATM   41  C   UNL     1      -7.127  -2.168 -34.245  1.00  0.00     0.032 A 
BRANCH  37  42
HETATM   42  O   UNL     1      -4.198  -0.320 -33.110  1.00  0.00    -0.354 OA
HETATM   43  C   UNL     1      -3.013  -0.669 -32.407  1.00  0.00     0.210 C 
ENDBRANCH  37  42
ENDBRANCH  33  36
ENDBRANCH   9  32
TORSDOF 9
ENDMDL
MODEL 7
REMARK VINA RESULT:      -8.3      5.281      9.008
REMARK  9 active torsions:
REMARK  status: ('A' for Active; 'I' for Inactive)
REMARK    1  A    between atoms: C_4  and  S_5 
REMARK    2  A    between atoms: S_5  and  C_6 
REMARK    3  A    between atoms: C_6  and  C_7 
REMARK       I    between atoms: C_7  and  N_8 
REMARK    4  A    between atoms: N_8  and  C_9 
REMARK    5  A    between atoms: C_10  and  O_11 
REMARK    6  A    between atoms: C_22  and  C_23 
REMARK    7  A    between atoms: C_29  and  C_30 
REMARK       I    between atoms: C_30  and  N_31 
REMARK    8  A    between atoms: N_31  and  C_32 
REMARK    9  A    between atoms: C_33  and  O_34 
ROOT
HETATM    1  C   UNL     1      -5.792   5.735 -28.250  1.00  0.00     0.069 C 
HETATM    2  C   UNL     1      -5.134   5.928 -29.598  1.00  0.00     0.019 A 
HETATM    3  N   UNL     1      -5.626   5.109 -30.597  1.00  0.00    -0.353 N 
HETATM    4  C   UNL     1      -5.150   5.035 -31.883  1.00  0.00     0.087 A 
HETATM    5  C   UNL     1      -4.141   5.852 -32.262  1.00  0.00     0.055 A 
HETATM    6  C   UNL     1      -3.457   5.620 -33.599  1.00  0.00     0.019 C 
HETATM    7  N   UNL     1      -2.888   5.428 -34.708  1.00  0.00    -0.096 N 
HETATM    8  C   UNL     1      -3.460   6.790 -31.251  1.00  0.00     0.104 A 
HETATM    9  C   UNL     1      -4.115   6.789 -29.858  1.00  0.00     0.046 A 
HETATM   10  H   UNL     1      -6.356   4.444 -30.359  1.00  0.00     0.166 HD
ENDROOT
BRANCH   4  11
HETATM   11  S   UNL     1      -5.821   3.845 -32.986  1.00  0.00    -0.102 SA
BRANCH  11  12
HETATM   12  C   UNL     1      -4.825   2.385 -32.518  1.00  0.00     0.184 C 
BRANCH  12  13
HETATM   13  C   UNL     1      -5.522   1.591 -31.441  1.00  0.00     0.231 C 
HETATM   14  N   UNL     1      -5.965   0.317 -31.622  1.00  0.00    -0.324 N 
HETATM   15  H   UNL     1      -6.491  -0.004 -30.811  1.00  0.00     0.169 HD
HETATM   16  O   UNL     1      -5.738   2.114 -30.339  1.00  0.00    -0.272 OA
BRANCH  14  17
HETATM   17  C   UNL     1      -5.945  -0.628 -32.672  1.00  0.00     0.070 A 
HETATM   18  C   UNL     1      -7.046  -0.568 -33.564  1.00  0.00     0.095 A 
HETATM   19  C   UNL     1      -7.119  -1.437 -34.655  1.00  0.00     0.041 A 
HETATM   20  C   UNL     1      -6.116  -2.383 -34.862  1.00  0.00     0.026 A 
HETATM   21  C   UNL     1      -5.049  -2.459 -33.974  1.00  0.00     0.036 A 
HETATM   22 CL   UNL     1      -3.824  -3.644 -34.221  1.00  0.00    -0.084 Cl
HETATM   23  C   UNL     1      -4.961  -1.592 -32.882  1.00  0.00     0.056 A 
BRANCH  18  24
HETATM   24  O   UNL     1      -7.983   0.398 -33.271  1.00  0.00    -0.354 OA
HETATM   25  C   UNL     1      -9.284  -0.044 -32.909  1.00  0.00     0.210 C 
ENDBRANCH  18  24
ENDBRANCH  14  17
ENDBRANCH  12  13
ENDBRANCH  11  12
ENDBRANCH   4  11
BRANCH   8  26
HETATM   26  C   UNL     1      -1.964   6.442 -31.215  1.00  0.00    -0.044 A 
HETATM   27  C   UNL     1      -1.559   5.149 -30.839  1.00  0.00     0.008 A 
HETATM   28  C   UNL     1      -0.204   4.830 -30.743  1.00  0.00     0.001 A 
HETATM   29  C   UNL     1       0.761   5.794 -31.020  1.00  0.00     0.000 A 
HETATM   30  C   UNL     1       0.374   7.083 -31.385  1.00  0.00     0.001 A 
HETATM   31  C   UNL     1      -0.979   7.410 -31.477  1.00  0.00     0.008 A 
ENDBRANCH   8  26
BRANCH   9  32
HETATM   32  C   UNL     1      -3.726   7.790 -28.794  1.00  0.00     0.255 C 
HETATM   33  N   UNL     1      -2.746   7.413 -27.911  1.00  0.00    -0.321 N 
HETATM   34  H   UNL     1      -2.187   6.587 -28.078  1.00  0.00     0.169 HD
HETATM   35  O   UNL     1      -4.248   8.904 -28.787  1.00  0.00    -0.268 OA
BRANCH  33  36
HETATM   36  C   UNL     1      -2.391   8.055 -26.698  1.00  0.00     0.068 A 
HETATM   37  C   UNL     1      -1.156   8.740 -26.668  1.00  0.00     0.095 A 
HETATM   38  C   UNL     1      -0.722   9.339 -25.481  1.00  0.00     0.039 A 
HETATM   39  C   UNL     1      -1.501   9.251 -24.326  1.00  0.00     0.003 A 
HETATM   40  C   UNL     1      -2.717   8.573 -24.353  1.00  0.00     0.002 A 
HETATM   41  C   UNL     1      -3.162   7.980 -25.536  1.00  0.00     0.032 A 
BRANCH  37  42
HETATM   42  O   UNL     1      -0.468   8.770 -27.860  1.00  0.00    -0.354 OA
HETATM   43  C   UNL     1       0.863   8.273 -27.850  1.00  0.00     0.210 C 
ENDBRANCH  37  42
ENDBRANCH  33  36
ENDBRANCH   9  32
TORSDOF 9
ENDMDL
MODEL 8
REMARK VINA RESULT:      -8.2      3.095      6.167
REMARK  9 active torsions:
REMARK  status: ('A' for Active; 'I' for Inactive)
REMARK    1  A    between atoms: C_4  and  S_5 
REMARK    2  A    between atoms: S_5  and  C_6 
REMARK    3  A    between atoms: C_6  and  C_7 
REMARK       I    between atoms: C_7  and  N_8 
REMARK    4  A    between atoms: N_8  and  C_9 
REMARK    5  A    between atoms: C_10  and  O_11 
REMARK    6  A    between atoms: C_22  and  C_23 
REMARK    7  A    between atoms: C_29  and  C_30 
REMARK       I    between atoms: C_30  and  N_31 
REMARK    8  A    between atoms: N_31  and  C_32 
REMARK    9  A    between atoms: C_33  and  O_34 
ROOT
HETATM    1  C   UNL     1      -7.737   5.612 -33.534  1.00  0.00     0.069 C 
HETATM    2  C   UNL     1      -7.501   4.136 -33.767  1.00  0.00     0.019 A 
HETATM    3  N   UNL     1      -8.652   3.371 -33.798  1.00  0.00    -0.353 N 
HETATM    4  C   UNL     1      -8.706   2.004 -33.918  1.00  0.00     0.087 A 
HETATM    5  C   UNL     1      -7.555   1.309 -34.070  1.00  0.00     0.055 A 
HETATM    6  C   UNL     1      -7.583  -0.207 -33.971  1.00  0.00     0.019 C 
HETATM    7  N   UNL     1      -7.606  -1.466 -33.889  1.00  0.00    -0.096 N 
HETATM    8  C   UNL     1      -6.190   2.015 -34.014  1.00  0.00     0.104 A 
HETATM    9  C   UNL     1      -6.284   3.547 -33.904  1.00  0.00     0.046 A 
HETATM   10  H   UNL     1      -9.543   3.835 -33.647  1.00  0.00     0.166 HD
ENDROOT
BRANCH   4  11
HETATM   11  S   UNL     1     -10.256   1.188 -33.815  1.00  0.00    -0.102 SA
BRANCH  11  12
HETATM   12  C   UNL     1     -11.378   2.616 -34.024  1.00  0.00     0.184 C 
BRANCH  12  13
HETATM   13  C   UNL     1     -12.388   2.665 -32.903  1.00  0.00     0.231 C 
HETATM   14  N   UNL     1     -12.163   3.307 -31.725  1.00  0.00    -0.324 N 
HETATM   15  H   UNL     1     -12.925   3.140 -31.069  1.00  0.00     0.169 HD
HETATM   16  O   UNL     1     -13.470   2.076 -33.030  1.00  0.00    -0.272 OA
BRANCH  14  17
HETATM   17  C   UNL     1     -11.115   4.070 -31.165  1.00  0.00     0.070 A 
HETATM   18  C   UNL     1     -11.327   5.472 -31.145  1.00  0.00     0.095 A 
HETATM   19  C   UNL     1     -10.369   6.324 -30.591  1.00  0.00     0.041 A 
HETATM   20  C   UNL     1      -9.187   5.799 -30.071  1.00  0.00     0.026 A 
HETATM   21  C   UNL     1      -8.966   4.427 -30.113  1.00  0.00     0.036 A 
HETATM   22 CL   UNL     1      -7.494   3.786 -29.488  1.00  0.00    -0.084 Cl
HETATM   23  C   UNL     1      -9.919   3.564 -30.659  1.00  0.00     0.056 A 
BRANCH  18  24
HETATM   24  O   UNL     1     -12.523   5.888 -31.685  1.00  0.00    -0.354 OA
HETATM   25  C   UNL     1     -12.465   6.755 -32.809  1.00  0.00     0.210 C 
ENDBRANCH  18  24
ENDBRANCH  14  17
ENDBRANCH  12  13
ENDBRANCH  11  12
ENDBRANCH   4  11
BRANCH   8  26
HETATM   26  C   UNL     1      -5.373   1.377 -32.880  1.00  0.00    -0.044 A 
HETATM   27  C   UNL     1      -4.280   0.548 -33.191  1.00  0.00     0.008 A 
HETATM   28  C   UNL     1      -3.562  -0.088 -32.178  1.00  0.00     0.001 A 
HETATM   29  C   UNL     1      -3.924   0.094 -30.846  1.00  0.00     0.000 A 
HETATM   30  C   UNL     1      -5.011   0.905 -30.523  1.00  0.00     0.001 A 
HETATM   31  C   UNL     1      -5.737   1.540 -31.532  1.00  0.00     0.008 A 
ENDBRANCH   8  26
BRANCH   9  32
HETATM   32  C   UNL     1      -5.066   4.432 -34.045  1.00  0.00     0.255 C 
HETATM   33  N   UNL     1      -4.349   4.693 -32.904  1.00  0.00    -0.321 N 
HETATM   34  H   UNL     1      -4.518   4.172 -32.055  1.00  0.00     0.169 HD
HETATM   35  O   UNL     1      -4.732   4.835 -35.159  1.00  0.00    -0.268 OA
BRANCH  33  36
HETATM   36  C   UNL     1      -3.340   5.673 -32.730  1.00  0.00     0.068 A 
HETATM   37  C   UNL     1      -3.652   6.782 -31.914  1.00  0.00     0.095 A 
HETATM   38  C   UNL     1      -2.720   7.813 -31.755  1.00  0.00     0.039 A 
HETATM   39  C   UNL     1      -1.488   7.751 -32.409  1.00  0.00     0.003 A 
HETATM   40  C   UNL     1      -1.180   6.659 -33.216  1.00  0.00     0.002 A 
HETATM   41  C   UNL     1      -2.101   5.622 -33.373  1.00  0.00     0.032 A 
BRANCH  37  42
HETATM   42  O   UNL     1      -4.890   6.745 -31.313  1.00  0.00    -0.354 OA
HETATM   43  C   UNL     1      -5.636   7.955 -31.291  1.00  0.00     0.210 C 
ENDBRANCH  37  42
ENDBRANCH  33  36
ENDBRANCH   9  32
TORSDOF 9
ENDMDL
MODEL 9
REMARK VINA RESULT:      -8.0      3.188      4.538
REMARK  9 active torsions:
REMARK  status: ('A' for Active; 'I' for Inactive)
REMARK    1  A    between atoms: C_4  and  S_5 
REMARK    2  A    between atoms: S_5  and  C_6 
REMARK    3  A    between atoms: C_6  and  C_7 
REMARK       I    between atoms: C_7  and  N_8 
REMARK    4  A    between atoms: N_8  and  C_9 
REMARK    5  A    between atoms: C_10  and  O_11 
REMARK    6  A    between atoms: C_22  and  C_23 
REMARK    7  A    between atoms: C_29  and  C_30 
REMARK       I    between atoms: C_30  and  N_31 
REMARK    8  A    between atoms: N_31  and  C_32 
REMARK    9  A    between atoms: C_33  and  O_34 
ROOT
HETATM    1  C   UNL     1      -8.253   5.393 -34.105  1.00  0.00     0.069 C 
HETATM    2  C   UNL     1      -7.178   5.553 -33.052  1.00  0.00     0.019 A 
HETATM    3  N   UNL     1      -7.347   6.647 -32.224  1.00  0.00    -0.353 N 
HETATM    4  C   UNL     1      -6.477   7.056 -31.244  1.00  0.00     0.087 A 
HETATM    5  C   UNL     1      -5.366   6.324 -31.001  1.00  0.00     0.055 A 
HETATM    6  C   UNL     1      -4.289   6.887 -30.088  1.00  0.00     0.019 C 
HETATM    7  N   UNL     1      -3.394   7.353 -29.331  1.00  0.00    -0.096 N 
HETATM    8  C   UNL     1      -5.017   5.102 -31.867  1.00  0.00     0.104 A 
HETATM    9  C   UNL     1      -6.094   4.746 -32.907  1.00  0.00     0.046 A 
HETATM   10  H   UNL     1      -8.143   7.257 -32.388  1.00  0.00     0.166 HD
ENDROOT
BRANCH   4  11
HETATM   11  S   UNL     1      -6.797   8.544 -30.369  1.00  0.00    -0.102 SA
BRANCH  11  12
HETATM   12  C   UNL     1      -8.511   8.224 -29.820  1.00  0.00     0.184 C 
BRANCH  12  13
HETATM   13  C   UNL     1      -8.528   7.207 -28.705  1.00  0.00     0.231 C 
HETATM   14  N   UNL     1      -8.992   5.937 -28.862  1.00  0.00    -0.324 N 
HETATM   15  H   UNL     1      -9.007   5.443 -27.970  1.00  0.00     0.169 HD
HETATM   16  O   UNL     1      -8.132   7.530 -27.577  1.00  0.00    -0.272 OA
BRANCH  14  17
HETATM   17  C   UNL     1      -9.523   5.171 -29.922  1.00  0.00     0.070 A 
HETATM   18  C   UNL     1      -8.819   3.977 -30.222  1.00  0.00     0.095 A 
HETATM   19  C   UNL     1      -9.268   3.127 -31.236  1.00  0.00     0.041 A 
HETATM   20  C   UNL     1     -10.404   3.459 -31.971  1.00  0.00     0.026 A 
HETATM   21  C   UNL     1     -11.082   4.641 -31.695  1.00  0.00     0.036 A 
HETATM   22 CL   UNL     1     -12.473   5.057 -32.622  1.00  0.00    -0.084 Cl
HETATM   23  C   UNL     1     -10.646   5.497 -30.681  1.00  0.00     0.056 A 
BRANCH  18  24
HETATM   24  O   UNL     1      -7.709   3.743 -29.441  1.00  0.00    -0.354 OA
HETATM   25  C   UNL     1      -6.879   2.647 -29.798  1.00  0.00     0.210 C 
ENDBRANCH  18  24
ENDBRANCH  14  17
ENDBRANCH  12  13
ENDBRANCH  11  12
ENDBRANCH   4  11
BRANCH   8  26
HETATM   26  C   UNL     1      -3.633   5.342 -32.490  1.00  0.00    -0.044 A 
HETATM   27  C   UNL     1      -3.511   6.181 -33.613  1.00  0.00     0.008 A 
HETATM   28  C   UNL     1      -2.273   6.366 -34.229  1.00  0.00     0.001 A 
HETATM   29  C   UNL     1      -1.145   5.717 -33.735  1.00  0.00     0.000 A 
HETATM   30  C   UNL     1      -1.252   4.876 -32.629  1.00  0.00     0.001 A 
HETATM   31  C   UNL     1      -2.489   4.682 -32.012  1.00  0.00     0.008 A 
ENDBRANCH   8  26
BRANCH   9  32
HETATM   32  C   UNL     1      -6.037   3.464 -33.707  1.00  0.00     0.255 C 
HETATM   33  N   UNL     1      -6.600   2.349 -33.140  1.00  0.00    -0.321 N 
HETATM   34  H   UNL     1      -7.184   2.424 -32.318  1.00  0.00     0.169 HD
HETATM   35  O   UNL     1      -5.548   3.473 -34.836  1.00  0.00    -0.268 OA
BRANCH  33  36
HETATM   36  C   UNL     1      -6.456   1.004 -33.565  1.00  0.00     0.068 A 
HETATM   37  C   UNL     1      -5.422   0.247 -32.972  1.00  0.00     0.095 A 
HETATM   38  C   UNL     1      -5.191  -1.065 -33.395  1.00  0.00     0.039 A 
HETATM   39  C   UNL     1      -5.973  -1.623 -34.408  1.00  0.00     0.003 A 
HETATM   40  C   UNL     1      -6.991  -0.877 -34.996  1.00  0.00     0.002 A 
HETATM   41  C   UNL     1      -7.235   0.431 -34.573  1.00  0.00     0.032 A 
BRANCH  37  42
HETATM   42  O   UNL     1      -4.713   0.888 -31.982  1.00  0.00    -0.354 OA
HETATM   43  C   UNL     1      -3.999   0.070 -31.065  1.00  0.00     0.210 C 
ENDBRANCH  37  42
ENDBRANCH  33  36
ENDBRANCH   9  32
TORSDOF 9
ENDMDL
MODEL 10
REMARK VINA RESULT:      -8.0      2.221      5.144
REMARK  9 active torsions:
REMARK  status: ('A' for Active; 'I' for Inactive)
REMARK    1  A    between atoms: C_4  and  S_5 
REMARK    2  A    between atoms: S_5  and  C_6 
REMARK    3  A    between atoms: C_6  and  C_7 
REMARK       I    between atoms: C_7  and  N_8 
REMARK    4  A    between atoms: N_8  and  C_9 
REMARK    5  A    between atoms: C_10  and  O_11 
REMARK    6  A    between atoms: C_22  and  C_23 
REMARK    7  A    between atoms: C_29  and  C_30 
REMARK       I    between atoms: C_30  and  N_31 
REMARK    8  A    between atoms: N_31  and  C_32 
REMARK    9  A    between atoms: C_33  and  O_34 
ROOT
HETATM    1  C   UNL     1      -6.009   5.303 -28.876  1.00  0.00     0.069 C 
HETATM    2  C   UNL     1      -6.648   4.600 -30.053  1.00  0.00     0.019 A 
HETATM    3  N   UNL     1      -8.025   4.501 -29.982  1.00  0.00    -0.353 N 
HETATM    4  C   UNL     1      -8.832   3.847 -30.880  1.00  0.00     0.087 A 
HETATM    5  C   UNL     1      -8.275   3.276 -31.972  1.00  0.00     0.055 A 
HETATM    6  C   UNL     1      -9.118   2.359 -32.844  1.00  0.00     0.019 C 
HETATM    7  N   UNL     1      -9.817   1.598 -33.567  1.00  0.00    -0.096 N 
HETATM    8  C   UNL     1      -6.750   3.265 -32.171  1.00  0.00     0.104 A 
HETATM    9  C   UNL     1      -5.976   4.059 -31.103  1.00  0.00     0.046 A 
HETATM   10  H   UNL     1      -8.493   4.876 -29.161  1.00  0.00     0.166 HD
ENDROOT
BRANCH   4  11
HETATM   11  S   UNL     1     -10.553   3.720 -30.562  1.00  0.00    -0.102 SA
BRANCH  11  12
HETATM   12  C   UNL     1     -11.149   5.201 -31.453  1.00  0.00     0.184 C 
BRANCH  12  13
HETATM   13  C   UNL     1     -12.655   5.275 -31.410  1.00  0.00     0.231 C 
HETATM   14  N   UNL     1     -13.462   4.494 -32.178  1.00  0.00    -0.324 N 
HETATM   15  H   UNL     1     -14.439   4.765 -32.071  1.00  0.00     0.169 HD
HETATM   16  O   UNL     1     -13.205   6.100 -30.668  1.00  0.00    -0.272 OA
BRANCH  14  17
HETATM   17  C   UNL     1     -13.278   3.468 -33.132  1.00  0.00     0.070 A 
HETATM   18  C   UNL     1     -12.890   3.904 -34.425  1.00  0.00     0.095 A 
HETATM   19  C   UNL     1     -12.654   2.975 -35.441  1.00  0.00     0.041 A 
HETATM   20  C   UNL     1     -12.818   1.613 -35.194  1.00  0.00     0.026 A 
HETATM   21  C   UNL     1     -13.223   1.187 -33.934  1.00  0.00     0.036 A 
HETATM   22 CL   UNL     1     -13.445  -0.496 -33.640  1.00  0.00    -0.084 Cl
HETATM   23  C   UNL     1     -13.457   2.105 -32.907  1.00  0.00     0.056 A 
BRANCH  18  24
HETATM   24  O   UNL     1     -12.759   5.267 -34.566  1.00  0.00    -0.354 OA
HETATM   25  C   UNL     1     -13.265   5.851 -35.758  1.00  0.00     0.210 C 
ENDBRANCH  18  24
ENDBRANCH  14  17
ENDBRANCH  12  13
ENDBRANCH  11  12
ENDBRANCH   4  11
BRANCH   8  26
HETATM   26  C   UNL     1      -6.297   1.802 -32.282  1.00  0.00    -0.044 A 
HETATM   27  C   UNL     1      -5.929   1.281 -33.536  1.00  0.00     0.008 A 
HETATM   28  C   UNL     1      -5.571  -0.061 -33.669  1.00  0.00     0.001 A 
HETATM   29  C   UNL     1      -5.576  -0.898 -32.557  1.00  0.00     0.000 A 
HETATM   30  C   UNL     1      -5.947  -0.398 -31.310  1.00  0.00     0.001 A 
HETATM   31  C   UNL     1      -6.312   0.942 -31.171  1.00  0.00     0.008 A 
ENDBRANCH   8  26
BRANCH   9  32
HETATM   32  C   UNL     1      -4.497   4.342 -31.237  1.00  0.00     0.255 C 
HETATM   33  N   UNL     1      -4.131   5.644 -31.470  1.00  0.00    -0.321 N 
HETATM   34  H   UNL     1      -4.798   6.397 -31.371  1.00  0.00     0.169 HD
HETATM   35  O   UNL     1      -3.686   3.430 -31.083  1.00  0.00    -0.268 OA
BRANCH  33  36
HETATM   36  C   UNL     1      -2.858   6.118 -31.877  1.00  0.00     0.068 A 
HETATM   37  C   UNL     1      -2.665   6.346 -33.256  1.00  0.00     0.095 A 
HETATM   38  C   UNL     1      -1.411   6.754 -33.725  1.00  0.00     0.039 A 
HETATM   39  C   UNL     1      -0.351   6.924 -32.833  1.00  0.00     0.003 A 
HETATM   40  C   UNL     1      -0.539   6.696 -31.472  1.00  0.00     0.002 A 
HETATM   41  C   UNL     1      -1.789   6.298 -30.995  1.00  0.00     0.032 A 
BRANCH  37  42
HETATM   42  O   UNL     1      -3.773   6.154 -34.049  1.00  0.00    -0.354 OA
HETATM   43  C   UNL     1      -3.642   5.246 -35.134  1.00  0.00     0.210 C 
ENDBRANCH  37  42
ENDBRANCH  33  36
ENDBRANCH   9  32
TORSDOF 9
ENDMDL
