MODEL 1
REMARK VINA RESULT:      -8.9      0.000      0.000
REMARK  4 active torsions:
REMARK  status: ('A' for Active; 'I' for Inactive)
REMARK    1  A    between atoms: C_9  and  C_10 
REMARK       I    between atoms: C_10  and  N_11 
REMARK    2  A    between atoms: N_11  and  N_12 
REMARK       I    between atoms: N_12  and  C_13 
REMARK    3  A    between atoms: C_13  and  C_14 
REMARK    4  A    between atoms: C_14  and  C_15 
ROOT
HETATM    1  C   UNL     1      -5.302   0.430 -32.883  1.00  0.00     0.291 C 
HETATM    2  N   UNL     1      -6.660   0.175 -32.941  1.00  0.00    -0.262 N 
HETATM    3  O   UNL     1      -4.834   1.562 -33.018  1.00  0.00    -0.264 OA
HETATM    4  H   UNL     1      -6.997  -0.745 -32.647  1.00  0.00     0.190 HD
ENDROOT
BRANCH   2   5
HETATM    5  N   UNL     1      -7.560   1.246 -32.926  1.00  0.00    -0.267 N 
HETATM    6  C   UNL     1      -8.356   1.437 -34.038  1.00  0.00     0.240 C 
HETATM    7  O   UNL     1      -8.203   0.812 -35.086  1.00  0.00    -0.272 OA
HETATM    8  H   UNL     1      -7.778   1.643 -32.014  1.00  0.00     0.190 HD
BRANCH   6   9
HETATM    9  C   UNL     1      -9.427   2.496 -33.865  1.00  0.00     0.143 C 
BRANCH   9  10
HETATM   10  C   UNL     1     -10.836   1.983 -34.054  1.00  0.00    -0.049 A 
HETATM   11  C   UNL     1     -11.259   0.784 -33.460  1.00  0.00     0.009 A 
HETATM   12  C   UNL     1     -12.576   0.341 -33.609  1.00  0.00     0.024 A 
HETATM   13  C   UNL     1     -13.484   1.103 -34.340  1.00  0.00     0.034 A 
HETATM   14 CL   UNL     1     -15.108   0.563 -34.516  1.00  0.00    -0.084 Cl
HETATM   15  C   UNL     1     -13.086   2.305 -34.920  1.00  0.00     0.024 A 
HETATM   16  C   UNL     1     -11.768   2.745 -34.774  1.00  0.00     0.009 A 
ENDBRANCH   9  10
ENDBRANCH   6   9
ENDBRANCH   2   5
BRANCH   1  17
HETATM   17  C   UNL     1      -4.495  -0.771 -32.630  1.00  0.00     0.158 A 
HETATM   18  C   UNL     1      -4.618  -2.048 -33.253  1.00  0.00     0.029 A 
HETATM   19  C   UNL     1      -5.453  -2.627 -34.231  1.00  0.00     0.023 A 
HETATM   20  C   UNL     1      -3.624  -2.830 -32.676  1.00  0.00     0.063 A 
HETATM   21  C   UNL     1      -5.269  -3.973 -34.590  1.00  0.00    -0.061 A 
HETATM   22  C   UNL     1      -6.134  -4.602 -35.645  1.00  0.00     0.048 C 
HETATM   23  C   UNL     1      -4.247  -4.721 -33.991  1.00  0.00     0.009 A 
HETATM   24  C   UNL     1      -3.406  -4.166 -33.020  1.00  0.00     0.032 A 
HETATM   25  N   UNL     1      -2.993  -2.009 -31.783  1.00  0.00    -0.277 N 
HETATM   26  H   UNL     1      -2.212  -2.244 -31.181  1.00  0.00     0.189 HD
HETATM   27  N   UNL     1      -3.490  -0.763 -31.726  1.00  0.00    -0.168 NA
ENDBRANCH   1  17
TORSDOF 4
ENDMDL
MODEL 2
REMARK VINA RESULT:      -8.8      6.297      8.561
REMARK  4 active torsions:
REMARK  status: ('A' for Active; 'I' for Inactive)
REMARK    1  A    between atoms: C_9  and  C_10 
REMARK       I    between atoms: C_10  and  N_11 
REMARK    2  A    between atoms: N_11  and  N_12 
REMARK       I    between atoms: N_12  and  C_13 
REMARK    3  A    between atoms: C_13  and  C_14 
REMARK    4  A    between atoms: C_14  and  C_15 
ROOT
HETATM    1  C   UNL     1      -4.072   1.453 -31.176  1.00  0.00     0.291 C 
HETATM    2  N   UNL     1      -2.984   2.237 -31.513  1.00  0.00    -0.262 N 
HETATM    3  O   UNL     1      -4.960   1.843 -30.417  1.00  0.00    -0.264 OA
HETATM    4  H   UNL     1      -2.379   1.931 -32.278  1.00  0.00     0.190 HD
ENDROOT
BRANCH   2   5
HETATM    5  N   UNL     1      -2.987   3.595 -31.175  1.00  0.00    -0.267 N 
HETATM    6  C   UNL     1      -2.636   4.506 -32.151  1.00  0.00     0.240 C 
HETATM    7  O   UNL     1      -2.179   4.174 -33.244  1.00  0.00    -0.272 OA
HETATM    8  H   UNL     1      -3.505   3.853 -30.338  1.00  0.00     0.190 HD
BRANCH   6   9
HETATM    9  C   UNL     1      -2.845   5.955 -31.758  1.00  0.00     0.143 C 
BRANCH   9  10
HETATM   10  C   UNL     1      -1.783   6.501 -30.832  1.00  0.00    -0.049 A 
HETATM   11  C   UNL     1      -0.427   6.492 -31.196  1.00  0.00     0.009 A 
HETATM   12  C   UNL     1       0.540   7.038 -30.347  1.00  0.00     0.024 A 
HETATM   13  C   UNL     1       0.158   7.611 -29.138  1.00  0.00     0.034 A 
HETATM   14 CL   UNL     1       1.348   8.290 -28.098  1.00  0.00    -0.084 Cl
HETATM   15  C   UNL     1      -1.185   7.646 -28.770  1.00  0.00     0.024 A 
HETATM   16  C   UNL     1      -2.152   7.096 -29.616  1.00  0.00     0.009 A 
ENDBRANCH   9  10
ENDBRANCH   6   9
ENDBRANCH   2   5
BRANCH   1  17
HETATM   17  C   UNL     1      -4.061   0.135 -31.824  1.00  0.00     0.158 A 
HETATM   18  C   UNL     1      -4.924  -0.334 -32.858  1.00  0.00     0.029 A 
HETATM   19  C   UNL     1      -6.009   0.188 -33.592  1.00  0.00     0.023 A 
HETATM   20  C   UNL     1      -4.499  -1.630 -33.125  1.00  0.00     0.063 A 
HETATM   21  C   UNL     1      -6.639  -0.612 -34.561  1.00  0.00    -0.061 A 
HETATM   22  C   UNL     1      -7.783  -0.066 -35.367  1.00  0.00     0.048 C 
HETATM   23  C   UNL     1      -6.170  -1.909 -34.805  1.00  0.00     0.009 A 
HETATM   24  C   UNL     1      -5.094  -2.446 -34.091  1.00  0.00     0.032 A 
HETATM   25  N   UNL     1      -3.452  -1.850 -32.273  1.00  0.00    -0.277 N 
HETATM   26  H   UNL     1      -2.895  -2.692 -32.191  1.00  0.00     0.189 HD
HETATM   27  N   UNL     1      -3.160  -0.811 -31.473  1.00  0.00    -0.168 NA
ENDBRANCH   1  17
TORSDOF 4
ENDMDL
MODEL 3
REMARK VINA RESULT:      -8.7      5.062      7.943
REMARK  4 active torsions:
REMARK  status: ('A' for Active; 'I' for Inactive)
REMARK    1  A    between atoms: C_9  and  C_10 
REMARK       I    between atoms: C_10  and  N_11 
REMARK    2  A    between atoms: N_11  and  N_12 
REMARK       I    between atoms: N_12  and  C_13 
REMARK    3  A    between atoms: C_13  and  C_14 
REMARK    4  A    between atoms: C_14  and  C_15 
ROOT
HETATM    1  C   UNL     1      -4.782   3.302 -32.934  1.00  0.00     0.291 C 
HETATM    2  N   UNL     1      -5.879   2.915 -33.682  1.00  0.00    -0.262 N 
HETATM    3  O   UNL     1      -4.480   2.759 -31.871  1.00  0.00    -0.264 OA
HETATM    4  H   UNL     1      -5.976   3.280 -34.632  1.00  0.00     0.190 HD
ENDROOT
BRANCH   2   5
HETATM    5  N   UNL     1      -6.545   1.728 -33.357  1.00  0.00    -0.267 N 
HETATM    6  C   UNL     1      -6.926   0.896 -34.392  1.00  0.00     0.240 C 
HETATM    7  O   UNL     1      -6.844   1.219 -35.576  1.00  0.00    -0.272 OA
HETATM    8  H   UNL     1      -6.465   1.411 -32.393  1.00  0.00     0.190 HD
BRANCH   6   9
HETATM    9  C   UNL     1      -7.470  -0.446 -33.945  1.00  0.00     0.143 C 
BRANCH   9  10
HETATM   10  C   UNL     1      -6.452  -1.564 -33.975  1.00  0.00    -0.049 A 
HETATM   11  C   UNL     1      -6.713  -2.766 -34.650  1.00  0.00     0.009 A 
HETATM   12  C   UNL     1      -5.748  -3.775 -34.704  1.00  0.00     0.024 A 
HETATM   13  C   UNL     1      -4.509  -3.583 -34.098  1.00  0.00     0.034 A 
HETATM   14 CL   UNL     1      -3.318  -4.821 -34.172  1.00  0.00    -0.084 Cl
HETATM   15  C   UNL     1      -4.227  -2.388 -33.441  1.00  0.00     0.024 A 
HETATM   16  C   UNL     1      -5.194  -1.381 -33.383  1.00  0.00     0.009 A 
ENDBRANCH   9  10
ENDBRANCH   6   9
ENDBRANCH   2   5
BRANCH   1  17
HETATM   17  C   UNL     1      -4.023   4.402 -33.543  1.00  0.00     0.158 A 
HETATM   18  C   UNL     1      -2.840   5.024 -33.043  1.00  0.00     0.029 A 
HETATM   19  C   UNL     1      -2.015   4.878 -31.909  1.00  0.00     0.023 A 
HETATM   20  C   UNL     1      -2.516   5.994 -33.986  1.00  0.00     0.063 A 
HETATM   21  C   UNL     1      -0.898   5.716 -31.753  1.00  0.00    -0.061 A 
HETATM   22  C   UNL     1       0.004   5.562 -30.562  1.00  0.00     0.048 C 
HETATM   23  C   UNL     1      -0.602   6.673 -32.732  1.00  0.00     0.009 A 
HETATM   24  C   UNL     1      -1.405   6.833 -33.866  1.00  0.00     0.032 A 
HETATM   25  N   UNL     1      -3.479   5.897 -34.950  1.00  0.00    -0.277 N 
HETATM   26  H   UNL     1      -3.560   6.452 -35.795  1.00  0.00     0.189 HD
HETATM   27  N   UNL     1      -4.406   4.952 -34.718  1.00  0.00    -0.168 NA
ENDBRANCH   1  17
TORSDOF 4
ENDMDL
MODEL 4
REMARK VINA RESULT:      -8.5      4.050      9.501
REMARK  4 active torsions:
REMARK  status: ('A' for Active; 'I' for Inactive)
REMARK    1  A    between atoms: C_9  and  C_10 
REMARK       I    between atoms: C_10  and  N_11 
REMARK    2  A    between atoms: N_11  and  N_12 
REMARK       I    between atoms: N_12  and  C_13 
REMARK    3  A    between atoms: C_13  and  C_14 
REMARK    4  A    between atoms: C_14  and  C_15 
ROOT
HETATM    1  C   UNL     1     -11.592   2.000 -34.349  1.00  0.00     0.291 C 
HETATM    2  N   UNL     1     -10.690   0.985 -34.087  1.00  0.00    -0.262 N 
HETATM    3  O   UNL     1     -11.256   3.068 -34.863  1.00  0.00    -0.264 OA
HETATM    4  H   UNL     1     -11.053   0.065 -33.827  1.00  0.00     0.190 HD
ENDROOT
BRANCH   2   5
HETATM    5  N   UNL     1      -9.398   1.062 -34.617  1.00  0.00    -0.267 N 
HETATM    6  C   UNL     1      -8.399   0.342 -33.991  1.00  0.00     0.240 C 
HETATM    7  O   UNL     1      -8.560  -0.232 -32.916  1.00  0.00    -0.272 OA
HETATM    8  H   UNL     1      -9.318   1.404 -35.572  1.00  0.00     0.190 HD
BRANCH   6   9
HETATM    9  C   UNL     1      -7.078   0.331 -34.735  1.00  0.00     0.143 C 
BRANCH   9  10
HETATM   10  C   UNL     1      -6.217  -0.877 -34.444  1.00  0.00    -0.049 A 
HETATM   11  C   UNL     1      -6.519  -2.133 -34.994  1.00  0.00     0.009 A 
HETATM   12  C   UNL     1      -5.692  -3.233 -34.750  1.00  0.00     0.024 A 
HETATM   13  C   UNL     1      -4.550  -3.082 -33.969  1.00  0.00     0.034 A 
HETATM   14 CL   UNL     1      -3.528  -4.434 -33.676  1.00  0.00    -0.084 Cl
HETATM   15  C   UNL     1      -4.225  -1.839 -33.432  1.00  0.00     0.024 A 
HETATM   16  C   UNL     1      -5.054  -0.739 -33.672  1.00  0.00     0.009 A 
ENDBRANCH   9  10
ENDBRANCH   6   9
ENDBRANCH   2   5
BRANCH   1  17
HETATM   17  C   UNL     1     -12.971   1.665 -33.971  1.00  0.00     0.158 A 
HETATM   18  C   UNL     1     -13.885   2.463 -33.222  1.00  0.00     0.029 A 
HETATM   19  C   UNL     1     -13.861   3.731 -32.605  1.00  0.00     0.023 A 
HETATM   20  C   UNL     1     -15.048   1.705 -33.146  1.00  0.00     0.063 A 
HETATM   21  C   UNL     1     -15.000   4.192 -31.922  1.00  0.00    -0.061 A 
HETATM   22  C   UNL     1     -14.999   5.547 -31.276  1.00  0.00     0.048 C 
HETATM   23  C   UNL     1     -16.154   3.399 -31.879  1.00  0.00     0.009 A 
HETATM   24  C   UNL     1     -16.201   2.140 -32.487  1.00  0.00     0.032 A 
HETATM   25  N   UNL     1     -14.773   0.551 -33.824  1.00  0.00    -0.277 N 
HETATM   26  H   UNL     1     -15.394  -0.235 -33.974  1.00  0.00     0.189 HD
HETATM   27  N   UNL     1     -13.531   0.489 -34.333  1.00  0.00    -0.168 NA
ENDBRANCH   1  17
TORSDOF 4
ENDMDL
MODEL 5
REMARK VINA RESULT:      -8.5      6.535      8.865
REMARK  4 active torsions:
REMARK  status: ('A' for Active; 'I' for Inactive)
REMARK    1  A    between atoms: C_9  and  C_10 
REMARK       I    between atoms: C_10  and  N_11 
REMARK    2  A    between atoms: N_11  and  N_12 
REMARK       I    between atoms: N_12  and  C_13 
REMARK    3  A    between atoms: C_13  and  C_14 
REMARK    4  A    between atoms: C_14  and  C_15 
ROOT
HETATM    1  C   UNL     1      -3.582   2.979 -32.267  1.00  0.00     0.291 C 
HETATM    2  N   UNL     1      -3.338   3.944 -33.227  1.00  0.00    -0.262 N 
HETATM    3  O   UNL     1      -2.745   2.661 -31.420  1.00  0.00    -0.264 OA
HETATM    4  H   UNL     1      -4.124   4.288 -33.784  1.00  0.00     0.190 HD
ENDROOT
BRANCH   2   5
HETATM    5  N   UNL     1      -2.203   4.754 -33.113  1.00  0.00    -0.267 N 
HETATM    6  C   UNL     1      -2.199   5.960 -33.784  1.00  0.00     0.240 C 
HETATM    7  O   UNL     1      -3.071   6.282 -34.588  1.00  0.00    -0.272 OA
HETATM    8  H   UNL     1      -1.575   4.549 -32.337  1.00  0.00     0.190 HD
BRANCH   6   9
HETATM    9  C   UNL     1      -1.017   6.853 -33.457  1.00  0.00     0.143 C 
BRANCH   9  10
HETATM   10  C   UNL     1      -0.878   7.176 -31.986  1.00  0.00    -0.049 A 
HETATM   11  C   UNL     1       0.233   6.738 -31.249  1.00  0.00     0.009 A 
HETATM   12  C   UNL     1       0.370   7.078 -29.900  1.00  0.00     0.024 A 
HETATM   13  C   UNL     1      -0.594   7.871 -29.284  1.00  0.00     0.034 A 
HETATM   14 CL   UNL     1      -0.422   8.297 -27.626  1.00  0.00    -0.084 Cl
HETATM   15  C   UNL     1      -1.693   8.330 -30.006  1.00  0.00     0.024 A 
HETATM   16  C   UNL     1      -1.832   7.986 -31.354  1.00  0.00     0.009 A 
ENDBRANCH   9  10
ENDBRANCH   6   9
ENDBRANCH   2   5
BRANCH   1  17
HETATM   17  C   UNL     1      -4.928   2.398 -32.355  1.00  0.00     0.158 A 
HETATM   18  C   UNL     1      -5.282   1.085 -32.787  1.00  0.00     0.029 A 
HETATM   19  C   UNL     1      -4.592  -0.052 -33.254  1.00  0.00     0.023 A 
HETATM   20  C   UNL     1      -6.666   1.030 -32.677  1.00  0.00     0.063 A 
HETATM   21  C   UNL     1      -5.316  -1.205 -33.607  1.00  0.00    -0.061 A 
HETATM   22  C   UNL     1      -4.598  -2.433 -34.088  1.00  0.00     0.048 C 
HETATM   23  C   UNL     1      -6.710  -1.221 -33.471  1.00  0.00     0.009 A 
HETATM   24  C   UNL     1      -7.413  -0.104 -33.006  1.00  0.00     0.032 A 
HETATM   25  N   UNL     1      -7.041   2.257 -32.207  1.00  0.00    -0.277 N 
HETATM   26  H   UNL     1      -7.982   2.575 -32.004  1.00  0.00     0.189 HD
HETATM   27  N   UNL     1      -6.022   3.109 -32.003  1.00  0.00    -0.168 NA
ENDBRANCH   1  17
TORSDOF 4
ENDMDL
MODEL 6
REMARK VINA RESULT:      -8.4      1.770      2.508
REMARK  4 active torsions:
REMARK  status: ('A' for Active; 'I' for Inactive)
REMARK    1  A    between atoms: C_9  and  C_10 
REMARK       I    between atoms: C_10  and  N_11 
REMARK    2  A    between atoms: N_11  and  N_12 
REMARK       I    between atoms: N_12  and  C_13 
REMARK    3  A    between atoms: C_13  and  C_14 
REMARK    4  A    between atoms: C_14  and  C_15 
ROOT
HETATM    1  C   UNL     1      -8.322   0.631 -33.124  1.00  0.00     0.291 C 
HETATM    2  N   UNL     1      -8.639   1.299 -31.956  1.00  0.00    -0.262 N 
HETATM    3  O   UNL     1      -9.137   0.462 -34.033  1.00  0.00    -0.264 OA
HETATM    4  H   UNL     1      -7.881   1.561 -31.322  1.00  0.00     0.190 HD
ENDROOT
BRANCH   2   5
HETATM    5  N   UNL     1      -9.844   2.008 -31.876  1.00  0.00    -0.267 N 
HETATM    6  C   UNL     1      -9.847   3.325 -32.290  1.00  0.00     0.240 C 
HETATM    7  O   UNL     1      -8.822   3.940 -32.576  1.00  0.00    -0.272 OA
HETATM    8  H   UNL     1     -10.692   1.452 -31.790  1.00  0.00     0.190 HD
BRANCH   6   9
HETATM    9  C   UNL     1     -11.224   3.957 -32.347  1.00  0.00     0.143 C 
BRANCH   9  10
HETATM   10  C   UNL     1     -12.297   3.048 -32.902  1.00  0.00    -0.049 A 
HETATM   11  C   UNL     1     -13.505   2.847 -32.217  1.00  0.00     0.009 A 
HETATM   12  C   UNL     1     -14.505   2.036 -32.760  1.00  0.00     0.024 A 
HETATM   13  C   UNL     1     -14.311   1.434 -34.000  1.00  0.00     0.034 A 
HETATM   14 CL   UNL     1     -15.544   0.443 -34.674  1.00  0.00    -0.084 Cl
HETATM   15  C   UNL     1     -13.125   1.638 -34.703  1.00  0.00     0.024 A 
HETATM   16  C   UNL     1     -12.124   2.445 -34.157  1.00  0.00     0.009 A 
ENDBRANCH   9  10
ENDBRANCH   6   9
ENDBRANCH   2   5
BRANCH   1  17
HETATM   17  C   UNL     1      -6.929   0.168 -33.169  1.00  0.00     0.158 A 
HETATM   18  C   UNL     1      -6.438  -1.061 -33.702  1.00  0.00     0.029 A 
HETATM   19  C   UNL     1      -6.998  -2.198 -34.320  1.00  0.00     0.023 A 
HETATM   20  C   UNL     1      -5.062  -1.013 -33.511  1.00  0.00     0.063 A 
HETATM   21  C   UNL     1      -6.159  -3.255 -34.715  1.00  0.00    -0.061 A 
HETATM   22  C   UNL     1      -6.734  -4.466 -35.392  1.00  0.00     0.048 C 
HETATM   23  C   UNL     1      -4.776  -3.160 -34.513  1.00  0.00     0.009 A 
HETATM   24  C   UNL     1      -4.200  -2.040 -33.905  1.00  0.00     0.032 A 
HETATM   25  N   UNL     1      -4.823   0.188 -32.903  1.00  0.00    -0.277 N 
HETATM   26  H   UNL     1      -3.926   0.562 -32.615  1.00  0.00     0.189 HD
HETATM   27  N   UNL     1      -5.923   0.926 -32.678  1.00  0.00    -0.168 NA
ENDBRANCH   1  17
TORSDOF 4
ENDMDL
MODEL 7
REMARK VINA RESULT:      -8.3      3.649      8.709
REMARK  4 active torsions:
REMARK  status: ('A' for Active; 'I' for Inactive)
REMARK    1  A    between atoms: C_9  and  C_10 
REMARK       I    between atoms: C_10  and  N_11 
REMARK    2  A    between atoms: N_11  and  N_12 
REMARK       I    between atoms: N_12  and  C_13 
REMARK    3  A    between atoms: C_13  and  C_14 
REMARK    4  A    between atoms: C_14  and  C_15 
ROOT
HETATM    1  C   UNL     1     -10.007   3.385 -33.513  1.00  0.00     0.291 C 
HETATM    2  N   UNL     1      -9.490   2.121 -33.293  1.00  0.00    -0.262 N 
HETATM    3  O   UNL     1      -9.499   4.179 -34.306  1.00  0.00    -0.264 OA
HETATM    4  H   UNL     1     -10.050   1.450 -32.763  1.00  0.00     0.190 HD
ENDROOT
BRANCH   2   5
HETATM    5  N   UNL     1      -8.498   1.628 -34.148  1.00  0.00    -0.267 N 
HETATM    6  C   UNL     1      -8.197   0.282 -34.079  1.00  0.00     0.240 C 
HETATM    7  O   UNL     1      -8.646  -0.462 -33.208  1.00  0.00    -0.272 OA
HETATM    8  H   UNL     1      -8.258   2.209 -34.948  1.00  0.00     0.190 HD
BRANCH   6   9
HETATM    9  C   UNL     1      -7.252  -0.202 -35.162  1.00  0.00     0.143 C 
BRANCH   9  10
HETATM   10  C   UNL     1      -6.320  -1.306 -34.717  1.00  0.00    -0.049 A 
HETATM   11  C   UNL     1      -6.535  -2.638 -35.103  1.00  0.00     0.009 A 
HETATM   12  C   UNL     1      -5.643  -3.643 -34.718  1.00  0.00     0.024 A 
HETATM   13  C   UNL     1      -4.521  -3.320 -33.960  1.00  0.00     0.034 A 
HETATM   14 CL   UNL     1      -3.418  -4.555 -33.495  1.00  0.00    -0.084 Cl
HETATM   15  C   UNL     1      -4.282  -2.000 -33.586  1.00  0.00     0.024 A 
HETATM   16  C   UNL     1      -5.176  -0.996 -33.966  1.00  0.00     0.009 A 
ENDBRANCH   9  10
ENDBRANCH   6   9
ENDBRANCH   2   5
BRANCH   1  17
HETATM   17  C   UNL     1     -11.214   3.664 -32.725  1.00  0.00     0.158 A 
HETATM   18  C   UNL     1     -12.493   3.042 -32.842  1.00  0.00     0.029 A 
HETATM   19  C   UNL     1     -13.066   2.040 -33.652  1.00  0.00     0.023 A 
HETATM   20  C   UNL     1     -13.281   3.650 -31.872  1.00  0.00     0.063 A 
HETATM   21  C   UNL     1     -14.415   1.690 -33.470  1.00  0.00    -0.061 A 
HETATM   22  C   UNL     1     -15.038   0.612 -34.310  1.00  0.00     0.048 C 
HETATM   23  C   UNL     1     -15.170   2.322 -32.473  1.00  0.00     0.009 A 
HETATM   24  C   UNL     1     -14.620   3.316 -31.657  1.00  0.00     0.032 A 
HETATM   25  N   UNL     1     -12.464   4.559 -31.260  1.00  0.00    -0.277 N 
HETATM   26  H   UNL     1     -12.704   5.185 -30.500  1.00  0.00     0.189 HD
HETATM   27  N   UNL     1     -11.213   4.599 -31.748  1.00  0.00    -0.168 NA
ENDBRANCH   1  17
TORSDOF 4
ENDMDL
MODEL 8
REMARK VINA RESULT:      -8.2      2.835      7.857
REMARK  4 active torsions:
REMARK  status: ('A' for Active; 'I' for Inactive)
REMARK    1  A    between atoms: C_9  and  C_10 
REMARK       I    between atoms: C_10  and  N_11 
REMARK    2  A    between atoms: N_11  and  N_12 
REMARK       I    between atoms: N_12  and  C_13 
REMARK    3  A    between atoms: C_13  and  C_14 
REMARK    4  A    between atoms: C_14  and  C_15 
ROOT
HETATM    1  C   UNL     1      -8.625   2.245 -33.830  1.00  0.00     0.291 C 
HETATM    2  N   UNL     1      -7.538   2.627 -33.065  1.00  0.00    -0.262 N 
HETATM    3  O   UNL     1      -8.539   1.410 -34.731  1.00  0.00    -0.264 OA
HETATM    4  H   UNL     1      -7.705   3.186 -32.224  1.00  0.00     0.190 HD
ENDROOT
BRANCH   2   5
HETATM    5  N   UNL     1      -6.349   1.894 -33.148  1.00  0.00    -0.267 N 
HETATM    6  C   UNL     1      -6.119   0.925 -32.191  1.00  0.00     0.240 C 
HETATM    7  O   UNL     1      -6.828   0.785 -31.196  1.00  0.00    -0.272 OA
HETATM    8  H   UNL     1      -5.865   1.915 -34.043  1.00  0.00     0.190 HD
BRANCH   6   9
HETATM    9  C   UNL     1      -4.906   0.056 -32.462  1.00  0.00     0.143 C 
BRANCH   9  10
HETATM   10  C   UNL     1      -5.201  -1.168 -33.299  1.00  0.00    -0.049 A 
HETATM   11  C   UNL     1      -4.227  -2.157 -33.506  1.00  0.00     0.009 A 
HETATM   12  C   UNL     1      -4.525  -3.303 -34.248  1.00  0.00     0.024 A 
HETATM   13  C   UNL     1      -5.802  -3.476 -34.774  1.00  0.00     0.034 A 
HETATM   14 CL   UNL     1      -6.172  -4.891 -35.680  1.00  0.00    -0.084 Cl
HETATM   15  C   UNL     1      -6.785  -2.513 -34.562  1.00  0.00     0.024 A 
HETATM   16  C   UNL     1      -6.487  -1.364 -33.824  1.00  0.00     0.009 A 
ENDBRANCH   9  10
ENDBRANCH   6   9
ENDBRANCH   2   5
BRANCH   1  17
HETATM   17  C   UNL     1      -9.872   2.920 -33.447  1.00  0.00     0.158 A 
HETATM   18  C   UNL     1     -11.184   2.362 -33.398  1.00  0.00     0.029 A 
HETATM   19  C   UNL     1     -11.765   1.106 -33.666  1.00  0.00     0.023 A 
HETATM   20  C   UNL     1     -12.003   3.400 -32.970  1.00  0.00     0.063 A 
HETATM   21  C   UNL     1     -13.151   0.936 -33.506  1.00  0.00    -0.061 A 
HETATM   22  C   UNL     1     -13.786  -0.400 -33.767  1.00  0.00     0.048 C 
HETATM   23  C   UNL     1     -13.938   2.007 -33.062  1.00  0.00     0.009 A 
HETATM   24  C   UNL     1     -13.381   3.260 -32.788  1.00  0.00     0.032 A 
HETATM   25  N   UNL     1     -11.169   4.470 -32.795  1.00  0.00    -0.277 N 
HETATM   26  H   UNL     1     -11.423   5.401 -32.486  1.00  0.00     0.189 HD
HETATM   27  N   UNL     1      -9.879   4.220 -33.074  1.00  0.00    -0.168 NA
ENDBRANCH   1  17
TORSDOF 4
ENDMDL
MODEL 9
REMARK VINA RESULT:      -8.2      6.621      9.548
REMARK  4 active torsions:
REMARK  status: ('A' for Active; 'I' for Inactive)
REMARK    1  A    between atoms: C_9  and  C_10 
REMARK       I    between atoms: C_10  and  N_11 
REMARK    2  A    between atoms: N_11  and  N_12 
REMARK       I    between atoms: N_12  and  C_13 
REMARK    3  A    between atoms: C_13  and  C_14 
REMARK    4  A    between atoms: C_14  and  C_15 
ROOT
HETATM    1  C   UNL     1      -5.722   4.335 -31.428  1.00  0.00     0.291 C 
HETATM    2  N   UNL     1      -4.636   4.157 -30.591  1.00  0.00    -0.262 N 
HETATM    3  O   UNL     1      -5.771   5.234 -32.269  1.00  0.00    -0.264 OA
HETATM    4  H   UNL     1      -4.577   3.296 -30.043  1.00  0.00     0.190 HD
ENDROOT
BRANCH   2   5
HETATM    5  N   UNL     1      -3.455   4.864 -30.841  1.00  0.00    -0.267 N 
HETATM    6  C   UNL     1      -2.465   4.235 -31.570  1.00  0.00     0.240 C 
HETATM    7  O   UNL     1      -2.512   3.044 -31.873  1.00  0.00    -0.272 OA
HETATM    8  H   UNL     1      -3.497   5.874 -30.722  1.00  0.00     0.190 HD
BRANCH   6   9
HETATM    9  C   UNL     1      -1.305   5.132 -31.953  1.00  0.00     0.143 C 
BRANCH   9  10
HETATM   10  C   UNL     1      -0.599   5.763 -30.774  1.00  0.00    -0.049 A 
HETATM   11  C   UNL     1      -0.758   7.126 -30.478  1.00  0.00     0.009 A 
HETATM   12  C   UNL     1      -0.132   7.688 -29.362  1.00  0.00     0.024 A 
HETATM   13  C   UNL     1       0.642   6.889 -28.525  1.00  0.00     0.034 A 
HETATM   14 CL   UNL     1       1.405   7.579 -27.147  1.00  0.00    -0.084 Cl
HETATM   15  C   UNL     1       0.794   5.531 -28.794  1.00  0.00     0.024 A 
HETATM   16  C   UNL     1       0.172   4.970 -29.913  1.00  0.00     0.009 A 
ENDBRANCH   9  10
ENDBRANCH   6   9
ENDBRANCH   2   5
BRANCH   1  17
HETATM   17  C   UNL     1      -6.785   3.342 -31.220  1.00  0.00     0.158 A 
HETATM   18  C   UNL     1      -7.208   2.319 -32.120  1.00  0.00     0.029 A 
HETATM   19  C   UNL     1      -6.845   1.888 -33.412  1.00  0.00     0.023 A 
HETATM   20  C   UNL     1      -8.228   1.650 -31.453  1.00  0.00     0.063 A 
HETATM   21  C   UNL     1      -7.527   0.806 -33.998  1.00  0.00    -0.061 A 
HETATM   22  C   UNL     1      -7.142   0.319 -35.365  1.00  0.00     0.048 C 
HETATM   23  C   UNL     1      -8.541   0.154 -33.285  1.00  0.00     0.009 A 
HETATM   24  C   UNL     1      -8.914   0.564 -32.001  1.00  0.00     0.032 A 
HETATM   25  N   UNL     1      -8.348   2.284 -30.248  1.00  0.00    -0.277 N 
HETATM   26  H   UNL     1      -8.995   2.062 -29.500  1.00  0.00     0.189 HD
HETATM   27  N   UNL     1      -7.498   3.309 -30.072  1.00  0.00    -0.168 NA
ENDBRANCH   1  17
TORSDOF 4
ENDMDL
MODEL 10
REMARK VINA RESULT:      -8.1      2.542      3.246
REMARK  4 active torsions:
REMARK  status: ('A' for Active; 'I' for Inactive)
REMARK    1  A    between atoms: C_9  and  C_10 
REMARK       I    between atoms: C_10  and  N_11 
REMARK    2  A    between atoms: N_11  and  N_12 
REMARK       I    between atoms: N_12  and  C_13 
REMARK    3  A    between atoms: C_13  and  C_14 
REMARK    4  A    between atoms: C_14  and  C_15 
ROOT
HETATM    1  C   UNL     1      -8.078   0.547 -32.583  1.00  0.00     0.291 C 
HETATM    2  N   UNL     1      -8.327   0.973 -31.292  1.00  0.00    -0.262 N 
HETATM    3  O   UNL     1      -8.930   0.589 -33.472  1.00  0.00    -0.264 OA
HETATM    4  H   UNL     1      -7.538   1.079 -30.651  1.00  0.00     0.190 HD
ENDROOT
BRANCH   2   5
HETATM    5  N   UNL     1      -9.501   1.685 -31.020  1.00  0.00    -0.267 N 
HETATM    6  C   UNL     1      -9.378   2.965 -30.517  1.00  0.00     0.240 C 
HETATM    7  O   UNL     1      -8.304   3.444 -30.158  1.00  0.00    -0.272 OA
HETATM    8  H   UNL     1     -10.352   1.343 -31.460  1.00  0.00     0.190 HD
BRANCH   6   9
HETATM    9  C   UNL     1     -10.685   3.729 -30.429  1.00  0.00     0.143 C 
BRANCH   9  10
HETATM   10  C   UNL     1     -11.255   4.130 -31.770  1.00  0.00    -0.049 A 
HETATM   11  C   UNL     1     -10.471   4.798 -32.723  1.00  0.00     0.009 A 
HETATM   12  C   UNL     1     -10.998   5.127 -33.974  1.00  0.00     0.024 A 
HETATM   13  C   UNL     1     -12.309   4.776 -34.288  1.00  0.00     0.034 A 
HETATM   14 CL   UNL     1     -12.956   5.173 -35.832  1.00  0.00    -0.084 Cl
HETATM   15  C   UNL     1     -13.095   4.096 -33.361  1.00  0.00     0.024 A 
HETATM   16  C   UNL     1     -12.569   3.771 -32.108  1.00  0.00     0.009 A 
ENDBRANCH   9  10
ENDBRANCH   6   9
ENDBRANCH   2   5
BRANCH   1  17
HETATM   17  C   UNL     1      -6.705   0.062 -32.780  1.00  0.00     0.158 A 
HETATM   18  C   UNL     1      -6.290  -1.123 -33.457  1.00  0.00     0.029 A 
HETATM   19  C   UNL     1      -6.926  -2.188 -34.126  1.00  0.00     0.023 A 
HETATM   20  C   UNL     1      -4.902  -1.120 -33.373  1.00  0.00     0.063 A 
HETATM   21  C   UNL     1      -6.150  -3.222 -34.679  1.00  0.00    -0.061 A 
HETATM   22  C   UNL     1      -6.808  -4.355 -35.412  1.00  0.00     0.048 C 
HETATM   23  C   UNL     1      -4.753  -3.173 -34.580  1.00  0.00     0.009 A 
HETATM   24  C   UNL     1      -4.102  -2.124 -33.924  1.00  0.00     0.032 A 
HETATM   25  N   UNL     1      -4.584   0.016 -32.683  1.00  0.00    -0.277 N 
HETATM   26  H   UNL     1      -3.658   0.345 -32.436  1.00  0.00     0.189 HD
HETATM   27  N   UNL     1      -5.643   0.753 -32.307  1.00  0.00    -0.168 NA
ENDBRANCH   1  17
TORSDOF 4
ENDMDL
