MODEL 1
REMARK VINA RESULT:      -8.5      0.000      0.000
REMARK  6 active torsions:
REMARK  status: ('A' for Active; 'I' for Inactive)
REMARK    1  A    between atoms: C_2  and  O_3 
REMARK    2  A    between atoms: C_2  and  C_4 
REMARK    3  A    between atoms: C_2  and  C_11 
REMARK    4  A    between atoms: C_11  and  N_12 
REMARK       I    between atoms: N_12  and  C_13 
REMARK    5  A    between atoms: C_13  and  C_14 
REMARK    6  A    between atoms: C_15  and  C_16 
ROOT
HETATM    1  N   UNL     1      -5.825   1.548 -32.255  1.00  0.00    -0.354 N 
HETATM    2  C   UNL     1      -5.706   0.400 -31.499  1.00  0.00     0.255 C 
HETATM    3  O   UNL     1      -6.620  -0.022 -30.799  1.00  0.00    -0.268 OA
HETATM    4  H   UNL     1      -5.016   1.902 -32.742  1.00  0.00     0.162 HD
ENDROOT
BRANCH   2   5
HETATM    5  C   UNL     1      -4.404  -0.251 -31.581  1.00  0.00     0.080 A 
HETATM    6  C   UNL     1      -3.997  -1.363 -32.394  1.00  0.00     0.104 A 
HETATM    7  N   UNL     1      -2.690  -1.632 -32.217  1.00  0.00    -0.174 NA
HETATM    8  N   UNL     1      -2.275  -0.738 -31.318  1.00  0.00    -0.288 N 
HETATM    9  H   UNL     1      -1.299  -0.762 -31.038  1.00  0.00     0.188 HD
HETATM   10  C   UNL     1      -3.252   0.109 -30.900  1.00  0.00     0.128 A 
BRANCH   6  11
HETATM   11  C   UNL     1      -4.779  -2.190 -33.320  1.00  0.00    -0.004 A 
HETATM   12  C   UNL     1      -4.296  -3.455 -33.702  1.00  0.00     0.017 A 
HETATM   13  C   UNL     1      -5.032  -4.268 -34.565  1.00  0.00     0.043 A 
HETATM   14  C   UNL     1      -6.256  -3.822 -35.047  1.00  0.00     0.116 A 
HETATM   15  F   UNL     1      -6.963  -4.601 -35.876  1.00  0.00    -0.206 F 
HETATM   16  C   UNL     1      -6.759  -2.582 -34.675  1.00  0.00     0.043 A 
HETATM   17  C   UNL     1      -6.026  -1.769 -33.806  1.00  0.00     0.017 A 
ENDBRANCH   6  11
ENDBRANCH   2   5
BRANCH   1  18
HETATM   18  C   UNL     1      -7.047   2.335 -32.286  1.00  0.00     0.165 C 
BRANCH  18  19
HETATM   19  C   UNL     1      -7.786   2.341 -33.658  1.00  0.00     0.097 C 
HETATM   20  C   UNL     1      -6.833   1.816 -34.747  1.00  0.00     0.053 C 
BRANCH  19  21
HETATM   21  O   UNL     1      -8.020   3.719 -34.007  1.00  0.00    -0.384 OA
HETATM   22  H   UNL     1      -7.231   4.039 -34.480  1.00  0.00     0.211 HD
ENDBRANCH  19  21
BRANCH  19  23
HETATM   23  C   UNL     1      -9.144   1.635 -33.607  1.00  0.00    -0.023 A 
HETATM   24  C   UNL     1     -10.307   2.167 -34.192  1.00  0.00     0.013 A 
HETATM   25  C   UNL     1     -11.528   1.491 -34.106  1.00  0.00     0.043 A 
HETATM   26  C   UNL     1     -11.600   0.277 -33.438  1.00  0.00     0.116 A 
HETATM   27  F   UNL     1     -12.773  -0.364 -33.356  1.00  0.00    -0.206 F 
HETATM   28  C   UNL     1     -10.472  -0.276 -32.851  1.00  0.00     0.043 A 
HETATM   29  C   UNL     1      -9.254   0.400 -32.932  1.00  0.00     0.013 A 
ENDBRANCH  19  23
ENDBRANCH  18  19
ENDBRANCH   1  18
TORSDOF 6
ENDMDL
MODEL 2
REMARK VINA RESULT:      -8.5      3.321      4.942
REMARK  6 active torsions:
REMARK  status: ('A' for Active; 'I' for Inactive)
REMARK    1  A    between atoms: C_2  and  O_3 
REMARK    2  A    between atoms: C_2  and  C_4 
REMARK    3  A    between atoms: C_2  and  C_11 
REMARK    4  A    between atoms: C_11  and  N_12 
REMARK       I    between atoms: N_12  and  C_13 
REMARK    5  A    between atoms: C_13  and  C_14 
REMARK    6  A    between atoms: C_15  and  C_16 
ROOT
HETATM    1  N   UNL     1      -5.392   1.629 -33.161  1.00  0.00    -0.354 N 
HETATM    2  C   UNL     1      -5.501   0.719 -32.130  1.00  0.00     0.255 C 
HETATM    3  O   UNL     1      -6.509   0.629 -31.438  1.00  0.00    -0.268 OA
HETATM    4  H   UNL     1      -4.510   1.726 -33.640  1.00  0.00     0.162 HD
ENDROOT
BRANCH   2   5
HETATM    5  C   UNL     1      -4.317  -0.103 -31.916  1.00  0.00     0.080 A 
HETATM    6  C   UNL     1      -3.986  -1.381 -32.484  1.00  0.00     0.104 A 
HETATM    7  N   UNL     1      -2.771  -1.787 -32.072  1.00  0.00    -0.174 NA
HETATM    8  N   UNL     1      -2.340  -0.818 -31.264  1.00  0.00    -0.288 N 
HETATM    9  H   UNL     1      -1.424  -0.923 -30.839  1.00  0.00     0.188 HD
HETATM   10  C   UNL     1      -3.219   0.210 -31.130  1.00  0.00     0.128 A 
BRANCH   6  11
HETATM   11  C   UNL     1      -4.761  -2.242 -33.384  1.00  0.00    -0.004 A 
HETATM   12  C   UNL     1      -4.266  -3.512 -33.731  1.00  0.00     0.017 A 
HETATM   13  C   UNL     1      -4.996  -4.357 -34.570  1.00  0.00     0.043 A 
HETATM   14  C   UNL     1      -6.226  -3.936 -35.061  1.00  0.00     0.116 A 
HETATM   15  F   UNL     1      -6.927  -4.745 -35.866  1.00  0.00    -0.206 F 
HETATM   16  C   UNL     1      -6.741  -2.692 -34.722  1.00  0.00     0.043 A 
HETATM   17  C   UNL     1      -6.014  -1.847 -33.878  1.00  0.00     0.017 A 
ENDBRANCH   6  11
ENDBRANCH   2   5
BRANCH   1  18
HETATM   18  C   UNL     1      -6.470   2.541 -33.510  1.00  0.00     0.165 C 
BRANCH  18  19
HETATM   19  C   UNL     1      -6.161   4.046 -33.256  1.00  0.00     0.097 C 
HETATM   20  C   UNL     1      -6.632   4.427 -31.841  1.00  0.00     0.053 C 
BRANCH  19  21
HETATM   21  O   UNL     1      -7.005   4.808 -34.142  1.00  0.00    -0.384 OA
HETATM   22  H   UNL     1      -6.496   5.584 -34.435  1.00  0.00     0.211 HD
ENDBRANCH  19  21
BRANCH  19  23
HETATM   23  C   UNL     1      -4.707   4.417 -33.565  1.00  0.00    -0.023 A 
HETATM   24  C   UNL     1      -3.656   4.225 -32.651  1.00  0.00     0.013 A 
HETATM   25  C   UNL     1      -2.346   4.592 -32.974  1.00  0.00     0.043 A 
HETATM   26  C   UNL     1      -2.073   5.154 -34.214  1.00  0.00     0.116 A 
HETATM   27  F   UNL     1      -0.817   5.507 -34.516  1.00  0.00    -0.206 F 
HETATM   28  C   UNL     1      -3.085   5.355 -35.138  1.00  0.00     0.043 A 
HETATM   29  C   UNL     1      -4.394   4.993 -34.814  1.00  0.00     0.013 A 
ENDBRANCH  19  23
ENDBRANCH  18  19
ENDBRANCH   1  18
TORSDOF 6
ENDMDL
MODEL 3
REMARK VINA RESULT:      -8.5      4.958      6.770
REMARK  6 active torsions:
REMARK  status: ('A' for Active; 'I' for Inactive)
REMARK    1  A    between atoms: C_2  and  O_3 
REMARK    2  A    between atoms: C_2  and  C_4 
REMARK    3  A    between atoms: C_2  and  C_11 
REMARK    4  A    between atoms: C_11  and  N_12 
REMARK       I    between atoms: N_12  and  C_13 
REMARK    5  A    between atoms: C_13  and  C_14 
REMARK    6  A    between atoms: C_15  and  C_16 
ROOT
HETATM    1  N   UNL     1      -4.547   3.219 -32.898  1.00  0.00    -0.354 N 
HETATM    2  C   UNL     1      -4.086   2.207 -32.083  1.00  0.00     0.255 C 
HETATM    3  O   UNL     1      -2.918   1.833 -32.098  1.00  0.00    -0.268 OA
HETATM    4  H   UNL     1      -5.534   3.427 -32.913  1.00  0.00     0.162 HD
ENDROOT
BRANCH   2   5
HETATM    5  C   UNL     1      -5.100   1.604 -31.227  1.00  0.00     0.080 A 
HETATM    6  C   UNL     1      -5.795   0.356 -31.385  1.00  0.00     0.104 A 
HETATM    7  N   UNL     1      -6.621   0.133 -30.346  1.00  0.00    -0.174 NA
HETATM    8  N   UNL     1      -6.475   1.198 -29.557  1.00  0.00    -0.288 N 
HETATM    9  H   UNL     1      -7.015   1.232 -28.698  1.00  0.00     0.188 HD
HETATM   10  C   UNL     1      -5.584   2.109 -30.030  1.00  0.00     0.128 A 
BRANCH   6  11
HETATM   11  C   UNL     1      -5.727  -0.629 -32.470  1.00  0.00    -0.004 A 
HETATM   12  C   UNL     1      -6.843  -0.826 -33.303  1.00  0.00     0.017 A 
HETATM   13  C   UNL     1      -6.795  -1.744 -34.354  1.00  0.00     0.043 A 
HETATM   14  C   UNL     1      -5.629  -2.465 -34.579  1.00  0.00     0.116 A 
HETATM   15  F   UNL     1      -5.582  -3.346 -35.587  1.00  0.00    -0.206 F 
HETATM   16  C   UNL     1      -4.511  -2.279 -33.778  1.00  0.00     0.043 A 
HETATM   17  C   UNL     1      -4.556  -1.356 -32.728  1.00  0.00     0.017 A 
ENDBRANCH   6  11
ENDBRANCH   2   5
BRANCH   1  18
HETATM   18  C   UNL     1      -3.680   3.926 -33.826  1.00  0.00     0.165 C 
BRANCH  18  19
HETATM   19  C   UNL     1      -3.661   5.474 -33.652  1.00  0.00     0.097 C 
HETATM   20  C   UNL     1      -5.017   5.936 -33.089  1.00  0.00     0.053 C 
BRANCH  19  21
HETATM   21  O   UNL     1      -3.598   6.048 -34.973  1.00  0.00    -0.384 OA
HETATM   22  H   UNL     1      -3.101   5.429 -35.537  1.00  0.00     0.211 HD
ENDBRANCH  19  21
BRANCH  19  23
HETATM   23  C   UNL     1      -2.443   5.972 -32.869  1.00  0.00    -0.023 A 
HETATM   24  C   UNL     1      -2.211   7.331 -32.595  1.00  0.00     0.013 A 
HETATM   25  C   UNL     1      -1.075   7.738 -31.887  1.00  0.00     0.043 A 
HETATM   26  C   UNL     1      -0.162   6.792 -31.444  1.00  0.00     0.116 A 
HETATM   27  F   UNL     1       0.925   7.187 -30.769  1.00  0.00    -0.206 F 
HETATM   28  C   UNL     1      -0.362   5.443 -31.696  1.00  0.00     0.043 A 
HETATM   29  C   UNL     1      -1.493   5.037 -32.406  1.00  0.00     0.013 A 
ENDBRANCH  19  23
ENDBRANCH  18  19
ENDBRANCH   1  18
TORSDOF 6
ENDMDL
MODEL 4
REMARK VINA RESULT:      -8.4      1.718      2.421
REMARK  6 active torsions:
REMARK  status: ('A' for Active; 'I' for Inactive)
REMARK    1  A    between atoms: C_2  and  O_3 
REMARK    2  A    between atoms: C_2  and  C_4 
REMARK    3  A    between atoms: C_2  and  C_11 
REMARK    4  A    between atoms: C_11  and  N_12 
REMARK       I    between atoms: N_12  and  C_13 
REMARK    5  A    between atoms: C_13  and  C_14 
REMARK    6  A    between atoms: C_15  and  C_16 
ROOT
HETATM    1  N   UNL     1      -7.655   0.273 -33.308  1.00  0.00    -0.354 N 
HETATM    2  C   UNL     1      -6.921   0.229 -32.141  1.00  0.00     0.255 C 
HETATM    3  O   UNL     1      -7.434   0.001 -31.051  1.00  0.00    -0.268 OA
HETATM    4  H   UNL     1      -7.202   0.554 -34.164  1.00  0.00     0.162 HD
ENDROOT
BRANCH   2   5
HETATM    5  C   UNL     1      -5.498   0.499 -32.307  1.00  0.00     0.080 A 
HETATM    6  C   UNL     1      -4.479  -0.332 -32.886  1.00  0.00     0.104 A 
HETATM    7  N   UNL     1      -3.293   0.305 -32.899  1.00  0.00    -0.174 NA
HETATM    8  N   UNL     1      -3.534   1.492 -32.341  1.00  0.00    -0.288 N 
HETATM    9  H   UNL     1      -2.761   2.143 -32.254  1.00  0.00     0.188 HD
HETATM   10  C   UNL     1      -4.829   1.664 -31.966  1.00  0.00     0.128 A 
BRANCH   6  11
HETATM   11  C   UNL     1      -4.564  -1.697 -33.417  1.00  0.00    -0.004 A 
HETATM   12  C   UNL     1      -3.722  -2.698 -32.902  1.00  0.00     0.017 A 
HETATM   13  C   UNL     1      -3.800  -4.009 -33.377  1.00  0.00     0.043 A 
HETATM   14  C   UNL     1      -4.723  -4.324 -34.366  1.00  0.00     0.116 A 
HETATM   15  F   UNL     1      -4.798  -5.580 -34.823  1.00  0.00    -0.206 F 
HETATM   16  C   UNL     1      -5.574  -3.355 -34.881  1.00  0.00     0.043 A 
HETATM   17  C   UNL     1      -5.501  -2.043 -34.402  1.00  0.00     0.017 A 
ENDBRANCH   6  11
ENDBRANCH   2   5
BRANCH   1  18
HETATM   18  C   UNL     1      -9.090   0.040 -33.332  1.00  0.00     0.165 C 
BRANCH  18  19
HETATM   19  C   UNL     1      -9.962   1.328 -33.242  1.00  0.00     0.097 C 
HETATM   20  C   UNL     1      -9.279   2.458 -34.033  1.00  0.00     0.053 C 
BRANCH  19  21
HETATM   21  O   UNL     1      -9.928   1.768 -31.869  1.00  0.00    -0.384 OA
HETATM   22  H   UNL     1     -10.840   1.738 -31.531  1.00  0.00     0.211 HD
ENDBRANCH  19  21
BRANCH  19  23
HETATM   23  C   UNL     1     -11.427   1.084 -33.616  1.00  0.00    -0.023 A 
HETATM   24  C   UNL     1     -12.103  -0.115 -33.330  1.00  0.00     0.013 A 
HETATM   25  C   UNL     1     -13.438  -0.295 -33.704  1.00  0.00     0.043 A 
HETATM   26  C   UNL     1     -14.112   0.721 -34.367  1.00  0.00     0.116 A 
HETATM   27  F   UNL     1     -15.390   0.541 -34.727  1.00  0.00    -0.206 F 
HETATM   28  C   UNL     1     -13.476   1.916 -34.664  1.00  0.00     0.043 A 
HETATM   29  C   UNL     1     -12.142   2.095 -34.294  1.00  0.00     0.013 A 
ENDBRANCH  19  23
ENDBRANCH  18  19
ENDBRANCH   1  18
TORSDOF 6
ENDMDL
MODEL 5
REMARK VINA RESULT:      -8.4      3.808      6.775
REMARK  6 active torsions:
REMARK  status: ('A' for Active; 'I' for Inactive)
REMARK    1  A    between atoms: C_2  and  O_3 
REMARK    2  A    between atoms: C_2  and  C_4 
REMARK    3  A    between atoms: C_2  and  C_11 
REMARK    4  A    between atoms: C_11  and  N_12 
REMARK       I    between atoms: N_12  and  C_13 
REMARK    5  A    between atoms: C_13  and  C_14 
REMARK    6  A    between atoms: C_15  and  C_16 
ROOT
HETATM    1  N   UNL     1      -5.468   1.845 -32.775  1.00  0.00    -0.354 N 
HETATM    2  C   UNL     1      -5.373   2.283 -31.470  1.00  0.00     0.255 C 
HETATM    3  O   UNL     1      -5.041   1.541 -30.552  1.00  0.00    -0.268 OA
HETATM    4  H   UNL     1      -5.833   2.470 -33.478  1.00  0.00     0.162 HD
ENDROOT
BRANCH   2   5
HETATM    5  C   UNL     1      -5.726   3.683 -31.271  1.00  0.00     0.080 A 
HETATM    6  C   UNL     1      -5.155   4.856 -31.874  1.00  0.00     0.104 A 
HETATM    7  N   UNL     1      -5.797   5.965 -31.464  1.00  0.00    -0.174 NA
HETATM    8  N   UNL     1      -6.735   5.528 -30.623  1.00  0.00    -0.288 N 
HETATM    9  H   UNL     1      -7.348   6.214 -30.194  1.00  0.00     0.188 HD
HETATM   10  C   UNL     1      -6.740   4.178 -30.466  1.00  0.00     0.128 A 
BRANCH   6  11
HETATM   11  C   UNL     1      -4.030   4.984 -32.807  1.00  0.00    -0.004 A 
HETATM   12  C   UNL     1      -2.716   4.789 -32.344  1.00  0.00     0.017 A 
HETATM   13  C   UNL     1      -1.631   4.886 -33.218  1.00  0.00     0.043 A 
HETATM   14  C   UNL     1      -1.856   5.173 -34.558  1.00  0.00     0.116 A 
HETATM   15  F   UNL     1      -0.817   5.266 -35.398  1.00  0.00    -0.206 F 
HETATM   16  C   UNL     1      -3.145   5.357 -35.041  1.00  0.00     0.043 A 
HETATM   17  C   UNL     1      -4.233   5.255 -34.168  1.00  0.00     0.017 A 
ENDBRANCH   6  11
ENDBRANCH   2   5
BRANCH   1  18
HETATM   18  C   UNL     1      -5.167   0.475 -33.159  1.00  0.00     0.165 C 
BRANCH  18  19
HETATM   19  C   UNL     1      -6.364  -0.308 -33.775  1.00  0.00     0.097 C 
HETATM   20  C   UNL     1      -6.952   0.502 -34.944  1.00  0.00     0.053 C 
BRANCH  19  21
HETATM   21  O   UNL     1      -7.410  -0.332 -32.782  1.00  0.00    -0.384 OA
HETATM   22  H   UNL     1      -7.501  -1.252 -32.477  1.00  0.00     0.211 HD
ENDBRANCH  19  21
BRANCH  19  23
HETATM   23  C   UNL     1      -6.015  -1.759 -34.118  1.00  0.00    -0.023 A 
HETATM   24  C   UNL     1      -6.970  -2.699 -34.541  1.00  0.00     0.013 A 
HETATM   25  C   UNL     1      -6.603  -4.017 -34.830  1.00  0.00     0.043 A 
HETATM   26  C   UNL     1      -5.278  -4.409 -34.702  1.00  0.00     0.116 A 
HETATM   27  F   UNL     1      -4.933  -5.674 -34.977  1.00  0.00    -0.206 F 
HETATM   28  C   UNL     1      -4.310  -3.507 -34.289  1.00  0.00     0.043 A 
HETATM   29  C   UNL     1      -4.677  -2.192 -33.996  1.00  0.00     0.013 A 
ENDBRANCH  19  23
ENDBRANCH  18  19
ENDBRANCH   1  18
TORSDOF 6
ENDMDL
MODEL 6
REMARK VINA RESULT:      -8.4      2.084      5.832
REMARK  6 active torsions:
REMARK  status: ('A' for Active; 'I' for Inactive)
REMARK    1  A    between atoms: C_2  and  O_3 
REMARK    2  A    between atoms: C_2  and  C_4 
REMARK    3  A    between atoms: C_2  and  C_11 
REMARK    4  A    between atoms: C_11  and  N_12 
REMARK       I    between atoms: N_12  and  C_13 
REMARK    5  A    between atoms: C_13  and  C_14 
REMARK    6  A    between atoms: C_15  and  C_16 
ROOT
HETATM    1  N   UNL     1      -4.598   1.794 -33.024  1.00  0.00    -0.354 N 
HETATM    2  C   UNL     1      -4.768   2.999 -32.374  1.00  0.00     0.255 C 
HETATM    3  O   UNL     1      -4.172   3.276 -31.339  1.00  0.00    -0.268 OA
HETATM    4  H   UNL     1      -5.178   1.579 -33.821  1.00  0.00     0.162 HD
ENDROOT
BRANCH   2   5
HETATM    5  C   UNL     1      -5.727   3.900 -33.002  1.00  0.00     0.080 A 
HETATM    6  C   UNL     1      -7.113   3.677 -33.308  1.00  0.00     0.104 A 
HETATM    7  N   UNL     1      -7.669   4.780 -33.842  1.00  0.00    -0.174 NA
HETATM    8  N   UNL     1      -6.680   5.674 -33.890  1.00  0.00    -0.288 N 
HETATM    9  H   UNL     1      -6.887   6.595 -34.263  1.00  0.00     0.188 HD
HETATM   10  C   UNL     1      -5.499   5.206 -33.406  1.00  0.00     0.128 A 
BRANCH   6  11
HETATM   11  C   UNL     1      -7.936   2.475 -33.132  1.00  0.00    -0.004 A 
HETATM   12  C   UNL     1      -8.270   2.043 -31.836  1.00  0.00     0.017 A 
HETATM   13  C   UNL     1      -9.070   0.913 -31.645  1.00  0.00     0.043 A 
HETATM   14  C   UNL     1      -9.541   0.215 -32.749  1.00  0.00     0.116 A 
HETATM   15  F   UNL     1     -10.307  -0.868 -32.568  1.00  0.00    -0.206 F 
HETATM   16  C   UNL     1      -9.235   0.630 -34.039  1.00  0.00     0.043 A 
HETATM   17  C   UNL     1      -8.439   1.764 -34.231  1.00  0.00     0.017 A 
ENDBRANCH   6  11
ENDBRANCH   2   5
BRANCH   1  18
HETATM   18  C   UNL     1      -3.691   0.768 -32.535  1.00  0.00     0.165 C 
BRANCH  18  19
HETATM   19  C   UNL     1      -4.388  -0.483 -31.923  1.00  0.00     0.097 C 
HETATM   20  C   UNL     1      -5.397  -0.027 -30.853  1.00  0.00     0.053 C 
BRANCH  19  21
HETATM   21  O   UNL     1      -3.383  -1.214 -31.193  1.00  0.00    -0.384 OA
HETATM   22  H   UNL     1      -3.064  -1.928 -31.772  1.00  0.00     0.211 HD
ENDBRANCH  19  21
BRANCH  19  23
HETATM   23  C   UNL     1      -4.968  -1.421 -32.985  1.00  0.00    -0.023 A 
HETATM   24  C   UNL     1      -6.288  -1.322 -33.459  1.00  0.00     0.013 A 
HETATM   25  C   UNL     1      -6.776  -2.213 -34.420  1.00  0.00     0.043 A 
HETATM   26  C   UNL     1      -5.950  -3.210 -34.920  1.00  0.00     0.116 A 
HETATM   27  F   UNL     1      -6.424  -4.062 -35.838  1.00  0.00    -0.206 F 
HETATM   28  C   UNL     1      -4.643  -3.335 -34.476  1.00  0.00     0.043 A 
HETATM   29  C   UNL     1      -4.157  -2.449 -33.513  1.00  0.00     0.013 A 
ENDBRANCH  19  23
ENDBRANCH  18  19
ENDBRANCH   1  18
TORSDOF 6
ENDMDL
MODEL 7
REMARK VINA RESULT:      -8.4      1.744      2.422
REMARK  6 active torsions:
REMARK  status: ('A' for Active; 'I' for Inactive)
REMARK    1  A    between atoms: C_2  and  O_3 
REMARK    2  A    between atoms: C_2  and  C_4 
REMARK    3  A    between atoms: C_2  and  C_11 
REMARK    4  A    between atoms: C_11  and  N_12 
REMARK       I    between atoms: N_12  and  C_13 
REMARK    5  A    between atoms: C_13  and  C_14 
REMARK    6  A    between atoms: C_15  and  C_16 
ROOT
HETATM    1  N   UNL     1      -7.721   1.774 -32.410  1.00  0.00    -0.354 N 
HETATM    2  C   UNL     1      -6.640   1.785 -33.268  1.00  0.00     0.255 C 
HETATM    3  O   UNL     1      -6.734   2.142 -34.437  1.00  0.00    -0.268 OA
HETATM    4  H   UNL     1      -7.611   1.386 -31.486  1.00  0.00     0.162 HD
ENDROOT
BRANCH   2   5
HETATM    5  C   UNL     1      -5.392   1.315 -32.680  1.00  0.00     0.080 A 
HETATM    6  C   UNL     1      -4.744   0.041 -32.828  1.00  0.00     0.104 A 
HETATM    7  N   UNL     1      -3.575   0.018 -32.161  1.00  0.00    -0.174 NA
HETATM    8  N   UNL     1      -3.479   1.223 -31.597  1.00  0.00    -0.288 N 
HETATM    9  H   UNL     1      -2.654   1.423 -31.040  1.00  0.00     0.188 HD
HETATM   10  C   UNL     1      -4.532   2.037 -31.868  1.00  0.00     0.128 A 
BRANCH   6  11
HETATM   11  C   UNL     1      -5.175  -1.157 -33.556  1.00  0.00    -0.004 A 
HETATM   12  C   UNL     1      -4.225  -2.122 -33.936  1.00  0.00     0.017 A 
HETATM   13  C   UNL     1      -4.615  -3.280 -34.612  1.00  0.00     0.043 A 
HETATM   14  C   UNL     1      -5.958  -3.480 -34.906  1.00  0.00     0.116 A 
HETATM   15  F   UNL     1      -6.333  -4.590 -35.554  1.00  0.00    -0.206 F 
HETATM   16  C   UNL     1      -6.916  -2.548 -34.530  1.00  0.00     0.043 A 
HETATM   17  C   UNL     1      -6.528  -1.391 -33.849  1.00  0.00     0.017 A 
ENDBRANCH   6  11
ENDBRANCH   2   5
BRANCH   1  18
HETATM   18  C   UNL     1      -9.048   2.197 -32.827  1.00  0.00     0.165 C 
BRANCH  18  19
HETATM   19  C   UNL     1      -9.925   1.073 -33.454  1.00  0.00     0.097 C 
HETATM   20  C   UNL     1      -9.538  -0.279 -32.828  1.00  0.00     0.053 C 
BRANCH  19  21
HETATM   21  O   UNL     1      -9.543   0.959 -34.839  1.00  0.00    -0.384 OA
HETATM   22  H   UNL     1      -8.737   0.415 -34.876  1.00  0.00     0.211 HD
ENDBRANCH  19  21
BRANCH  19  23
HETATM   23  C   UNL     1     -11.423   1.389 -33.408  1.00  0.00    -0.023 A 
HETATM   24  C   UNL     1     -11.928   2.669 -33.117  1.00  0.00     0.013 A 
HETATM   25  C   UNL     1     -13.306   2.905 -33.074  1.00  0.00     0.043 A 
HETATM   26  C   UNL     1     -14.193   1.867 -33.323  1.00  0.00     0.116 A 
HETATM   27  F   UNL     1     -15.511   2.098 -33.276  1.00  0.00    -0.206 F 
HETATM   28  C   UNL     1     -13.728   0.594 -33.614  1.00  0.00     0.043 A 
HETATM   29  C   UNL     1     -12.353   0.356 -33.653  1.00  0.00     0.013 A 
ENDBRANCH  19  23
ENDBRANCH  18  19
ENDBRANCH   1  18
TORSDOF 6
ENDMDL
MODEL 8
REMARK VINA RESULT:      -8.2      5.374      7.824
REMARK  6 active torsions:
REMARK  status: ('A' for Active; 'I' for Inactive)
REMARK    1  A    between atoms: C_2  and  O_3 
REMARK    2  A    between atoms: C_2  and  C_4 
REMARK    3  A    between atoms: C_2  and  C_11 
REMARK    4  A    between atoms: C_11  and  N_12 
REMARK       I    between atoms: N_12  and  C_13 
REMARK    5  A    between atoms: C_13  and  C_14 
REMARK    6  A    between atoms: C_15  and  C_16 
ROOT
HETATM    1  N   UNL     1      -4.575   3.183 -32.759  1.00  0.00    -0.354 N 
HETATM    2  C   UNL     1      -3.287   3.563 -32.440  1.00  0.00     0.255 C 
HETATM    3  O   UNL     1      -2.601   2.945 -31.634  1.00  0.00    -0.268 OA
HETATM    4  H   UNL     1      -5.128   3.775 -33.358  1.00  0.00     0.162 HD
ENDROOT
BRANCH   2   5
HETATM    5  C   UNL     1      -2.823   4.768 -33.118  1.00  0.00     0.080 A 
HETATM    6  C   UNL     1      -1.858   5.738 -32.680  1.00  0.00     0.104 A 
HETATM    7  N   UNL     1      -1.669   6.681 -33.622  1.00  0.00    -0.174 NA
HETATM    8  N   UNL     1      -2.486   6.340 -34.619  1.00  0.00    -0.288 N 
HETATM    9  H   UNL     1      -2.498   6.927 -35.447  1.00  0.00     0.188 HD
HETATM   10  C   UNL     1      -3.201   5.211 -34.375  1.00  0.00     0.128 A 
BRANCH   6  11
HETATM   11  C   UNL     1      -1.115   5.827 -31.419  1.00  0.00    -0.004 A 
HETATM   12  C   UNL     1       0.101   5.135 -31.276  1.00  0.00     0.017 A 
HETATM   13  C   UNL     1       0.835   5.222 -30.091  1.00  0.00     0.043 A 
HETATM   14  C   UNL     1       0.359   6.004 -29.047  1.00  0.00     0.116 A 
HETATM   15  F   UNL     1       1.062   6.088 -27.910  1.00  0.00    -0.206 F 
HETATM   16  C   UNL     1      -0.833   6.707 -29.170  1.00  0.00     0.043 A 
HETATM   17  C   UNL     1      -1.567   6.625 -30.357  1.00  0.00     0.017 A 
ENDBRANCH   6  11
ENDBRANCH   2   5
BRANCH   1  18
HETATM   18  C   UNL     1      -5.207   2.013 -32.170  1.00  0.00     0.165 C 
BRANCH  18  19
HETATM   19  C   UNL     1      -6.290   1.338 -33.063  1.00  0.00     0.097 C 
HETATM   20  C   UNL     1      -6.701   2.310 -34.183  1.00  0.00     0.053 C 
BRANCH  19  21
HETATM   21  O   UNL     1      -7.474   1.188 -32.255  1.00  0.00    -0.384 OA
HETATM   22  H   UNL     1      -7.271   1.543 -31.371  1.00  0.00     0.211 HD
ENDBRANCH  19  21
BRANCH  19  23
HETATM   23  C   UNL     1      -5.878  -0.055 -33.549  1.00  0.00    -0.023 A 
HETATM   24  C   UNL     1      -6.706  -0.866 -34.346  1.00  0.00     0.013 A 
HETATM   25  C   UNL     1      -6.290  -2.137 -34.753  1.00  0.00     0.043 A 
HETATM   26  C   UNL     1      -5.043  -2.611 -34.372  1.00  0.00     0.116 A 
HETATM   27  F   UNL     1      -4.652  -3.831 -34.762  1.00  0.00    -0.206 F 
HETATM   28  C   UNL     1      -4.202  -1.837 -33.588  1.00  0.00     0.043 A 
HETATM   29  C   UNL     1      -4.618  -0.570 -33.177  1.00  0.00     0.013 A 
ENDBRANCH  19  23
ENDBRANCH  18  19
ENDBRANCH   1  18
TORSDOF 6
ENDMDL
MODEL 9
REMARK VINA RESULT:      -8.1      2.494      3.850
REMARK  6 active torsions:
REMARK  status: ('A' for Active; 'I' for Inactive)
REMARK    1  A    between atoms: C_2  and  O_3 
REMARK    2  A    between atoms: C_2  and  C_4 
REMARK    3  A    between atoms: C_2  and  C_11 
REMARK    4  A    between atoms: C_11  and  N_12 
REMARK       I    between atoms: N_12  and  C_13 
REMARK    5  A    between atoms: C_13  and  C_14 
REMARK    6  A    between atoms: C_15  and  C_16 
ROOT
HETATM    1  N   UNL     1      -9.593   2.436 -32.102  1.00  0.00    -0.354 N 
HETATM    2  C   UNL     1      -8.240   2.618 -32.300  1.00  0.00     0.255 C 
HETATM    3  O   UNL     1      -7.791   3.170 -33.298  1.00  0.00    -0.268 OA
HETATM    4  H   UNL     1      -9.906   1.896 -31.310  1.00  0.00     0.162 HD
ENDROOT
BRANCH   2   5
HETATM    5  C   UNL     1      -7.392   2.078 -31.244  1.00  0.00     0.080 A 
HETATM    6  C   UNL     1      -6.512   0.943 -31.279  1.00  0.00     0.104 A 
HETATM    7  N   UNL     1      -5.863   0.805 -30.108  1.00  0.00    -0.174 NA
HETATM    8  N   UNL     1      -6.314   1.802 -29.346  1.00  0.00    -0.288 N 
HETATM    9  H   UNL     1      -5.944   1.886 -28.404  1.00  0.00     0.188 HD
HETATM   10  C   UNL     1      -7.229   2.592 -29.967  1.00  0.00     0.128 A 
BRANCH   6  11
HETATM   11  C   UNL     1      -6.261  -0.022 -32.355  1.00  0.00    -0.004 A 
HETATM   12  C   UNL     1      -4.943  -0.422 -32.638  1.00  0.00     0.017 A 
HETATM   13  C   UNL     1      -4.681  -1.355 -33.644  1.00  0.00     0.043 A 
HETATM   14  C   UNL     1      -5.737  -1.894 -34.367  1.00  0.00     0.116 A 
HETATM   15  F   UNL     1      -5.488  -2.789 -35.332  1.00  0.00    -0.206 F 
HETATM   16  C   UNL     1      -7.048  -1.524 -34.097  1.00  0.00     0.043 A 
HETATM   17  C   UNL     1      -7.312  -0.594 -33.087  1.00  0.00     0.017 A 
ENDBRANCH   6  11
ENDBRANCH   2   5
BRANCH   1  18
HETATM   18  C   UNL     1     -10.587   2.898 -33.057  1.00  0.00     0.165 C 
BRANCH  18  19
HETATM   19  C   UNL     1     -11.423   1.768 -33.727  1.00  0.00     0.097 C 
HETATM   20  C   UNL     1     -10.770   0.408 -33.425  1.00  0.00     0.053 C 
BRANCH  19  21
HETATM   21  O   UNL     1     -11.290   1.930 -35.154  1.00  0.00    -0.384 OA
HETATM   22  H   UNL     1     -11.776   1.200 -35.577  1.00  0.00     0.211 HD
ENDBRANCH  19  21
BRANCH  19  23
HETATM   23  C   UNL     1     -12.914   1.847 -33.387  1.00  0.00    -0.023 A 
HETATM   24  C   UNL     1     -13.886   1.037 -34.002  1.00  0.00     0.013 A 
HETATM   25  C   UNL     1     -15.238   1.157 -33.667  1.00  0.00     0.043 A 
HETATM   26  C   UNL     1     -15.634   2.084 -32.713  1.00  0.00     0.116 A 
HETATM   27  F   UNL     1     -16.931   2.197 -32.399  1.00  0.00    -0.206 F 
HETATM   28  C   UNL     1     -14.702   2.897 -32.087  1.00  0.00     0.043 A 
HETATM   29  C   UNL     1     -13.352   2.781 -32.424  1.00  0.00     0.013 A 
ENDBRANCH  19  23
ENDBRANCH  18  19
ENDBRANCH   1  18
TORSDOF 6
ENDMDL
MODEL 10
REMARK VINA RESULT:      -8.1      1.779      2.580
REMARK  6 active torsions:
REMARK  status: ('A' for Active; 'I' for Inactive)
REMARK    1  A    between atoms: C_2  and  O_3 
REMARK    2  A    between atoms: C_2  and  C_4 
REMARK    3  A    between atoms: C_2  and  C_11 
REMARK    4  A    between atoms: C_11  and  N_12 
REMARK       I    between atoms: N_12  and  C_13 
REMARK    5  A    between atoms: C_13  and  C_14 
REMARK    6  A    between atoms: C_15  and  C_16 
ROOT
HETATM    1  N   UNL     1      -7.051   1.459 -32.268  1.00  0.00    -0.354 N 
HETATM    2  C   UNL     1      -5.830   1.405 -32.909  1.00  0.00     0.255 C 
HETATM    3  O   UNL     1      -5.622   1.976 -33.974  1.00  0.00    -0.268 OA
HETATM    4  H   UNL     1      -7.198   0.900 -31.443  1.00  0.00     0.162 HD
ENDROOT
BRANCH   2   5
HETATM    5  C   UNL     1      -4.823   0.597 -32.232  1.00  0.00     0.080 A 
HETATM    6  C   UNL     1      -4.486  -0.785 -32.432  1.00  0.00     0.104 A 
HETATM    7  N   UNL     1      -3.458  -1.146 -31.641  1.00  0.00    -0.174 NA
HETATM    8  N   UNL     1      -3.152  -0.046 -30.952  1.00  0.00    -0.288 N 
HETATM    9  H   UNL     1      -2.387  -0.097 -30.287  1.00  0.00     0.188 HD
HETATM   10  C   UNL     1      -3.932   1.024 -31.259  1.00  0.00     0.128 A 
BRANCH   6  11
HETATM   11  C   UNL     1      -5.091  -1.784 -33.320  1.00  0.00    -0.004 A 
HETATM   12  C   UNL     1      -6.450  -1.679 -33.664  1.00  0.00     0.017 A 
HETATM   13  C   UNL     1      -7.042  -2.606 -34.525  1.00  0.00     0.043 A 
HETATM   14  C   UNL     1      -6.275  -3.640 -35.047  1.00  0.00     0.116 A 
HETATM   15  F   UNL     1      -6.841  -4.530 -35.871  1.00  0.00    -0.206 F 
HETATM   16  C   UNL     1      -4.928  -3.757 -34.731  1.00  0.00     0.043 A 
HETATM   17  C   UNL     1      -4.333  -2.826 -33.874  1.00  0.00     0.017 A 
ENDBRANCH   6  11
ENDBRANCH   2   5
BRANCH   1  18
HETATM   18  C   UNL     1      -8.177   2.208 -32.804  1.00  0.00     0.165 C 
BRANCH  18  19
HETATM   19  C   UNL     1      -9.133   1.384 -33.717  1.00  0.00     0.097 C 
HETATM   20  C   UNL     1      -9.604   0.131 -32.956  1.00  0.00     0.053 C 
BRANCH  19  21
HETATM   21  O   UNL     1      -8.342   0.875 -34.809  1.00  0.00    -0.384 OA
HETATM   22  H   UNL     1      -7.954   1.640 -35.270  1.00  0.00     0.211 HD
ENDBRANCH  19  21
BRANCH  19  23
HETATM   23  C   UNL     1     -10.263   2.228 -34.313  1.00  0.00    -0.023 A 
HETATM   24  C   UNL     1     -11.517   1.696 -34.661  1.00  0.00     0.013 A 
HETATM   25  C   UNL     1     -12.513   2.506 -35.215  1.00  0.00     0.043 A 
HETATM   26  C   UNL     1     -12.267   3.856 -35.426  1.00  0.00     0.116 A 
HETATM   27  F   UNL     1     -13.224   4.626 -35.961  1.00  0.00    -0.206 F 
HETATM   28  C   UNL     1     -11.043   4.413 -35.093  1.00  0.00     0.043 A 
HETATM   29  C   UNL     1     -10.047   3.604 -34.543  1.00  0.00     0.013 A 
ENDBRANCH  19  23
ENDBRANCH  18  19
ENDBRANCH   1  18
TORSDOF 6
ENDMDL
