MODEL 1
REMARK VINA RESULT:      -7.8      0.000      0.000
REMARK  9 active torsions:
REMARK  status: ('A' for Active; 'I' for Inactive)
REMARK    1  A    between atoms: C_2  and  C_3 
REMARK    2  A    between atoms: C_7  and  C_8 
REMARK    3  A    between atoms: C_8  and  C_9 
REMARK       I    between atoms: C_9  and  N_10 
REMARK    4  A    between atoms: N_10  and  C_11 
REMARK    5  A    between atoms: C_11  and  C_12 
REMARK    6  A    between atoms: C_12  and  N_13 
REMARK    7  A    between atoms: C_21  and  C_22 
REMARK    8  A    between atoms: C_32  and  C_33 
REMARK    9  A    between atoms: C_33  and  O_34 
ROOT
HETATM    1  C   UNL     1      -4.124   8.944 -28.477  1.00  0.00     0.051 C 
HETATM    2  N   UNL     1      -4.687   7.802 -27.948  1.00  0.00    -0.228 NA
HETATM    3  C   UNL     1      -4.895   6.798 -28.720  1.00  0.00     0.170 C 
HETATM    4  N   UNL     1      -4.407   6.674 -30.186  1.00  0.00    -0.318 N 
HETATM    5  C   UNL     1      -4.746   5.532 -30.693  1.00  0.00     0.011 C 
HETATM    6  C   UNL     1      -3.521   7.783 -30.628  1.00  0.00     0.166 C 
HETATM    7  S   UNL     1      -5.727   5.375 -28.185  1.00  0.00    -0.086 SA
HETATM    8  C   UNL     1      -5.683   4.689 -29.858  1.00  0.00     0.135 C 
HETATM    9  C   UNL     1      -3.673   9.003 -29.750  1.00  0.00     0.069 C 
ENDROOT
BRANCH   5  10
HETATM   10  C   UNL     1      -4.200   5.021 -31.993  1.00  0.00     0.156 C 
BRANCH  10  11
HETATM   11  C   UNL     1      -3.458   3.716 -31.859  1.00  0.00     0.223 C 
HETATM   12  N   UNL     1      -4.149   2.597 -32.263  1.00  0.00    -0.359 N 
HETATM   13  H   UNL     1      -4.956   2.717 -32.869  1.00  0.00     0.162 HD
HETATM   14  O   UNL     1      -2.332   3.676 -31.380  1.00  0.00    -0.273 OA
BRANCH  12  15
HETATM   15  C   UNL     1      -3.493   1.284 -32.313  1.00  0.00     0.150 C 
BRANCH  15  16
HETATM   16  C   UNL     1      -4.391   0.117 -31.852  1.00  0.00     0.254 C 
BRANCH  16  17
HETATM   17  N   UNL     1      -4.934  -0.668 -33.042  1.00  0.00    -0.070 N 
HETATM   18  H   UNL     1      -4.679  -0.110 -33.866  1.00  0.00     0.279 HD
HETATM   19  C   UNL     1      -4.324  -2.042 -33.208  1.00  0.00     0.235 C 
HETATM   20  C   UNL     1      -4.793  -2.633 -34.530  1.00  0.00     0.028 C 
HETATM   21  C   UNL     1      -6.314  -2.702 -34.605  1.00  0.00     0.003 C 
HETATM   22  C   UNL     1      -6.948  -1.345 -34.315  1.00  0.00     0.028 C 
HETATM   23  C   UNL     1      -6.448  -0.750 -33.005  1.00  0.00     0.235 C 
ENDBRANCH  16  17
ENDBRANCH  15  16
ENDBRANCH  12  15
ENDBRANCH  10  11
ENDBRANCH   5  10
BRANCH   6  24
HETATM   24  C   UNL     1      -2.072   7.269 -30.699  1.00  0.00    -0.024 A 
HETATM   25  C   UNL     1      -1.345   7.172 -31.911  1.00  0.00    -0.053 A 
HETATM   26  C   UNL     1      -1.835   7.670 -33.248  1.00  0.00     0.049 C 
HETATM   27  C   UNL     1      -0.032   6.665 -31.882  1.00  0.00     0.008 A 
HETATM   28  C   UNL     1       0.558   6.233 -30.696  1.00  0.00     0.007 A 
HETATM   29  C   UNL     1      -0.140   6.316 -29.497  1.00  0.00    -0.061 A 
HETATM   30  C   UNL     1       0.521   5.919 -28.207  1.00  0.00     0.048 C 
HETATM   31  C   UNL     1      -1.432   6.855 -29.501  1.00  0.00     0.017 A 
ENDBRANCH   6  24
BRANCH   9  32
HETATM   32  C   UNL     1      -3.356  10.273 -30.456  1.00  0.00     0.293 C 
HETATM   33  O   UNL     1      -2.266  10.812 -30.380  1.00  0.00    -0.259 OA
BRANCH  32  34
HETATM   34  O   UNL     1      -4.342  10.588 -31.323  1.00  0.00    -0.323 OA
HETATM   35  C   UNL     1      -5.266  11.578 -30.863  1.00  0.00     0.213 C 
ENDBRANCH  32  34
ENDBRANCH   9  32
BRANCH   1  36
HETATM   36  C   UNL     1      -4.064  10.088 -27.470  1.00  0.00     0.056 C 
HETATM   37  C   UNL     1      -2.701  10.238 -26.800  1.00  0.00     0.011 C 
ENDBRANCH   1  36
TORSDOF 9
ENDMDL
MODEL 2
REMARK VINA RESULT:      -7.6      2.713      4.795
REMARK  9 active torsions:
REMARK  status: ('A' for Active; 'I' for Inactive)
REMARK    1  A    between atoms: C_2  and  C_3 
REMARK    2  A    between atoms: C_7  and  C_8 
REMARK    3  A    between atoms: C_8  and  C_9 
REMARK       I    between atoms: C_9  and  N_10 
REMARK    4  A    between atoms: N_10  and  C_11 
REMARK    5  A    between atoms: C_11  and  C_12 
REMARK    6  A    between atoms: C_12  and  N_13 
REMARK    7  A    between atoms: C_21  and  C_22 
REMARK    8  A    between atoms: C_32  and  C_33 
REMARK    9  A    between atoms: C_33  and  O_34 
ROOT
HETATM    1  C   UNL     1      -1.486   6.564 -30.898  1.00  0.00     0.051 C 
HETATM    2  N   UNL     1      -2.014   6.623 -29.625  1.00  0.00    -0.228 NA
HETATM    3  C   UNL     1      -3.287   6.709 -29.486  1.00  0.00     0.170 C 
HETATM    4  N   UNL     1      -4.328   6.576 -30.627  1.00  0.00    -0.318 N 
HETATM    5  C   UNL     1      -5.534   6.679 -30.168  1.00  0.00     0.011 C 
HETATM    6  C   UNL     1      -3.747   6.188 -31.939  1.00  0.00     0.166 C 
HETATM    7  S   UNL     1      -4.036   6.933 -27.940  1.00  0.00    -0.086 SA
HETATM    8  C   UNL     1      -5.659   7.097 -28.720  1.00  0.00     0.135 C 
HETATM    9  C   UNL     1      -2.265   6.473 -31.999  1.00  0.00     0.069 C 
ENDROOT
BRANCH   5  10
HETATM   10  C   UNL     1      -6.748   6.340 -30.980  1.00  0.00     0.156 C 
BRANCH  10  11
HETATM   11  C   UNL     1      -7.338   4.995 -30.642  1.00  0.00     0.223 C 
HETATM   12  N   UNL     1      -8.646   4.806 -31.025  1.00  0.00    -0.359 N 
HETATM   13  H   UNL     1      -9.037   5.423 -31.733  1.00  0.00     0.162 HD
HETATM   14  O   UNL     1      -6.690   4.157 -30.029  1.00  0.00    -0.273 OA
BRANCH  12  15
HETATM   15  C   UNL     1      -9.293   3.498 -30.878  1.00  0.00     0.150 C 
BRANCH  15  16
HETATM   16  C   UNL     1      -9.780   2.886 -32.208  1.00  0.00     0.254 C 
BRANCH  16  17
HETATM   17  N   UNL     1      -8.774   1.880 -32.757  1.00  0.00    -0.070 N 
HETATM   18  H   UNL     1      -7.886   2.393 -32.807  1.00  0.00     0.279 HD
HETATM   19  C   UNL     1      -8.560   0.671 -31.873  1.00  0.00     0.235 C 
HETATM   20  C   UNL     1      -7.399  -0.144 -32.425  1.00  0.00     0.028 C 
HETATM   21  C   UNL     1      -7.645  -0.565 -33.869  1.00  0.00     0.003 C 
HETATM   22  C   UNL     1      -7.986   0.634 -34.748  1.00  0.00     0.028 C 
HETATM   23  C   UNL     1      -9.129   1.459 -34.171  1.00  0.00     0.235 C 
ENDBRANCH  16  17
ENDBRANCH  15  16
ENDBRANCH  12  15
ENDBRANCH  10  11
ENDBRANCH   5  10
BRANCH   6  24
HETATM   24  C   UNL     1      -4.089   4.714 -32.222  1.00  0.00    -0.024 A 
HETATM   25  C   UNL     1      -5.057   4.316 -33.177  1.00  0.00    -0.053 A 
HETATM   26  C   UNL     1      -5.773   5.254 -34.115  1.00  0.00     0.049 C 
HETATM   27  C   UNL     1      -5.322   2.944 -33.349  1.00  0.00     0.008 A 
HETATM   28  C   UNL     1      -4.676   1.974 -32.587  1.00  0.00     0.007 A 
HETATM   29  C   UNL     1      -3.725   2.345 -31.642  1.00  0.00    -0.061 A 
HETATM   30  C   UNL     1      -2.975   1.296 -30.871  1.00  0.00     0.048 C 
HETATM   31  C   UNL     1      -3.420   3.702 -31.485  1.00  0.00     0.017 A 
ENDBRANCH   6  24
BRANCH   9  32
HETATM   32  C   UNL     1      -1.774   6.722 -33.380  1.00  0.00     0.293 C 
HETATM   33  O   UNL     1      -1.738   7.836 -33.873  1.00  0.00    -0.259 OA
BRANCH  32  34
HETATM   34  O   UNL     1      -1.197   5.610 -33.883  1.00  0.00    -0.323 OA
HETATM   35  C   UNL     1      -1.868   5.028 -35.005  1.00  0.00     0.213 C 
ENDBRANCH  32  34
ENDBRANCH   9  32
BRANCH   1  36
HETATM   36  C   UNL     1       0.040   6.600 -30.901  1.00  0.00     0.056 C 
HETATM   37  C   UNL     1       0.680   5.215 -30.859  1.00  0.00     0.011 C 
ENDBRANCH   1  36
TORSDOF 9
ENDMDL
MODEL 3
REMARK VINA RESULT:      -7.5      2.642      4.371
REMARK  9 active torsions:
REMARK  status: ('A' for Active; 'I' for Inactive)
REMARK    1  A    between atoms: C_2  and  C_3 
REMARK    2  A    between atoms: C_7  and  C_8 
REMARK    3  A    between atoms: C_8  and  C_9 
REMARK       I    between atoms: C_9  and  N_10 
REMARK    4  A    between atoms: N_10  and  C_11 
REMARK    5  A    between atoms: C_11  and  C_12 
REMARK    6  A    between atoms: C_12  and  N_13 
REMARK    7  A    between atoms: C_21  and  C_22 
REMARK    8  A    between atoms: C_32  and  C_33 
REMARK    9  A    between atoms: C_33  and  O_34 
ROOT
HETATM    1  C   UNL     1      -5.619   6.382 -29.600  1.00  0.00     0.051 C 
HETATM    2  N   UNL     1      -6.966   6.092 -29.554  1.00  0.00    -0.228 NA
HETATM    3  C   UNL     1      -7.521   5.563 -30.583  1.00  0.00     0.170 C 
HETATM    4  N   UNL     1      -6.777   5.044 -31.840  1.00  0.00    -0.318 N 
HETATM    5  C   UNL     1      -7.608   4.537 -32.694  1.00  0.00     0.011 C 
HETATM    6  C   UNL     1      -5.296   5.072 -31.725  1.00  0.00     0.166 C 
HETATM    7  S   UNL     1      -9.231   5.295 -30.678  1.00  0.00    -0.086 SA
HETATM    8  C   UNL     1      -9.075   4.738 -32.392  1.00  0.00     0.135 C 
HETATM    9  C   UNL     1      -4.838   6.020 -30.642  1.00  0.00     0.069 C 
ENDROOT
BRANCH   5  10
HETATM   10  C   UNL     1      -7.168   3.731 -33.880  1.00  0.00     0.156 C 
BRANCH  10  11
HETATM   11  C   UNL     1      -7.388   2.249 -33.712  1.00  0.00     0.223 C 
HETATM   12  N   UNL     1      -6.290   1.456 -33.951  1.00  0.00    -0.359 N 
HETATM   13  H   UNL     1      -5.369   1.886 -33.939  1.00  0.00     0.162 HD
HETATM   14  O   UNL     1      -8.490   1.803 -33.423  1.00  0.00    -0.273 OA
BRANCH  12  15
HETATM   15  C   UNL     1      -6.333   0.012 -33.691  1.00  0.00     0.150 C 
BRANCH  15  16
HETATM   16  C   UNL     1      -6.730  -0.835 -34.918  1.00  0.00     0.254 C 
BRANCH  16  17
HETATM   17  N   UNL     1      -5.961  -2.152 -34.955  1.00  0.00    -0.070 N 
HETATM   18  H   UNL     1      -5.579  -2.209 -35.907  1.00  0.00     0.279 HD
HETATM   19  C   UNL     1      -4.801  -2.219 -33.987  1.00  0.00     0.235 C 
HETATM   20  C   UNL     1      -4.002  -3.485 -34.263  1.00  0.00     0.028 C 
HETATM   21  C   UNL     1      -4.872  -4.733 -34.155  1.00  0.00     0.003 C 
HETATM   22  C   UNL     1      -6.113  -4.623 -35.034  1.00  0.00     0.028 C 
HETATM   23  C   UNL     1      -6.888  -3.338 -34.770  1.00  0.00     0.235 C 
ENDBRANCH  16  17
ENDBRANCH  15  16
ENDBRANCH  12  15
ENDBRANCH  10  11
ENDBRANCH   5  10
BRANCH   6  24
HETATM   24  C   UNL     1      -4.782   3.635 -31.524  1.00  0.00    -0.024 A 
HETATM   25  C   UNL     1      -3.654   3.115 -32.207  1.00  0.00    -0.053 A 
HETATM   26  C   UNL     1      -2.749   3.920 -33.105  1.00  0.00     0.049 C 
HETATM   27  C   UNL     1      -3.273   1.779 -31.979  1.00  0.00     0.008 A 
HETATM   28  C   UNL     1      -3.992   0.951 -31.119  1.00  0.00     0.007 A 
HETATM   29  C   UNL     1      -5.103   1.441 -30.443  1.00  0.00    -0.061 A 
HETATM   30  C   UNL     1      -5.835   0.572 -29.460  1.00  0.00     0.048 C 
HETATM   31  C   UNL     1      -5.473   2.779 -30.627  1.00  0.00     0.017 A 
ENDBRANCH   6  24
BRANCH   9  32
HETATM   32  C   UNL     1      -3.478   6.572 -30.886  1.00  0.00     0.293 C 
HETATM   33  O   UNL     1      -2.510   6.248 -30.222  1.00  0.00    -0.259 OA
BRANCH  32  34
HETATM   34  O   UNL     1      -3.456   7.273 -32.039  1.00  0.00    -0.323 OA
HETATM   35  C   UNL     1      -2.239   7.981 -32.299  1.00  0.00     0.213 C 
ENDBRANCH  32  34
ENDBRANCH   9  32
BRANCH   1  36
HETATM   36  C   UNL     1      -5.138   7.127 -28.358  1.00  0.00     0.056 C 
HETATM   37  C   UNL     1      -4.859   6.209 -27.170  1.00  0.00     0.011 C 
ENDBRANCH   1  36
TORSDOF 9
ENDMDL
MODEL 4
REMARK VINA RESULT:      -7.4      2.555      4.218
REMARK  9 active torsions:
REMARK  status: ('A' for Active; 'I' for Inactive)
REMARK    1  A    between atoms: C_2  and  C_3 
REMARK    2  A    between atoms: C_7  and  C_8 
REMARK    3  A    between atoms: C_8  and  C_9 
REMARK       I    between atoms: C_9  and  N_10 
REMARK    4  A    between atoms: N_10  and  C_11 
REMARK    5  A    between atoms: C_11  and  C_12 
REMARK    6  A    between atoms: C_12  and  N_13 
REMARK    7  A    between atoms: C_21  and  C_22 
REMARK    8  A    between atoms: C_32  and  C_33 
REMARK    9  A    between atoms: C_33  and  O_34 
ROOT
HETATM    1  C   UNL     1      -3.465   7.014 -29.158  1.00  0.00     0.051 C 
HETATM    2  N   UNL     1      -4.805   7.232 -28.913  1.00  0.00    -0.228 NA
HETATM    3  C   UNL     1      -5.637   7.128 -29.884  1.00  0.00     0.170 C 
HETATM    4  N   UNL     1      -5.304   6.599 -31.302  1.00  0.00    -0.318 N 
HETATM    5  C   UNL     1      -6.359   6.585 -32.052  1.00  0.00     0.011 C 
HETATM    6  C   UNL     1      -3.924   6.064 -31.444  1.00  0.00     0.166 C 
HETATM    7  S   UNL     1      -7.316   7.521 -29.711  1.00  0.00    -0.086 SA
HETATM    8  C   UNL     1      -7.589   7.252 -31.478  1.00  0.00     0.135 C 
HETATM    9  C   UNL     1      -3.012   6.577 -30.354  1.00  0.00     0.069 C 
ENDROOT
BRANCH   5  10
HETATM   10  C   UNL     1      -6.407   5.892 -33.382  1.00  0.00     0.156 C 
BRANCH  10  11
HETATM   11  C   UNL     1      -7.622   5.018 -33.558  1.00  0.00     0.223 C 
HETATM   12  N   UNL     1      -7.713   3.949 -32.696  1.00  0.00    -0.359 N 
HETATM   13  H   UNL     1      -7.157   3.962 -31.846  1.00  0.00     0.162 HD
HETATM   14  O   UNL     1      -8.437   5.240 -34.443  1.00  0.00    -0.273 OA
BRANCH  12  15
HETATM   15  C   UNL     1      -8.911   3.101 -32.672  1.00  0.00     0.150 C 
BRANCH  15  16
HETATM   16  C   UNL     1      -8.654   1.666 -32.167  1.00  0.00     0.254 C 
BRANCH  16  17
HETATM   17  N   UNL     1      -7.681   0.924 -33.078  1.00  0.00    -0.070 N 
HETATM   18  H   UNL     1      -6.881   1.560 -33.186  1.00  0.00     0.279 HD
HETATM   19  C   UNL     1      -7.164  -0.376 -32.505  1.00  0.00     0.235 C 
HETATM   20  C   UNL     1      -6.061  -0.909 -33.409  1.00  0.00     0.028 C 
HETATM   21  C   UNL     1      -6.552  -1.104 -34.839  1.00  0.00     0.003 C 
HETATM   22  C   UNL     1      -7.191   0.168 -35.386  1.00  0.00     0.028 C 
HETATM   23  C   UNL     1      -8.272   0.708 -34.459  1.00  0.00     0.235 C 
ENDBRANCH  16  17
ENDBRANCH  15  16
ENDBRANCH  12  15
ENDBRANCH  10  11
ENDBRANCH   5  10
BRANCH   6  24
HETATM   24  C   UNL     1      -3.986   4.527 -31.502  1.00  0.00    -0.024 A 
HETATM   25  C   UNL     1      -3.241   3.759 -32.431  1.00  0.00    -0.053 A 
HETATM   26  C   UNL     1      -2.212   4.322 -33.380  1.00  0.00     0.049 C 
HETATM   27  C   UNL     1      -3.381   2.359 -32.428  1.00  0.00     0.008 A 
HETATM   28  C   UNL     1      -4.252   1.714 -31.553  1.00  0.00     0.007 A 
HETATM   29  C   UNL     1      -4.995   2.450 -30.637  1.00  0.00    -0.061 A 
HETATM   30  C   UNL     1      -5.880   1.751 -29.644  1.00  0.00     0.048 C 
HETATM   31  C   UNL     1      -4.838   3.841 -30.599  1.00  0.00     0.017 A 
ENDBRANCH   6  24
BRANCH   9  32
HETATM   32  C   UNL     1      -1.584   6.630 -30.765  1.00  0.00     0.293 C 
HETATM   33  O   UNL     1      -1.092   7.604 -31.306  1.00  0.00    -0.259 OA
BRANCH  32  34
HETATM   34  O   UNL     1      -0.911   5.572 -30.263  1.00  0.00    -0.323 OA
HETATM   35  C   UNL     1       0.349   5.300 -30.885  1.00  0.00     0.213 C 
ENDBRANCH  32  34
ENDBRANCH   9  32
BRANCH   1  36
HETATM   36  C   UNL     1      -2.593   7.306 -27.941  1.00  0.00     0.056 C 
HETATM   37  C   UNL     1      -2.196   8.775 -27.816  1.00  0.00     0.011 C 
ENDBRANCH   1  36
TORSDOF 9
ENDMDL
MODEL 5
REMARK VINA RESULT:      -7.2      2.676      8.624
REMARK  9 active torsions:
REMARK  status: ('A' for Active; 'I' for Inactive)
REMARK    1  A    between atoms: C_2  and  C_3 
REMARK    2  A    between atoms: C_7  and  C_8 
REMARK    3  A    between atoms: C_8  and  C_9 
REMARK       I    between atoms: C_9  and  N_10 
REMARK    4  A    between atoms: N_10  and  C_11 
REMARK    5  A    between atoms: C_11  and  C_12 
REMARK    6  A    between atoms: C_12  and  N_13 
REMARK    7  A    between atoms: C_21  and  C_22 
REMARK    8  A    between atoms: C_32  and  C_33 
REMARK    9  A    between atoms: C_33  and  O_34 
ROOT
HETATM    1  C   UNL     1      -6.270   0.327 -33.460  1.00  0.00     0.051 C 
HETATM    2  N   UNL     1      -7.482   0.941 -33.224  1.00  0.00    -0.228 NA
HETATM    3  C   UNL     1      -7.599   1.706 -32.200  1.00  0.00     0.170 C 
HETATM    4  N   UNL     1      -6.439   2.157 -31.276  1.00  0.00    -0.318 N 
HETATM    5  C   UNL     1      -6.868   2.951 -30.347  1.00  0.00     0.011 C 
HETATM    6  C   UNL     1      -5.091   1.742 -31.745  1.00  0.00     0.166 C 
HETATM    7  S   UNL     1      -9.114   2.407 -31.736  1.00  0.00    -0.086 SA
HETATM    8  C   UNL     1      -8.369   3.095 -30.239  1.00  0.00     0.135 C 
HETATM    9  C   UNL     1      -5.169   0.594 -32.723  1.00  0.00     0.069 C 
ENDROOT
BRANCH   5  10
HETATM   10  C   UNL     1      -5.951   3.747 -29.467  1.00  0.00     0.156 C 
BRANCH  10  11
HETATM   11  C   UNL     1      -5.660   5.127 -29.998  1.00  0.00     0.223 C 
HETATM   12  N   UNL     1      -4.536   5.735 -29.488  1.00  0.00    -0.359 N 
HETATM   13  H   UNL     1      -3.835   5.155 -29.034  1.00  0.00     0.162 HD
HETATM   14  O   UNL     1      -6.412   5.668 -30.798  1.00  0.00    -0.273 OA
BRANCH  12  15
HETATM   15  C   UNL     1      -4.066   7.019 -30.021  1.00  0.00     0.150 C 
BRANCH  15  16
HETATM   16  C   UNL     1      -3.278   7.870 -29.003  1.00  0.00     0.254 C 
BRANCH  16  17
HETATM   17  N   UNL     1      -1.897   7.278 -28.738  1.00  0.00    -0.070 N 
HETATM   18  H   UNL     1      -1.935   6.330 -29.130  1.00  0.00     0.279 HD
HETATM   19  C   UNL     1      -0.766   8.016 -29.420  1.00  0.00     0.235 C 
HETATM   20  C   UNL     1       0.518   7.217 -29.245  1.00  0.00     0.028 C 
HETATM   21  C   UNL     1       0.836   6.979 -27.774  1.00  0.00     0.003 C 
HETATM   22  C   UNL     1      -0.346   6.349 -27.044  1.00  0.00     0.028 C 
HETATM   23  C   UNL     1      -1.632   7.140 -27.251  1.00  0.00     0.235 C 
ENDBRANCH  16  17
ENDBRANCH  15  16
ENDBRANCH  12  15
ENDBRANCH  10  11
ENDBRANCH   5  10
BRANCH   6  24
HETATM   24  C   UNL     1      -4.360   2.971 -32.316  1.00  0.00    -0.024 A 
HETATM   25  C   UNL     1      -4.874   3.749 -33.383  1.00  0.00    -0.053 A 
HETATM   26  C   UNL     1      -6.236   3.562 -34.003  1.00  0.00     0.049 C 
HETATM   27  C   UNL     1      -4.122   4.840 -33.857  1.00  0.00     0.008 A 
HETATM   28  C   UNL     1      -2.876   5.156 -33.321  1.00  0.00     0.007 A 
HETATM   29  C   UNL     1      -2.352   4.403 -32.277  1.00  0.00    -0.061 A 
HETATM   30  C   UNL     1      -1.042   4.786 -31.649  1.00  0.00     0.048 C 
HETATM   31  C   UNL     1      -3.104   3.338 -31.766  1.00  0.00     0.017 A 
ENDBRANCH   6  24
BRANCH   9  32
HETATM   32  C   UNL     1      -3.947  -0.253 -32.727  1.00  0.00     0.293 C 
HETATM   33  O   UNL     1      -2.950   0.037 -33.363  1.00  0.00    -0.259 OA
BRANCH  32  34
HETATM   34  O   UNL     1      -4.040  -1.218 -31.787  1.00  0.00    -0.323 OA
HETATM   35  C   UNL     1      -3.369  -2.442 -32.101  1.00  0.00     0.213 C 
ENDBRANCH  32  34
ENDBRANCH   9  32
BRANCH   1  36
HETATM   36  C   UNL     1      -6.329  -0.650 -34.631  1.00  0.00     0.056 C 
HETATM   37  C   UNL     1      -6.849  -2.032 -34.243  1.00  0.00     0.011 C 
ENDBRANCH   1  36
TORSDOF 9
ENDMDL
MODEL 6
REMARK VINA RESULT:      -7.1      3.571      8.263
REMARK  9 active torsions:
REMARK  status: ('A' for Active; 'I' for Inactive)
REMARK    1  A    between atoms: C_2  and  C_3 
REMARK    2  A    between atoms: C_7  and  C_8 
REMARK    3  A    between atoms: C_8  and  C_9 
REMARK       I    between atoms: C_9  and  N_10 
REMARK    4  A    between atoms: N_10  and  C_11 
REMARK    5  A    between atoms: C_11  and  C_12 
REMARK    6  A    between atoms: C_12  and  N_13 
REMARK    7  A    between atoms: C_21  and  C_22 
REMARK    8  A    between atoms: C_32  and  C_33 
REMARK    9  A    between atoms: C_33  and  O_34 
ROOT
HETATM    1  C   UNL     1      -9.584   2.947 -33.280  1.00  0.00     0.051 C 
HETATM    2  N   UNL     1      -9.876   4.277 -33.067  1.00  0.00    -0.228 NA
HETATM    3  C   UNL     1      -9.464   4.836 -31.987  1.00  0.00     0.170 C 
HETATM    4  N   UNL     1      -8.499   4.198 -30.955  1.00  0.00    -0.318 N 
HETATM    5  C   UNL     1      -8.246   5.020 -29.987  1.00  0.00     0.011 C 
HETATM    6  C   UNL     1      -7.942   2.885 -31.374  1.00  0.00     0.166 C 
HETATM    7  S   UNL     1      -9.900   6.457 -31.559  1.00  0.00    -0.086 SA
HETATM    8  C   UNL     1      -9.069   6.288 -29.961  1.00  0.00     0.135 C 
HETATM    9  C   UNL     1      -8.778   2.242 -32.454  1.00  0.00     0.069 C 
ENDROOT
BRANCH   5  10
HETATM   10  C   UNL     1      -7.157   4.787 -28.982  1.00  0.00     0.156 C 
BRANCH  10  11
HETATM   11  C   UNL     1      -6.208   5.950 -28.847  1.00  0.00     0.223 C 
HETATM   12  N   UNL     1      -5.444   6.224 -29.958  1.00  0.00    -0.359 N 
HETATM   13  H   UNL     1      -5.742   5.851 -30.856  1.00  0.00     0.162 HD
HETATM   14  O   UNL     1      -6.111   6.568 -27.795  1.00  0.00    -0.273 OA
BRANCH  12  15
HETATM   15  C   UNL     1      -4.582   7.411 -30.005  1.00  0.00     0.150 C 
BRANCH  15  16
HETATM   16  C   UNL     1      -3.126   7.147 -29.569  1.00  0.00     0.254 C 
BRANCH  16  17
HETATM   17  N   UNL     1      -2.204   7.002 -30.775  1.00  0.00    -0.070 N 
HETATM   18  H   UNL     1      -1.446   7.676 -30.612  1.00  0.00     0.279 HD
HETATM   19  C   UNL     1      -1.580   5.631 -30.918  1.00  0.00     0.235 C 
HETATM   20  C   UNL     1      -0.538   5.677 -32.026  1.00  0.00     0.028 C 
HETATM   21  C   UNL     1      -1.143   6.138 -33.347  1.00  0.00     0.003 C 
HETATM   22  C   UNL     1      -1.883   7.462 -33.188  1.00  0.00     0.028 C 
HETATM   23  C   UNL     1      -2.903   7.414 -32.057  1.00  0.00     0.235 C 
ENDBRANCH  16  17
ENDBRANCH  15  16
ENDBRANCH  12  15
ENDBRANCH  10  11
ENDBRANCH   5  10
BRANCH   6  24
HETATM   24  C   UNL     1      -6.470   3.074 -31.784  1.00  0.00    -0.024 A 
HETATM   25  C   UNL     1      -5.392   2.466 -31.095  1.00  0.00    -0.053 A 
HETATM   26  C   UNL     1      -5.543   1.471 -29.971  1.00  0.00     0.049 C 
HETATM   27  C   UNL     1      -4.076   2.717 -31.527  1.00  0.00     0.008 A 
HETATM   28  C   UNL     1      -3.808   3.568 -32.597  1.00  0.00     0.007 A 
HETATM   29  C   UNL     1      -4.852   4.178 -33.284  1.00  0.00    -0.061 A 
HETATM   30  C   UNL     1      -4.570   5.037 -34.483  1.00  0.00     0.048 C 
HETATM   31  C   UNL     1      -6.170   3.908 -32.893  1.00  0.00     0.017 A 
ENDBRANCH   6  24
BRANCH   9  32
HETATM   32  C   UNL     1      -8.687   0.758 -32.458  1.00  0.00     0.293 C 
HETATM   33  O   UNL     1      -9.487   0.050 -31.873  1.00  0.00    -0.259 OA
BRANCH  32  34
HETATM   34  O   UNL     1      -7.761   0.346 -33.351  1.00  0.00    -0.323 OA
HETATM   35  C   UNL     1      -6.799  -0.585 -32.846  1.00  0.00     0.213 C 
ENDBRANCH  32  34
ENDBRANCH   9  32
BRANCH   1  36
HETATM   36  C   UNL     1     -10.253   2.395 -34.536  1.00  0.00     0.056 C 
HETATM   37  C   UNL     1     -11.685   1.921 -34.302  1.00  0.00     0.011 C 
ENDBRANCH   1  36
TORSDOF 9
ENDMDL
MODEL 7
REMARK VINA RESULT:      -6.9      3.098      8.786
REMARK  9 active torsions:
REMARK  status: ('A' for Active; 'I' for Inactive)
REMARK    1  A    between atoms: C_2  and  C_3 
REMARK    2  A    between atoms: C_7  and  C_8 
REMARK    3  A    between atoms: C_8  and  C_9 
REMARK       I    between atoms: C_9  and  N_10 
REMARK    4  A    between atoms: N_10  and  C_11 
REMARK    5  A    between atoms: C_11  and  C_12 
REMARK    6  A    between atoms: C_12  and  N_13 
REMARK    7  A    between atoms: C_21  and  C_22 
REMARK    8  A    between atoms: C_32  and  C_33 
REMARK    9  A    between atoms: C_33  and  O_34 
ROOT
HETATM    1  C   UNL     1      -6.979   0.608 -33.974  1.00  0.00     0.051 C 
HETATM    2  N   UNL     1      -8.000   1.314 -34.574  1.00  0.00    -0.228 NA
HETATM    3  C   UNL     1      -8.560   2.268 -33.923  1.00  0.00     0.170 C 
HETATM    4  N   UNL     1      -8.077   2.834 -32.563  1.00  0.00    -0.318 N 
HETATM    5  C   UNL     1      -8.831   3.812 -32.174  1.00  0.00     0.011 C 
HETATM    6  C   UNL     1      -6.783   2.272 -32.095  1.00  0.00     0.166 C 
HETATM    7  S   UNL     1      -9.943   3.117 -34.531  1.00  0.00    -0.086 SA
HETATM    8  C   UNL     1     -10.085   4.046 -32.986  1.00  0.00     0.135 C 
HETATM    9  C   UNL     1      -6.466   0.960 -32.774  1.00  0.00     0.069 C 
ENDROOT
BRANCH   5  10
HETATM   10  C   UNL     1      -8.468   4.720 -31.037  1.00  0.00     0.156 C 
BRANCH  10  11
HETATM   11  C   UNL     1      -7.745   5.968 -31.474  1.00  0.00     0.223 C 
HETATM   12  N   UNL     1      -7.241   6.748 -30.459  1.00  0.00    -0.359 N 
HETATM   13  H   UNL     1      -7.124   6.331 -29.539  1.00  0.00     0.162 HD
HETATM   14  O   UNL     1      -7.662   6.268 -32.657  1.00  0.00    -0.273 OA
BRANCH  12  15
HETATM   15  C   UNL     1      -6.401   7.915 -30.751  1.00  0.00     0.150 C 
BRANCH  15  16
HETATM   16  C   UNL     1      -5.698   8.508 -29.513  1.00  0.00     0.254 C 
BRANCH  16  17
HETATM   17  N   UNL     1      -4.183   8.527 -29.691  1.00  0.00    -0.070 N 
HETATM   18  H   UNL     1      -3.874   9.399 -29.245  1.00  0.00     0.279 HD
HETATM   19  C   UNL     1      -3.465   7.381 -29.012  1.00  0.00     0.235 C 
HETATM   20  C   UNL     1      -1.964   7.624 -29.092  1.00  0.00     0.028 C 
HETATM   21  C   UNL     1      -1.496   7.779 -30.534  1.00  0.00     0.003 C 
HETATM   22  C   UNL     1      -2.300   8.848 -31.268  1.00  0.00     0.028 C 
HETATM   23  C   UNL     1      -3.801   8.611 -31.157  1.00  0.00     0.235 C 
ENDBRANCH  16  17
ENDBRANCH  15  16
ENDBRANCH  12  15
ENDBRANCH  10  11
ENDBRANCH   5  10
BRANCH   6  24
HETATM   24  C   UNL     1      -5.681   3.329 -32.283  1.00  0.00    -0.024 A 
HETATM   25  C   UNL     1      -5.000   3.937 -31.199  1.00  0.00    -0.053 A 
HETATM   26  C   UNL     1      -5.169   3.545 -29.752  1.00  0.00     0.049 C 
HETATM   27  C   UNL     1      -4.023   4.914 -31.467  1.00  0.00     0.008 A 
HETATM   28  C   UNL     1      -3.729   5.315 -32.768  1.00  0.00     0.007 A 
HETATM   29  C   UNL     1      -4.388   4.734 -33.845  1.00  0.00    -0.061 A 
HETATM   30  C   UNL     1      -4.021   5.113 -35.252  1.00  0.00     0.048 C 
HETATM   31  C   UNL     1      -5.335   3.732 -33.600  1.00  0.00     0.017 A 
ENDBRANCH   6  24
BRANCH   9  32
HETATM   32  C   UNL     1      -5.604   0.071 -31.951  1.00  0.00     0.293 C 
HETATM   33  O   UNL     1      -6.059  -0.780 -31.208  1.00  0.00    -0.259 OA
BRANCH  32  34
HETATM   34  O   UNL     1      -4.310   0.201 -32.316  1.00  0.00    -0.323 OA
HETATM   35  C   UNL     1      -3.371   0.226 -31.236  1.00  0.00     0.213 C 
ENDBRANCH  32  34
ENDBRANCH   9  32
BRANCH   1  36
HETATM   36  C   UNL     1      -6.510  -0.574 -34.817  1.00  0.00     0.056 C 
HETATM   37  C   UNL     1      -7.152  -1.900 -34.416  1.00  0.00     0.011 C 
ENDBRANCH   1  36
TORSDOF 9
ENDMDL
MODEL 8
REMARK VINA RESULT:      -6.8      4.263      8.505
REMARK  9 active torsions:
REMARK  status: ('A' for Active; 'I' for Inactive)
REMARK    1  A    between atoms: C_2  and  C_3 
REMARK    2  A    between atoms: C_7  and  C_8 
REMARK    3  A    between atoms: C_8  and  C_9 
REMARK       I    between atoms: C_9  and  N_10 
REMARK    4  A    between atoms: N_10  and  C_11 
REMARK    5  A    between atoms: C_11  and  C_12 
REMARK    6  A    between atoms: C_12  and  N_13 
REMARK    7  A    between atoms: C_21  and  C_22 
REMARK    8  A    between atoms: C_32  and  C_33 
REMARK    9  A    between atoms: C_33  and  O_34 
ROOT
HETATM    1  C   UNL     1      -3.895   0.947 -31.685  1.00  0.00     0.051 C 
HETATM    2  N   UNL     1      -3.076   2.048 -31.551  1.00  0.00    -0.228 NA
HETATM    3  C   UNL     1      -3.369   3.119 -32.196  1.00  0.00     0.170 C 
HETATM    4  N   UNL     1      -4.676   3.362 -32.992  1.00  0.00    -0.318 N 
HETATM    5  C   UNL     1      -4.693   4.550 -33.506  1.00  0.00     0.011 C 
HETATM    6  C   UNL     1      -5.685   2.280 -32.849  1.00  0.00     0.166 C 
HETATM    7  S   UNL     1      -2.329   4.505 -32.208  1.00  0.00    -0.086 SA
HETATM    8  C   UNL     1      -3.404   5.334 -33.403  1.00  0.00     0.135 C 
HETATM    9  C   UNL     1      -5.058   0.991 -32.373  1.00  0.00     0.069 C 
ENDROOT
BRANCH   5  10
HETATM   10  C   UNL     1      -5.922   5.162 -34.109  1.00  0.00     0.156 C 
BRANCH  10  11
HETATM   11  C   UNL     1      -6.711   6.000 -33.136  1.00  0.00     0.223 C 
HETATM   12  N   UNL     1      -8.062   6.082 -33.384  1.00  0.00    -0.359 N 
HETATM   13  H   UNL     1      -8.487   5.385 -33.989  1.00  0.00     0.162 HD
HETATM   14  O   UNL     1      -6.158   6.593 -32.220  1.00  0.00    -0.273 OA
BRANCH  12  15
HETATM   15  C   UNL     1      -8.962   6.752 -32.438  1.00  0.00     0.150 C 
BRANCH  15  16
HETATM   16  C   UNL     1     -10.439   6.772 -32.884  1.00  0.00     0.254 C 
BRANCH  16  17
HETATM   17  N   UNL     1     -11.194   5.556 -32.358  1.00  0.00    -0.070 N 
HETATM   18  H   UNL     1     -10.463   4.888 -32.084  1.00  0.00     0.279 HD
HETATM   19  C   UNL     1     -12.046   5.835 -31.140  1.00  0.00     0.235 C 
HETATM   20  C   UNL     1     -12.579   4.515 -30.599  1.00  0.00     0.028 C 
HETATM   21  C   UNL     1     -13.374   3.755 -31.655  1.00  0.00     0.003 C 
HETATM   22  C   UNL     1     -12.567   3.577 -32.937  1.00  0.00     0.028 C 
HETATM   23  C   UNL     1     -12.014   4.900 -33.453  1.00  0.00     0.235 C 
ENDBRANCH  16  17
ENDBRANCH  15  16
ENDBRANCH  12  15
ENDBRANCH  10  11
ENDBRANCH   5  10
BRANCH   6  24
HETATM   24  C   UNL     1      -6.821   2.771 -31.934  1.00  0.00    -0.024 A 
HETATM   25  C   UNL     1      -8.192   2.578 -32.233  1.00  0.00    -0.053 A 
HETATM   26  C   UNL     1      -8.712   1.772 -33.397  1.00  0.00     0.049 C 
HETATM   27  C   UNL     1      -9.163   3.086 -31.349  1.00  0.00     0.008 A 
HETATM   28  C   UNL     1      -8.807   3.793 -30.202  1.00  0.00     0.007 A 
HETATM   29  C   UNL     1      -7.467   3.996 -29.893  1.00  0.00    -0.061 A 
HETATM   30  C   UNL     1      -7.081   4.695 -28.620  1.00  0.00     0.048 C 
HETATM   31  C   UNL     1      -6.488   3.464 -30.740  1.00  0.00     0.017 A 
ENDBRANCH   6  24
BRANCH   9  32
HETATM   32  C   UNL     1      -5.806  -0.219 -32.809  1.00  0.00     0.293 C 
HETATM   33  O   UNL     1      -6.648  -0.756 -32.111  1.00  0.00    -0.259 OA
BRANCH  32  34
HETATM   34  O   UNL     1      -5.574  -0.469 -34.115  1.00  0.00    -0.323 OA
HETATM   35  C   UNL     1      -5.940  -1.779 -34.559  1.00  0.00     0.213 C 
ENDBRANCH  32  34
ENDBRANCH   9  32
BRANCH   1  36
HETATM   36  C   UNL     1      -3.344  -0.282 -30.968  1.00  0.00     0.056 C 
HETATM   37  C   UNL     1      -2.569  -1.224 -31.886  1.00  0.00     0.011 C 
ENDBRANCH   1  36
TORSDOF 9
ENDMDL
MODEL 9
REMARK VINA RESULT:      -6.8      2.721      8.247
REMARK  9 active torsions:
REMARK  status: ('A' for Active; 'I' for Inactive)
REMARK    1  A    between atoms: C_2  and  C_3 
REMARK    2  A    between atoms: C_7  and  C_8 
REMARK    3  A    between atoms: C_8  and  C_9 
REMARK       I    between atoms: C_9  and  N_10 
REMARK    4  A    between atoms: N_10  and  C_11 
REMARK    5  A    between atoms: C_11  and  C_12 
REMARK    6  A    between atoms: C_12  and  N_13 
REMARK    7  A    between atoms: C_21  and  C_22 
REMARK    8  A    between atoms: C_32  and  C_33 
REMARK    9  A    between atoms: C_33  and  O_34 
ROOT
HETATM    1  C   UNL     1      -3.599   3.410 -32.129  1.00  0.00     0.051 C 
HETATM    2  N   UNL     1      -2.388   3.714 -31.543  1.00  0.00    -0.228 NA
HETATM    3  C   UNL     1      -2.043   4.946 -31.437  1.00  0.00     0.170 C 
HETATM    4  N   UNL     1      -2.948   6.165 -31.751  1.00  0.00    -0.318 N 
HETATM    5  C   UNL     1      -2.327   7.276 -31.518  1.00  0.00     0.011 C 
HETATM    6  C   UNL     1      -4.356   5.810 -32.069  1.00  0.00     0.166 C 
HETATM    7  S   UNL     1      -0.484   5.424 -30.851  1.00  0.00    -0.086 SA
HETATM    8  C   UNL     1      -0.852   7.158 -31.205  1.00  0.00     0.135 C 
HETATM    9  C   UNL     1      -4.488   4.364 -32.485  1.00  0.00     0.069 C 
ENDROOT
BRANCH   5  10
HETATM   10  C   UNL     1      -3.019   8.606 -31.482  1.00  0.00     0.156 C 
BRANCH  10  11
HETATM   11  C   UNL     1      -2.787   9.367 -30.201  1.00  0.00     0.223 C 
HETATM   12  N   UNL     1      -3.411   8.856 -29.086  1.00  0.00    -0.359 N 
HETATM   13  H   UNL     1      -3.733   7.892 -29.110  1.00  0.00     0.162 HD
HETATM   14  O   UNL     1      -2.119  10.392 -30.188  1.00  0.00    -0.273 OA
BRANCH  12  15
HETATM   15  C   UNL     1      -3.158   9.421 -27.756  1.00  0.00     0.150 C 
BRANCH  15  16
HETATM   16  C   UNL     1      -2.600   8.404 -26.738  1.00  0.00     0.254 C 
BRANCH  16  17
HETATM   17  N   UNL     1      -1.076   8.427 -26.710  1.00  0.00    -0.070 N 
HETATM   18  H   UNL     1      -0.826   8.245 -25.730  1.00  0.00     0.279 HD
HETATM   19  C   UNL     1      -0.424   7.358 -27.560  1.00  0.00     0.235 C 
HETATM   20  C   UNL     1       1.074   7.359 -27.288  1.00  0.00     0.028 C 
HETATM   21  C   UNL     1       1.694   8.724 -27.563  1.00  0.00     0.003 C 
HETATM   22  C   UNL     1       0.964   9.829 -26.807  1.00  0.00     0.028 C 
HETATM   23  C   UNL     1      -0.537   9.801 -27.063  1.00  0.00     0.235 C 
ENDBRANCH  16  17
ENDBRANCH  15  16
ENDBRANCH  12  15
ENDBRANCH  10  11
ENDBRANCH   5  10
BRANCH   6  24
HETATM   24  C   UNL     1      -5.248   6.175 -30.868  1.00  0.00    -0.024 A 
HETATM   25  C   UNL     1      -6.442   6.927 -30.994  1.00  0.00    -0.053 A 
HETATM   26  C   UNL     1      -7.055   7.352 -32.305  1.00  0.00     0.049 C 
HETATM   27  C   UNL     1      -7.181   7.235 -29.836  1.00  0.00     0.008 A 
HETATM   28  C   UNL     1      -6.752   6.841 -28.570  1.00  0.00     0.007 A 
HETATM   29  C   UNL     1      -5.581   6.105 -28.426  1.00  0.00    -0.061 A 
HETATM   30  C   UNL     1      -5.156   5.617 -27.070  1.00  0.00     0.048 C 
HETATM   31  C   UNL     1      -4.855   5.756 -29.571  1.00  0.00     0.017 A 
ENDBRANCH   6  24
BRANCH   9  32
HETATM   32  C   UNL     1      -5.643   4.120 -33.389  1.00  0.00     0.293 C 
HETATM   33  O   UNL     1      -5.562   4.225 -34.600  1.00  0.00    -0.259 OA
BRANCH  32  34
HETATM   34  O   UNL     1      -6.670   3.574 -32.703  1.00  0.00    -0.323 OA
HETATM   35  C   UNL     1      -7.962   3.756 -33.291  1.00  0.00     0.213 C 
ENDBRANCH  32  34
ENDBRANCH   9  32
BRANCH   1  36
HETATM   36  C   UNL     1      -3.804   1.909 -32.303  1.00  0.00     0.056 C 
HETATM   37  C   UNL     1      -4.412   1.233 -31.076  1.00  0.00     0.011 C 
ENDBRANCH   1  36
TORSDOF 9
ENDMDL
MODEL 10
REMARK VINA RESULT:      -6.8      2.636      4.523
REMARK  9 active torsions:
REMARK  status: ('A' for Active; 'I' for Inactive)
REMARK    1  A    between atoms: C_2  and  C_3 
REMARK    2  A    between atoms: C_7  and  C_8 
REMARK    3  A    between atoms: C_8  and  C_9 
REMARK       I    between atoms: C_9  and  N_10 
REMARK    4  A    between atoms: N_10  and  C_11 
REMARK    5  A    between atoms: C_11  and  C_12 
REMARK    6  A    between atoms: C_12  and  N_13 
REMARK    7  A    between atoms: C_21  and  C_22 
REMARK    8  A    between atoms: C_32  and  C_33 
REMARK    9  A    between atoms: C_33  and  O_34 
ROOT
HETATM    1  C   UNL     1      -0.128   7.556 -27.602  1.00  0.00     0.051 C 
HETATM    2  N   UNL     1       0.405   7.543 -28.874  1.00  0.00    -0.228 NA
HETATM    3  C   UNL     1      -0.260   6.984 -29.819  1.00  0.00     0.170 C 
HETATM    4  N   UNL     1      -1.715   6.461 -29.708  1.00  0.00    -0.318 N 
HETATM    5  C   UNL     1      -2.121   5.976 -30.838  1.00  0.00     0.011 C 
HETATM    6  C   UNL     1      -2.380   6.782 -28.418  1.00  0.00     0.166 C 
HETATM    7  S   UNL     1       0.385   6.788 -31.415  1.00  0.00    -0.086 SA
HETATM    8  C   UNL     1      -1.069   5.838 -31.916  1.00  0.00     0.135 C 
HETATM    9  C   UNL     1      -1.376   7.109 -27.338  1.00  0.00     0.069 C 
ENDROOT
BRANCH   5  10
HETATM   10  C   UNL     1      -3.555   5.633 -31.111  1.00  0.00     0.156 C 
BRANCH  10  11
HETATM   11  C   UNL     1      -3.727   4.356 -31.892  1.00  0.00     0.223 C 
HETATM   12  N   UNL     1      -3.451   3.197 -31.203  1.00  0.00    -0.359 N 
HETATM   13  H   UNL     1      -3.435   3.230 -30.187  1.00  0.00     0.162 HD
HETATM   14  O   UNL     1      -4.049   4.376 -33.073  1.00  0.00    -0.273 OA
BRANCH  12  15
HETATM   15  C   UNL     1      -3.709   1.883 -31.804  1.00  0.00     0.150 C 
BRANCH  15  16
HETATM   16  C   UNL     1      -4.897   1.128 -31.173  1.00  0.00     0.254 C 
BRANCH  16  17
HETATM   17  N   UNL     1      -5.395   0.014 -32.089  1.00  0.00    -0.070 N 
HETATM   18  H   UNL     1      -5.596  -0.775 -31.463  1.00  0.00     0.279 HD
HETATM   19  C   UNL     1      -6.668   0.348 -32.835  1.00  0.00     0.235 C 
HETATM   20  C   UNL     1      -7.164  -0.903 -33.547  1.00  0.00     0.028 C 
HETATM   21  C   UNL     1      -6.111  -1.464 -34.495  1.00  0.00     0.003 C 
HETATM   22  C   UNL     1      -4.782  -1.687 -33.782  1.00  0.00     0.028 C 
HETATM   23  C   UNL     1      -4.310  -0.438 -33.048  1.00  0.00     0.235 C 
ENDBRANCH  16  17
ENDBRANCH  15  16
ENDBRANCH  12  15
ENDBRANCH  10  11
ENDBRANCH   5  10
BRANCH   6  24
HETATM   24  C   UNL     1      -3.404   7.908 -28.649  1.00  0.00    -0.024 A 
HETATM   25  C   UNL     1      -4.799   7.732 -28.472  1.00  0.00    -0.053 A 
HETATM   26  C   UNL     1      -5.443   6.484 -27.922  1.00  0.00     0.049 C 
HETATM   27  C   UNL     1      -5.662   8.812 -28.733  1.00  0.00     0.008 A 
HETATM   28  C   UNL     1      -5.181  10.040 -29.184  1.00  0.00     0.007 A 
HETATM   29  C   UNL     1      -3.816  10.231 -29.367  1.00  0.00    -0.061 A 
HETATM   30  C   UNL     1      -3.290  11.575 -29.783  1.00  0.00     0.048 C 
HETATM   31  C   UNL     1      -2.939   9.180 -29.075  1.00  0.00     0.017 A 
ENDBRANCH   6  24
BRANCH   9  32
HETATM   32  C   UNL     1      -1.873   6.810 -25.969  1.00  0.00     0.293 C 
HETATM   33  O   UNL     1      -1.837   5.691 -25.488  1.00  0.00    -0.259 OA
BRANCH  32  34
HETATM   34  O   UNL     1      -2.143   7.954 -25.306  1.00  0.00    -0.323 OA
HETATM   35  C   UNL     1      -3.525   8.175 -25.006  1.00  0.00     0.213 C 
ENDBRANCH  32  34
ENDBRANCH   9  32
BRANCH   1  36
HETATM   36  C   UNL     1       0.835   8.134 -26.570  1.00  0.00     0.056 C 
HETATM   37  C   UNL     1       1.921   9.017 -27.180  1.00  0.00     0.011 C 
ENDBRANCH   1  36
TORSDOF 9
ENDMDL
