MODEL 1
REMARK VINA RESULT:      -8.4      0.000      0.000
REMARK  5 active torsions:
REMARK  status: ('A' for Active; 'I' for Inactive)
REMARK    1  A    between atoms: C_2  and  O_3 
REMARK    2  A    between atoms: O_3  and  C_4 
REMARK    3  A    between atoms: C_5  and  C_6 
REMARK    4  A    between atoms: C_6  and  C_9 
REMARK       I    between atoms: C_9  and  N_10 
REMARK    5  A    between atoms: N_10  and  C_11 
ROOT
HETATM    1  C   UNL     1      -6.440   1.015 -33.793  1.00  0.00     0.300 C 
HETATM    2  N   UNL     1      -5.723   1.863 -32.946  1.00  0.00    -0.320 N 
HETATM    3  O   UNL     1      -6.679   1.257 -34.974  1.00  0.00    -0.266 OA
HETATM    4  H   UNL     1      -5.641   1.546 -31.983  1.00  0.00     0.169 HD
ENDROOT
BRANCH   1   5
HETATM    5  C   UNL     1      -6.894  -0.287 -33.058  1.00  0.00     0.352 C 
HETATM    6  F   UNL     1      -8.277  -0.340 -33.089  1.00  0.00    -0.190 F 
HETATM    7  F   UNL     1      -6.615  -0.196 -31.721  1.00  0.00    -0.190 F 
BRANCH   5   8
HETATM    8  C   UNL     1      -6.306  -1.519 -33.717  1.00  0.00     0.056 A 
HETATM    9  C   UNL     1      -4.924  -1.716 -33.827  1.00  0.00     0.081 A 
HETATM   10  C   UNL     1      -4.414  -2.885 -34.402  1.00  0.00     0.037 A 
HETATM   11  C   UNL     1      -5.278  -3.848 -34.918  1.00  0.00     0.003 A 
HETATM   12  C   UNL     1      -6.654  -3.653 -34.851  1.00  0.00     0.001 A 
HETATM   13  C   UNL     1      -7.165  -2.499 -34.253  1.00  0.00     0.017 A 
BRANCH   9  14
HETATM   14  O   UNL     1      -4.064  -0.801 -33.286  1.00  0.00    -0.351 OA
BRANCH  14  15
HETATM   15  C   UNL     1      -3.451  -1.269 -32.076  1.00  0.00     0.171 C 
HETATM   16  C   UNL     1      -3.137  -0.088 -31.176  1.00  0.00     0.034 C 
ENDBRANCH  14  15
ENDBRANCH   9  14
ENDBRANCH   5   8
ENDBRANCH   1   5
BRANCH   2  17
HETATM   17  C   UNL     1      -5.093   3.080 -33.277  1.00  0.00     0.053 A 
HETATM   18  C   UNL     1      -5.576   4.006 -34.208  1.00  0.00     0.148 A 
HETATM   19  N   UNL     1      -4.972   5.173 -34.565  1.00  0.00    -0.239 NA
HETATM   20  C   UNL     1      -3.816   5.379 -33.910  1.00  0.00     0.156 A 
HETATM   21  C   UNL     1      -3.225   4.562 -32.962  1.00  0.00     0.039 A 
HETATM   22  N   UNL     1      -2.983   6.449 -34.053  1.00  0.00    -0.260 N 
HETATM   23  C   UNL     1      -3.881   3.364 -32.633  1.00  0.00     0.048 A 
HETATM   24  C   UNL     1      -2.042   5.251 -32.586  1.00  0.00     0.065 A 
HETATM   25  N   UNL     1      -1.896   6.405 -33.255  1.00  0.00    -0.177 NA
HETATM   26  C   UNL     1      -1.034   4.839 -31.578  1.00  0.00     0.073 C 
HETATM   27  H   UNL     1      -3.110   7.235 -34.676  1.00  0.00     0.191 HD
ENDBRANCH   2  17
TORSDOF 5
ENDMDL
MODEL 2
REMARK VINA RESULT:      -8.4      3.906      6.205
REMARK  5 active torsions:
REMARK  status: ('A' for Active; 'I' for Inactive)
REMARK    1  A    between atoms: C_2  and  O_3 
REMARK    2  A    between atoms: O_3  and  C_4 
REMARK    3  A    between atoms: C_5  and  C_6 
REMARK    4  A    between atoms: C_6  and  C_9 
REMARK       I    between atoms: C_9  and  N_10 
REMARK    5  A    between atoms: N_10  and  C_11 
ROOT
HETATM    1  C   UNL     1      -7.352   0.261 -34.363  1.00  0.00     0.300 C 
HETATM    2  N   UNL     1      -8.354   0.675 -33.483  1.00  0.00    -0.320 N 
HETATM    3  O   UNL     1      -7.424   0.354 -35.587  1.00  0.00    -0.266 OA
HETATM    4  H   UNL     1      -8.168   0.497 -32.499  1.00  0.00     0.169 HD
ENDROOT
BRANCH   1   5
HETATM    5  C   UNL     1      -6.120  -0.326 -33.602  1.00  0.00     0.352 C 
HETATM    6  F   UNL     1      -6.374  -0.245 -32.244  1.00  0.00    -0.190 F 
HETATM    7  F   UNL     1      -5.032   0.490 -33.765  1.00  0.00    -0.190 F 
BRANCH   5   8
HETATM    8  C   UNL     1      -5.864  -1.765 -34.005  1.00  0.00     0.056 A 
HETATM    9  C   UNL     1      -4.591  -2.344 -33.929  1.00  0.00     0.081 A 
HETATM   10  C   UNL     1      -4.397  -3.687 -34.267  1.00  0.00     0.037 A 
HETATM   11  C   UNL     1      -5.464  -4.455 -34.731  1.00  0.00     0.003 A 
HETATM   12  C   UNL     1      -6.728  -3.886 -34.847  1.00  0.00     0.001 A 
HETATM   13  C   UNL     1      -6.928  -2.553 -34.485  1.00  0.00     0.017 A 
BRANCH   9  14
HETATM   14  O   UNL     1      -3.545  -1.617 -33.434  1.00  0.00    -0.351 OA
BRANCH  14  15
HETATM   15  C   UNL     1      -3.333  -1.838 -32.032  1.00  0.00     0.171 C 
HETATM   16  C   UNL     1      -3.017  -0.519 -31.351  1.00  0.00     0.034 C 
ENDBRANCH  14  15
ENDBRANCH   9  14
ENDBRANCH   5   8
ENDBRANCH   1   5
BRANCH   2  17
HETATM   17  C   UNL     1      -9.567   1.320 -33.800  1.00  0.00     0.053 A 
HETATM   18  C   UNL     1      -9.679   2.640 -34.249  1.00  0.00     0.148 A 
HETATM   19  N   UNL     1     -10.839   3.294 -34.534  1.00  0.00    -0.239 NA
HETATM   20  C   UNL     1     -11.926   2.525 -34.345  1.00  0.00     0.156 A 
HETATM   21  C   UNL     1     -11.967   1.210 -33.917  1.00  0.00     0.039 A 
HETATM   22  N   UNL     1     -13.223   2.896 -34.539  1.00  0.00    -0.260 N 
HETATM   23  C   UNL     1     -10.744   0.581 -33.627  1.00  0.00     0.048 A 
HETATM   24  C   UNL     1     -13.348   0.881 -33.907  1.00  0.00     0.065 A 
HETATM   25  N   UNL     1     -14.115   1.914 -34.288  1.00  0.00    -0.177 NA
HETATM   26  C   UNL     1     -13.968  -0.419 -33.551  1.00  0.00     0.073 C 
HETATM   27  H   UNL     1     -13.555   3.802 -34.844  1.00  0.00     0.191 HD
ENDBRANCH   2  17
TORSDOF 5
ENDMDL
MODEL 3
REMARK VINA RESULT:      -8.1      1.821      2.934
REMARK  5 active torsions:
REMARK  status: ('A' for Active; 'I' for Inactive)
REMARK    1  A    between atoms: C_2  and  O_3 
REMARK    2  A    between atoms: O_3  and  C_4 
REMARK    3  A    between atoms: C_5  and  C_6 
REMARK    4  A    between atoms: C_6  and  C_9 
REMARK       I    between atoms: C_9  and  N_10 
REMARK    5  A    between atoms: N_10  and  C_11 
ROOT
HETATM    1  C   UNL     1      -5.095   1.976 -31.607  1.00  0.00     0.300 C 
HETATM    2  N   UNL     1      -3.886   2.354 -32.197  1.00  0.00    -0.320 N 
HETATM    3  O   UNL     1      -6.056   2.728 -31.457  1.00  0.00    -0.266 OA
HETATM    4  H   UNL     1      -3.168   1.633 -32.215  1.00  0.00     0.169 HD
ENDROOT
BRANCH   1   5
HETATM    5  C   UNL     1      -5.081   0.476 -31.170  1.00  0.00     0.352 C 
HETATM    6  F   UNL     1      -6.055   0.300 -30.203  1.00  0.00    -0.190 F 
HETATM    7  F   UNL     1      -3.921   0.190 -30.501  1.00  0.00    -0.190 F 
BRANCH   5   8
HETATM    8  C   UNL     1      -5.341  -0.439 -32.351  1.00  0.00     0.056 A 
HETATM    9  C   UNL     1      -6.620  -0.604 -32.896  1.00  0.00     0.081 A 
HETATM   10  C   UNL     1      -6.818  -1.422 -34.013  1.00  0.00     0.037 A 
HETATM   11  C   UNL     1      -5.750  -2.122 -34.568  1.00  0.00     0.003 A 
HETATM   12  C   UNL     1      -4.478  -1.999 -34.017  1.00  0.00     0.001 A 
HETATM   13  C   UNL     1      -4.274  -1.162 -32.918  1.00  0.00     0.017 A 
BRANCH   9  14
HETATM   14  O   UNL     1      -7.670   0.111 -32.391  1.00  0.00    -0.351 OA
BRANCH  14  15
HETATM   15  C   UNL     1      -8.696   0.348 -33.365  1.00  0.00     0.171 C 
HETATM   16  C   UNL     1     -10.048  -0.014 -32.778  1.00  0.00     0.034 C 
ENDBRANCH  14  15
ENDBRANCH   9  14
ENDBRANCH   5   8
ENDBRANCH   1   5
BRANCH   2  17
HETATM   17  C   UNL     1      -3.562   3.596 -32.779  1.00  0.00     0.053 A 
HETATM   18  C   UNL     1      -4.267   4.200 -33.826  1.00  0.00     0.148 A 
HETATM   19  N   UNL     1      -3.958   5.384 -34.424  1.00  0.00    -0.239 NA
HETATM   20  C   UNL     1      -2.866   5.961 -33.893  1.00  0.00     0.156 A 
HETATM   21  C   UNL     1      -2.080   5.489 -32.857  1.00  0.00     0.039 A 
HETATM   22  N   UNL     1      -2.306   7.142 -34.279  1.00  0.00    -0.260 N 
HETATM   23  C   UNL     1      -2.434   4.258 -32.277  1.00  0.00     0.048 A 
HETATM   24  C   UNL     1      -1.079   6.482 -32.687  1.00  0.00     0.065 A 
HETATM   25  N   UNL     1      -1.220   7.493 -33.559  1.00  0.00    -0.177 NA
HETATM   26  C   UNL     1       0.020   6.502 -31.690  1.00  0.00     0.073 C 
HETATM   27  H   UNL     1      -2.626   7.750 -35.022  1.00  0.00     0.191 HD
ENDBRANCH   2  17
TORSDOF 5
ENDMDL
MODEL 4
REMARK VINA RESULT:      -8.0      1.930      2.740
REMARK  5 active torsions:
REMARK  status: ('A' for Active; 'I' for Inactive)
REMARK    1  A    between atoms: C_2  and  O_3 
REMARK    2  A    between atoms: O_3  and  C_4 
REMARK    3  A    between atoms: C_5  and  C_6 
REMARK    4  A    between atoms: C_6  and  C_9 
REMARK       I    between atoms: C_9  and  N_10 
REMARK    5  A    between atoms: N_10  and  C_11 
ROOT
HETATM    1  C   UNL     1      -5.087   2.538 -31.016  1.00  0.00     0.300 C 
HETATM    2  N   UNL     1      -4.222   2.656 -32.106  1.00  0.00    -0.320 N 
HETATM    3  O   UNL     1      -5.538   3.492 -30.385  1.00  0.00    -0.266 OA
HETATM    4  H   UNL     1      -3.901   1.774 -32.502  1.00  0.00     0.169 HD
ENDROOT
BRANCH   1   5
HETATM    5  C   UNL     1      -5.422   1.045 -30.701  1.00  0.00     0.352 C 
HETATM    6  F   UNL     1      -6.066   0.996 -29.477  1.00  0.00    -0.190 F 
HETATM    7  F   UNL     1      -4.270   0.340 -30.477  1.00  0.00    -0.190 F 
BRANCH   5   8
HETATM    8  C   UNL     1      -6.300   0.443 -31.781  1.00  0.00     0.056 A 
HETATM    9  C   UNL     1      -5.765  -0.246 -32.876  1.00  0.00     0.081 A 
HETATM   10  C   UNL     1      -6.605  -0.828 -33.832  1.00  0.00     0.037 A 
HETATM   11  C   UNL     1      -7.987  -0.684 -33.732  1.00  0.00     0.003 A 
HETATM   12  C   UNL     1      -8.535   0.030 -32.670  1.00  0.00     0.001 A 
HETATM   13  C   UNL     1      -7.699   0.587 -31.701  1.00  0.00     0.017 A 
BRANCH   9  14
HETATM   14  O   UNL     1      -4.414  -0.434 -32.965  1.00  0.00    -0.351 OA
BRANCH  14  15
HETATM   15  C   UNL     1      -4.064  -1.788 -33.284  1.00  0.00     0.171 C 
HETATM   16  C   UNL     1      -3.324  -2.411 -32.114  1.00  0.00     0.034 C 
ENDBRANCH  14  15
ENDBRANCH   9  14
ENDBRANCH   5   8
ENDBRANCH   1   5
BRANCH   2  17
HETATM   17  C   UNL     1      -3.768   3.839 -32.723  1.00  0.00     0.053 A 
HETATM   18  C   UNL     1      -4.379   4.459 -33.818  1.00  0.00     0.148 A 
HETATM   19  N   UNL     1      -3.943   5.585 -34.448  1.00  0.00    -0.239 NA
HETATM   20  C   UNL     1      -2.823   6.084 -33.898  1.00  0.00     0.156 A 
HETATM   21  C   UNL     1      -2.119   5.587 -32.816  1.00  0.00     0.039 A 
HETATM   22  N   UNL     1      -2.146   7.194 -34.308  1.00  0.00    -0.260 N 
HETATM   23  C   UNL     1      -2.602   4.418 -32.204  1.00  0.00     0.048 A 
HETATM   24  C   UNL     1      -1.039   6.494 -32.646  1.00  0.00     0.065 A 
HETATM   25  N   UNL     1      -1.058   7.476 -33.560  1.00  0.00    -0.177 NA
HETATM   26  C   UNL     1       0.022   6.457 -31.610  1.00  0.00     0.073 C 
HETATM   27  H   UNL     1      -2.384   7.796 -35.085  1.00  0.00     0.191 HD
ENDBRANCH   2  17
TORSDOF 5
ENDMDL
MODEL 5
REMARK VINA RESULT:      -8.0      1.814      2.082
REMARK  5 active torsions:
REMARK  status: ('A' for Active; 'I' for Inactive)
REMARK    1  A    between atoms: C_2  and  O_3 
REMARK    2  A    between atoms: O_3  and  C_4 
REMARK    3  A    between atoms: C_5  and  C_6 
REMARK    4  A    between atoms: C_6  and  C_9 
REMARK       I    between atoms: C_9  and  N_10 
REMARK    5  A    between atoms: N_10  and  C_11 
ROOT
HETATM    1  C   UNL     1      -6.599   0.262 -33.077  1.00  0.00     0.300 C 
HETATM    2  N   UNL     1      -5.926   1.449 -33.378  1.00  0.00    -0.320 N 
HETATM    3  O   UNL     1      -6.905  -0.091 -31.939  1.00  0.00    -0.266 OA
HETATM    4  H   UNL     1      -5.706   1.585 -34.362  1.00  0.00     0.169 HD
ENDROOT
BRANCH   1   5
HETATM    5  C   UNL     1      -6.925  -0.561 -34.364  1.00  0.00     0.352 C 
HETATM    6  F   UNL     1      -6.556   0.194 -35.463  1.00  0.00    -0.190 F 
HETATM    7  F   UNL     1      -8.281  -0.687 -34.513  1.00  0.00    -0.190 F 
BRANCH   5   8
HETATM    8  C   UNL     1      -6.189  -1.887 -34.366  1.00  0.00     0.056 A 
HETATM    9  C   UNL     1      -4.834  -1.986 -34.028  1.00  0.00     0.081 A 
HETATM   10  C   UNL     1      -4.196  -3.230 -33.998  1.00  0.00     0.037 A 
HETATM   11  C   UNL     1      -4.891  -4.384 -34.352  1.00  0.00     0.003 A 
HETATM   12  C   UNL     1      -6.229  -4.300 -34.726  1.00  0.00     0.001 A 
HETATM   13  C   UNL     1      -6.874  -3.062 -34.731  1.00  0.00     0.017 A 
BRANCH   9  14
HETATM   14  O   UNL     1      -4.150  -0.869 -33.636  1.00  0.00    -0.351 OA
BRANCH  14  15
HETATM   15  C   UNL     1      -3.138  -1.156 -32.660  1.00  0.00     0.171 C 
HETATM   16  C   UNL     1      -3.450  -0.420 -31.371  1.00  0.00     0.034 C 
ENDBRANCH  14  15
ENDBRANCH   9  14
ENDBRANCH   5   8
ENDBRANCH   1   5
BRANCH   2  17
HETATM   17  C   UNL     1      -5.543   2.472 -32.488  1.00  0.00     0.053 A 
HETATM   18  C   UNL     1      -6.338   2.973 -31.452  1.00  0.00     0.148 A 
HETATM   19  N   UNL     1      -6.002   3.980 -30.598  1.00  0.00    -0.239 NA
HETATM   20  C   UNL     1      -4.776   4.474 -30.839  1.00  0.00     0.156 A 
HETATM   21  C   UNL     1      -3.880   4.074 -31.815  1.00  0.00     0.039 A 
HETATM   22  N   UNL     1      -4.163   5.485 -30.160  1.00  0.00    -0.260 N 
HETATM   23  C   UNL     1      -4.275   3.038 -32.678  1.00  0.00     0.048 A 
HETATM   24  C   UNL     1      -2.745   4.904 -31.618  1.00  0.00     0.065 A 
HETATM   25  N   UNL     1      -2.921   5.767 -30.606  1.00  0.00    -0.177 NA
HETATM   26  C   UNL     1      -1.469   4.889 -32.375  1.00  0.00     0.073 C 
HETATM   27  H   UNL     1      -4.544   6.013 -29.386  1.00  0.00     0.191 HD
ENDBRANCH   2  17
TORSDOF 5
ENDMDL
MODEL 6
REMARK VINA RESULT:      -8.0      3.629      5.475
REMARK  5 active torsions:
REMARK  status: ('A' for Active; 'I' for Inactive)
REMARK    1  A    between atoms: C_2  and  O_3 
REMARK    2  A    between atoms: O_3  and  C_4 
REMARK    3  A    between atoms: C_5  and  C_6 
REMARK    4  A    between atoms: C_6  and  C_9 
REMARK       I    between atoms: C_9  and  N_10 
REMARK    5  A    between atoms: N_10  and  C_11 
ROOT
HETATM    1  C   UNL     1      -5.505   0.131 -31.314  1.00  0.00     0.300 C 
HETATM    2  N   UNL     1      -5.935   1.381 -31.766  1.00  0.00    -0.320 N 
HETATM    3  O   UNL     1      -6.177  -0.617 -30.607  1.00  0.00    -0.266 OA
HETATM    4  H   UNL     1      -5.251   1.903 -32.310  1.00  0.00     0.169 HD
ENDROOT
BRANCH   1   5
HETATM    5  C   UNL     1      -4.069  -0.207 -31.826  1.00  0.00     0.352 C 
HETATM    6  F   UNL     1      -3.214  -0.218 -30.738  1.00  0.00    -0.190 F 
HETATM    7  F   UNL     1      -3.586   0.820 -32.592  1.00  0.00    -0.190 F 
BRANCH   5   8
HETATM    8  C   UNL     1      -4.042  -1.551 -32.529  1.00  0.00     0.056 A 
HETATM    9  C   UNL     1      -4.770  -1.792 -33.700  1.00  0.00     0.081 A 
HETATM   10  C   UNL     1      -4.689  -3.030 -34.348  1.00  0.00     0.037 A 
HETATM   11  C   UNL     1      -3.918  -4.056 -33.806  1.00  0.00     0.003 A 
HETATM   12  C   UNL     1      -3.217  -3.846 -32.622  1.00  0.00     0.001 A 
HETATM   13  C   UNL     1      -3.276  -2.603 -31.990  1.00  0.00     0.017 A 
BRANCH   9  14
HETATM   14  O   UNL     1      -5.494  -0.782 -34.268  1.00  0.00    -0.351 OA
BRANCH  14  15
HETATM   15  C   UNL     1      -6.787  -1.214 -34.717  1.00  0.00     0.171 C 
HETATM   16  C   UNL     1      -7.506  -0.058 -35.386  1.00  0.00     0.034 C 
ENDBRANCH  14  15
ENDBRANCH   9  14
ENDBRANCH   5   8
ENDBRANCH   1   5
BRANCH   2  17
HETATM   17  C   UNL     1      -7.195   1.981 -31.572  1.00  0.00     0.053 A 
HETATM   18  C   UNL     1      -7.553   2.757 -30.464  1.00  0.00     0.148 A 
HETATM   19  N   UNL     1      -8.771   3.323 -30.241  1.00  0.00    -0.239 NA
HETATM   20  C   UNL     1      -9.648   3.069 -31.229  1.00  0.00     0.156 A 
HETATM   21  C   UNL     1      -9.433   2.332 -32.380  1.00  0.00     0.039 A 
HETATM   22  N   UNL     1     -10.942   3.492 -31.290  1.00  0.00    -0.260 N 
HETATM   23  C   UNL     1      -8.163   1.760 -32.561  1.00  0.00     0.048 A 
HETATM   24  C   UNL     1     -10.669   2.393 -33.077  1.00  0.00     0.065 A 
HETATM   25  N   UNL     1     -11.591   3.102 -32.408  1.00  0.00    -0.177 NA
HETATM   26  C   UNL     1     -10.998   1.792 -34.394  1.00  0.00     0.073 C 
HETATM   27  H   UNL     1     -11.431   4.049 -30.602  1.00  0.00     0.191 HD
ENDBRANCH   2  17
TORSDOF 5
ENDMDL
MODEL 7
REMARK VINA RESULT:      -7.9      5.040      8.011
REMARK  5 active torsions:
REMARK  status: ('A' for Active; 'I' for Inactive)
REMARK    1  A    between atoms: C_2  and  O_3 
REMARK    2  A    between atoms: O_3  and  C_4 
REMARK    3  A    between atoms: C_5  and  C_6 
REMARK    4  A    between atoms: C_6  and  C_9 
REMARK       I    between atoms: C_9  and  N_10 
REMARK    5  A    between atoms: N_10  and  C_11 
ROOT
HETATM    1  C   UNL     1     -10.147   1.252 -34.034  1.00  0.00     0.300 C 
HETATM    2  N   UNL     1      -8.919   1.336 -34.695  1.00  0.00    -0.320 N 
HETATM    3  O   UNL     1     -10.371   0.507 -33.082  1.00  0.00    -0.266 OA
HETATM    4  H   UNL     1      -8.898   1.969 -35.491  1.00  0.00     0.169 HD
ENDROOT
BRANCH   1   5
HETATM    5  C   UNL     1     -11.201   2.231 -34.645  1.00  0.00     0.352 C 
HETATM    6  F   UNL     1     -11.886   1.559 -35.642  1.00  0.00    -0.190 F 
HETATM    7  F   UNL     1     -10.571   3.240 -35.323  1.00  0.00    -0.190 F 
BRANCH   5   8
HETATM    8  C   UNL     1     -12.167   2.724 -33.585  1.00  0.00     0.056 A 
HETATM    9  C   UNL     1     -13.531   2.409 -33.617  1.00  0.00     0.081 A 
HETATM   10  C   UNL     1     -14.387   2.844 -32.599  1.00  0.00     0.037 A 
HETATM   11  C   UNL     1     -13.900   3.640 -31.565  1.00  0.00     0.003 A 
HETATM   12  C   UNL     1     -12.554   3.994 -31.537  1.00  0.00     0.001 A 
HETATM   13  C   UNL     1     -11.693   3.538 -32.537  1.00  0.00     0.017 A 
BRANCH   9  14
HETATM   14  O   UNL     1     -14.015   1.592 -34.600  1.00  0.00    -0.351 OA
BRANCH  14  15
HETATM   15  C   UNL     1     -14.690   0.439 -34.078  1.00  0.00     0.171 C 
HETATM   16  C   UNL     1     -13.669  -0.599 -33.651  1.00  0.00     0.034 C 
ENDBRANCH  14  15
ENDBRANCH   9  14
ENDBRANCH   5   8
ENDBRANCH   1   5
BRANCH   2  17
HETATM   17  C   UNL     1      -7.721   0.667 -34.375  1.00  0.00     0.053 A 
HETATM   18  C   UNL     1      -6.612   1.257 -33.759  1.00  0.00     0.148 A 
HETATM   19  N   UNL     1      -5.434   0.640 -33.466  1.00  0.00    -0.239 NA
HETATM   20  C   UNL     1      -5.425  -0.654 -33.829  1.00  0.00     0.156 A 
HETATM   21  C   UNL     1      -6.443  -1.370 -34.434  1.00  0.00     0.039 A 
HETATM   22  N   UNL     1      -4.392  -1.530 -33.674  1.00  0.00    -0.260 N 
HETATM   23  C   UNL     1      -7.636  -0.688 -34.725  1.00  0.00     0.048 A 
HETATM   24  C   UNL     1      -5.918  -2.681 -34.580  1.00  0.00     0.065 A 
HETATM   25  N   UNL     1      -4.663  -2.777 -34.115  1.00  0.00    -0.177 NA
HETATM   26  C   UNL     1      -6.597  -3.871 -35.151  1.00  0.00     0.073 C 
HETATM   27  H   UNL     1      -3.485  -1.333 -33.271  1.00  0.00     0.191 HD
ENDBRANCH   2  17
TORSDOF 5
ENDMDL
MODEL 8
REMARK VINA RESULT:      -7.8      5.034      7.656
REMARK  5 active torsions:
REMARK  status: ('A' for Active; 'I' for Inactive)
REMARK    1  A    between atoms: C_2  and  O_3 
REMARK    2  A    between atoms: O_3  and  C_4 
REMARK    3  A    between atoms: C_5  and  C_6 
REMARK    4  A    between atoms: C_6  and  C_9 
REMARK       I    between atoms: C_9  and  N_10 
REMARK    5  A    between atoms: N_10  and  C_11 
ROOT
HETATM    1  C   UNL     1     -10.563   1.189 -34.095  1.00  0.00     0.300 C 
HETATM    2  N   UNL     1      -9.354   1.386 -34.767  1.00  0.00    -0.320 N 
HETATM    3  O   UNL     1     -10.698   0.466 -33.111  1.00  0.00    -0.266 OA
HETATM    4  H   UNL     1      -9.407   1.982 -35.590  1.00  0.00     0.169 HD
ENDROOT
BRANCH   1   5
HETATM    5  C   UNL     1     -11.724   2.011 -34.741  1.00  0.00     0.352 C 
HETATM    6  F   UNL     1     -12.168   1.326 -35.858  1.00  0.00    -0.190 F 
HETATM    7  F   UNL     1     -11.240   3.181 -35.265  1.00  0.00    -0.190 F 
BRANCH   5   8
HETATM    8  C   UNL     1     -12.863   2.212 -33.760  1.00  0.00     0.056 A 
HETATM    9  C   UNL     1     -12.810   3.176 -32.746  1.00  0.00     0.081 A 
HETATM   10  C   UNL     1     -13.895   3.366 -31.885  1.00  0.00     0.037 A 
HETATM   11  C   UNL     1     -15.027   2.561 -31.996  1.00  0.00     0.003 A 
HETATM   12  C   UNL     1     -15.083   1.573 -32.974  1.00  0.00     0.001 A 
HETATM   13  C   UNL     1     -14.011   1.401 -33.852  1.00  0.00     0.017 A 
BRANCH   9  14
HETATM   14  O   UNL     1     -11.725   4.002 -32.653  1.00  0.00    -0.351 OA
BRANCH  14  15
HETATM   15  C   UNL     1     -10.961   3.778 -31.459  1.00  0.00     0.171 C 
HETATM   16  C   UNL     1     -10.293   5.072 -31.032  1.00  0.00     0.034 C 
ENDBRANCH  14  15
ENDBRANCH   9  14
ENDBRANCH   5   8
ENDBRANCH   1   5
BRANCH   2  17
HETATM   17  C   UNL     1      -8.085   0.875 -34.425  1.00  0.00     0.053 A 
HETATM   18  C   UNL     1      -7.050   1.618 -33.849  1.00  0.00     0.148 A 
HETATM   19  N   UNL     1      -5.808   1.155 -33.537  1.00  0.00    -0.239 NA
HETATM   20  C   UNL     1      -5.651  -0.146 -33.837  1.00  0.00     0.156 A 
HETATM   21  C   UNL     1      -6.583  -1.003 -34.396  1.00  0.00     0.039 A 
HETATM   22  N   UNL     1      -4.524  -0.890 -33.647  1.00  0.00    -0.260 N 
HETATM   23  C   UNL     1      -7.847  -0.477 -34.709  1.00  0.00     0.048 A 
HETATM   24  C   UNL     1      -5.912  -2.252 -34.482  1.00  0.00     0.065 A 
HETATM   25  N   UNL     1      -4.653  -2.180 -34.024  1.00  0.00    -0.177 NA
HETATM   26  C   UNL     1      -6.452  -3.538 -34.986  1.00  0.00     0.073 C 
HETATM   27  H   UNL     1      -3.645  -0.570 -33.263  1.00  0.00     0.191 HD
ENDBRANCH   2  17
TORSDOF 5
ENDMDL
MODEL 9
REMARK VINA RESULT:      -7.8      4.617      7.671
REMARK  5 active torsions:
REMARK  status: ('A' for Active; 'I' for Inactive)
REMARK    1  A    between atoms: C_2  and  O_3 
REMARK    2  A    between atoms: O_3  and  C_4 
REMARK    3  A    between atoms: C_5  and  C_6 
REMARK    4  A    between atoms: C_6  and  C_9 
REMARK       I    between atoms: C_9  and  N_10 
REMARK    5  A    between atoms: N_10  and  C_11 
ROOT
HETATM    1  C   UNL     1      -9.264   1.130 -32.932  1.00  0.00     0.300 C 
HETATM    2  N   UNL     1      -8.325   0.869 -33.934  1.00  0.00    -0.320 N 
HETATM    3  O   UNL     1      -9.254   0.603 -31.821  1.00  0.00    -0.266 OA
HETATM    4  H   UNL     1      -8.487   1.352 -34.815  1.00  0.00     0.169 HD
ENDROOT
BRANCH   1   5
HETATM    5  C   UNL     1     -10.322   2.183 -33.391  1.00  0.00     0.352 C 
HETATM    6  F   UNL     1      -9.905   2.716 -34.597  1.00  0.00    -0.190 F 
HETATM    7  F   UNL     1     -10.308   3.264 -32.550  1.00  0.00    -0.190 F 
BRANCH   5   8
HETATM    8  C   UNL     1     -11.692   1.550 -33.541  1.00  0.00     0.056 A 
HETATM    9  C   UNL     1     -12.849   2.317 -33.727  1.00  0.00     0.081 A 
HETATM   10  C   UNL     1     -14.092   1.700 -33.906  1.00  0.00     0.037 A 
HETATM   11  C   UNL     1     -14.200   0.312 -33.852  1.00  0.00     0.003 A 
HETATM   12  C   UNL     1     -13.067  -0.464 -33.632  1.00  0.00     0.001 A 
HETATM   13  C   UNL     1     -11.822   0.149 -33.480  1.00  0.00     0.017 A 
BRANCH   9  14
HETATM   14  O   UNL     1     -12.753   3.677 -33.826  1.00  0.00    -0.351 OA
BRANCH  14  15
HETATM   15  C   UNL     1     -12.782   4.135 -35.185  1.00  0.00     0.171 C 
HETATM   16  C   UNL     1     -11.912   5.370 -35.325  1.00  0.00     0.034 C 
ENDBRANCH  14  15
ENDBRANCH   9  14
ENDBRANCH   5   8
ENDBRANCH   1   5
BRANCH   2  17
HETATM   17  C   UNL     1      -7.187   0.042 -33.854  1.00  0.00     0.053 A 
HETATM   18  C   UNL     1      -5.957   0.420 -33.307  1.00  0.00     0.148 A 
HETATM   19  N   UNL     1      -4.836  -0.351 -33.245  1.00  0.00    -0.239 NA
HETATM   20  C   UNL     1      -5.019  -1.573 -33.774  1.00  0.00     0.156 A 
HETATM   21  C   UNL     1      -6.174  -2.085 -34.338  1.00  0.00     0.039 A 
HETATM   22  N   UNL     1      -4.087  -2.564 -33.863  1.00  0.00    -0.260 N 
HETATM   23  C   UNL     1      -7.302  -1.250 -34.387  1.00  0.00     0.048 A 
HETATM   24  C   UNL     1      -5.827  -3.409 -34.719  1.00  0.00     0.065 A 
HETATM   25  N   UNL     1      -4.550  -3.699 -34.428  1.00  0.00    -0.177 NA
HETATM   26  C   UNL     1      -6.700  -4.428 -35.353  1.00  0.00     0.073 C 
HETATM   27  H   UNL     1      -3.125  -2.521 -33.553  1.00  0.00     0.191 HD
ENDBRANCH   2  17
TORSDOF 5
ENDMDL
MODEL 10
REMARK VINA RESULT:      -7.8      4.906      7.066
REMARK  5 active torsions:
REMARK  status: ('A' for Active; 'I' for Inactive)
REMARK    1  A    between atoms: C_2  and  O_3 
REMARK    2  A    between atoms: O_3  and  C_4 
REMARK    3  A    between atoms: C_5  and  C_6 
REMARK    4  A    between atoms: C_6  and  C_9 
REMARK       I    between atoms: C_9  and  N_10 
REMARK    5  A    between atoms: N_10  and  C_11 
ROOT
HETATM    1  C   UNL     1      -8.726   0.770 -34.065  1.00  0.00     0.300 C 
HETATM    2  N   UNL     1      -9.581   1.746 -34.583  1.00  0.00    -0.320 N 
HETATM    3  O   UNL     1      -9.061  -0.077 -33.240  1.00  0.00    -0.266 OA
HETATM    4  H   UNL     1      -9.149   2.403 -35.229  1.00  0.00     0.169 HD
ENDROOT
BRANCH   1   5
HETATM    5  C   UNL     1      -7.291   0.877 -34.673  1.00  0.00     0.352 C 
HETATM    6  F   UNL     1      -7.011   2.216 -34.883  1.00  0.00    -0.190 F 
HETATM    7  F   UNL     1      -7.273   0.352 -35.938  1.00  0.00    -0.190 F 
BRANCH   5   8
HETATM    8  C   UNL     1      -6.258   0.263 -33.748  1.00  0.00     0.056 A 
HETATM    9  C   UNL     1      -5.950  -1.102 -33.779  1.00  0.00     0.081 A 
HETATM   10  C   UNL     1      -4.961  -1.630 -32.942  1.00  0.00     0.037 A 
HETATM   11  C   UNL     1      -4.303  -0.808 -32.030  1.00  0.00     0.003 A 
HETATM   12  C   UNL     1      -4.623   0.545 -31.959  1.00  0.00     0.001 A 
HETATM   13  C   UNL     1      -5.590   1.078 -32.813  1.00  0.00     0.017 A 
BRANCH   9  14
HETATM   14  O   UNL     1      -6.555  -1.913 -34.699  1.00  0.00    -0.351 OA
BRANCH  14  15
HETATM   15  C   UNL     1      -5.753  -3.052 -35.043  1.00  0.00     0.171 C 
HETATM   16  C   UNL     1      -6.630  -4.288 -35.115  1.00  0.00     0.034 C 
ENDBRANCH  14  15
ENDBRANCH   9  14
ENDBRANCH   5   8
ENDBRANCH   1   5
BRANCH   2  17
HETATM   17  C   UNL     1     -10.958   1.907 -34.330  1.00  0.00     0.053 A 
HETATM   18  C   UNL     1     -11.986   1.421 -35.145  1.00  0.00     0.148 A 
HETATM   19  N   UNL     1     -13.322   1.588 -34.937  1.00  0.00    -0.239 NA
HETATM   20  C   UNL     1     -13.587   2.289 -33.821  1.00  0.00     0.156 A 
HETATM   21  C   UNL     1     -12.681   2.819 -32.920  1.00  0.00     0.039 A 
HETATM   22  N   UNL     1     -14.822   2.623 -33.350  1.00  0.00    -0.260 N 
HETATM   23  C   UNL     1     -11.313   2.629 -33.182  1.00  0.00     0.048 A 
HETATM   24  C   UNL     1     -13.485   3.440 -31.928  1.00  0.00     0.065 A 
HETATM   25  N   UNL     1     -14.795   3.318 -32.194  1.00  0.00    -0.177 NA
HETATM   26  C   UNL     1     -13.032   4.147 -30.705  1.00  0.00     0.073 C 
HETATM   27  H   UNL     1     -15.713   2.399 -33.774  1.00  0.00     0.191 HD
ENDBRANCH   2  17
TORSDOF 5
ENDMDL
