MODEL 1
REMARK VINA RESULT:      -8.7      0.000      0.000
REMARK  4 active torsions:
REMARK  status: ('A' for Active; 'I' for Inactive)
REMARK    1  A    between atoms: C_8  and  C_9 
REMARK       I    between atoms: C_9  and  N_10 
REMARK    2  A    between atoms: N_10  and  C_11 
REMARK    3  A    between atoms: C_13  and  C_14 
REMARK       I    between atoms: C_14  and  N_15 
REMARK    4  A    between atoms: N_15  and  C_16 
ROOT
HETATM    1  C   UNL     1     -11.210   1.279 -33.760  1.00  0.00     0.277 C 
HETATM    2  N   UNL     1     -10.554   0.560 -32.776  1.00  0.00    -0.322 N 
HETATM    3  O   UNL     1     -10.680   1.996 -34.604  1.00  0.00    -0.266 OA
HETATM    4  H   UNL     1     -11.189   0.074 -32.145  1.00  0.00     0.169 HD
ENDROOT
BRANCH   2   5
HETATM    5  C   UNL     1      -9.172   0.445 -32.551  1.00  0.00     0.036 A 
HETATM    6  C   UNL     1      -8.335  -0.388 -33.299  1.00  0.00     0.046 A 
HETATM    7  C   UNL     1      -6.962  -0.448 -33.022  1.00  0.00     0.034 A 
HETATM    8  C   UNL     1      -6.432   0.305 -31.969  1.00  0.00     0.017 A 
HETATM    9  C   UNL     1      -7.263   1.130 -31.213  1.00  0.00     0.003 A 
HETATM   10  C   UNL     1      -8.627   1.199 -31.505  1.00  0.00     0.029 A 
BRANCH   7  11
HETATM   11  C   UNL     1      -6.042  -1.332 -33.794  1.00  0.00     0.252 C 
HETATM   12  N   UNL     1      -6.626  -2.394 -34.459  1.00  0.00    -0.352 N 
HETATM   13  H   UNL     1      -7.635  -2.478 -34.481  1.00  0.00     0.163 HD
HETATM   14  O   UNL     1      -4.843  -1.077 -33.832  1.00  0.00    -0.268 OA
BRANCH  12  15
HETATM   15  C   UNL     1      -5.862  -3.347 -35.200  1.00  0.00     0.084 A 
HETATM   16  C   UNL     1      -5.351  -4.589 -34.526  1.00  0.00     0.027 A 
HETATM   17  C   UNL     1      -6.442  -4.689 -35.550  1.00  0.00     0.027 A 
ENDBRANCH  12  15
ENDBRANCH   7  11
ENDBRANCH   2   5
BRANCH   1  18
HETATM   18  C   UNL     1     -12.672   1.104 -33.681  1.00  0.00     0.157 A 
HETATM   19  C   UNL     1     -13.617   1.969 -33.057  1.00  0.00     0.028 A 
HETATM   20  C   UNL     1     -13.567   3.183 -32.343  1.00  0.00     0.016 A 
HETATM   21  C   UNL     1     -14.853   1.370 -33.272  1.00  0.00     0.063 A 
HETATM   22  C   UNL     1     -14.760   3.746 -31.874  1.00  0.00     0.001 A 
HETATM   23  C   UNL     1     -15.983   3.121 -32.108  1.00  0.00     0.002 A 
HETATM   24  C   UNL     1     -16.057   1.915 -32.814  1.00  0.00     0.032 A 
HETATM   25  N   UNL     1     -14.584   0.230 -33.976  1.00  0.00    -0.277 N 
HETATM   26  H   UNL     1     -15.253  -0.455 -34.309  1.00  0.00     0.189 HD
HETATM   27  N   UNL     1     -13.279   0.030 -34.239  1.00  0.00    -0.168 NA
ENDBRANCH   1  18
TORSDOF 4
ENDMDL
MODEL 2
REMARK VINA RESULT:      -8.5      1.885      8.291
REMARK  4 active torsions:
REMARK  status: ('A' for Active; 'I' for Inactive)
REMARK    1  A    between atoms: C_8  and  C_9 
REMARK       I    between atoms: C_9  and  N_10 
REMARK    2  A    between atoms: N_10  and  C_11 
REMARK    3  A    between atoms: C_13  and  C_14 
REMARK       I    between atoms: C_14  and  N_15 
REMARK    4  A    between atoms: N_15  and  C_16 
ROOT
HETATM    1  C   UNL     1      -6.572   0.399 -33.784  1.00  0.00     0.277 C 
HETATM    2  N   UNL     1      -7.256   0.507 -32.586  1.00  0.00    -0.322 N 
HETATM    3  O   UNL     1      -6.742   1.100 -34.777  1.00  0.00    -0.266 OA
HETATM    4  H   UNL     1      -6.997  -0.210 -31.911  1.00  0.00     0.169 HD
ENDROOT
BRANCH   2   5
HETATM    5  C   UNL     1      -8.236   1.443 -32.219  1.00  0.00     0.036 A 
HETATM    6  C   UNL     1      -9.430   1.627 -32.924  1.00  0.00     0.046 A 
HETATM    7  C   UNL     1     -10.367   2.579 -32.496  1.00  0.00     0.034 A 
HETATM    8  C   UNL     1     -10.093   3.371 -31.376  1.00  0.00     0.017 A 
HETATM    9  C   UNL     1      -8.900   3.198 -30.675  1.00  0.00     0.003 A 
HETATM   10  C   UNL     1      -7.979   2.237 -31.096  1.00  0.00     0.029 A 
BRANCH   7  11
HETATM   11  C   UNL     1     -11.646   2.807 -33.229  1.00  0.00     0.252 C 
HETATM   12  N   UNL     1     -12.611   1.825 -33.099  1.00  0.00    -0.352 N 
HETATM   13  H   UNL     1     -12.462   1.059 -32.454  1.00  0.00     0.163 HD
HETATM   14  O   UNL     1     -11.800   3.836 -33.877  1.00  0.00    -0.268 OA
BRANCH  12  15
HETATM   15  C   UNL     1     -13.865   1.890 -33.779  1.00  0.00     0.084 A 
HETATM   16  C   UNL     1     -14.556   0.624 -34.203  1.00  0.00     0.027 A 
HETATM   17  C   UNL     1     -15.132   1.455 -33.096  1.00  0.00     0.027 A 
ENDBRANCH  12  15
ENDBRANCH   7  11
ENDBRANCH   2   5
BRANCH   1  18
HETATM   18  C   UNL     1      -5.587  -0.698 -33.754  1.00  0.00     0.157 A 
HETATM   19  C   UNL     1      -5.785  -2.052 -34.152  1.00  0.00     0.028 A 
HETATM   20  C   UNL     1      -6.853  -2.816 -34.664  1.00  0.00     0.016 A 
HETATM   21  C   UNL     1      -4.558  -2.673 -33.944  1.00  0.00     0.063 A 
HETATM   22  C   UNL     1      -6.646  -4.171 -34.946  1.00  0.00     0.001 A 
HETATM   23  C   UNL     1      -5.403  -4.763 -34.729  1.00  0.00     0.002 A 
HETATM   24  C   UNL     1      -4.328  -4.025 -34.221  1.00  0.00     0.032 A 
HETATM   25  N   UNL     1      -3.739  -1.697 -33.451  1.00  0.00    -0.277 N 
HETATM   26  H   UNL     1      -2.764  -1.792 -33.187  1.00  0.00     0.189 HD
HETATM   27  N   UNL     1      -4.323  -0.492 -33.316  1.00  0.00    -0.168 NA
ENDBRANCH   1  18
TORSDOF 4
ENDMDL
MODEL 3
REMARK VINA RESULT:      -8.4      6.510      9.458
REMARK  4 active torsions:
REMARK  status: ('A' for Active; 'I' for Inactive)
REMARK    1  A    between atoms: C_8  and  C_9 
REMARK       I    between atoms: C_9  and  N_10 
REMARK    2  A    between atoms: N_10  and  C_11 
REMARK    3  A    between atoms: C_13  and  C_14 
REMARK       I    between atoms: C_14  and  N_15 
REMARK    4  A    between atoms: N_15  and  C_16 
ROOT
HETATM    1  C   UNL     1      -4.762   2.821 -32.008  1.00  0.00     0.277 C 
HETATM    2  N   UNL     1      -3.513   2.907 -32.598  1.00  0.00    -0.322 N 
HETATM    3  O   UNL     1      -5.353   3.732 -31.435  1.00  0.00    -0.266 OA
HETATM    4  H   UNL     1      -3.185   2.017 -32.970  1.00  0.00     0.169 HD
ENDROOT
BRANCH   2   5
HETATM    5  C   UNL     1      -2.679   4.029 -32.721  1.00  0.00     0.036 A 
HETATM    6  C   UNL     1      -1.826   4.472 -31.705  1.00  0.00     0.046 A 
HETATM    7  C   UNL     1      -1.015   5.600 -31.901  1.00  0.00     0.034 A 
HETATM    8  C   UNL     1      -1.084   6.305 -33.107  1.00  0.00     0.017 A 
HETATM    9  C   UNL     1      -1.939   5.874 -34.119  1.00  0.00     0.003 A 
HETATM   10  C   UNL     1      -2.731   4.740 -33.925  1.00  0.00     0.029 A 
BRANCH   7  11
HETATM   11  C   UNL     1      -0.100   6.104 -30.836  1.00  0.00     0.252 C 
HETATM   12  N   UNL     1      -0.305   5.604 -29.564  1.00  0.00    -0.352 N 
HETATM   13  H   UNL     1      -0.981   4.863 -29.419  1.00  0.00     0.163 HD
HETATM   14  O   UNL     1       0.789   6.898 -31.124  1.00  0.00    -0.268 OA
BRANCH  12  15
HETATM   15  C   UNL     1       0.466   6.031 -28.440  1.00  0.00     0.084 A 
HETATM   16  C   UNL     1       0.324   7.435 -27.920  1.00  0.00     0.027 A 
HETATM   17  C   UNL     1      -0.191   6.283 -27.110  1.00  0.00     0.027 A 
ENDBRANCH  12  15
ENDBRANCH   7  11
ENDBRANCH   2   5
BRANCH   1  18
HETATM   18  C   UNL     1      -5.331   1.465 -32.126  1.00  0.00     0.157 A 
HETATM   19  C   UNL     1      -6.055   0.922 -33.227  1.00  0.00     0.028 A 
HETATM   20  C   UNL     1      -6.483   1.380 -34.487  1.00  0.00     0.016 A 
HETATM   21  C   UNL     1      -6.354  -0.384 -32.852  1.00  0.00     0.063 A 
HETATM   22  C   UNL     1      -7.195   0.511 -35.322  1.00  0.00     0.001 A 
HETATM   23  C   UNL     1      -7.478  -0.793 -34.918  1.00  0.00     0.002 A 
HETATM   24  C   UNL     1      -7.062  -1.270 -33.670  1.00  0.00     0.032 A 
HETATM   25  N   UNL     1      -5.820  -0.532 -31.603  1.00  0.00    -0.277 N 
HETATM   26  H   UNL     1      -5.846  -1.363 -31.022  1.00  0.00     0.189 HD
HETATM   27  N   UNL     1      -5.198   0.562 -31.127  1.00  0.00    -0.168 NA
ENDBRANCH   1  18
TORSDOF 4
ENDMDL
MODEL 4
REMARK VINA RESULT:      -8.3      6.536      9.945
REMARK  4 active torsions:
REMARK  status: ('A' for Active; 'I' for Inactive)
REMARK    1  A    between atoms: C_8  and  C_9 
REMARK       I    between atoms: C_9  and  N_10 
REMARK    2  A    between atoms: N_10  and  C_11 
REMARK    3  A    between atoms: C_13  and  C_14 
REMARK       I    between atoms: C_14  and  N_15 
REMARK    4  A    between atoms: N_15  and  C_16 
ROOT
HETATM    1  C   UNL     1      -3.929   1.819 -32.228  1.00  0.00     0.277 C 
HETATM    2  N   UNL     1      -3.922   3.103 -32.746  1.00  0.00    -0.322 N 
HETATM    3  O   UNL     1      -3.056   1.321 -31.524  1.00  0.00    -0.266 OA
HETATM    4  H   UNL     1      -4.719   3.295 -33.350  1.00  0.00     0.169 HD
ENDROOT
BRANCH   2   5
HETATM    5  C   UNL     1      -2.972   4.119 -32.551  1.00  0.00     0.036 A 
HETATM    6  C   UNL     1      -2.842   4.836 -31.358  1.00  0.00     0.046 A 
HETATM    7  C   UNL     1      -1.866   5.835 -31.232  1.00  0.00     0.034 A 
HETATM    8  C   UNL     1      -1.039   6.139 -32.319  1.00  0.00     0.017 A 
HETATM    9  C   UNL     1      -1.171   5.435 -33.514  1.00  0.00     0.003 A 
HETATM   10  C   UNL     1      -2.133   4.429 -33.627  1.00  0.00     0.029 A 
BRANCH   7  11
HETATM   11  C   UNL     1      -1.705   6.624 -29.977  1.00  0.00     0.252 C 
HETATM   12  N   UNL     1      -0.411   6.796 -29.523  1.00  0.00    -0.352 N 
HETATM   13  H   UNL     1       0.366   6.478 -30.090  1.00  0.00     0.163 HD
HETATM   14  O   UNL     1      -2.692   7.098 -29.426  1.00  0.00    -0.268 OA
BRANCH  12  15
HETATM   15  C   UNL     1      -0.110   7.490 -28.311  1.00  0.00     0.084 A 
HETATM   16  C   UNL     1       0.968   6.978 -27.399  1.00  0.00     0.027 A 
HETATM   17  C   UNL     1       1.178   8.252 -28.162  1.00  0.00     0.027 A 
ENDBRANCH  12  15
ENDBRANCH   7  11
ENDBRANCH   2   5
BRANCH   1  18
HETATM   18  C   UNL     1      -5.132   1.072 -32.638  1.00  0.00     0.157 A 
HETATM   19  C   UNL     1      -5.188  -0.217 -33.244  1.00  0.00     0.028 A 
HETATM   20  C   UNL     1      -4.254  -1.187 -33.658  1.00  0.00     0.016 A 
HETATM   21  C   UNL     1      -6.543  -0.477 -33.417  1.00  0.00     0.063 A 
HETATM   22  C   UNL     1      -4.718  -2.378 -34.229  1.00  0.00     0.001 A 
HETATM   23  C   UNL     1      -6.084  -2.608 -34.387  1.00  0.00     0.002 A 
HETATM   24  C   UNL     1      -7.029  -1.660 -33.983  1.00  0.00     0.032 A 
HETATM   25  N   UNL     1      -7.187   0.627 -32.931  1.00  0.00    -0.277 N 
HETATM   26  H   UNL     1      -8.188   0.784 -32.893  1.00  0.00     0.189 HD
HETATM   27  N   UNL     1      -6.371   1.586 -32.456  1.00  0.00    -0.168 NA
ENDBRANCH   1  18
TORSDOF 4
ENDMDL
MODEL 5
REMARK VINA RESULT:      -8.0      7.140     10.735
REMARK  4 active torsions:
REMARK  status: ('A' for Active; 'I' for Inactive)
REMARK    1  A    between atoms: C_8  and  C_9 
REMARK       I    between atoms: C_9  and  N_10 
REMARK    2  A    between atoms: N_10  and  C_11 
REMARK    3  A    between atoms: C_13  and  C_14 
REMARK       I    between atoms: C_14  and  N_15 
REMARK    4  A    between atoms: N_15  and  C_16 
ROOT
HETATM    1  C   UNL     1      -1.360   4.977 -31.695  1.00  0.00     0.277 C 
HETATM    2  N   UNL     1      -2.633   4.585 -31.320  1.00  0.00    -0.322 N 
HETATM    3  O   UNL     1      -0.956   5.111 -32.846  1.00  0.00    -0.266 OA
HETATM    4  H   UNL     1      -2.740   4.484 -30.312  1.00  0.00     0.169 HD
ENDROOT
BRANCH   2   5
HETATM    5  C   UNL     1      -3.740   4.309 -32.138  1.00  0.00     0.036 A 
HETATM    6  C   UNL     1      -4.348   3.052 -32.216  1.00  0.00     0.046 A 
HETATM    7  C   UNL     1      -5.455   2.849 -33.052  1.00  0.00     0.034 A 
HETATM    8  C   UNL     1      -5.935   3.903 -33.838  1.00  0.00     0.017 A 
HETATM    9  C   UNL     1      -5.328   5.155 -33.771  1.00  0.00     0.003 A 
HETATM   10  C   UNL     1      -4.236   5.355 -32.924  1.00  0.00     0.029 A 
BRANCH   7  11
HETATM   11  C   UNL     1      -6.122   1.520 -33.166  1.00  0.00     0.252 C 
HETATM   12  N   UNL     1      -5.295   0.413 -33.119  1.00  0.00    -0.352 N 
HETATM   13  H   UNL     1      -4.309   0.531 -32.917  1.00  0.00     0.163 HD
HETATM   14  O   UNL     1      -7.342   1.458 -33.267  1.00  0.00    -0.268 OA
BRANCH  12  15
HETATM   15  C   UNL     1      -5.790  -0.919 -33.261  1.00  0.00     0.084 A 
HETATM   16  C   UNL     1      -6.265  -1.406 -34.601  1.00  0.00     0.027 A 
HETATM   17  C   UNL     1      -5.000  -1.955 -34.013  1.00  0.00     0.027 A 
ENDBRANCH  12  15
ENDBRANCH   7  11
ENDBRANCH   2   5
BRANCH   1  18
HETATM   18  C   UNL     1      -0.494   5.211 -30.524  1.00  0.00     0.157 A 
HETATM   19  C   UNL     1      -0.428   6.382 -29.714  1.00  0.00     0.028 A 
HETATM   20  C   UNL     1      -1.064   7.639 -29.691  1.00  0.00     0.016 A 
HETATM   21  C   UNL     1       0.524   6.097 -28.743  1.00  0.00     0.063 A 
HETATM   22  C   UNL     1      -0.718   8.558 -28.694  1.00  0.00     0.001 A 
HETATM   23  C   UNL     1       0.239   8.241 -27.733  1.00  0.00     0.002 A 
HETATM   24  C   UNL     1       0.884   6.999 -27.736  1.00  0.00     0.032 A 
HETATM   25  N   UNL     1       0.956   4.830 -29.021  1.00  0.00    -0.277 N 
HETATM   26  H   UNL     1       1.651   4.295 -28.513  1.00  0.00     0.189 HD
HETATM   27  N   UNL     1       0.370   4.263 -30.092  1.00  0.00    -0.168 NA
ENDBRANCH   1  18
TORSDOF 4
ENDMDL
MODEL 6
REMARK VINA RESULT:      -7.8      1.998      8.575
REMARK  4 active torsions:
REMARK  status: ('A' for Active; 'I' for Inactive)
REMARK    1  A    between atoms: C_8  and  C_9 
REMARK       I    between atoms: C_9  and  N_10 
REMARK    2  A    between atoms: N_10  and  C_11 
REMARK    3  A    between atoms: C_13  and  C_14 
REMARK       I    between atoms: C_14  and  N_15 
REMARK    4  A    between atoms: N_15  and  C_16 
ROOT
HETATM    1  C   UNL     1      -7.130   0.644 -32.867  1.00  0.00     0.277 C 
HETATM    2  N   UNL     1      -8.021   0.780 -33.917  1.00  0.00    -0.322 N 
HETATM    3  O   UNL     1      -7.223   1.181 -31.767  1.00  0.00    -0.266 OA
HETATM    4  H   UNL     1      -7.724   0.291 -34.760  1.00  0.00     0.169 HD
ENDROOT
BRANCH   2   5
HETATM    5  C   UNL     1      -9.226   1.500 -33.954  1.00  0.00     0.036 A 
HETATM    6  C   UNL     1     -10.470   0.938 -33.649  1.00  0.00     0.046 A 
HETATM    7  C   UNL     1     -11.633   1.719 -33.701  1.00  0.00     0.034 A 
HETATM    8  C   UNL     1     -11.553   3.061 -34.091  1.00  0.00     0.017 A 
HETATM    9  C   UNL     1     -10.318   3.623 -34.405  1.00  0.00     0.003 A 
HETATM   10  C   UNL     1      -9.160   2.845 -34.335  1.00  0.00     0.029 A 
BRANCH   7  11
HETATM   11  C   UNL     1     -12.977   1.151 -33.391  1.00  0.00     0.252 C 
HETATM   12  N   UNL     1     -13.893   2.017 -32.824  1.00  0.00    -0.352 N 
HETATM   13  H   UNL     1     -13.664   3.000 -32.732  1.00  0.00     0.163 HD
HETATM   14  O   UNL     1     -13.220  -0.019 -33.665  1.00  0.00    -0.268 OA
BRANCH  12  15
HETATM   15  C   UNL     1     -15.202   1.599 -32.433  1.00  0.00     0.084 A 
HETATM   16  C   UNL     1     -16.090   2.533 -31.660  1.00  0.00     0.027 A 
HETATM   17  C   UNL     1     -16.422   2.191 -33.082  1.00  0.00     0.027 A 
ENDBRANCH  12  15
ENDBRANCH   7  11
ENDBRANCH   2   5
BRANCH   1  18
HETATM   18  C   UNL     1      -6.000  -0.236 -33.220  1.00  0.00     0.157 A 
HETATM   19  C   UNL     1      -6.062  -1.532 -33.811  1.00  0.00     0.028 A 
HETATM   20  C   UNL     1      -7.080  -2.405 -34.241  1.00  0.00     0.016 A 
HETATM   21  C   UNL     1      -4.736  -1.928 -33.953  1.00  0.00     0.063 A 
HETATM   22  C   UNL     1      -6.726  -3.640 -34.797  1.00  0.00     0.001 A 
HETATM   23  C   UNL     1      -5.388  -4.007 -34.927  1.00  0.00     0.002 A 
HETATM   24  C   UNL     1      -4.360  -3.156 -34.506  1.00  0.00     0.032 A 
HETATM   25  N   UNL     1      -3.996  -0.893 -33.455  1.00  0.00    -0.277 N 
HETATM   26  H   UNL     1      -2.984  -0.835 -33.401  1.00  0.00     0.189 HD
HETATM   27  N   UNL     1      -4.721   0.145 -32.998  1.00  0.00    -0.168 NA
ENDBRANCH   1  18
TORSDOF 4
ENDMDL
MODEL 7
REMARK VINA RESULT:      -7.7      3.179      8.680
REMARK  4 active torsions:
REMARK  status: ('A' for Active; 'I' for Inactive)
REMARK    1  A    between atoms: C_8  and  C_9 
REMARK       I    between atoms: C_9  and  N_10 
REMARK    2  A    between atoms: N_10  and  C_11 
REMARK    3  A    between atoms: C_13  and  C_14 
REMARK       I    between atoms: C_14  and  N_15 
REMARK    4  A    between atoms: N_15  and  C_16 
ROOT
HETATM    1  C   UNL     1      -6.602   0.273 -34.023  1.00  0.00     0.277 C 
HETATM    2  N   UNL     1      -7.623   0.155 -33.096  1.00  0.00    -0.322 N 
HETATM    3  O   UNL     1      -6.505   1.144 -34.882  1.00  0.00    -0.266 OA
HETATM    4  H   UNL     1      -7.537  -0.673 -32.509  1.00  0.00     0.169 HD
ENDROOT
BRANCH   2   5
HETATM    5  C   UNL     1      -8.724   1.003 -32.895  1.00  0.00     0.036 A 
HETATM    6  C   UNL     1      -8.727   2.059 -31.978  1.00  0.00     0.046 A 
HETATM    7  C   UNL     1      -9.862   2.870 -31.834  1.00  0.00     0.034 A 
HETATM    8  C   UNL     1     -11.009   2.602 -32.589  1.00  0.00     0.017 A 
HETATM    9  C   UNL     1     -11.015   1.545 -33.497  1.00  0.00     0.003 A 
HETATM   10  C   UNL     1      -9.876   0.751 -33.649  1.00  0.00     0.029 A 
BRANCH   7  11
HETATM   11  C   UNL     1      -9.903   4.000 -30.861  1.00  0.00     0.252 C 
HETATM   12  N   UNL     1      -8.681   4.475 -30.422  1.00  0.00    -0.352 N 
HETATM   13  H   UNL     1      -7.827   4.121 -30.835  1.00  0.00     0.163 HD
HETATM   14  O   UNL     1     -10.983   4.467 -30.516  1.00  0.00    -0.268 OA
BRANCH  12  15
HETATM   15  C   UNL     1      -8.569   5.522 -29.456  1.00  0.00     0.084 A 
HETATM   16  C   UNL     1      -7.441   5.511 -28.463  1.00  0.00     0.027 A 
HETATM   17  C   UNL     1      -7.467   6.540 -29.553  1.00  0.00     0.027 A 
ENDBRANCH  12  15
ENDBRANCH   7  11
ENDBRANCH   2   5
BRANCH   1  18
HETATM   18  C   UNL     1      -5.607  -0.806 -33.880  1.00  0.00     0.157 A 
HETATM   19  C   UNL     1      -5.766  -2.182 -34.216  1.00  0.00     0.028 A 
HETATM   20  C   UNL     1      -6.794  -2.987 -34.745  1.00  0.00     0.016 A 
HETATM   21  C   UNL     1      -4.546  -2.773 -33.908  1.00  0.00     0.063 A 
HETATM   22  C   UNL     1      -6.556  -4.352 -34.943  1.00  0.00     0.001 A 
HETATM   23  C   UNL     1      -5.320  -4.913 -34.626  1.00  0.00     0.002 A 
HETATM   24  C   UNL     1      -4.285  -4.134 -34.100  1.00  0.00     0.032 A 
HETATM   25  N   UNL     1      -3.767  -1.760 -33.422  1.00  0.00    -0.277 N 
HETATM   26  H   UNL     1      -2.808  -1.827 -33.101  1.00  0.00     0.189 HD
HETATM   27  N   UNL     1      -4.372  -0.558 -33.384  1.00  0.00    -0.168 NA
ENDBRANCH   1  18
TORSDOF 4
ENDMDL
MODEL 8
REMARK VINA RESULT:      -7.7      5.407      8.695
REMARK  4 active torsions:
REMARK  status: ('A' for Active; 'I' for Inactive)
REMARK    1  A    between atoms: C_8  and  C_9 
REMARK       I    between atoms: C_9  and  N_10 
REMARK    2  A    between atoms: N_10  and  C_11 
REMARK    3  A    between atoms: C_13  and  C_14 
REMARK       I    between atoms: C_14  and  N_15 
REMARK    4  A    between atoms: N_15  and  C_16 
ROOT
HETATM    1  C   UNL     1      -5.615   0.849 -31.884  1.00  0.00     0.277 C 
HETATM    2  N   UNL     1      -5.898   2.153 -32.253  1.00  0.00    -0.322 N 
HETATM    3  O   UNL     1      -4.862   0.503 -30.979  1.00  0.00    -0.266 OA
HETATM    4  H   UNL     1      -6.508   2.215 -33.067  1.00  0.00     0.169 HD
ENDROOT
BRANCH   2   5
HETATM    5  C   UNL     1      -5.446   3.346 -31.667  1.00  0.00     0.036 A 
HETATM    6  C   UNL     1      -4.142   3.830 -31.809  1.00  0.00     0.046 A 
HETATM    7  C   UNL     1      -3.762   5.034 -31.199  1.00  0.00     0.034 A 
HETATM    8  C   UNL     1      -4.683   5.739 -30.416  1.00  0.00     0.017 A 
HETATM    9  C   UNL     1      -5.981   5.256 -30.264  1.00  0.00     0.003 A 
HETATM   10  C   UNL     1      -6.360   4.065 -30.888  1.00  0.00     0.029 A 
BRANCH   7  11
HETATM   11  C   UNL     1      -2.378   5.575 -31.322  1.00  0.00     0.252 C 
HETATM   12  N   UNL     1      -1.381   4.862 -30.681  1.00  0.00    -0.352 N 
HETATM   13  H   UNL     1      -1.600   3.974 -30.247  1.00  0.00     0.163 HD
HETATM   14  O   UNL     1      -2.176   6.584 -31.989  1.00  0.00    -0.268 OA
BRANCH  12  15
HETATM   15  C   UNL     1      -0.017   5.288 -30.677  1.00  0.00     0.084 A 
HETATM   16  C   UNL     1       0.456   6.286 -29.657  1.00  0.00     0.027 A 
HETATM   17  C   UNL     1       0.916   4.861 -29.578  1.00  0.00     0.027 A 
ENDBRANCH  12  15
ENDBRANCH   7  11
ENDBRANCH   2   5
BRANCH   1  18
HETATM   18  C   UNL     1      -6.326  -0.126 -32.732  1.00  0.00     0.157 A 
HETATM   19  C   UNL     1      -5.778  -1.266 -33.388  1.00  0.00     0.028 A 
HETATM   20  C   UNL     1      -4.506  -1.862 -33.499  1.00  0.00     0.016 A 
HETATM   21  C   UNL     1      -6.853  -1.858 -34.042  1.00  0.00     0.063 A 
HETATM   22  C   UNL     1      -4.365  -3.027 -34.261  1.00  0.00     0.001 A 
HETATM   23  C   UNL     1      -5.463  -3.597 -34.903  1.00  0.00     0.002 A 
HETATM   24  C   UNL     1      -6.736  -3.023 -34.807  1.00  0.00     0.032 A 
HETATM   25  N   UNL     1      -7.930  -1.067 -33.755  1.00  0.00    -0.277 N 
HETATM   26  H   UNL     1      -8.886  -1.200 -34.065  1.00  0.00     0.189 HD
HETATM   27  N   UNL     1      -7.653  -0.008 -32.971  1.00  0.00    -0.168 NA
ENDBRANCH   1  18
TORSDOF 4
ENDMDL
MODEL 9
REMARK VINA RESULT:      -7.7      5.512      8.869
REMARK  4 active torsions:
REMARK  status: ('A' for Active; 'I' for Inactive)
REMARK    1  A    between atoms: C_8  and  C_9 
REMARK       I    between atoms: C_9  and  N_10 
REMARK    2  A    between atoms: N_10  and  C_11 
REMARK    3  A    between atoms: C_13  and  C_14 
REMARK       I    between atoms: C_14  and  N_15 
REMARK    4  A    between atoms: N_15  and  C_16 
ROOT
HETATM    1  C   UNL     1      -4.117   4.007 -33.284  1.00  0.00     0.277 C 
HETATM    2  N   UNL     1      -3.864   2.937 -32.442  1.00  0.00    -0.322 N 
HETATM    3  O   UNL     1      -5.167   4.224 -33.879  1.00  0.00    -0.266 OA
HETATM    4  H   UNL     1      -2.907   2.919 -32.094  1.00  0.00     0.169 HD
ENDROOT
BRANCH   2   5
HETATM    5  C   UNL     1      -4.738   1.912 -32.045  1.00  0.00     0.036 A 
HETATM    6  C   UNL     1      -5.360   1.038 -32.942  1.00  0.00     0.046 A 
HETATM    7  C   UNL     1      -6.217   0.032 -32.473  1.00  0.00     0.034 A 
HETATM    8  C   UNL     1      -6.476  -0.078 -31.103  1.00  0.00     0.017 A 
HETATM    9  C   UNL     1      -5.866   0.796 -30.205  1.00  0.00     0.003 A 
HETATM   10  C   UNL     1      -5.000   1.785 -30.676  1.00  0.00     0.029 A 
BRANCH   7  11
HETATM   11  C   UNL     1      -6.904  -0.911 -33.402  1.00  0.00     0.252 C 
HETATM   12  N   UNL     1      -6.128  -1.926 -33.930  1.00  0.00    -0.352 N 
HETATM   13  H   UNL     1      -5.177  -2.051 -33.605  1.00  0.00     0.163 HD
HETATM   14  O   UNL     1      -8.100  -0.773 -33.635  1.00  0.00    -0.268 OA
BRANCH  12  15
HETATM   15  C   UNL     1      -6.641  -2.874 -34.867  1.00  0.00     0.084 A 
HETATM   16  C   UNL     1      -5.786  -4.025 -35.318  1.00  0.00     0.027 A 
HETATM   17  C   UNL     1      -6.972  -4.276 -34.437  1.00  0.00     0.027 A 
ENDBRANCH  12  15
ENDBRANCH   7  11
ENDBRANCH   2   5
BRANCH   1  18
HETATM   18  C   UNL     1      -2.942   4.890 -33.412  1.00  0.00     0.157 A 
HETATM   19  C   UNL     1      -2.218   5.527 -32.363  1.00  0.00     0.028 A 
HETATM   20  C   UNL     1      -2.304   5.587 -30.958  1.00  0.00     0.016 A 
HETATM   21  C   UNL     1      -1.200   6.229 -33.001  1.00  0.00     0.063 A 
HETATM   22  C   UNL     1      -1.367   6.348 -30.251  1.00  0.00     0.001 A 
HETATM   23  C   UNL     1      -0.358   7.039 -30.920  1.00  0.00     0.002 A 
HETATM   24  C   UNL     1      -0.252   6.994 -32.314  1.00  0.00     0.032 A 
HETATM   25  N   UNL     1      -1.374   5.983 -34.334  1.00  0.00    -0.277 N 
HETATM   26  H   UNL     1      -0.808   6.334 -35.099  1.00  0.00     0.189 HD
HETATM   27  N   UNL     1      -2.417   5.184 -34.624  1.00  0.00    -0.168 NA
ENDBRANCH   1  18
TORSDOF 4
ENDMDL
MODEL 10
REMARK VINA RESULT:      -7.5      2.699      4.309
REMARK  4 active torsions:
REMARK  status: ('A' for Active; 'I' for Inactive)
REMARK    1  A    between atoms: C_8  and  C_9 
REMARK       I    between atoms: C_9  and  N_10 
REMARK    2  A    between atoms: N_10  and  C_11 
REMARK    3  A    between atoms: C_13  and  C_14 
REMARK       I    between atoms: C_14  and  N_15 
REMARK    4  A    between atoms: N_15  and  C_16 
ROOT
HETATM    1  C   UNL     1      -9.910   2.393 -33.555  1.00  0.00     0.277 C 
HETATM    2  N   UNL     1      -9.321   1.305 -32.934  1.00  0.00    -0.322 N 
HETATM    3  O   UNL     1      -9.400   3.090 -34.427  1.00  0.00    -0.266 OA
HETATM    4  H   UNL     1      -9.899   0.902 -32.199  1.00  0.00     0.169 HD
ENDROOT
BRANCH   2   5
HETATM    5  C   UNL     1      -8.063   0.732 -33.183  1.00  0.00     0.036 A 
HETATM    6  C   UNL     1      -6.863   1.263 -32.702  1.00  0.00     0.046 A 
HETATM    7  C   UNL     1      -5.643   0.632 -32.986  1.00  0.00     0.034 A 
HETATM    8  C   UNL     1      -5.624  -0.518 -33.782  1.00  0.00     0.017 A 
HETATM    9  C   UNL     1      -6.816  -1.046 -34.273  1.00  0.00     0.003 A 
HETATM   10  C   UNL     1      -8.029  -0.424 -33.973  1.00  0.00     0.029 A 
BRANCH   7  11
HETATM   11  C   UNL     1      -4.344   1.177 -32.495  1.00  0.00     0.252 C 
HETATM   12  N   UNL     1      -4.319   2.526 -32.193  1.00  0.00    -0.352 N 
HETATM   13  H   UNL     1      -5.178   3.061 -32.219  1.00  0.00     0.163 HD
HETATM   14  O   UNL     1      -3.384   0.427 -32.356  1.00  0.00    -0.268 OA
BRANCH  12  15
HETATM   15  C   UNL     1      -3.133   3.191 -31.757  1.00  0.00     0.084 A 
HETATM   16  C   UNL     1      -2.396   4.107 -32.694  1.00  0.00     0.027 A 
HETATM   17  C   UNL     1      -3.130   4.675 -31.516  1.00  0.00     0.027 A 
ENDBRANCH  12  15
ENDBRANCH   7  11
ENDBRANCH   2   5
BRANCH   1  18
HETATM   18  C   UNL     1     -11.264   2.653 -33.031  1.00  0.00     0.157 A 
HETATM   19  C   UNL     1     -12.477   2.004 -33.404  1.00  0.00     0.028 A 
HETATM   20  C   UNL     1     -12.852   0.989 -34.306  1.00  0.00     0.016 A 
HETATM   21  C   UNL     1     -13.460   2.596 -32.618  1.00  0.00     0.063 A 
HETATM   22  C   UNL     1     -14.197   0.610 -34.382  1.00  0.00     0.001 A 
HETATM   23  C   UNL     1     -15.157   1.222 -33.579  1.00  0.00     0.002 A 
HETATM   24  C   UNL     1     -14.809   2.232 -32.676  1.00  0.00     0.032 A 
HETATM   25  N   UNL     1     -12.804   3.526 -31.861  1.00  0.00    -0.277 N 
HETATM   26  H   UNL     1     -13.209   4.147 -31.168  1.00  0.00     0.189 HD
HETATM   27  N   UNL     1     -11.478   3.595 -32.084  1.00  0.00    -0.168 NA
ENDBRANCH   1  18
TORSDOF 4
ENDMDL
