MODEL 1
REMARK VINA RESULT:     -10.1      0.000      0.000
REMARK  4 active torsions:
REMARK  status: ('A' for Active; 'I' for Inactive)
REMARK    1  A    between atoms: C_2  and  C_3 
REMARK       I    between atoms: C_3  and  N_4 
REMARK    2  A    between atoms: N_4  and  N_5 
REMARK    3  A    between atoms: N_5  and  C_6 
REMARK    4  A    between atoms: N_7  and  C_8 
ROOT
HETATM    1  C   UNL     1      -4.383   2.222 -32.289  1.00  0.00     0.208 A 
HETATM    2  N   UNL     1      -5.590   2.913 -32.195  1.00  0.00    -0.251 N 
HETATM    3  C   UNL     1      -6.750   2.382 -32.758  1.00  0.00     0.264 A 
HETATM    4  O   UNL     1      -7.838   2.957 -32.747  1.00  0.00    -0.267 OA
HETATM    5  C   UNL     1      -6.655   1.010 -33.344  1.00  0.00     0.049 A 
HETATM    6  C   UNL     1      -5.443   0.425 -33.275  1.00  0.00     0.083 A 
HETATM    7  C   UNL     1      -5.293  -0.984 -33.733  1.00  0.00    -0.000 A 
HETATM    8  C   UNL     1      -6.262  -1.558 -34.570  1.00  0.00    -0.044 A 
HETATM    9  C   UNL     1      -6.120  -2.878 -35.023  1.00  0.00     0.008 A 
HETATM   10  C   UNL     1      -5.024  -3.641 -34.625  1.00  0.00     0.001 A 
HETATM   11  C   UNL     1      -4.062  -3.087 -33.785  1.00  0.00     0.001 A 
HETATM   12  C   UNL     1      -4.195  -1.767 -33.345  1.00  0.00     0.014 A 
HETATM   13  C   UNL     1      -7.421  -0.714 -35.017  1.00  0.00     0.054 C 
HETATM   14  C   UNL     1      -7.888   0.284 -33.922  1.00  0.00    -0.002 C 
HETATM   15  C   UNL     1      -8.649  -0.466 -32.800  1.00  0.00     0.015 C 
HETATM   16  C   UNL     1      -9.697   0.519 -32.308  1.00  0.00     0.001 C 
HETATM   17  C   UNL     1     -10.158   1.233 -33.568  1.00  0.00     0.001 C 
HETATM   18  C   UNL     1      -8.992   1.169 -34.561  1.00  0.00     0.015 C 
HETATM   19  N   UNL     1      -4.312   1.026 -32.802  1.00  0.00    -0.217 NA
ENDROOT
BRANCH   1  20
HETATM   20  N   UNL     1      -3.199   2.822 -31.879  1.00  0.00    -0.171 NA
HETATM   21  H   UNL     1      -3.184   3.196 -30.925  1.00  0.00     0.156 HD
BRANCH  20  22
HETATM   22  N   UNL     1      -2.621   3.717 -32.805  1.00  0.00    -0.284 N 
HETATM   23  C   UNL     1      -1.680   4.591 -32.293  1.00  0.00     0.231 C 
HETATM   24  O   UNL     1      -1.237   4.489 -31.151  1.00  0.00    -0.272 OA
HETATM   25  H   UNL     1      -3.250   3.993 -33.560  1.00  0.00     0.184 HD
BRANCH  23  26
HETATM   26  C   UNL     1      -1.284   5.676 -33.271  1.00  0.00     0.100 C 
HETATM   27  C   UNL     1      -1.494   5.249 -34.713  1.00  0.00     0.014 C 
ENDBRANCH  23  26
ENDBRANCH  20  22
ENDBRANCH   1  20
BRANCH   2  28
HETATM   28  C   UNL     1      -5.676   4.165 -31.487  1.00  0.00     0.045 A 
HETATM   29  C   UNL     1      -5.856   4.190 -30.093  1.00  0.00     0.030 A 
HETATM   30  C   UNL     1      -5.922   5.400 -29.398  1.00  0.00     0.002 A 
HETATM   31  C   UNL     1      -5.819   6.605 -30.085  1.00  0.00     0.000 A 
HETATM   32  C   UNL     1      -5.658   6.600 -31.469  1.00  0.00     0.002 A 
HETATM   33  C   UNL     1      -5.592   5.389 -32.164  1.00  0.00     0.030 A 
ENDBRANCH   2  28
TORSDOF 4
ENDMDL
MODEL 2
REMARK VINA RESULT:      -9.5      3.239      6.621
REMARK  4 active torsions:
REMARK  status: ('A' for Active; 'I' for Inactive)
REMARK    1  A    between atoms: C_2  and  C_3 
REMARK       I    between atoms: C_3  and  N_4 
REMARK    2  A    between atoms: N_4  and  N_5 
REMARK    3  A    between atoms: N_5  and  C_6 
REMARK    4  A    between atoms: N_7  and  C_8 
ROOT
HETATM    1  C   UNL     1      -9.591   1.449 -33.992  1.00  0.00     0.208 A 
HETATM    2  N   UNL     1      -9.385   2.530 -33.138  1.00  0.00    -0.251 N 
HETATM    3  C   UNL     1      -8.289   2.547 -32.275  1.00  0.00     0.264 A 
HETATM    4  O   UNL     1      -8.071   3.449 -31.467  1.00  0.00    -0.267 OA
HETATM    5  C   UNL     1      -7.305   1.429 -32.405  1.00  0.00     0.049 A 
HETATM    6  C   UNL     1      -7.587   0.505 -33.345  1.00  0.00     0.083 A 
HETATM    7  C   UNL     1      -6.601  -0.577 -33.613  1.00  0.00    -0.000 A 
HETATM    8  C   UNL     1      -5.605  -0.871 -32.669  1.00  0.00    -0.044 A 
HETATM    9  C   UNL     1      -4.683  -1.902 -32.904  1.00  0.00     0.008 A 
HETATM   10  C   UNL     1      -4.734  -2.630 -34.091  1.00  0.00     0.001 A 
HETATM   11  C   UNL     1      -5.708  -2.340 -35.041  1.00  0.00     0.001 A 
HETATM   12  C   UNL     1      -6.636  -1.323 -34.802  1.00  0.00     0.014 A 
HETATM   13  C   UNL     1      -5.583  -0.102 -31.380  1.00  0.00     0.054 C 
HETATM   14  C   UNL     1      -6.012   1.379 -31.564  1.00  0.00    -0.002 C 
HETATM   15  C   UNL     1      -4.885   2.184 -32.260  1.00  0.00     0.015 C 
HETATM   16  C   UNL     1      -4.983   3.585 -31.679  1.00  0.00     0.001 C 
HETATM   17  C   UNL     1      -5.339   3.359 -30.219  1.00  0.00     0.001 C 
HETATM   18  C   UNL     1      -6.068   2.013 -30.147  1.00  0.00     0.015 C 
HETATM   19  N   UNL     1      -8.726   0.479 -34.097  1.00  0.00    -0.217 NA
ENDROOT
BRANCH   1  20
HETATM   20  N   UNL     1     -10.765   1.351 -34.728  1.00  0.00    -0.171 NA
HETATM   21  H   UNL     1     -11.049   2.188 -35.247  1.00  0.00     0.156 HD
BRANCH  20  22
HETATM   22  N   UNL     1     -11.853   0.755 -34.055  1.00  0.00    -0.284 N 
HETATM   23  C   UNL     1     -13.111   1.157 -34.466  1.00  0.00     0.231 C 
HETATM   24  O   UNL     1     -13.289   1.851 -35.465  1.00  0.00    -0.272 OA
HETATM   25  H   UNL     1     -11.659   0.523 -33.080  1.00  0.00     0.184 HD
BRANCH  23  26
HETATM   26  C   UNL     1     -14.216   0.675 -33.551  1.00  0.00     0.100 C 
HETATM   27  C   UNL     1     -14.866   1.818 -32.790  1.00  0.00     0.014 C 
ENDBRANCH  23  26
ENDBRANCH  20  22
ENDBRANCH   1  20
BRANCH   2  28
HETATM   28  C   UNL     1     -10.272   3.666 -33.149  1.00  0.00     0.045 A 
HETATM   29  C   UNL     1     -10.062   4.731 -34.042  1.00  0.00     0.030 A 
HETATM   30  C   UNL     1     -10.929   5.826 -34.072  1.00  0.00     0.002 A 
HETATM   31  C   UNL     1     -12.014   5.880 -33.202  1.00  0.00     0.000 A 
HETATM   32  C   UNL     1     -12.227   4.842 -32.297  1.00  0.00     0.002 A 
HETATM   33  C   UNL     1     -11.359   3.747 -32.269  1.00  0.00     0.030 A 
ENDBRANCH   2  28
TORSDOF 4
ENDMDL
MODEL 3
REMARK VINA RESULT:      -9.2      2.139      5.085
REMARK  4 active torsions:
REMARK  status: ('A' for Active; 'I' for Inactive)
REMARK    1  A    between atoms: C_2  and  C_3 
REMARK       I    between atoms: C_3  and  N_4 
REMARK    2  A    between atoms: N_4  and  N_5 
REMARK    3  A    between atoms: N_5  and  C_6 
REMARK    4  A    between atoms: N_7  and  C_8 
ROOT
HETATM    1  C   UNL     1      -5.685   4.667 -33.281  1.00  0.00     0.208 A 
HETATM    2  N   UNL     1      -4.438   4.135 -32.958  1.00  0.00    -0.251 N 
HETATM    3  C   UNL     1      -4.332   2.827 -32.485  1.00  0.00     0.264 A 
HETATM    4  O   UNL     1      -3.268   2.310 -32.144  1.00  0.00    -0.267 OA
HETATM    5  C   UNL     1      -5.583   2.009 -32.462  1.00  0.00     0.049 A 
HETATM    6  C   UNL     1      -6.698   2.629 -32.896  1.00  0.00     0.083 A 
HETATM    7  C   UNL     1      -7.960   1.849 -33.011  1.00  0.00    -0.000 A 
HETATM    8  C   UNL     1      -8.100   0.632 -32.326  1.00  0.00    -0.044 A 
HETATM    9  C   UNL     1      -9.293  -0.100 -32.412  1.00  0.00     0.008 A 
HETATM   10  C   UNL     1     -10.345   0.363 -33.200  1.00  0.00     0.001 A 
HETATM   11  C   UNL     1     -10.214   1.562 -33.894  1.00  0.00     0.001 A 
HETATM   12  C   UNL     1      -9.032   2.300 -33.798  1.00  0.00     0.014 A 
HETATM   13  C   UNL     1      -6.971   0.161 -31.455  1.00  0.00     0.054 C 
HETATM   14  C   UNL     1      -5.578   0.526 -32.037  1.00  0.00    -0.002 C 
HETATM   15  C   UNL     1      -5.246  -0.382 -33.248  1.00  0.00     0.015 C 
HETATM   16  C   UNL     1      -3.738  -0.562 -33.205  1.00  0.00     0.001 C 
HETATM   17  C   UNL     1      -3.417  -0.661 -31.722  1.00  0.00     0.001 C 
HETATM   18  C   UNL     1      -4.523   0.098 -30.981  1.00  0.00     0.015 C 
HETATM   19  N   UNL     1      -6.770   3.944 -33.257  1.00  0.00    -0.217 NA
ENDROOT
BRANCH   1  20
HETATM   20  N   UNL     1      -5.813   6.015 -33.591  1.00  0.00    -0.171 NA
HETATM   21  H   UNL     1      -4.955   6.575 -33.553  1.00  0.00     0.156 HD
BRANCH  20  22
HETATM   22  N   UNL     1      -6.900   6.676 -32.979  1.00  0.00    -0.284 N 
HETATM   23  C   UNL     1      -6.589   7.465 -31.887  1.00  0.00     0.231 C 
HETATM   24  O   UNL     1      -5.431   7.724 -31.567  1.00  0.00    -0.272 OA
HETATM   25  H   UNL     1      -7.780   6.161 -33.033  1.00  0.00     0.184 HD
BRANCH  23  26
HETATM   26  C   UNL     1      -7.812   7.944 -31.134  1.00  0.00     0.100 C 
HETATM   27  C   UNL     1      -9.060   7.170 -31.522  1.00  0.00     0.014 C 
ENDBRANCH  23  26
ENDBRANCH  20  22
ENDBRANCH   1  20
BRANCH   2  28
HETATM   28  C   UNL     1      -3.233   4.904 -33.140  1.00  0.00     0.045 A 
HETATM   29  C   UNL     1      -2.565   4.910 -34.377  1.00  0.00     0.030 A 
HETATM   30  C   UNL     1      -1.407   5.668 -34.565  1.00  0.00     0.002 A 
HETATM   31  C   UNL     1      -0.891   6.424 -33.517  1.00  0.00     0.000 A 
HETATM   32  C   UNL     1      -1.529   6.416 -32.279  1.00  0.00     0.002 A 
HETATM   33  C   UNL     1      -2.688   5.658 -32.091  1.00  0.00     0.030 A 
ENDBRANCH   2  28
TORSDOF 4
ENDMDL
MODEL 4
REMARK VINA RESULT:      -9.1      2.280      5.260
REMARK  4 active torsions:
REMARK  status: ('A' for Active; 'I' for Inactive)
REMARK    1  A    between atoms: C_2  and  C_3 
REMARK       I    between atoms: C_3  and  N_4 
REMARK    2  A    between atoms: N_4  and  N_5 
REMARK    3  A    between atoms: N_5  and  C_6 
REMARK    4  A    between atoms: N_7  and  C_8 
ROOT
HETATM    1  C   UNL     1      -7.174   4.632 -33.791  1.00  0.00     0.208 A 
HETATM    2  N   UNL     1      -6.092   3.764 -33.654  1.00  0.00    -0.251 N 
HETATM    3  C   UNL     1      -6.304   2.396 -33.490  1.00  0.00     0.264 A 
HETATM    4  O   UNL     1      -5.398   1.580 -33.322  1.00  0.00    -0.267 OA
HETATM    5  C   UNL     1      -7.714   1.909 -33.593  1.00  0.00     0.049 A 
HETATM    6  C   UNL     1      -8.646   2.854 -33.826  1.00  0.00     0.083 A 
HETATM    7  C   UNL     1     -10.057   2.438 -34.055  1.00  0.00    -0.000 A 
HETATM    8  C   UNL     1     -10.488   1.165 -33.654  1.00  0.00    -0.044 A 
HETATM    9  C   UNL     1     -11.820   0.770 -33.847  1.00  0.00     0.008 A 
HETATM   10  C   UNL     1     -12.724   1.634 -34.462  1.00  0.00     0.001 A 
HETATM   11  C   UNL     1     -12.306   2.895 -34.876  1.00  0.00     0.001 A 
HETATM   12  C   UNL     1     -10.983   3.294 -34.671  1.00  0.00     0.014 A 
HETATM   13  C   UNL     1      -9.511   0.256 -32.963  1.00  0.00     0.054 C 
HETATM   14  C   UNL     1      -8.067   0.409 -33.512  1.00  0.00    -0.002 C 
HETATM   15  C   UNL     1      -7.949  -0.250 -34.909  1.00  0.00     0.015 C 
HETATM   16  C   UNL     1      -6.527  -0.783 -34.976  1.00  0.00     0.001 C 
HETATM   17  C   UNL     1      -6.252  -1.289 -33.570  1.00  0.00     0.001 C 
HETATM   18  C   UNL     1      -7.152  -0.483 -32.628  1.00  0.00     0.015 C 
HETATM   19  N   UNL     1      -8.400   4.196 -33.880  1.00  0.00    -0.217 NA
ENDROOT
BRANCH   1  20
HETATM   20  N   UNL     1      -6.975   6.006 -33.786  1.00  0.00    -0.171 NA
HETATM   21  H   UNL     1      -6.018   6.330 -33.964  1.00  0.00     0.156 HD
BRANCH  20  22
HETATM   22  N   UNL     1      -7.573   6.701 -32.712  1.00  0.00    -0.284 N 
HETATM   23  C   UNL     1      -6.705   7.209 -31.763  1.00  0.00     0.231 C 
HETATM   24  O   UNL     1      -5.486   7.218 -31.921  1.00  0.00    -0.272 OA
HETATM   25  H   UNL     1      -8.497   6.349 -32.456  1.00  0.00     0.184 HD
BRANCH  23  26
HETATM   26  C   UNL     1      -7.411   7.720 -30.526  1.00  0.00     0.100 C 
HETATM   27  C   UNL     1      -8.862   7.271 -30.470  1.00  0.00     0.014 C 
ENDBRANCH  23  26
ENDBRANCH  20  22
ENDBRANCH   1  20
BRANCH   2  28
HETATM   28  C   UNL     1      -4.737   4.251 -33.714  1.00  0.00     0.045 A 
HETATM   29  C   UNL     1      -3.888   4.149 -32.599  1.00  0.00     0.030 A 
HETATM   30  C   UNL     1      -2.568   4.602 -32.656  1.00  0.00     0.002 A 
HETATM   31  C   UNL     1      -2.077   5.174 -33.826  1.00  0.00     0.000 A 
HETATM   32  C   UNL     1      -2.910   5.300 -34.936  1.00  0.00     0.002 A 
HETATM   33  C   UNL     1      -4.231   4.846 -34.878  1.00  0.00     0.030 A 
ENDBRANCH   2  28
TORSDOF 4
ENDMDL
MODEL 5
REMARK VINA RESULT:      -9.0      2.955      5.811
REMARK  4 active torsions:
REMARK  status: ('A' for Active; 'I' for Inactive)
REMARK    1  A    between atoms: C_2  and  C_3 
REMARK       I    between atoms: C_3  and  N_4 
REMARK    2  A    between atoms: N_4  and  N_5 
REMARK    3  A    between atoms: N_5  and  C_6 
REMARK    4  A    between atoms: N_7  and  C_8 
ROOT
HETATM    1  C   UNL     1      -7.892   4.502 -33.856  1.00  0.00     0.208 A 
HETATM    2  N   UNL     1      -6.657   3.926 -33.563  1.00  0.00    -0.251 N 
HETATM    3  C   UNL     1      -6.580   2.595 -33.157  1.00  0.00     0.264 A 
HETATM    4  O   UNL     1      -5.529   2.036 -32.845  1.00  0.00    -0.267 OA
HETATM    5  C   UNL     1      -7.849   1.804 -33.174  1.00  0.00     0.049 A 
HETATM    6  C   UNL     1      -8.951   2.471 -33.574  1.00  0.00     0.083 A 
HETATM    7  C   UNL     1     -10.231   1.727 -33.726  1.00  0.00    -0.000 A 
HETATM    8  C   UNL     1     -10.397   0.480 -33.105  1.00  0.00    -0.044 A 
HETATM    9  C   UNL     1     -11.607  -0.220 -33.225  1.00  0.00     0.008 A 
HETATM   10  C   UNL     1     -12.648   0.307 -33.987  1.00  0.00     0.001 A 
HETATM   11  C   UNL     1     -12.491   1.537 -34.619  1.00  0.00     0.001 A 
HETATM   12  C   UNL     1     -11.292   2.242 -34.487  1.00  0.00     0.014 A 
HETATM   13  C   UNL     1      -9.279  -0.061 -32.260  1.00  0.00     0.054 C 
HETATM   14  C   UNL     1      -7.879   0.302 -32.826  1.00  0.00    -0.002 C 
HETATM   15  C   UNL     1      -7.568  -0.550 -34.082  1.00  0.00     0.015 C 
HETATM   16  C   UNL     1      -6.064  -0.766 -34.051  1.00  0.00     0.001 C 
HETATM   17  C   UNL     1      -5.744  -0.948 -32.576  1.00  0.00     0.001 C 
HETATM   18  C   UNL     1      -6.832  -0.203 -31.795  1.00  0.00     0.015 C 
HETATM   19  N   UNL     1      -8.993   3.804 -33.867  1.00  0.00    -0.217 NA
ENDROOT
BRANCH   1  20
HETATM   20  N   UNL     1      -7.989   5.867 -34.096  1.00  0.00    -0.171 NA
HETATM   21  H   UNL     1      -7.195   6.441 -33.795  1.00  0.00     0.156 HD
BRANCH  20  22
HETATM   22  N   UNL     1      -9.225   6.456 -33.751  1.00  0.00    -0.284 N 
HETATM   23  C   UNL     1     -10.058   6.776 -34.808  1.00  0.00     0.231 C 
HETATM   24  O   UNL     1      -9.828   6.417 -35.961  1.00  0.00    -0.272 OA
HETATM   25  H   UNL     1      -9.188   7.030 -32.908  1.00  0.00     0.184 HD
BRANCH  23  26
HETATM   26  C   UNL     1     -11.244   7.619 -34.394  1.00  0.00     0.100 C 
HETATM   27  C   UNL     1     -11.334   7.777 -32.886  1.00  0.00     0.014 C 
ENDBRANCH  23  26
ENDBRANCH  20  22
ENDBRANCH   1  20
BRANCH   2  28
HETATM   28  C   UNL     1      -5.435   4.676 -33.708  1.00  0.00     0.045 A 
HETATM   29  C   UNL     1      -4.941   5.454 -32.647  1.00  0.00     0.030 A 
HETATM   30  C   UNL     1      -3.747   6.168 -32.774  1.00  0.00     0.002 A 
HETATM   31  C   UNL     1      -3.032   6.125 -33.967  1.00  0.00     0.000 A 
HETATM   32  C   UNL     1      -3.516   5.374 -35.036  1.00  0.00     0.002 A 
HETATM   33  C   UNL     1      -4.710   4.659 -34.908  1.00  0.00     0.030 A 
ENDBRANCH   2  28
TORSDOF 4
ENDMDL
MODEL 6
REMARK VINA RESULT:      -8.9     15.608     18.219
REMARK  4 active torsions:
REMARK  status: ('A' for Active; 'I' for Inactive)
REMARK    1  A    between atoms: C_2  and  C_3 
REMARK       I    between atoms: C_3  and  N_4 
REMARK    2  A    between atoms: N_4  and  N_5 
REMARK    3  A    between atoms: N_5  and  C_6 
REMARK    4  A    between atoms: N_7  and  C_8 
ROOT
HETATM    1  C   UNL     1      -5.597 -13.151 -38.696  1.00  0.00     0.208 A 
HETATM    2  N   UNL     1      -6.302 -13.584 -39.818  1.00  0.00    -0.251 N 
HETATM    3  C   UNL     1      -5.622 -14.108 -40.917  1.00  0.00     0.264 A 
HETATM    4  O   UNL     1      -6.178 -14.471 -41.953  1.00  0.00    -0.267 OA
HETATM    5  C   UNL     1      -4.144 -14.291 -40.779  1.00  0.00     0.049 A 
HETATM    6  C   UNL     1      -3.615 -13.916 -39.597  1.00  0.00     0.083 A 
HETATM    7  C   UNL     1      -2.171 -14.170 -39.339  1.00  0.00    -0.000 A 
HETATM    8  C   UNL     1      -1.299 -14.420 -40.410  1.00  0.00    -0.044 A 
HETATM    9  C   UNL     1       0.067 -14.641 -40.179  1.00  0.00     0.008 A 
HETATM   10  C   UNL     1       0.567 -14.638 -38.878  1.00  0.00     0.001 A 
HETATM   11  C   UNL     1      -0.290 -14.405 -37.807  1.00  0.00     0.001 A 
HETATM   12  C   UNL     1      -1.648 -14.169 -38.037  1.00  0.00     0.014 A 
HETATM   13  C   UNL     1      -1.845 -14.387 -41.809  1.00  0.00     0.054 C 
HETATM   14  C   UNL     1      -3.295 -14.936 -41.893  1.00  0.00    -0.002 C 
HETATM   15  C   UNL     1      -3.297 -16.479 -41.748  1.00  0.00     0.015 C 
HETATM   16  C   UNL     1      -4.451 -16.956 -42.613  1.00  0.00     0.001 C 
HETATM   17  C   UNL     1      -4.418 -16.033 -43.821  1.00  0.00     0.001 C 
HETATM   18  C   UNL     1      -3.773 -14.723 -43.356  1.00  0.00     0.015 C 
HETATM   19  N   UNL     1      -4.308 -13.314 -38.586  1.00  0.00    -0.217 NA
ENDROOT
BRANCH   1  20
HETATM   20  N   UNL     1      -6.253 -12.477 -37.674  1.00  0.00    -0.171 NA
HETATM   21  H   UNL     1      -6.218 -11.453 -37.707  1.00  0.00     0.156 HD
BRANCH  20  22
HETATM   22  N   UNL     1      -6.013 -12.970 -36.373  1.00  0.00    -0.284 N 
HETATM   23  C   UNL     1      -7.110 -13.494 -35.714  1.00  0.00     0.231 C 
HETATM   24  O   UNL     1      -8.187 -13.686 -36.274  1.00  0.00    -0.272 OA
HETATM   25  H   UNL     1      -5.277 -12.471 -35.871  1.00  0.00     0.184 HD
BRANCH  23  26
HETATM   26  C   UNL     1      -6.845 -13.775 -34.251  1.00  0.00     0.100 C 
HETATM   27  C   UNL     1      -5.677 -12.963 -33.716  1.00  0.00     0.014 C 
ENDBRANCH  23  26
ENDBRANCH  20  22
ENDBRANCH   1  20
BRANCH   2  28
HETATM   28  C   UNL     1      -7.741 -13.536 -39.855  1.00  0.00     0.045 A 
HETATM   29  C   UNL     1      -8.506 -14.675 -39.549  1.00  0.00     0.030 A 
HETATM   30  C   UNL     1      -9.902 -14.630 -39.565  1.00  0.00     0.002 A 
HETATM   31  C   UNL     1     -10.557 -13.449 -39.896  1.00  0.00     0.000 A 
HETATM   32  C   UNL     1      -9.817 -12.314 -40.220  1.00  0.00     0.002 A 
HETATM   33  C   UNL     1      -8.420 -12.360 -40.203  1.00  0.00     0.030 A 
ENDBRANCH   2  28
TORSDOF 4
ENDMDL
MODEL 7
REMARK VINA RESULT:      -8.9      2.842      5.904
REMARK  4 active torsions:
REMARK  status: ('A' for Active; 'I' for Inactive)
REMARK    1  A    between atoms: C_2  and  C_3 
REMARK       I    between atoms: C_3  and  N_4 
REMARK    2  A    between atoms: N_4  and  N_5 
REMARK    3  A    between atoms: N_5  and  C_6 
REMARK    4  A    between atoms: N_7  and  C_8 
ROOT
HETATM    1  C   UNL     1      -7.879   1.332 -32.866  1.00  0.00     0.208 A 
HETATM    2  N   UNL     1      -7.467   2.659 -32.963  1.00  0.00    -0.251 N 
HETATM    3  C   UNL     1      -8.305   3.616 -33.536  1.00  0.00     0.264 A 
HETATM    4  O   UNL     1      -7.989   4.795 -33.690  1.00  0.00    -0.267 OA
HETATM    5  C   UNL     1      -9.683   3.174 -33.914  1.00  0.00     0.049 A 
HETATM    6  C   UNL     1      -9.972   1.880 -33.669  1.00  0.00     0.083 A 
HETATM    7  C   UNL     1     -11.356   1.390 -33.911  1.00  0.00    -0.000 A 
HETATM    8  C   UNL     1     -12.227   2.123 -34.732  1.00  0.00    -0.044 A 
HETATM    9  C   UNL     1     -13.527   1.659 -34.983  1.00  0.00     0.008 A 
HETATM   10  C   UNL     1     -13.975   0.477 -34.398  1.00  0.00     0.001 A 
HETATM   11  C   UNL     1     -13.125  -0.252 -33.571  1.00  0.00     0.001 A 
HETATM   12  C   UNL     1     -11.825   0.200 -33.333  1.00  0.00     0.014 A 
HETATM   13  C   UNL     1     -11.722   3.378 -35.383  1.00  0.00     0.054 C 
HETATM   14  C   UNL     1     -10.728   4.158 -34.479  1.00  0.00    -0.002 C 
HETATM   15  C   UNL     1     -11.488   4.860 -33.325  1.00  0.00     0.015 C 
HETATM   16  C   UNL     1     -10.708   6.138 -33.059  1.00  0.00     0.001 C 
HETATM   17  C   UNL     1     -10.271   6.601 -34.439  1.00  0.00     0.001 C 
HETATM   18  C   UNL     1     -10.193   5.349 -35.319  1.00  0.00     0.015 C 
HETATM   19  N   UNL     1      -9.083   0.957 -33.198  1.00  0.00    -0.217 NA
ENDROOT
BRANCH   1  20
HETATM   20  N   UNL     1      -6.987   0.350 -32.453  1.00  0.00    -0.171 NA
HETATM   21  H   UNL     1      -6.049   0.668 -32.188  1.00  0.00     0.156 HD
BRANCH  20  22
HETATM   22  N   UNL     1      -6.942  -0.806 -33.262  1.00  0.00    -0.284 N 
HETATM   23  C   UNL     1      -5.712  -1.103 -33.822  1.00  0.00     0.231 C 
HETATM   24  O   UNL     1      -4.682  -0.512 -33.504  1.00  0.00    -0.272 OA
HETATM   25  H   UNL     1      -7.814  -0.998 -33.756  1.00  0.00     0.184 HD
BRANCH  23  26
HETATM   26  C   UNL     1      -5.784  -2.198 -34.864  1.00  0.00     0.100 C 
HETATM   27  C   UNL     1      -6.839  -3.238 -34.527  1.00  0.00     0.014 C 
ENDBRANCH  23  26
ENDBRANCH  20  22
ENDBRANCH   1  20
BRANCH   2  28
HETATM   28  C   UNL     1      -6.190   3.081 -32.447  1.00  0.00     0.045 A 
HETATM   29  C   UNL     1      -5.053   3.101 -33.273  1.00  0.00     0.030 A 
HETATM   30  C   UNL     1      -3.815   3.527 -32.783  1.00  0.00     0.002 A 
HETATM   31  C   UNL     1      -3.692   3.929 -31.457  1.00  0.00     0.000 A 
HETATM   32  C   UNL     1      -4.804   3.900 -30.619  1.00  0.00     0.002 A 
HETATM   33  C   UNL     1      -6.042   3.474 -31.109  1.00  0.00     0.030 A 
ENDBRANCH   2  28
TORSDOF 4
ENDMDL
MODEL 8
REMARK VINA RESULT:      -8.7      2.003      8.013
REMARK  4 active torsions:
REMARK  status: ('A' for Active; 'I' for Inactive)
REMARK    1  A    between atoms: C_2  and  C_3 
REMARK       I    between atoms: C_3  and  N_4 
REMARK    2  A    between atoms: N_4  and  N_5 
REMARK    3  A    between atoms: N_5  and  C_6 
REMARK    4  A    between atoms: N_7  and  C_8 
ROOT
HETATM    1  C   UNL     1      -7.847   2.385 -31.604  1.00  0.00     0.208 A 
HETATM    2  N   UNL     1      -6.830   2.154 -32.529  1.00  0.00    -0.251 N 
HETATM    3  C   UNL     1      -5.887   3.145 -32.799  1.00  0.00     0.264 A 
HETATM    4  O   UNL     1      -4.989   3.023 -33.632  1.00  0.00    -0.267 OA
HETATM    5  C   UNL     1      -5.951   4.389 -31.972  1.00  0.00     0.049 A 
HETATM    6  C   UNL     1      -6.931   4.429 -31.047  1.00  0.00     0.083 A 
HETATM    7  C   UNL     1      -6.993   5.582 -30.108  1.00  0.00    -0.000 A 
HETATM    8  C   UNL     1      -6.317   6.773 -30.412  1.00  0.00    -0.044 A 
HETATM    9  C   UNL     1      -6.385   7.872 -29.544  1.00  0.00     0.008 A 
HETATM   10  C   UNL     1      -7.107   7.782 -28.354  1.00  0.00     0.001 A 
HETATM   11  C   UNL     1      -7.770   6.602 -28.035  1.00  0.00     0.001 A 
HETATM   12  C   UNL     1      -7.716   5.511 -28.907  1.00  0.00     0.014 A 
HETATM   13  C   UNL     1      -5.571   6.868 -31.712  1.00  0.00     0.054 C 
HETATM   14  C   UNL     1      -4.914   5.521 -32.120  1.00  0.00    -0.002 C 
HETATM   15  C   UNL     1      -3.674   5.237 -31.234  1.00  0.00     0.015 C 
HETATM   16  C   UNL     1      -2.707   4.490 -32.138  1.00  0.00     0.001 C 
HETATM   17  C   UNL     1      -2.875   5.154 -33.495  1.00  0.00     0.001 C 
HETATM   18  C   UNL     1      -4.295   5.730 -33.529  1.00  0.00     0.015 C 
HETATM   19  N   UNL     1      -7.894   3.473 -30.887  1.00  0.00    -0.217 NA
ENDROOT
BRANCH   1  20
HETATM   20  N   UNL     1      -8.880   1.469 -31.456  1.00  0.00    -0.171 NA
HETATM   21  H   UNL     1      -8.622   0.477 -31.504  1.00  0.00     0.156 HD
BRANCH  20  22
HETATM   22  N   UNL     1     -10.046   1.745 -32.203  1.00  0.00    -0.284 N 
HETATM   23  C   UNL     1     -10.568   0.685 -32.922  1.00  0.00     0.231 C 
HETATM   24  O   UNL     1     -10.160  -0.467 -32.790  1.00  0.00    -0.272 OA
HETATM   25  H   UNL     1     -10.094   2.703 -32.554  1.00  0.00     0.184 HD
BRANCH  23  26
HETATM   26  C   UNL     1     -11.659   1.101 -33.885  1.00  0.00     0.100 C 
HETATM   27  C   UNL     1     -12.930   0.293 -33.691  1.00  0.00     0.014 C 
ENDBRANCH  23  26
ENDBRANCH  20  22
ENDBRANCH   1  20
BRANCH   2  28
HETATM   28  C   UNL     1      -6.707   0.884 -33.196  1.00  0.00     0.045 A 
HETATM   29  C   UNL     1      -6.007  -0.178 -32.597  1.00  0.00     0.030 A 
HETATM   30  C   UNL     1      -5.900  -1.418 -33.231  1.00  0.00     0.002 A 
HETATM   31  C   UNL     1      -6.482  -1.615 -34.479  1.00  0.00     0.000 A 
HETATM   32  C   UNL     1      -7.165  -0.570 -35.097  1.00  0.00     0.002 A 
HETATM   33  C   UNL     1      -7.272   0.671 -34.462  1.00  0.00     0.030 A 
ENDBRANCH   2  28
TORSDOF 4
ENDMDL
MODEL 9
REMARK VINA RESULT:      -8.7      2.742      5.975
REMARK  4 active torsions:
REMARK  status: ('A' for Active; 'I' for Inactive)
REMARK    1  A    between atoms: C_2  and  C_3 
REMARK       I    between atoms: C_3  and  N_4 
REMARK    2  A    between atoms: N_4  and  N_5 
REMARK    3  A    between atoms: N_5  and  C_6 
REMARK    4  A    between atoms: N_7  and  C_8 
ROOT
HETATM    1  C   UNL     1      -8.893   2.094 -32.091  1.00  0.00     0.208 A 
HETATM    2  N   UNL     1      -8.140   3.173 -31.632  1.00  0.00    -0.251 N 
HETATM    3  C   UNL     1      -6.753   3.068 -31.524  1.00  0.00     0.264 A 
HETATM    4  O   UNL     1      -6.034   3.967 -31.088  1.00  0.00    -0.267 OA
HETATM    5  C   UNL     1      -6.125   1.811 -32.032  1.00  0.00     0.049 A 
HETATM    6  C   UNL     1      -6.973   0.894 -32.539  1.00  0.00     0.083 A 
HETATM    7  C   UNL     1      -6.417  -0.335 -33.169  1.00  0.00    -0.000 A 
HETATM    8  C   UNL     1      -5.097  -0.728 -32.899  1.00  0.00    -0.044 A 
HETATM    9  C   UNL     1      -4.570  -1.895 -33.471  1.00  0.00     0.008 A 
HETATM   10  C   UNL     1      -5.348  -2.664 -34.334  1.00  0.00     0.001 A 
HETATM   11  C   UNL     1      -6.654  -2.279 -34.620  1.00  0.00     0.001 A 
HETATM   12  C   UNL     1      -7.185  -1.125 -34.038  1.00  0.00     0.014 A 
HETATM   13  C   UNL     1      -4.281   0.093 -31.941  1.00  0.00     0.054 C 
HETATM   14  C   UNL     1      -4.595   1.611 -32.042  1.00  0.00    -0.002 C 
HETATM   15  C   UNL     1      -3.981   2.203 -33.336  1.00  0.00     0.015 C 
HETATM   16  C   UNL     1      -3.601   3.629 -32.976  1.00  0.00     0.001 C 
HETATM   17  C   UNL     1      -3.096   3.531 -31.546  1.00  0.00     0.001 C 
HETATM   18  C   UNL     1      -3.785   2.314 -30.919  1.00  0.00     0.015 C 
HETATM   19  N   UNL     1      -8.334   1.001 -32.532  1.00  0.00    -0.217 NA
ENDROOT
BRANCH   1  20
HETATM   20  N   UNL     1     -10.280   2.136 -32.042  1.00  0.00    -0.171 NA
HETATM   21  H   UNL     1     -10.707   2.035 -31.115  1.00  0.00     0.156 HD
BRANCH  20  22
HETATM   22  N   UNL     1     -10.945   1.358 -33.015  1.00  0.00    -0.284 N 
HETATM   23  C   UNL     1     -12.020   1.963 -33.640  1.00  0.00     0.231 C 
HETATM   24  O   UNL     1     -12.282   3.155 -33.497  1.00  0.00    -0.272 OA
HETATM   25  H   UNL     1     -10.935   0.356 -32.819  1.00  0.00     0.184 HD
BRANCH  23  26
HETATM   26  C   UNL     1     -12.832   1.003 -34.483  1.00  0.00     0.100 C 
HETATM   27  C   UNL     1     -13.421  -0.126 -33.654  1.00  0.00     0.014 C 
ENDBRANCH  23  26
ENDBRANCH  20  22
ENDBRANCH   1  20
BRANCH   2  28
HETATM   28  C   UNL     1      -8.766   4.426 -31.296  1.00  0.00     0.045 A 
HETATM   29  C   UNL     1      -9.149   5.330 -32.302  1.00  0.00     0.030 A 
HETATM   30  C   UNL     1      -9.773   6.539 -31.983  1.00  0.00     0.002 A 
HETATM   31  C   UNL     1     -10.017   6.868 -30.654  1.00  0.00     0.000 A 
HETATM   32  C   UNL     1      -9.628   5.993 -29.642  1.00  0.00     0.002 A 
HETATM   33  C   UNL     1      -9.004   4.784 -29.961  1.00  0.00     0.030 A 
ENDBRANCH   2  28
TORSDOF 4
ENDMDL
MODEL 10
REMARK VINA RESULT:      -8.4     16.282     18.136
REMARK  4 active torsions:
REMARK  status: ('A' for Active; 'I' for Inactive)
REMARK    1  A    between atoms: C_2  and  C_3 
REMARK       I    between atoms: C_3  and  N_4 
REMARK    2  A    between atoms: N_4  and  N_5 
REMARK    3  A    between atoms: N_5  and  C_6 
REMARK    4  A    between atoms: N_7  and  C_8 
ROOT
HETATM    1  C   UNL     1      -6.045 -13.845 -40.048  1.00  0.00     0.208 A 
HETATM    2  N   UNL     1      -7.138 -13.951 -39.189  1.00  0.00    -0.251 N 
HETATM    3  C   UNL     1      -6.955 -14.342 -37.863  1.00  0.00     0.264 A 
HETATM    4  O   UNL     1      -7.878 -14.496 -37.064  1.00  0.00    -0.267 OA
HETATM    5  C   UNL     1      -5.546 -14.514 -37.393  1.00  0.00     0.049 A 
HETATM    6  C   UNL     1      -4.588 -14.281 -38.312  1.00  0.00     0.083 A 
HETATM    7  C   UNL     1      -3.160 -14.320 -37.894  1.00  0.00    -0.000 A 
HETATM    8  C   UNL     1      -2.795 -14.960 -36.700  1.00  0.00    -0.044 A 
HETATM    9  C   UNL     1      -1.450 -15.020 -36.307  1.00  0.00     0.008 A 
HETATM   10  C   UNL     1      -0.464 -14.421 -37.089  1.00  0.00     0.001 A 
HETATM   11  C   UNL     1      -0.815 -13.771 -38.269  1.00  0.00     0.001 A 
HETATM   12  C   UNL     1      -2.153 -13.724 -38.669  1.00  0.00     0.014 A 
HETATM   13  C   UNL     1      -3.862 -15.630 -35.884  1.00  0.00     0.054 C 
HETATM   14  C   UNL     1      -5.213 -14.864 -35.928  1.00  0.00    -0.002 C 
HETATM   15  C   UNL     1      -5.129 -13.576 -35.071  1.00  0.00     0.015 C 
HETATM   16  C   UNL     1      -6.528 -13.384 -34.508  1.00  0.00     0.001 C 
HETATM   17  C   UNL     1      -7.004 -14.796 -34.205  1.00  0.00     0.001 C 
HETATM   18  C   UNL     1      -6.247 -15.729 -35.157  1.00  0.00     0.015 C 
HETATM   19  N   UNL     1      -4.820 -13.997 -39.627  1.00  0.00    -0.217 NA
ENDROOT
BRANCH   1  20
HETATM   20  N   UNL     1      -6.240 -13.620 -41.405  1.00  0.00    -0.171 NA
HETATM   21  H   UNL     1      -7.077 -13.087 -41.664  1.00  0.00     0.156 HD
BRANCH  20  22
HETATM   22  N   UNL     1      -6.054 -14.745 -42.237  1.00  0.00    -0.284 N 
HETATM   23  C   UNL     1      -4.948 -14.707 -43.066  1.00  0.00     0.231 C 
HETATM   24  O   UNL     1      -4.080 -13.841 -42.969  1.00  0.00    -0.272 OA
HETATM   25  H   UNL     1      -6.925 -15.191 -42.529  1.00  0.00     0.184 HD
BRANCH  23  26
HETATM   26  C   UNL     1      -4.940 -15.814 -44.097  1.00  0.00     0.100 C 
HETATM   27  C   UNL     1      -3.767 -15.694 -45.056  1.00  0.00     0.014 C 
ENDBRANCH  23  26
ENDBRANCH  20  22
ENDBRANCH   1  20
BRANCH   2  28
HETATM   28  C   UNL     1      -8.469 -13.628 -39.636  1.00  0.00     0.045 A 
HETATM   29  C   UNL     1      -9.334 -14.632 -40.103  1.00  0.00     0.030 A 
HETATM   30  C   UNL     1     -10.632 -14.328 -40.520  1.00  0.00     0.002 A 
HETATM   31  C   UNL     1     -11.083 -13.012 -40.488  1.00  0.00     0.000 A 
HETATM   32  C   UNL     1     -10.234 -12.000 -40.047  1.00  0.00     0.002 A 
HETATM   33  C   UNL     1      -8.936 -12.306 -39.629  1.00  0.00     0.030 A 
ENDBRANCH   2  28
TORSDOF 4
ENDMDL
