MODEL 1
REMARK VINA RESULT:      -8.0      0.000      0.000
REMARK  6 active torsions:
REMARK  status: ('A' for Active; 'I' for Inactive)
REMARK    1  A    between atoms: N_2  and  C_3 
REMARK    2  A    between atoms: N_2  and  C_19 
REMARK    3  A    between atoms: C_4  and  N_5 
REMARK       I    between atoms: N_5  and  C_6 
REMARK    4  A    between atoms: C_6  and  C_7 
REMARK    5  A    between atoms: C_7  and  C_8 
REMARK    6  A    between atoms: C_19  and  C_20 
ROOT
HETATM    1  C   UNL     1      -5.918   0.843 -32.437  1.00  0.00     0.037 A 
HETATM    2  C   UNL     1      -7.032   1.024 -31.575  1.00  0.00     0.056 A 
HETATM    3  C   UNL     1      -6.902   1.769 -30.401  1.00  0.00     0.031 A 
HETATM    4  C   UNL     1      -5.677   2.349 -30.071  1.00  0.00     0.002 A 
HETATM    5  C   UNL     1      -4.577   2.183 -30.906  1.00  0.00     0.002 A 
HETATM    6  C   UNL     1      -4.695   1.432 -32.078  1.00  0.00     0.026 A 
ENDROOT
BRANCH   2   7
HETATM    7  N   UNL     1      -8.252   0.461 -32.002  1.00  0.00    -0.325 N 
HETATM    8  C   UNL     1      -9.381   1.106 -32.461  1.00  0.00     0.227 C 
HETATM    9  O   UNL     1      -9.547   2.325 -32.496  1.00  0.00    -0.273 OA
HETATM   10  H   UNL     1      -8.284  -0.547 -31.864  1.00  0.00     0.169 HD
BRANCH   8  11
HETATM   11  C   UNL     1     -10.483   0.140 -32.897  1.00  0.00     0.159 C 
BRANCH  11  12
HETATM   12  C   UNL     1     -11.519   0.820 -33.741  1.00  0.00     0.017 A 
HETATM   13  N   UNL     1     -11.179   1.602 -34.824  1.00  0.00    -0.369 N 
HETATM   14  H   UNL     1     -10.230   1.731 -35.160  1.00  0.00     0.165 HD
HETATM   15  C   UNL     1     -12.313   2.111 -35.399  1.00  0.00     0.088 A 
HETATM   16  C   UNL     1     -13.395   1.653 -34.684  1.00  0.00     0.019 A 
HETATM   17  C   UNL     1     -12.897   0.839 -33.638  1.00  0.00     0.027 A 
ENDBRANCH  11  12
ENDBRANCH   8  11
ENDBRANCH   2   7
BRANCH   1  18
HETATM   18  N   UNL     1      -6.068   0.039 -33.605  1.00  0.00    -0.281 NA
HETATM   19  C   UNL     1      -6.568   0.771 -34.773  1.00  0.00     0.117 C 
BRANCH  18  20
HETATM   20  C   UNL     1      -4.851  -0.766 -33.866  1.00  0.00     0.133 C 
BRANCH  20  21
HETATM   21  C   UNL     1      -5.221  -2.201 -34.182  1.00  0.00    -0.045 A 
HETATM   22  C   UNL     1      -6.511  -2.536 -34.623  1.00  0.00     0.008 A 
HETATM   23  C   UNL     1      -6.846  -3.860 -34.909  1.00  0.00     0.001 A 
HETATM   24  C   UNL     1      -5.894  -4.866 -34.764  1.00  0.00     0.000 A 
HETATM   25  C   UNL     1      -4.609  -4.550 -34.331  1.00  0.00     0.001 A 
HETATM   26  C   UNL     1      -4.273  -3.226 -34.040  1.00  0.00     0.008 A 
ENDBRANCH  20  21
ENDBRANCH  18  20
ENDBRANCH   1  18
TORSDOF 6
ENDMDL
MODEL 2
REMARK VINA RESULT:      -8.0      1.524      2.157
REMARK  6 active torsions:
REMARK  status: ('A' for Active; 'I' for Inactive)
REMARK    1  A    between atoms: N_2  and  C_3 
REMARK    2  A    between atoms: N_2  and  C_19 
REMARK    3  A    between atoms: C_4  and  N_5 
REMARK       I    between atoms: N_5  and  C_6 
REMARK    4  A    between atoms: C_6  and  C_7 
REMARK    5  A    between atoms: C_7  and  C_8 
REMARK    6  A    between atoms: C_19  and  C_20 
ROOT
HETATM    1  C   UNL     1      -7.209   2.161 -31.837  1.00  0.00     0.037 A 
HETATM    2  C   UNL     1      -8.549   2.251 -31.375  1.00  0.00     0.056 A 
HETATM    3  C   UNL     1      -8.885   3.142 -30.354  1.00  0.00     0.031 A 
HETATM    4  C   UNL     1      -7.907   3.958 -29.785  1.00  0.00     0.002 A 
HETATM    5  C   UNL     1      -6.591   3.884 -30.228  1.00  0.00     0.002 A 
HETATM    6  C   UNL     1      -6.242   2.989 -31.243  1.00  0.00     0.026 A 
ENDROOT
BRANCH   2   7
HETATM    7  N   UNL     1      -9.495   1.440 -32.036  1.00  0.00    -0.325 N 
HETATM    8  C   UNL     1     -10.345   1.779 -33.066  1.00  0.00     0.227 C 
HETATM    9  O   UNL     1     -10.485   2.908 -33.539  1.00  0.00    -0.273 OA
HETATM   10  H   UNL     1      -9.577   0.517 -31.615  1.00  0.00     0.169 HD
BRANCH   8  11
HETATM   11  C   UNL     1     -11.179   0.599 -33.565  1.00  0.00     0.159 C 
BRANCH  11  12
HETATM   12  C   UNL     1     -12.643   0.917 -33.583  1.00  0.00     0.017 A 
HETATM   13  N   UNL     1     -13.173   1.953 -32.844  1.00  0.00    -0.369 N 
HETATM   14  H   UNL     1     -12.622   2.599 -32.289  1.00  0.00     0.165 HD
HETATM   15  C   UNL     1     -14.529   2.007 -33.032  1.00  0.00     0.088 A 
HETATM   16  C   UNL     1     -14.878   0.999 -33.901  1.00  0.00     0.019 A 
HETATM   17  C   UNL     1     -13.691   0.311 -34.249  1.00  0.00     0.027 A 
ENDBRANCH  11  12
ENDBRANCH   8  11
ENDBRANCH   2   7
BRANCH   1  18
HETATM   18  N   UNL     1      -6.886   1.209 -32.848  1.00  0.00    -0.281 NA
HETATM   19  C   UNL     1      -6.657   1.799 -34.171  1.00  0.00     0.117 C 
BRANCH  18  20
HETATM   20  C   UNL     1      -5.816   0.287 -32.400  1.00  0.00     0.133 C 
BRANCH  20  21
HETATM   21  C   UNL     1      -5.787  -0.956 -33.266  1.00  0.00    -0.045 A 
HETATM   22  C   UNL     1      -4.573  -1.573 -33.606  1.00  0.00     0.008 A 
HETATM   23  C   UNL     1      -4.554  -2.715 -34.408  1.00  0.00     0.001 A 
HETATM   24  C   UNL     1      -5.747  -3.260 -34.875  1.00  0.00     0.000 A 
HETATM   25  C   UNL     1      -6.960  -2.662 -34.543  1.00  0.00     0.001 A 
HETATM   26  C   UNL     1      -6.982  -1.515 -33.744  1.00  0.00     0.008 A 
ENDBRANCH  20  21
ENDBRANCH  18  20
ENDBRANCH   1  18
TORSDOF 6
ENDMDL
MODEL 3
REMARK VINA RESULT:      -7.9      1.787      4.788
REMARK  6 active torsions:
REMARK  status: ('A' for Active; 'I' for Inactive)
REMARK    1  A    between atoms: N_2  and  C_3 
REMARK    2  A    between atoms: N_2  and  C_19 
REMARK    3  A    between atoms: C_4  and  N_5 
REMARK       I    between atoms: N_5  and  C_6 
REMARK    4  A    between atoms: C_6  and  C_7 
REMARK    5  A    between atoms: C_7  and  C_8 
REMARK    6  A    between atoms: C_19  and  C_20 
ROOT
HETATM    1  C   UNL     1      -5.452  -0.832 -32.974  1.00  0.00     0.037 A 
HETATM    2  C   UNL     1      -6.705  -1.186 -33.539  1.00  0.00     0.056 A 
HETATM    3  C   UNL     1      -6.794  -2.229 -34.463  1.00  0.00     0.031 A 
HETATM    4  C   UNL     1      -5.650  -2.938 -34.831  1.00  0.00     0.002 A 
HETATM    5  C   UNL     1      -4.415  -2.604 -34.285  1.00  0.00     0.002 A 
HETATM    6  C   UNL     1      -4.315  -1.556 -33.367  1.00  0.00     0.026 A 
ENDROOT
BRANCH   2   7
HETATM    7  N   UNL     1      -7.827  -0.467 -33.075  1.00  0.00    -0.325 N 
HETATM    8  C   UNL     1      -8.646   0.392 -33.777  1.00  0.00     0.227 C 
HETATM    9  O   UNL     1      -8.478   0.752 -34.943  1.00  0.00    -0.273 OA
HETATM   10  H   UNL     1      -7.965  -0.568 -32.072  1.00  0.00     0.169 HD
BRANCH   8  11
HETATM   11  C   UNL     1      -9.806   0.928 -32.938  1.00  0.00     0.159 C 
BRANCH  11  12
HETATM   12  C   UNL     1     -11.042   1.132 -33.760  1.00  0.00     0.017 A 
HETATM   13  N   UNL     1     -11.072   2.003 -34.827  1.00  0.00    -0.369 N 
HETATM   14  H   UNL     1     -10.266   2.520 -35.167  1.00  0.00     0.165 HD
HETATM   15  C   UNL     1     -12.323   2.007 -35.385  1.00  0.00     0.088 A 
HETATM   16  C   UNL     1     -13.108   1.130 -34.673  1.00  0.00     0.019 A 
HETATM   17  C   UNL     1     -12.302   0.577 -33.648  1.00  0.00     0.027 A 
ENDBRANCH  11  12
ENDBRANCH   8  11
ENDBRANCH   2   7
BRANCH   1  18
HETATM   18  N   UNL     1      -5.385   0.268 -32.068  1.00  0.00    -0.281 NA
HETATM   19  C   UNL     1      -4.674  -0.029 -30.821  1.00  0.00     0.117 C 
BRANCH  18  20
HETATM   20  C   UNL     1      -4.928   1.502 -32.750  1.00  0.00     0.133 C 
BRANCH  20  21
HETATM   21  C   UNL     1      -6.012   2.560 -32.719  1.00  0.00    -0.045 A 
HETATM   22  C   UNL     1      -6.753   2.802 -31.552  1.00  0.00     0.008 A 
HETATM   23  C   UNL     1      -7.754   3.775 -31.531  1.00  0.00     0.001 A 
HETATM   24  C   UNL     1      -8.022   4.523 -32.674  1.00  0.00     0.000 A 
HETATM   25  C   UNL     1      -7.294   4.297 -33.840  1.00  0.00     0.001 A 
HETATM   26  C   UNL     1      -6.295   3.320 -33.864  1.00  0.00     0.008 A 
ENDBRANCH  20  21
ENDBRANCH  18  20
ENDBRANCH   1  18
TORSDOF 6
ENDMDL
MODEL 4
REMARK VINA RESULT:      -7.8      1.916      4.695
REMARK  6 active torsions:
REMARK  status: ('A' for Active; 'I' for Inactive)
REMARK    1  A    between atoms: N_2  and  C_3 
REMARK    2  A    between atoms: N_2  and  C_19 
REMARK    3  A    between atoms: C_4  and  N_5 
REMARK       I    between atoms: N_5  and  C_6 
REMARK    4  A    between atoms: C_6  and  C_7 
REMARK    5  A    between atoms: C_7  and  C_8 
REMARK    6  A    between atoms: C_19  and  C_20 
ROOT
HETATM    1  C   UNL     1      -5.762  -0.720 -32.800  1.00  0.00     0.037 A 
HETATM    2  C   UNL     1      -6.883  -1.125 -33.572  1.00  0.00     0.056 A 
HETATM    3  C   UNL     1      -6.760  -2.148 -34.514  1.00  0.00     0.031 A 
HETATM    4  C   UNL     1      -5.533  -2.786 -34.699  1.00  0.00     0.002 A 
HETATM    5  C   UNL     1      -4.426  -2.402 -33.950  1.00  0.00     0.002 A 
HETATM    6  C   UNL     1      -4.537  -1.374 -33.011  1.00  0.00     0.026 A 
ENDROOT
BRANCH   2   7
HETATM    7  N   UNL     1      -8.104  -0.477 -33.289  1.00  0.00    -0.325 N 
HETATM    8  C   UNL     1      -8.792   0.433 -34.063  1.00  0.00     0.227 C 
HETATM    9  O   UNL     1      -8.400   0.912 -35.127  1.00  0.00    -0.273 OA
HETATM   10  H   UNL     1      -8.444  -0.681 -32.352  1.00  0.00     0.169 HD
BRANCH   8  11
HETATM   11  C   UNL     1     -10.121   0.860 -33.441  1.00  0.00     0.159 C 
BRANCH  11  12
HETATM   12  C   UNL     1     -10.900   1.762 -34.351  1.00  0.00     0.017 A 
HETATM   13  N   UNL     1     -10.407   2.980 -34.765  1.00  0.00    -0.369 N 
HETATM   14  H   UNL     1      -9.481   3.329 -34.539  1.00  0.00     0.165 HD
HETATM   15  C   UNL     1     -11.326   3.599 -35.570  1.00  0.00     0.088 A 
HETATM   16  C   UNL     1     -12.421   2.774 -35.679  1.00  0.00     0.019 A 
HETATM   17  C   UNL     1     -12.154   1.615 -34.910  1.00  0.00     0.027 A 
ENDBRANCH  11  12
ENDBRANCH   8  11
ENDBRANCH   2   7
BRANCH   1  18
HETATM   18  N   UNL     1      -5.906   0.359 -31.879  1.00  0.00    -0.281 NA
HETATM   19  C   UNL     1      -6.447  -0.038 -30.575  1.00  0.00     0.117 C 
BRANCH  18  20
HETATM   20  C   UNL     1      -4.670   1.173 -31.802  1.00  0.00     0.133 C 
BRANCH  20  21
HETATM   21  C   UNL     1      -4.816   2.441 -32.619  1.00  0.00    -0.045 A 
HETATM   22  C   UNL     1      -6.009   2.728 -33.301  1.00  0.00     0.008 A 
HETATM   23  C   UNL     1      -6.136   3.896 -34.056  1.00  0.00     0.001 A 
HETATM   24  C   UNL     1      -5.076   4.794 -34.132  1.00  0.00     0.000 A 
HETATM   25  C   UNL     1      -3.887   4.526 -33.457  1.00  0.00     0.001 A 
HETATM   26  C   UNL     1      -3.756   3.355 -32.706  1.00  0.00     0.008 A 
ENDBRANCH  20  21
ENDBRANCH  18  20
ENDBRANCH   1  18
TORSDOF 6
ENDMDL
MODEL 5
REMARK VINA RESULT:      -7.6      2.208      6.500
REMARK  6 active torsions:
REMARK  status: ('A' for Active; 'I' for Inactive)
REMARK    1  A    between atoms: N_2  and  C_3 
REMARK    2  A    between atoms: N_2  and  C_19 
REMARK    3  A    between atoms: C_4  and  N_5 
REMARK       I    between atoms: N_5  and  C_6 
REMARK    4  A    between atoms: C_6  and  C_7 
REMARK    5  A    between atoms: C_7  and  C_8 
REMARK    6  A    between atoms: C_19  and  C_20 
ROOT
HETATM    1  C   UNL     1      -6.324  -1.724 -34.271  1.00  0.00     0.037 A 
HETATM    2  C   UNL     1      -4.951  -1.793 -33.914  1.00  0.00     0.056 A 
HETATM    3  C   UNL     1      -4.258  -3.002 -34.002  1.00  0.00     0.031 A 
HETATM    4  C   UNL     1      -4.909  -4.152 -34.448  1.00  0.00     0.002 A 
HETATM    5  C   UNL     1      -6.253  -4.101 -34.803  1.00  0.00     0.002 A 
HETATM    6  C   UNL     1      -6.957  -2.898 -34.711  1.00  0.00     0.026 A 
ENDROOT
BRANCH   2   7
HETATM    7  N   UNL     1      -4.343  -0.579 -33.529  1.00  0.00    -0.325 N 
HETATM    8  C   UNL     1      -4.331   0.018 -32.287  1.00  0.00     0.227 C 
HETATM    9  O   UNL     1      -4.941  -0.378 -31.294  1.00  0.00    -0.273 OA
HETATM   10  H   UNL     1      -3.939  -0.080 -34.319  1.00  0.00     0.169 HD
BRANCH   8  11
HETATM   11  C   UNL     1      -3.502   1.302 -32.252  1.00  0.00     0.159 C 
BRANCH  11  12
HETATM   12  C   UNL     1      -4.319   2.482 -31.817  1.00  0.00     0.017 A 
HETATM   13  N   UNL     1      -4.511   2.786 -30.488  1.00  0.00    -0.369 N 
HETATM   14  H   UNL     1      -4.080   2.282 -29.718  1.00  0.00     0.165 HD
HETATM   15  C   UNL     1      -5.306   3.896 -30.378  1.00  0.00     0.088 A 
HETATM   16  C   UNL     1      -5.629   4.314 -31.648  1.00  0.00     0.019 A 
HETATM   17  C   UNL     1      -5.008   3.424 -32.557  1.00  0.00     0.027 A 
ENDBRANCH  11  12
ENDBRANCH   8  11
ENDBRANCH   2   7
BRANCH   1  18
HETATM   18  N   UNL     1      -7.018  -0.487 -34.128  1.00  0.00    -0.281 NA
HETATM   19  C   UNL     1      -7.066   0.315 -35.354  1.00  0.00     0.117 C 
BRANCH  18  20
HETATM   20  C   UNL     1      -8.333  -0.677 -33.472  1.00  0.00     0.133 C 
BRANCH  20  21
HETATM   21  C   UNL     1      -8.789   0.607 -32.811  1.00  0.00    -0.045 A 
HETATM   22  C   UNL     1      -9.912   1.304 -33.282  1.00  0.00     0.008 A 
HETATM   23  C   UNL     1     -10.325   2.490 -32.671  1.00  0.00     0.001 A 
HETATM   24  C   UNL     1      -9.624   2.989 -31.576  1.00  0.00     0.000 A 
HETATM   25  C   UNL     1      -8.510   2.307 -31.094  1.00  0.00     0.001 A 
HETATM   26  C   UNL     1      -8.092   1.123 -31.707  1.00  0.00     0.008 A 
ENDBRANCH  20  21
ENDBRANCH  18  20
ENDBRANCH   1  18
TORSDOF 6
ENDMDL
MODEL 6
REMARK VINA RESULT:      -7.5      2.186      5.330
REMARK  6 active torsions:
REMARK  status: ('A' for Active; 'I' for Inactive)
REMARK    1  A    between atoms: N_2  and  C_3 
REMARK    2  A    between atoms: N_2  and  C_19 
REMARK    3  A    between atoms: C_4  and  N_5 
REMARK       I    between atoms: N_5  and  C_6 
REMARK    4  A    between atoms: C_6  and  C_7 
REMARK    5  A    between atoms: C_7  and  C_8 
REMARK    6  A    between atoms: C_19  and  C_20 
ROOT
HETATM    1  C   UNL     1      -5.615  -0.728 -32.980  1.00  0.00     0.037 A 
HETATM    2  C   UNL     1      -6.825  -1.160 -33.586  1.00  0.00     0.056 A 
HETATM    3  C   UNL     1      -6.824  -2.237 -34.474  1.00  0.00     0.031 A 
HETATM    4  C   UNL     1      -5.634  -2.904 -34.766  1.00  0.00     0.002 A 
HETATM    5  C   UNL     1      -4.441  -2.494 -34.180  1.00  0.00     0.002 A 
HETATM    6  C   UNL     1      -4.430  -1.412 -33.297  1.00  0.00     0.026 A 
ENDROOT
BRANCH   2   7
HETATM    7  N   UNL     1      -7.997  -0.478 -33.198  1.00  0.00    -0.325 N 
HETATM    8  C   UNL     1      -8.751   0.416 -33.927  1.00  0.00     0.227 C 
HETATM    9  O   UNL     1      -8.470   0.848 -35.045  1.00  0.00    -0.273 OA
HETATM   10  H   UNL     1      -8.235  -0.641 -32.222  1.00  0.00     0.169 HD
BRANCH   8  11
HETATM   11  C   UNL     1      -9.998   0.892 -33.181  1.00  0.00     0.159 C 
BRANCH  11  12
HETATM   12  C   UNL     1      -9.714   2.091 -32.327  1.00  0.00     0.017 A 
HETATM   13  N   UNL     1     -10.279   3.320 -32.585  1.00  0.00    -0.369 N 
HETATM   14  H   UNL     1     -10.958   3.494 -33.320  1.00  0.00     0.165 HD
HETATM   15  C   UNL     1      -9.836   4.234 -31.666  1.00  0.00     0.088 A 
HETATM   16  C   UNL     1      -8.979   3.589 -30.805  1.00  0.00     0.019 A 
HETATM   17  C   UNL     1      -8.900   2.238 -31.220  1.00  0.00     0.027 A 
ENDBRANCH  11  12
ENDBRANCH   8  11
ENDBRANCH   2   7
BRANCH   1  18
HETATM   18  N   UNL     1      -5.638   0.404 -32.113  1.00  0.00    -0.281 NA
HETATM   19  C   UNL     1      -5.600   0.065 -30.687  1.00  0.00     0.117 C 
BRANCH  18  20
HETATM   20  C   UNL     1      -4.640   1.420 -32.525  1.00  0.00     0.133 C 
BRANCH  20  21
HETATM   21  C   UNL     1      -5.295   2.778 -32.680  1.00  0.00    -0.045 A 
HETATM   22  C   UNL     1      -5.058   3.805 -31.753  1.00  0.00     0.008 A 
HETATM   23  C   UNL     1      -5.668   5.052 -31.899  1.00  0.00     0.001 A 
HETATM   24  C   UNL     1      -6.517   5.290 -32.976  1.00  0.00     0.000 A 
HETATM   25  C   UNL     1      -6.760   4.282 -33.906  1.00  0.00     0.001 A 
HETATM   26  C   UNL     1      -6.155   3.032 -33.759  1.00  0.00     0.008 A 
ENDBRANCH  20  21
ENDBRANCH  18  20
ENDBRANCH   1  18
TORSDOF 6
ENDMDL
MODEL 7
REMARK VINA RESULT:      -7.4      2.786      6.100
REMARK  6 active torsions:
REMARK  status: ('A' for Active; 'I' for Inactive)
REMARK    1  A    between atoms: N_2  and  C_3 
REMARK    2  A    between atoms: N_2  and  C_19 
REMARK    3  A    between atoms: C_4  and  N_5 
REMARK       I    between atoms: N_5  and  C_6 
REMARK    4  A    between atoms: C_6  and  C_7 
REMARK    5  A    between atoms: C_7  and  C_8 
REMARK    6  A    between atoms: C_19  and  C_20 
ROOT
HETATM    1  C   UNL     1      -9.678   2.081 -33.942  1.00  0.00     0.037 A 
HETATM    2  C   UNL     1      -9.148   3.374 -33.687  1.00  0.00     0.056 A 
HETATM    3  C   UNL     1      -9.848   4.515 -34.084  1.00  0.00     0.031 A 
HETATM    4  C   UNL     1     -11.079   4.393 -34.729  1.00  0.00     0.002 A 
HETATM    5  C   UNL     1     -11.612   3.134 -34.984  1.00  0.00     0.002 A 
HETATM    6  C   UNL     1     -10.916   1.986 -34.599  1.00  0.00     0.026 A 
ENDROOT
BRANCH   2   7
HETATM    7  N   UNL     1      -7.929   3.422 -32.978  1.00  0.00    -0.325 N 
HETATM    8  C   UNL     1      -6.785   4.127 -33.285  1.00  0.00     0.227 C 
HETATM    9  O   UNL     1      -6.602   4.787 -34.308  1.00  0.00    -0.273 OA
HETATM   10  H   UNL     1      -7.914   2.780 -32.189  1.00  0.00     0.169 HD
BRANCH   8  11
HETATM   11  C   UNL     1      -5.691   3.975 -32.229  1.00  0.00     0.159 C 
BRANCH  11  12
HETATM   12  C   UNL     1      -4.348   4.385 -32.754  1.00  0.00     0.017 A 
HETATM   13  N   UNL     1      -4.117   5.645 -33.262  1.00  0.00    -0.369 N 
HETATM   14  H   UNL     1      -4.803   6.393 -33.268  1.00  0.00     0.165 HD
HETATM   15  C   UNL     1      -2.818   5.741 -33.685  1.00  0.00     0.088 A 
HETATM   16  C   UNL     1      -2.203   4.534 -33.447  1.00  0.00     0.019 A 
HETATM   17  C   UNL     1      -3.166   3.677 -32.861  1.00  0.00     0.027 A 
ENDBRANCH  11  12
ENDBRANCH   8  11
ENDBRANCH   2   7
BRANCH   1  18
HETATM   18  N   UNL     1      -8.920   0.933 -33.567  1.00  0.00    -0.281 NA
HETATM   19  C   UNL     1      -9.653  -0.017 -32.724  1.00  0.00     0.117 C 
BRANCH  18  20
HETATM   20  C   UNL     1      -8.253   0.319 -34.739  1.00  0.00     0.133 C 
BRANCH  20  21
HETATM   21  C   UNL     1      -6.947  -0.331 -34.329  1.00  0.00    -0.045 A 
HETATM   22  C   UNL     1      -5.985   0.381 -33.596  1.00  0.00     0.008 A 
HETATM   23  C   UNL     1      -4.782  -0.222 -33.225  1.00  0.00     0.001 A 
HETATM   24  C   UNL     1      -4.528  -1.546 -33.575  1.00  0.00     0.000 A 
HETATM   25  C   UNL     1      -5.475  -2.267 -34.299  1.00  0.00     0.001 A 
HETATM   26  C   UNL     1      -6.678  -1.663 -34.676  1.00  0.00     0.008 A 
ENDBRANCH  20  21
ENDBRANCH  18  20
ENDBRANCH   1  18
TORSDOF 6
ENDMDL
MODEL 8
REMARK VINA RESULT:      -7.4      3.489      6.701
REMARK  6 active torsions:
REMARK  status: ('A' for Active; 'I' for Inactive)
REMARK    1  A    between atoms: N_2  and  C_3 
REMARK    2  A    between atoms: N_2  and  C_19 
REMARK    3  A    between atoms: C_4  and  N_5 
REMARK       I    between atoms: N_5  and  C_6 
REMARK    4  A    between atoms: C_6  and  C_7 
REMARK    5  A    between atoms: C_7  and  C_8 
REMARK    6  A    between atoms: C_19  and  C_20 
ROOT
HETATM    1  C   UNL     1      -7.022   2.269 -32.129  1.00  0.00     0.037 A 
HETATM    2  C   UNL     1      -6.453   3.178 -33.060  1.00  0.00     0.056 A 
HETATM    3  C   UNL     1      -7.273   3.997 -33.839  1.00  0.00     0.031 A 
HETATM    4  C   UNL     1      -8.660   3.932 -33.703  1.00  0.00     0.002 A 
HETATM    5  C   UNL     1      -9.233   3.048 -32.795  1.00  0.00     0.002 A 
HETATM    6  C   UNL     1      -8.421   2.219 -32.017  1.00  0.00     0.026 A 
ENDROOT
BRANCH   2   7
HETATM    7  N   UNL     1      -5.044   3.233 -33.100  1.00  0.00    -0.325 N 
HETATM    8  C   UNL     1      -4.205   4.170 -32.538  1.00  0.00     0.227 C 
HETATM    9  O   UNL     1      -4.561   5.197 -31.959  1.00  0.00    -0.273 OA
HETATM   10  H   UNL     1      -4.645   2.510 -33.695  1.00  0.00     0.169 HD
BRANCH   8  11
HETATM   11  C   UNL     1      -2.725   3.846 -32.743  1.00  0.00     0.159 C 
BRANCH  11  12
HETATM   12  C   UNL     1      -1.866   5.070 -32.641  1.00  0.00     0.017 A 
HETATM   13  N   UNL     1      -2.028   6.147 -33.485  1.00  0.00    -0.369 N 
HETATM   14  H   UNL     1      -2.759   6.219 -34.186  1.00  0.00     0.165 HD
HETATM   15  C   UNL     1      -1.104   7.112 -33.183  1.00  0.00     0.088 A 
HETATM   16  C   UNL     1      -0.340   6.656 -32.135  1.00  0.00     0.019 A 
HETATM   17  C   UNL     1      -0.818   5.368 -31.792  1.00  0.00     0.027 A 
ENDBRANCH  11  12
ENDBRANCH   8  11
ENDBRANCH   2   7
BRANCH   1  18
HETATM   18  N   UNL     1      -6.162   1.413 -31.380  1.00  0.00    -0.281 NA
HETATM   19  C   UNL     1      -5.766   1.957 -30.077  1.00  0.00     0.117 C 
BRANCH  18  20
HETATM   20  C   UNL     1      -6.690   0.029 -31.326  1.00  0.00     0.133 C 
BRANCH  20  21
HETATM   21  C   UNL     1      -6.248  -0.756 -32.545  1.00  0.00    -0.045 A 
HETATM   22  C   UNL     1      -7.168  -1.131 -33.536  1.00  0.00     0.008 A 
HETATM   23  C   UNL     1      -6.756  -1.859 -34.653  1.00  0.00     0.001 A 
HETATM   24  C   UNL     1      -5.417  -2.214 -34.798  1.00  0.00     0.000 A 
HETATM   25  C   UNL     1      -4.491  -1.846 -33.825  1.00  0.00     0.001 A 
HETATM   26  C   UNL     1      -4.903  -1.122 -32.703  1.00  0.00     0.008 A 
ENDBRANCH  20  21
ENDBRANCH  18  20
ENDBRANCH   1  18
TORSDOF 6
ENDMDL
MODEL 9
REMARK VINA RESULT:      -7.3      2.701      7.213
REMARK  6 active torsions:
REMARK  status: ('A' for Active; 'I' for Inactive)
REMARK    1  A    between atoms: N_2  and  C_3 
REMARK    2  A    between atoms: N_2  and  C_19 
REMARK    3  A    between atoms: C_4  and  N_5 
REMARK       I    between atoms: N_5  and  C_6 
REMARK    4  A    between atoms: C_6  and  C_7 
REMARK    5  A    between atoms: C_7  and  C_8 
REMARK    6  A    between atoms: C_19  and  C_20 
ROOT
HETATM    1  C   UNL     1      -6.050  -0.883 -33.873  1.00  0.00     0.037 A 
HETATM    2  C   UNL     1      -4.939  -0.692 -33.010  1.00  0.00     0.056 A 
HETATM    3  C   UNL     1      -3.977  -1.693 -32.866  1.00  0.00     0.031 A 
HETATM    4  C   UNL     1      -4.096  -2.887 -33.577  1.00  0.00     0.002 A 
HETATM    5  C   UNL     1      -5.177  -3.089 -34.428  1.00  0.00     0.002 A 
HETATM    6  C   UNL     1      -6.150  -2.097 -34.572  1.00  0.00     0.026 A 
ENDROOT
BRANCH   2   7
HETATM    7  N   UNL     1      -4.852   0.562 -32.370  1.00  0.00    -0.325 N 
HETATM    8  C   UNL     1      -3.809   1.077 -31.630  1.00  0.00     0.227 C 
HETATM    9  O   UNL     1      -2.780   0.475 -31.323  1.00  0.00    -0.273 OA
HETATM   10  H   UNL     1      -5.721   1.088 -32.426  1.00  0.00     0.169 HD
BRANCH   8  11
HETATM   11  C   UNL     1      -4.065   2.508 -31.154  1.00  0.00     0.159 C 
BRANCH  11  12
HETATM   12  C   UNL     1      -3.078   3.475 -31.736  1.00  0.00     0.017 A 
HETATM   13  N   UNL     1      -2.277   4.265 -30.942  1.00  0.00    -0.369 N 
HETATM   14  H   UNL     1      -2.251   4.216 -29.928  1.00  0.00     0.165 HD
HETATM   15  C   UNL     1      -1.489   5.061 -31.729  1.00  0.00     0.088 A 
HETATM   16  C   UNL     1      -1.782   4.783 -33.044  1.00  0.00     0.019 A 
HETATM   17  C   UNL     1      -2.785   3.783 -33.051  1.00  0.00     0.027 A 
ENDBRANCH  11  12
ENDBRANCH   8  11
ENDBRANCH   2   7
BRANCH   1  18
HETATM   18  N   UNL     1      -7.042   0.138 -33.965  1.00  0.00    -0.281 NA
HETATM   19  C   UNL     1      -7.241   0.656 -35.322  1.00  0.00     0.117 C 
BRANCH  18  20
HETATM   20  C   UNL     1      -8.292  -0.259 -33.276  1.00  0.00     0.133 C 
BRANCH  20  21
HETATM   21  C   UNL     1      -9.119   0.962 -32.929  1.00  0.00    -0.045 A 
HETATM   22  C   UNL     1      -8.633   1.938 -32.046  1.00  0.00     0.008 A 
HETATM   23  C   UNL     1      -9.402   3.058 -31.727  1.00  0.00     0.001 A 
HETATM   24  C   UNL     1     -10.664   3.221 -32.292  1.00  0.00     0.000 A 
HETATM   25  C   UNL     1     -11.160   2.263 -33.173  1.00  0.00     0.001 A 
HETATM   26  C   UNL     1     -10.394   1.138 -33.489  1.00  0.00     0.008 A 
ENDBRANCH  20  21
ENDBRANCH  18  20
ENDBRANCH   1  18
TORSDOF 6
ENDMDL
MODEL 10
REMARK VINA RESULT:      -7.3      1.569      2.147
REMARK  6 active torsions:
REMARK  status: ('A' for Active; 'I' for Inactive)
REMARK    1  A    between atoms: N_2  and  C_3 
REMARK    2  A    between atoms: N_2  and  C_19 
REMARK    3  A    between atoms: C_4  and  N_5 
REMARK       I    between atoms: N_5  and  C_6 
REMARK    4  A    between atoms: C_6  and  C_7 
REMARK    5  A    between atoms: C_7  and  C_8 
REMARK    6  A    between atoms: C_19  and  C_20 
ROOT
HETATM    1  C   UNL     1      -5.040   1.181 -32.836  1.00  0.00     0.037 A 
HETATM    2  C   UNL     1      -5.939   2.167 -33.322  1.00  0.00     0.056 A 
HETATM    3  C   UNL     1      -5.567   3.512 -33.341  1.00  0.00     0.031 A 
HETATM    4  C   UNL     1      -4.305   3.897 -32.890  1.00  0.00     0.002 A 
HETATM    5  C   UNL     1      -3.412   2.943 -32.413  1.00  0.00     0.002 A 
HETATM    6  C   UNL     1      -3.778   1.595 -32.381  1.00  0.00     0.026 A 
ENDROOT
BRANCH   2   7
HETATM    7  N   UNL     1      -7.173   1.698 -33.818  1.00  0.00    -0.325 N 
HETATM    8  C   UNL     1      -8.441   1.951 -33.340  1.00  0.00     0.227 C 
HETATM    9  O   UNL     1      -8.711   2.579 -32.316  1.00  0.00    -0.273 OA
HETATM   10  H   UNL     1      -7.059   1.033 -34.579  1.00  0.00     0.169 HD
BRANCH   8  11
HETATM   11  C   UNL     1      -9.538   1.315 -34.195  1.00  0.00     0.159 C 
BRANCH  11  12
HETATM   12  C   UNL     1     -10.834   2.060 -34.084  1.00  0.00     0.017 A 
HETATM   13  N   UNL     1     -11.668   1.915 -32.997  1.00  0.00    -0.369 N 
HETATM   14  H   UNL     1     -11.450   1.351 -32.181  1.00  0.00     0.165 HD
HETATM   15  C   UNL     1     -12.783   2.692 -33.164  1.00  0.00     0.088 A 
HETATM   16  C   UNL     1     -12.669   3.347 -34.368  1.00  0.00     0.019 A 
HETATM   17  C   UNL     1     -11.441   2.949 -34.950  1.00  0.00     0.027 A 
ENDBRANCH  11  12
ENDBRANCH   8  11
ENDBRANCH   2   7
BRANCH   1  18
HETATM   18  N   UNL     1      -5.463  -0.180 -32.785  1.00  0.00    -0.281 NA
HETATM   19  C   UNL     1      -6.379  -0.480 -31.680  1.00  0.00     0.117 C 
BRANCH  18  20
HETATM   20  C   UNL     1      -5.934  -0.649 -34.110  1.00  0.00     0.133 C 
BRANCH  20  21
HETATM   21  C   UNL     1      -5.682  -2.135 -34.269  1.00  0.00    -0.045 A 
HETATM   22  C   UNL     1      -4.419  -2.686 -34.005  1.00  0.00     0.008 A 
HETATM   23  C   UNL     1      -4.192  -4.055 -34.157  1.00  0.00     0.001 A 
HETATM   24  C   UNL     1      -5.226  -4.891 -34.569  1.00  0.00     0.000 A 
HETATM   25  C   UNL     1      -6.487  -4.360 -34.832  1.00  0.00     0.001 A 
HETATM   26  C   UNL     1      -6.715  -2.990 -34.685  1.00  0.00     0.008 A 
ENDBRANCH  20  21
ENDBRANCH  18  20
ENDBRANCH   1  18
TORSDOF 6
ENDMDL
