MODEL 1
REMARK VINA RESULT:      -8.9      0.000      0.000
REMARK  7 active torsions:
REMARK  status: ('A' for Active; 'I' for Inactive)
REMARK    1  A    between atoms: C_2  and  O_3 
REMARK    2  A    between atoms: O_3  and  C_4 
REMARK    3  A    between atoms: C_5  and  O_6 
REMARK    4  A    between atoms: C_10  and  C_11 
REMARK    5  A    between atoms: C_12  and  C_13 
REMARK       I    between atoms: C_13  and  N_14 
REMARK    6  A    between atoms: N_14  and  N_15 
REMARK       I    between atoms: N_15  and  C_16 
REMARK    7  A    between atoms: C_16  and  C_17 
ROOT
HETATM    1  C   UNL     1      -3.756   2.994 -31.481  1.00  0.00     0.259 C 
HETATM    2  N   UNL     1      -2.619   3.742 -31.664  1.00  0.00    -0.264 N 
HETATM    3  O   UNL     1      -4.610   3.266 -30.642  1.00  0.00    -0.267 OA
HETATM    4  H   UNL     1      -1.941   3.602 -32.410  1.00  0.00     0.190 HD
ENDROOT
BRANCH   2   5
HETATM    5  N   UNL     1      -2.476   4.907 -30.899  1.00  0.00    -0.263 N 
HETATM    6  C   UNL     1      -1.215   5.449 -30.732  1.00  0.00     0.272 C 
HETATM    7  O   UNL     1      -0.209   4.861 -31.128  1.00  0.00    -0.266 OA
HETATM    8  H   UNL     1      -3.325   5.444 -30.744  1.00  0.00     0.190 HD
BRANCH   6   9
HETATM    9  C   UNL     1      -1.181   6.755 -30.072  1.00  0.00     0.061 A 
HETATM   10  C   UNL     1      -0.342   7.143 -28.970  1.00  0.00     0.008 A 
HETATM   11  C   UNL     1      -0.630   8.477 -28.653  1.00  0.00     0.045 A 
HETATM   12  C   UNL     1       0.645   6.473 -28.212  1.00  0.00     0.015 A 
HETATM   13  C   UNL     1       0.035   9.156 -27.618  1.00  0.00     0.030 A 
HETATM   14  N   UNL     1      -1.613   8.887 -29.524  1.00  0.00    -0.359 N 
HETATM   15  C   UNL     1       1.005   8.464 -26.886  1.00  0.00     0.002 A 
HETATM   16  C   UNL     1       1.308   7.140 -27.177  1.00  0.00     0.001 A 
HETATM   17  C   UNL     1      -2.232  10.194 -29.572  1.00  0.00     0.156 C 
HETATM   18  C   UNL     1      -1.952   7.866 -30.375  1.00  0.00     0.108 A 
ENDBRANCH   6   9
ENDBRANCH   2   5
BRANCH   1  19
HETATM   19  C   UNL     1      -3.854   1.829 -32.395  1.00  0.00     0.076 C 
HETATM   20  C   UNL     1      -4.892   0.988 -32.269  1.00  0.00     0.017 C 
BRANCH  20  21
HETATM   21  C   UNL     1      -5.105  -0.223 -33.074  1.00  0.00    -0.033 A 
HETATM   22  C   UNL     1      -6.260  -0.300 -33.858  1.00  0.00     0.014 A 
HETATM   23  C   UNL     1      -6.500  -1.407 -34.675  1.00  0.00     0.040 A 
HETATM   24  C   UNL     1      -5.579  -2.456 -34.730  1.00  0.00     0.101 A 
HETATM   25  C   UNL     1      -4.408  -2.390 -33.949  1.00  0.00     0.102 A 
HETATM   26  C   UNL     1      -4.176  -1.271 -33.135  1.00  0.00     0.051 A 
BRANCH  24  27
HETATM   27  O   UNL     1      -5.731  -3.581 -35.502  1.00  0.00    -0.353 OA
HETATM   28  C   UNL     1      -6.712  -4.525 -35.100  1.00  0.00     0.210 C 
ENDBRANCH  24  27
BRANCH  25  29
HETATM   29  O   UNL     1      -3.554  -3.459 -34.064  1.00  0.00    -0.349 OA
BRANCH  29  30
HETATM   30  C   UNL     1      -3.532  -4.419 -33.013  1.00  0.00     0.171 C 
HETATM   31  C   UNL     1      -2.902  -3.765 -31.796  1.00  0.00     0.034 C 
ENDBRANCH  29  30
ENDBRANCH  25  29
ENDBRANCH  20  21
ENDBRANCH   1  19
TORSDOF 7
ENDMDL
MODEL 2
REMARK VINA RESULT:      -8.5      1.698      2.952
REMARK  7 active torsions:
REMARK  status: ('A' for Active; 'I' for Inactive)
REMARK    1  A    between atoms: C_2  and  O_3 
REMARK    2  A    between atoms: O_3  and  C_4 
REMARK    3  A    between atoms: C_5  and  O_6 
REMARK    4  A    between atoms: C_10  and  C_11 
REMARK    5  A    between atoms: C_12  and  C_13 
REMARK       I    between atoms: C_13  and  N_14 
REMARK    6  A    between atoms: N_14  and  N_15 
REMARK       I    between atoms: N_15  and  C_16 
REMARK    7  A    between atoms: C_16  and  C_17 
ROOT
HETATM    1  C   UNL     1      -2.371   4.291 -31.439  1.00  0.00     0.259 C 
HETATM    2  N   UNL     1      -3.252   5.118 -30.786  1.00  0.00    -0.264 N 
HETATM    3  O   UNL     1      -1.152   4.416 -31.365  1.00  0.00    -0.267 OA
HETATM    4  H   UNL     1      -4.260   4.985 -30.748  1.00  0.00     0.190 HD
ENDROOT
BRANCH   2   5
HETATM    5  N   UNL     1      -2.717   6.101 -29.941  1.00  0.00    -0.263 N 
HETATM    6  C   UNL     1      -2.681   7.412 -30.380  1.00  0.00     0.272 C 
HETATM    7  O   UNL     1      -2.983   7.709 -31.535  1.00  0.00    -0.266 OA
HETATM    8  H   UNL     1      -2.646   5.852 -28.959  1.00  0.00     0.190 HD
BRANCH   6   9
HETATM    9  C   UNL     1      -2.273   8.393 -29.373  1.00  0.00     0.061 A 
HETATM   10  C   UNL     1      -0.984   8.501 -28.745  1.00  0.00     0.008 A 
HETATM   11  C   UNL     1      -1.026   9.577 -27.849  1.00  0.00     0.045 A 
HETATM   12  C   UNL     1       0.223   7.775 -28.864  1.00  0.00     0.015 A 
HETATM   13  C   UNL     1       0.091   9.949 -27.081  1.00  0.00     0.030 A 
HETATM   14  N   UNL     1      -2.295  10.103 -27.920  1.00  0.00    -0.359 N 
HETATM   15  C   UNL     1       1.269   9.210 -27.221  1.00  0.00     0.002 A 
HETATM   16  C   UNL     1       1.336   8.136 -28.100  1.00  0.00     0.001 A 
HETATM   17  C   UNL     1      -2.806  11.228 -27.168  1.00  0.00     0.156 C 
HETATM   18  C   UNL     1      -3.051   9.402 -28.826  1.00  0.00     0.108 A 
ENDBRANCH   6   9
ENDBRANCH   2   5
BRANCH   1  19
HETATM   19  C   UNL     1      -3.033   3.232 -32.241  1.00  0.00     0.076 C 
HETATM   20  C   UNL     1      -3.457   2.118 -31.624  1.00  0.00     0.017 C 
BRANCH  20  21
HETATM   21  C   UNL     1      -4.095   0.973 -32.287  1.00  0.00    -0.033 A 
HETATM   22  C   UNL     1      -3.272  -0.026 -32.818  1.00  0.00     0.014 A 
HETATM   23  C   UNL     1      -3.819  -1.158 -33.426  1.00  0.00     0.040 A 
HETATM   24  C   UNL     1      -5.204  -1.317 -33.504  1.00  0.00     0.101 A 
HETATM   25  C   UNL     1      -6.046  -0.322 -32.969  1.00  0.00     0.102 A 
HETATM   26  C   UNL     1      -5.486   0.810 -32.358  1.00  0.00     0.051 A 
BRANCH  24  27
HETATM   27  O   UNL     1      -5.829  -2.395 -34.082  1.00  0.00    -0.353 OA
HETATM   28  C   UNL     1      -5.006  -3.394 -34.665  1.00  0.00     0.210 C 
ENDBRANCH  24  27
BRANCH  25  29
HETATM   29  O   UNL     1      -7.394  -0.557 -33.083  1.00  0.00    -0.349 OA
BRANCH  29  30
HETATM   30  C   UNL     1      -8.182   0.382 -33.807  1.00  0.00     0.171 C 
HETATM   31  C   UNL     1      -7.818   0.263 -35.276  1.00  0.00     0.034 C 
ENDBRANCH  29  30
ENDBRANCH  25  29
ENDBRANCH  20  21
ENDBRANCH   1  19
TORSDOF 7
ENDMDL
MODEL 3
REMARK VINA RESULT:      -8.4      2.501     11.333
REMARK  7 active torsions:
REMARK  status: ('A' for Active; 'I' for Inactive)
REMARK    1  A    between atoms: C_2  and  O_3 
REMARK    2  A    between atoms: O_3  and  C_4 
REMARK    3  A    between atoms: C_5  and  O_6 
REMARK    4  A    between atoms: C_10  and  C_11 
REMARK    5  A    between atoms: C_12  and  C_13 
REMARK       I    between atoms: C_13  and  N_14 
REMARK    6  A    between atoms: N_14  and  N_15 
REMARK       I    between atoms: N_15  and  C_16 
REMARK    7  A    between atoms: C_16  and  C_17 
ROOT
HETATM    1  C   UNL     1      -2.002   4.509 -31.956  1.00  0.00     0.259 C 
HETATM    2  N   UNL     1      -2.972   3.742 -31.358  1.00  0.00    -0.264 N 
HETATM    3  O   UNL     1      -1.837   4.555 -33.171  1.00  0.00    -0.267 OA
HETATM    4  H   UNL     1      -3.198   3.753 -30.365  1.00  0.00     0.190 HD
ENDROOT
BRANCH   2   5
HETATM    5  N   UNL     1      -3.851   3.039 -32.192  1.00  0.00    -0.263 N 
HETATM    6  C   UNL     1      -4.001   1.676 -32.011  1.00  0.00     0.272 C 
HETATM    7  O   UNL     1      -3.286   1.052 -31.228  1.00  0.00    -0.266 OA
HETATM    8  H   UNL     1      -4.535   3.601 -32.691  1.00  0.00     0.190 HD
BRANCH   6   9
HETATM    9  C   UNL     1      -5.065   1.057 -32.803  1.00  0.00     0.061 A 
HETATM   10  C   UNL     1      -5.064  -0.268 -33.363  1.00  0.00     0.008 A 
HETATM   11  C   UNL     1      -6.276  -0.453 -34.041  1.00  0.00     0.045 A 
HETATM   12  C   UNL     1      -4.134  -1.332 -33.350  1.00  0.00     0.015 A 
HETATM   13  C   UNL     1      -6.585  -1.659 -34.694  1.00  0.00     0.030 A 
HETATM   14  N   UNL     1      -6.988   0.716 -33.908  1.00  0.00    -0.359 N 
HETATM   15  C   UNL     1      -5.644  -2.691 -34.664  1.00  0.00     0.002 A 
HETATM   16  C   UNL     1      -4.433  -2.532 -34.001  1.00  0.00     0.001 A 
HETATM   17  C   UNL     1      -8.301   0.993 -34.448  1.00  0.00     0.156 C 
HETATM   18  C   UNL     1      -6.273   1.627 -33.171  1.00  0.00     0.108 A 
ENDBRANCH   6   9
ENDBRANCH   2   5
BRANCH   1  19
HETATM   19  C   UNL     1      -1.176   5.279 -30.992  1.00  0.00     0.076 C 
HETATM   20  C   UNL     1      -1.731   6.311 -30.338  1.00  0.00     0.017 C 
BRANCH  20  21
HETATM   21  C   UNL     1      -1.033   7.185 -29.385  1.00  0.00    -0.033 A 
HETATM   22  C   UNL     1       0.341   6.999 -29.203  1.00  0.00     0.014 A 
HETATM   23  C   UNL     1       1.069   7.822 -28.341  1.00  0.00     0.040 A 
HETATM   24  C   UNL     1       0.434   8.856 -27.650  1.00  0.00     0.101 A 
HETATM   25  C   UNL     1      -0.950   9.059 -27.827  1.00  0.00     0.102 A 
HETATM   26  C   UNL     1      -1.670   8.228 -28.698  1.00  0.00     0.051 A 
BRANCH  24  27
HETATM   27  O   UNL     1       1.067   9.713 -26.784  1.00  0.00    -0.353 OA
HETATM   28  C   UNL     1       1.833   9.138 -25.736  1.00  0.00     0.210 C 
ENDBRANCH  24  27
BRANCH  25  29
HETATM   29  O   UNL     1      -1.495  10.099 -27.116  1.00  0.00    -0.349 OA
BRANCH  29  30
HETATM   30  C   UNL     1      -2.605   9.825 -26.267  1.00  0.00     0.171 C 
HETATM   31  C   UNL     1      -2.072   9.212 -24.985  1.00  0.00     0.034 C 
ENDBRANCH  29  30
ENDBRANCH  25  29
ENDBRANCH  20  21
ENDBRANCH   1  19
TORSDOF 7
ENDMDL
MODEL 4
REMARK VINA RESULT:      -8.3      1.530      2.209
REMARK  7 active torsions:
REMARK  status: ('A' for Active; 'I' for Inactive)
REMARK    1  A    between atoms: C_2  and  O_3 
REMARK    2  A    between atoms: O_3  and  C_4 
REMARK    3  A    between atoms: C_5  and  O_6 
REMARK    4  A    between atoms: C_10  and  C_11 
REMARK    5  A    between atoms: C_12  and  C_13 
REMARK       I    between atoms: C_13  and  N_14 
REMARK    6  A    between atoms: N_14  and  N_15 
REMARK       I    between atoms: N_15  and  C_16 
REMARK    7  A    between atoms: C_16  and  C_17 
ROOT
HETATM    1  C   UNL     1      -2.031   4.527 -31.451  1.00  0.00     0.259 C 
HETATM    2  N   UNL     1      -2.944   5.281 -30.755  1.00  0.00    -0.264 N 
HETATM    3  O   UNL     1      -0.818   4.701 -31.373  1.00  0.00    -0.267 OA
HETATM    4  H   UNL     1      -3.945   5.104 -30.723  1.00  0.00     0.190 HD
ENDROOT
BRANCH   2   5
HETATM    5  N   UNL     1      -2.449   6.244 -29.865  1.00  0.00    -0.263 N 
HETATM    6  C   UNL     1      -2.446   7.573 -30.250  1.00  0.00     0.272 C 
HETATM    7  O   UNL     1      -2.743   7.907 -31.396  1.00  0.00    -0.266 OA
HETATM    8  H   UNL     1      -2.382   5.958 -28.893  1.00  0.00     0.190 HD
BRANCH   6   9
HETATM    9  C   UNL     1      -2.080   8.524 -29.200  1.00  0.00     0.061 A 
HETATM   10  C   UNL     1      -0.801   8.645 -28.553  1.00  0.00     0.008 A 
HETATM   11  C   UNL     1      -0.886   9.681 -27.614  1.00  0.00     0.045 A 
HETATM   12  C   UNL     1       0.429   7.962 -28.686  1.00  0.00     0.015 A 
HETATM   13  C   UNL     1       0.210  10.055 -26.818  1.00  0.00     0.030 A 
HETATM   14  N   UNL     1      -2.171  10.171 -27.678  1.00  0.00    -0.359 N 
HETATM   15  C   UNL     1       1.412   9.359 -26.974  1.00  0.00     0.002 A 
HETATM   16  C   UNL     1       1.522   8.325 -27.895  1.00  0.00     0.001 A 
HETATM   17  C   UNL     1      -2.724  11.248 -26.887  1.00  0.00     0.156 C 
HETATM   18  C   UNL     1      -2.894   9.485 -28.622  1.00  0.00     0.108 A 
ENDBRANCH   6   9
ENDBRANCH   2   5
BRANCH   1  19
HETATM   19  C   UNL     1      -2.650   3.480 -32.301  1.00  0.00     0.076 C 
HETATM   20  C   UNL     1      -3.486   2.595 -31.738  1.00  0.00     0.017 C 
BRANCH  20  21
HETATM   21  C   UNL     1      -4.145   1.485 -32.442  1.00  0.00    -0.033 A 
HETATM   22  C   UNL     1      -5.409   1.712 -32.996  1.00  0.00     0.014 A 
HETATM   23  C   UNL     1      -6.070   0.710 -33.710  1.00  0.00     0.040 A 
HETATM   24  C   UNL     1      -5.471  -0.538 -33.892  1.00  0.00     0.101 A 
HETATM   25  C   UNL     1      -4.195  -0.780 -33.344  1.00  0.00     0.102 A 
HETATM   26  C   UNL     1      -3.539   0.235 -32.632  1.00  0.00     0.051 A 
BRANCH  24  27
HETATM   27  O   UNL     1      -6.044  -1.580 -34.579  1.00  0.00    -0.353 OA
HETATM   28  C   UNL     1      -7.245  -2.128 -34.055  1.00  0.00     0.210 C 
ENDBRANCH  24  27
BRANCH  25  29
HETATM   29  O   UNL     1      -3.676  -2.030 -33.573  1.00  0.00    -0.349 OA
BRANCH  29  30
HETATM   30  C   UNL     1      -3.495  -2.898 -32.458  1.00  0.00     0.171 C 
HETATM   31  C   UNL     1      -3.399  -4.319 -32.984  1.00  0.00     0.034 C 
ENDBRANCH  29  30
ENDBRANCH  25  29
ENDBRANCH  20  21
ENDBRANCH   1  19
TORSDOF 7
ENDMDL
MODEL 5
REMARK VINA RESULT:      -8.3      7.008     11.723
REMARK  7 active torsions:
REMARK  status: ('A' for Active; 'I' for Inactive)
REMARK    1  A    between atoms: C_2  and  O_3 
REMARK    2  A    between atoms: O_3  and  C_4 
REMARK    3  A    between atoms: C_5  and  O_6 
REMARK    4  A    between atoms: C_10  and  C_11 
REMARK    5  A    between atoms: C_12  and  C_13 
REMARK       I    between atoms: C_13  and  N_14 
REMARK    6  A    between atoms: N_14  and  N_15 
REMARK       I    between atoms: N_15  and  C_16 
REMARK    7  A    between atoms: C_16  and  C_17 
ROOT
HETATM    1  C   UNL     1      -9.244   2.189 -33.952  1.00  0.00     0.259 C 
HETATM    2  N   UNL     1      -9.207   0.936 -34.514  1.00  0.00    -0.264 N 
HETATM    3  O   UNL     1      -8.477   2.548 -33.063  1.00  0.00    -0.267 OA
HETATM    4  H   UNL     1      -9.761   0.637 -35.313  1.00  0.00     0.190 HD
ENDROOT
BRANCH   2   5
HETATM    5  N   UNL     1      -8.195   0.063 -34.092  1.00  0.00    -0.263 N 
HETATM    6  C   UNL     1      -7.050  -0.055 -34.857  1.00  0.00     0.272 C 
HETATM    7  O   UNL     1      -6.958   0.486 -35.959  1.00  0.00    -0.266 OA
HETATM    8  H   UNL     1      -8.231  -0.221 -33.117  1.00  0.00     0.190 HD
BRANCH   6   9
HETATM    9  C   UNL     1      -5.977  -0.848 -34.255  1.00  0.00     0.061 A 
HETATM   10  C   UNL     1      -5.749  -2.258 -34.421  1.00  0.00     0.008 A 
HETATM   11  C   UNL     1      -4.617  -2.606 -33.673  1.00  0.00     0.045 A 
HETATM   12  C   UNL     1      -6.409  -3.274 -35.149  1.00  0.00     0.015 A 
HETATM   13  C   UNL     1      -4.126  -3.923 -33.635  1.00  0.00     0.030 A 
HETATM   14  N   UNL     1      -4.173  -1.454 -33.066  1.00  0.00    -0.359 N 
HETATM   15  C   UNL     1      -4.802  -4.904 -34.366  1.00  0.00     0.002 A 
HETATM   16  C   UNL     1      -5.930  -4.587 -35.113  1.00  0.00     0.001 A 
HETATM   17  C   UNL     1      -3.030  -1.326 -32.189  1.00  0.00     0.156 C 
HETATM   18  C   UNL     1      -4.980  -0.397 -33.405  1.00  0.00     0.108 A 
ENDBRANCH   6   9
ENDBRANCH   2   5
BRANCH   1  19
HETATM   19  C   UNL     1     -10.296   3.065 -34.524  1.00  0.00     0.076 C 
HETATM   20  C   UNL     1     -10.030   4.368 -34.704  1.00  0.00     0.017 C 
BRANCH  20  21
HETATM   21  C   UNL     1     -10.979   5.362 -35.225  1.00  0.00    -0.033 A 
HETATM   22  C   UNL     1     -12.328   5.004 -35.315  1.00  0.00     0.014 A 
HETATM   23  C   UNL     1     -13.285   5.917 -35.764  1.00  0.00     0.040 A 
HETATM   24  C   UNL     1     -12.908   7.213 -36.123  1.00  0.00     0.101 A 
HETATM   25  C   UNL     1     -11.553   7.590 -36.033  1.00  0.00     0.102 A 
HETATM   26  C   UNL     1     -10.602   6.666 -35.577  1.00  0.00     0.051 A 
BRANCH  24  27
HETATM   27  O   UNL     1     -13.778   8.175 -36.575  1.00  0.00    -0.353 OA
HETATM   28  C   UNL     1     -14.851   7.752 -37.403  1.00  0.00     0.210 C 
ENDBRANCH  24  27
BRANCH  25  29
HETATM   29  O   UNL     1     -11.269   8.882 -36.401  1.00  0.00    -0.349 OA
BRANCH  29  30
HETATM   30  C   UNL     1     -10.418   9.091 -37.524  1.00  0.00     0.171 C 
HETATM   31  C   UNL     1     -11.293   9.447 -38.712  1.00  0.00     0.034 C 
ENDBRANCH  29  30
ENDBRANCH  25  29
ENDBRANCH  20  21
ENDBRANCH   1  19
TORSDOF 7
ENDMDL
MODEL 6
REMARK VINA RESULT:      -8.2      2.602     11.353
REMARK  7 active torsions:
REMARK  status: ('A' for Active; 'I' for Inactive)
REMARK    1  A    between atoms: C_2  and  O_3 
REMARK    2  A    between atoms: O_3  and  C_4 
REMARK    3  A    between atoms: C_5  and  O_6 
REMARK    4  A    between atoms: C_10  and  C_11 
REMARK    5  A    between atoms: C_12  and  C_13 
REMARK       I    between atoms: C_13  and  N_14 
REMARK    6  A    between atoms: N_14  and  N_15 
REMARK       I    between atoms: N_15  and  C_16 
REMARK    7  A    between atoms: C_16  and  C_17 
ROOT
HETATM    1  C   UNL     1      -2.155   4.642 -31.940  1.00  0.00     0.259 C 
HETATM    2  N   UNL     1      -2.746   3.619 -31.238  1.00  0.00    -0.264 N 
HETATM    3  O   UNL     1      -1.884   4.568 -33.135  1.00  0.00    -0.267 OA
HETATM    4  H   UNL     1      -3.070   3.681 -30.276  1.00  0.00     0.190 HD
ENDROOT
BRANCH   2   5
HETATM    5  N   UNL     1      -3.114   2.470 -31.950  1.00  0.00    -0.263 N 
HETATM    6  C   UNL     1      -4.258   1.788 -31.575  1.00  0.00     0.272 C 
HETATM    7  O   UNL     1      -4.878   2.091 -30.557  1.00  0.00    -0.266 OA
HETATM    8  H   UNL     1      -2.689   2.359 -32.866  1.00  0.00     0.190 HD
BRANCH   6   9
HETATM    9  C   UNL     1      -4.662   0.709 -32.478  1.00  0.00     0.061 A 
HETATM   10  C   UNL     1      -5.811   0.693 -33.343  1.00  0.00     0.008 A 
HETATM   11  C   UNL     1      -5.818  -0.527 -34.032  1.00  0.00     0.045 A 
HETATM   12  C   UNL     1      -6.849   1.616 -33.604  1.00  0.00     0.015 A 
HETATM   13  C   UNL     1      -6.817  -0.846 -34.968  1.00  0.00     0.030 A 
HETATM   14  N   UNL     1      -4.720  -1.233 -33.600  1.00  0.00    -0.359 N 
HETATM   15  C   UNL     1      -7.831   0.088 -35.202  1.00  0.00     0.002 A 
HETATM   16  C   UNL     1      -7.849   1.304 -34.529  1.00  0.00     0.001 A 
HETATM   17  C   UNL     1      -4.319  -2.554 -34.033  1.00  0.00     0.156 C 
HETATM   18  C   UNL     1      -4.022  -0.505 -32.669  1.00  0.00     0.108 A 
ENDBRANCH   6   9
ENDBRANCH   2   5
BRANCH   1  19
HETATM   19  C   UNL     1      -1.880   5.846 -31.116  1.00  0.00     0.076 C 
HETATM   20  C   UNL     1      -0.997   5.757 -30.109  1.00  0.00     0.017 C 
BRANCH  20  21
HETATM   21  C   UNL     1      -0.649   6.848 -29.188  1.00  0.00    -0.033 A 
HETATM   22  C   UNL     1       0.696   7.213 -29.075  1.00  0.00     0.014 A 
HETATM   23  C   UNL     1       1.086   8.268 -28.247  1.00  0.00     0.040 A 
HETATM   24  C   UNL     1       0.132   8.986 -27.523  1.00  0.00     0.101 A 
HETATM   25  C   UNL     1      -1.229   8.633 -27.631  1.00  0.00     0.102 A 
HETATM   26  C   UNL     1      -1.609   7.574 -28.469  1.00  0.00     0.051 A 
BRANCH  24  27
HETATM   27  O   UNL     1       0.423  10.035 -26.687  1.00  0.00    -0.353 OA
HETATM   28  C   UNL     1       1.224   9.762 -25.547  1.00  0.00     0.210 C 
ENDBRANCH  24  27
BRANCH  25  29
HETATM   29  O   UNL     1      -2.101   9.392 -26.891  1.00  0.00    -0.349 OA
BRANCH  29  30
HETATM   30  C   UNL     1      -2.928   8.730 -25.939  1.00  0.00     0.171 C 
HETATM   31  C   UNL     1      -2.353   8.993 -24.559  1.00  0.00     0.034 C 
ENDBRANCH  29  30
ENDBRANCH  25  29
ENDBRANCH  20  21
ENDBRANCH   1  19
TORSDOF 7
ENDMDL
MODEL 7
REMARK VINA RESULT:      -8.0      2.674     11.105
REMARK  7 active torsions:
REMARK  status: ('A' for Active; 'I' for Inactive)
REMARK    1  A    between atoms: C_2  and  O_3 
REMARK    2  A    between atoms: O_3  and  C_4 
REMARK    3  A    between atoms: C_5  and  O_6 
REMARK    4  A    between atoms: C_10  and  C_11 
REMARK    5  A    between atoms: C_12  and  C_13 
REMARK       I    between atoms: C_13  and  N_14 
REMARK    6  A    between atoms: N_14  and  N_15 
REMARK       I    between atoms: N_15  and  C_16 
REMARK    7  A    between atoms: C_16  and  C_17 
ROOT
HETATM    1  C   UNL     1      -1.605   5.008 -32.154  1.00  0.00     0.259 C 
HETATM    2  N   UNL     1      -2.328   4.123 -31.392  1.00  0.00    -0.264 N 
HETATM    3  O   UNL     1      -1.462   4.889 -33.367  1.00  0.00    -0.267 OA
HETATM    4  H   UNL     1      -2.546   4.242 -30.405  1.00  0.00     0.190 HD
ENDROOT
BRANCH   2   5
HETATM    5  N   UNL     1      -2.985   3.079 -32.057  1.00  0.00    -0.263 N 
HETATM    6  C   UNL     1      -4.295   2.789 -31.719  1.00  0.00     0.272 C 
HETATM    7  O   UNL     1      -4.845   3.337 -30.764  1.00  0.00    -0.266 OA
HETATM    8  H   UNL     1      -2.569   2.778 -32.934  1.00  0.00     0.190 HD
BRANCH   6   9
HETATM    9  C   UNL     1      -4.957   1.809 -32.580  1.00  0.00     0.061 A 
HETATM   10  C   UNL     1      -4.615   0.419 -32.727  1.00  0.00     0.008 A 
HETATM   11  C   UNL     1      -5.505  -0.152 -33.646  1.00  0.00     0.045 A 
HETATM   12  C   UNL     1      -3.623  -0.408 -32.153  1.00  0.00     0.015 A 
HETATM   13  C   UNL     1      -5.438  -1.510 -34.001  1.00  0.00     0.030 A 
HETATM   14  N   UNL     1      -6.355   0.852 -34.052  1.00  0.00    -0.359 N 
HETATM   15  C   UNL     1      -4.445  -2.301 -33.416  1.00  0.00     0.002 A 
HETATM   16  C   UNL     1      -3.548  -1.759 -32.504  1.00  0.00     0.001 A 
HETATM   17  C   UNL     1      -7.440   0.733 -35.001  1.00  0.00     0.156 C 
HETATM   18  C   UNL     1      -6.035   2.029 -33.422  1.00  0.00     0.108 A 
ENDBRANCH   6   9
ENDBRANCH   2   5
BRANCH   1  19
HETATM   19  C   UNL     1      -1.017   6.123 -31.370  1.00  0.00     0.076 C 
HETATM   20  C   UNL     1      -1.586   6.470 -30.205  1.00  0.00     0.017 C 
BRANCH  20  21
HETATM   21  C   UNL     1      -1.141   7.572 -29.340  1.00  0.00    -0.033 A 
HETATM   22  C   UNL     1      -2.042   8.608 -29.074  1.00  0.00     0.014 A 
HETATM   23  C   UNL     1      -1.692   9.663 -28.228  1.00  0.00     0.040 A 
HETATM   24  C   UNL     1      -0.434   9.694 -27.622  1.00  0.00     0.101 A 
HETATM   25  C   UNL     1       0.483   8.654 -27.877  1.00  0.00     0.102 A 
HETATM   26  C   UNL     1       0.119   7.598 -28.726  1.00  0.00     0.051 A 
BRANCH  24  27
HETATM   27  O   UNL     1      -0.005  10.688 -26.779  1.00  0.00    -0.353 OA
HETATM   28  C   UNL     1      -0.653  10.805 -25.520  1.00  0.00     0.210 C 
ENDBRANCH  24  27
BRANCH  25  29
HETATM   29  O   UNL     1       1.694   8.759 -27.239  1.00  0.00    -0.349 OA
BRANCH  29  30
HETATM   30  C   UNL     1       1.937   7.920 -26.114  1.00  0.00     0.171 C 
HETATM   31  C   UNL     1       2.508   8.783 -25.004  1.00  0.00     0.034 C 
ENDBRANCH  29  30
ENDBRANCH  25  29
ENDBRANCH  20  21
ENDBRANCH   1  19
TORSDOF 7
ENDMDL
MODEL 8
REMARK VINA RESULT:      -7.7      2.612     11.294
REMARK  7 active torsions:
REMARK  status: ('A' for Active; 'I' for Inactive)
REMARK    1  A    between atoms: C_2  and  O_3 
REMARK    2  A    between atoms: O_3  and  C_4 
REMARK    3  A    between atoms: C_5  and  O_6 
REMARK    4  A    between atoms: C_10  and  C_11 
REMARK    5  A    between atoms: C_12  and  C_13 
REMARK       I    between atoms: C_13  and  N_14 
REMARK    6  A    between atoms: N_14  and  N_15 
REMARK       I    between atoms: N_15  and  C_16 
REMARK    7  A    between atoms: C_16  and  C_17 
ROOT
HETATM    1  C   UNL     1      -3.466   4.939 -31.682  1.00  0.00     0.259 C 
HETATM    2  N   UNL     1      -3.018   3.719 -31.240  1.00  0.00    -0.264 N 
HETATM    3  O   UNL     1      -4.067   5.090 -32.742  1.00  0.00    -0.267 OA
HETATM    4  H   UNL     1      -2.603   3.543 -30.328  1.00  0.00     0.190 HD
ENDROOT
BRANCH   2   5
HETATM    5  N   UNL     1      -3.331   2.592 -32.013  1.00  0.00    -0.263 N 
HETATM    6  C   UNL     1      -4.277   1.700 -31.543  1.00  0.00     0.272 C 
HETATM    7  O   UNL     1      -4.748   1.804 -30.410  1.00  0.00    -0.266 OA
HETATM    8  H   UNL     1      -3.060   2.635 -32.991  1.00  0.00     0.190 HD
BRANCH   6   9
HETATM    9  C   UNL     1      -4.669   0.653 -32.488  1.00  0.00     0.061 A 
HETATM   10  C   UNL     1      -5.804   0.669 -33.371  1.00  0.00     0.008 A 
HETATM   11  C   UNL     1      -5.803  -0.526 -34.102  1.00  0.00     0.045 A 
HETATM   12  C   UNL     1      -6.837   1.602 -33.615  1.00  0.00     0.015 A 
HETATM   13  C   UNL     1      -6.787  -0.811 -35.063  1.00  0.00     0.030 A 
HETATM   14  N   UNL     1      -4.712  -1.249 -33.676  1.00  0.00    -0.359 N 
HETATM   15  C   UNL     1      -7.795   0.132 -35.281  1.00  0.00     0.002 A 
HETATM   16  C   UNL     1      -7.822   1.324 -34.567  1.00  0.00     0.001 A 
HETATM   17  C   UNL     1      -4.306  -2.555 -34.148  1.00  0.00     0.156 C 
HETATM   18  C   UNL     1      -4.028  -0.555 -32.710  1.00  0.00     0.108 A 
ENDBRANCH   6   9
ENDBRANCH   2   5
BRANCH   1  19
HETATM   19  C   UNL     1      -3.158   6.056 -30.755  1.00  0.00     0.076 C 
HETATM   20  C   UNL     1      -1.883   6.271 -30.397  1.00  0.00     0.017 C 
BRANCH  20  21
HETATM   21  C   UNL     1      -1.429   7.311 -29.462  1.00  0.00    -0.033 A 
HETATM   22  C   UNL     1      -2.353   8.276 -29.048  1.00  0.00     0.014 A 
HETATM   23  C   UNL     1      -1.994   9.267 -28.132  1.00  0.00     0.040 A 
HETATM   24  C   UNL     1      -0.701   9.304 -27.604  1.00  0.00     0.101 A 
HETATM   25  C   UNL     1       0.240   8.335 -28.008  1.00  0.00     0.102 A 
HETATM   26  C   UNL     1      -0.134   7.343 -28.927  1.00  0.00     0.051 A 
BRANCH  24  27
HETATM   27  O   UNL     1      -0.260  10.239 -26.700  1.00  0.00    -0.353 OA
HETATM   28  C   UNL     1      -0.013  11.551 -27.183  1.00  0.00     0.210 C 
ENDBRANCH  24  27
BRANCH  25  29
HETATM   29  O   UNL     1       1.484   8.440 -27.439  1.00  0.00    -0.349 OA
BRANCH  29  30
HETATM   30  C   UNL     1       1.768   7.647 -26.290  1.00  0.00     0.171 C 
HETATM   31  C   UNL     1       2.366   8.556 -25.232  1.00  0.00     0.034 C 
ENDBRANCH  29  30
ENDBRANCH  25  29
ENDBRANCH  20  21
ENDBRANCH   1  19
TORSDOF 7
ENDMDL
MODEL 9
REMARK VINA RESULT:      -7.3      4.883      6.310
REMARK  7 active torsions:
REMARK  status: ('A' for Active; 'I' for Inactive)
REMARK    1  A    between atoms: C_2  and  O_3 
REMARK    2  A    between atoms: O_3  and  C_4 
REMARK    3  A    between atoms: C_5  and  O_6 
REMARK    4  A    between atoms: C_10  and  C_11 
REMARK    5  A    between atoms: C_12  and  C_13 
REMARK       I    between atoms: C_13  and  N_14 
REMARK    6  A    between atoms: N_14  and  N_15 
REMARK       I    between atoms: N_15  and  C_16 
REMARK    7  A    between atoms: C_16  and  C_17 
ROOT
HETATM    1  C   UNL     1      -7.423   4.274 -29.703  1.00  0.00     0.259 C 
HETATM    2  N   UNL     1      -6.266   3.985 -30.384  1.00  0.00    -0.264 N 
HETATM    3  O   UNL     1      -7.459   5.008 -28.720  1.00  0.00    -0.267 OA
HETATM    4  H   UNL     1      -6.214   3.461 -31.254  1.00  0.00     0.190 HD
ENDROOT
BRANCH   2   5
HETATM    5  N   UNL     1      -5.089   4.623 -29.966  1.00  0.00    -0.263 N 
HETATM    6  C   UNL     1      -4.576   5.652 -30.735  1.00  0.00     0.272 C 
HETATM    7  O   UNL     1      -5.054   5.928 -31.835  1.00  0.00    -0.266 OA
HETATM    8  H   UNL     1      -4.834   4.490 -28.992  1.00  0.00     0.190 HD
BRANCH   6   9
HETATM    9  C   UNL     1      -3.453   6.374 -30.137  1.00  0.00     0.061 A 
HETATM   10  C   UNL     1      -2.071   6.297 -30.528  1.00  0.00     0.008 A 
HETATM   11  C   UNL     1      -1.336   7.152 -29.696  1.00  0.00     0.045 A 
HETATM   12  C   UNL     1      -1.378   5.573 -31.524  1.00  0.00     0.015 A 
HETATM   13  C   UNL     1       0.054   7.308 -29.832  1.00  0.00     0.030 A 
HETATM   14  N   UNL     1      -2.233   7.725 -28.824  1.00  0.00    -0.359 N 
HETATM   15  C   UNL     1       0.710   6.577 -30.827  1.00  0.00     0.002 A 
HETATM   16  C   UNL     1       0.005   5.719 -31.663  1.00  0.00     0.001 A 
HETATM   17  C   UNL     1      -1.930   8.675 -27.776  1.00  0.00     0.156 C 
HETATM   18  C   UNL     1      -3.501   7.266 -29.076  1.00  0.00     0.108 A 
ENDBRANCH   6   9
ENDBRANCH   2   5
BRANCH   1  19
HETATM   19  C   UNL     1      -8.626   3.617 -30.272  1.00  0.00     0.076 C 
HETATM   20  C   UNL     1      -8.633   3.285 -31.573  1.00  0.00     0.017 C 
BRANCH  20  21
HETATM   21  C   UNL     1      -9.759   2.664 -32.284  1.00  0.00    -0.033 A 
HETATM   22  C   UNL     1      -9.560   1.410 -32.868  1.00  0.00     0.014 A 
HETATM   23  C   UNL     1     -10.603   0.750 -33.524  1.00  0.00     0.040 A 
HETATM   24  C   UNL     1     -11.870   1.332 -33.597  1.00  0.00     0.101 A 
HETATM   25  C   UNL     1     -12.087   2.595 -33.008  1.00  0.00     0.102 A 
HETATM   26  C   UNL     1     -11.033   3.246 -32.349  1.00  0.00     0.051 A 
BRANCH  24  27
HETATM   27  O   UNL     1     -12.951   0.759 -34.219  1.00  0.00    -0.353 OA
HETATM   28  C   UNL     1     -13.481  -0.429 -33.649  1.00  0.00     0.210 C 
ENDBRANCH  24  27
BRANCH  25  29
HETATM   29  O   UNL     1     -13.361   3.093 -33.121  1.00  0.00    -0.349 OA
BRANCH  29  30
HETATM   30  C   UNL     1     -14.134   3.238 -31.934  1.00  0.00     0.171 C 
HETATM   31  C   UNL     1     -15.351   2.339 -32.057  1.00  0.00     0.034 C 
ENDBRANCH  29  30
ENDBRANCH  25  29
ENDBRANCH  20  21
ENDBRANCH   1  19
TORSDOF 7
ENDMDL
MODEL 10
REMARK VINA RESULT:      -7.2      2.570      3.708
REMARK  7 active torsions:
REMARK  status: ('A' for Active; 'I' for Inactive)
REMARK    1  A    between atoms: C_2  and  O_3 
REMARK    2  A    between atoms: O_3  and  C_4 
REMARK    3  A    between atoms: C_5  and  O_6 
REMARK    4  A    between atoms: C_10  and  C_11 
REMARK    5  A    between atoms: C_12  and  C_13 
REMARK       I    between atoms: C_13  and  N_14 
REMARK    6  A    between atoms: N_14  and  N_15 
REMARK       I    between atoms: N_15  and  C_16 
REMARK    7  A    between atoms: C_16  and  C_17 
ROOT
HETATM    1  C   UNL     1      -1.754   5.199 -31.409  1.00  0.00     0.259 C 
HETATM    2  N   UNL     1      -2.397   5.590 -30.260  1.00  0.00    -0.264 N 
HETATM    3  O   UNL     1      -0.651   5.625 -31.740  1.00  0.00    -0.267 OA
HETATM    4  H   UNL     1      -3.263   5.188 -29.909  1.00  0.00     0.190 HD
ENDROOT
BRANCH   2   5
HETATM    5  N   UNL     1      -1.718   6.464 -29.400  1.00  0.00    -0.263 N 
HETATM    6  C   UNL     1      -2.400   7.540 -28.864  1.00  0.00     0.272 C 
HETATM    7  O   UNL     1      -3.542   7.819 -29.227  1.00  0.00    -0.266 OA
HETATM    8  H   UNL     1      -0.855   6.109 -28.997  1.00  0.00     0.190 HD
BRANCH   6   9
HETATM    9  C   UNL     1      -1.670   8.294 -27.844  1.00  0.00     0.061 A 
HETATM   10  C   UNL     1      -2.037   8.458 -26.463  1.00  0.00     0.008 A 
HETATM   11  C   UNL     1      -1.060   9.248 -25.844  1.00  0.00     0.045 A 
HETATM   12  C   UNL     1      -3.120   7.997 -25.680  1.00  0.00     0.015 A 
HETATM   13  C   UNL     1      -1.128   9.584 -24.481  1.00  0.00     0.030 A 
HETATM   14  N   UNL     1      -0.134   9.563 -26.812  1.00  0.00    -0.359 N 
HETATM   15  C   UNL     1      -2.213   9.113 -23.735  1.00  0.00     0.002 A 
HETATM   16  C   UNL     1      -3.197   8.330 -24.325  1.00  0.00     0.001 A 
HETATM   17  C   UNL     1       1.055  10.368 -26.638  1.00  0.00     0.156 C 
HETATM   18  C   UNL     1      -0.489   9.000 -28.012  1.00  0.00     0.108 A 
ENDBRANCH   6   9
ENDBRANCH   2   5
BRANCH   1  19
HETATM   19  C   UNL     1      -2.518   4.210 -32.209  1.00  0.00     0.076 C 
HETATM   20  C   UNL     1      -3.806   3.984 -31.908  1.00  0.00     0.017 C 
BRANCH  20  21
HETATM   21  C   UNL     1      -4.678   3.013 -32.584  1.00  0.00    -0.033 A 
HETATM   22  C   UNL     1      -5.648   3.499 -33.466  1.00  0.00     0.014 A 
HETATM   23  C   UNL     1      -6.481   2.626 -34.169  1.00  0.00     0.040 A 
HETATM   24  C   UNL     1      -6.350   1.245 -34.009  1.00  0.00     0.101 A 
HETATM   25  C   UNL     1      -5.373   0.740 -33.127  1.00  0.00     0.102 A 
HETATM   26  C   UNL     1      -4.540   1.627 -32.429  1.00  0.00     0.051 A 
BRANCH  24  27
HETATM   27  O   UNL     1      -7.122   0.313 -34.657  1.00  0.00    -0.353 OA
HETATM   28  C   UNL     1      -8.528   0.381 -34.468  1.00  0.00     0.210 C 
ENDBRANCH  24  27
BRANCH  25  29
HETATM   29  O   UNL     1      -5.308  -0.628 -33.031  1.00  0.00    -0.349 OA
BRANCH  29  30
HETATM   30  C   UNL     1      -4.135  -1.280 -33.508  1.00  0.00     0.171 C 
HETATM   31  C   UNL     1      -4.563  -2.559 -34.205  1.00  0.00     0.034 C 
ENDBRANCH  29  30
ENDBRANCH  25  29
ENDBRANCH  20  21
ENDBRANCH   1  19
TORSDOF 7
ENDMDL
