MODEL 1
REMARK VINA RESULT:      -9.3      0.000      0.000
REMARK  4 active torsions:
REMARK  status: ('A' for Active; 'I' for Inactive)
REMARK    1  A    between atoms: O_1  and  C_2 
REMARK    2  A    between atoms: C_2  and  C_3 
REMARK    3  A    between atoms: N_5  and  C_17 
REMARK    4  A    between atoms: C_20  and  C_23 
ROOT
HETATM    1  C   UNL     1      -5.034   4.650 -32.396  1.00  0.00     0.060 C 
HETATM    2  C   UNL     1      -5.378   3.494 -33.337  1.00  0.00     0.141 C 
HETATM    3  N   UNL     1      -4.658   2.349 -32.817  1.00  0.00    -0.316 N 
HETATM    4  C   UNL     1      -3.655   2.762 -31.927  1.00  0.00     0.248 C 
HETATM    5  O   UNL     1      -2.904   2.083 -31.237  1.00  0.00    -0.271 OA
HETATM    6  C   UNL     1      -3.609   4.297 -31.950  1.00  0.00     0.108 A 
HETATM    7  C   UNL     1      -2.534   4.754 -32.974  1.00  0.00     0.076 A 
HETATM    8  C   UNL     1      -1.706   5.675 -32.149  1.00  0.00    -0.035 A 
HETATM    9  C   UNL     1      -0.597   6.412 -32.532  1.00  0.00     0.009 A 
HETATM   10  C   UNL     1       0.060   7.171 -31.561  1.00  0.00     0.001 A 
HETATM   11  C   UNL     1      -0.392   7.175 -30.234  1.00  0.00     0.002 A 
HETATM   12  C   UNL     1      -1.510   6.424 -29.864  1.00  0.00     0.024 A 
HETATM   13  C   UNL     1      -2.163   5.688 -30.837  1.00  0.00     0.015 A 
HETATM   14  N   UNL     1      -3.278   4.846 -30.599  1.00  0.00    -0.274 NA
HETATM   15  H   UNL     1      -2.952   4.088 -29.988  1.00  0.00     0.129 HD
ENDROOT
BRANCH   3  16
HETATM   16  C   UNL     1      -4.936   1.012 -33.218  1.00  0.00     0.037 A 
HETATM   17  C   UNL     1      -6.143   0.661 -33.833  1.00  0.00     0.030 A 
HETATM   18  C   UNL     1      -6.412  -0.661 -34.222  1.00  0.00     0.014 A 
HETATM   19  C   UNL     1      -5.474  -1.674 -34.011  1.00  0.00    -0.023 A 
HETATM   20  C   UNL     1      -4.266  -1.336 -33.397  1.00  0.00     0.014 A 
HETATM   21  C   UNL     1      -4.006  -0.016 -33.000  1.00  0.00     0.030 A 
BRANCH  19  22
HETATM   22  C   UNL     1      -5.735  -3.041 -34.423  1.00  0.00     0.010 A 
HETATM   23  C   UNL     1      -4.887  -4.172 -34.467  1.00  0.00     0.152 A 
HETATM   24  N   UNL     1      -5.512  -5.272 -34.898  1.00  0.00    -0.187 NA
HETATM   25  N   UNL     1      -6.764  -4.848 -35.133  1.00  0.00    -0.289 N 
HETATM   26  H   UNL     1      -7.443  -5.520 -35.476  1.00  0.00     0.188 HD
HETATM   27  C   UNL     1      -6.949  -3.523 -34.863  1.00  0.00     0.123 A 
ENDBRANCH  19  22
ENDBRANCH   3  16
BRANCH   1  28
HETATM   28  C   UNL     1      -6.040   4.739 -31.244  1.00  0.00     0.172 C 
BRANCH  28  29
HETATM   29  O   UNL     1      -5.915   6.015 -30.617  1.00  0.00    -0.400 OA
HETATM   30  H   UNL     1      -5.702   6.652 -31.323  1.00  0.00     0.209 HD
ENDBRANCH  28  29
ENDBRANCH   1  28
TORSDOF 4
ENDMDL
MODEL 2
REMARK VINA RESULT:      -8.9      2.345      8.881
REMARK  4 active torsions:
REMARK  status: ('A' for Active; 'I' for Inactive)
REMARK    1  A    between atoms: O_1  and  C_2 
REMARK    2  A    between atoms: C_2  and  C_3 
REMARK    3  A    between atoms: N_5  and  C_17 
REMARK    4  A    between atoms: C_20  and  C_23 
ROOT
HETATM    1  C   UNL     1      -5.208  -0.257 -30.914  1.00  0.00     0.060 C 
HETATM    2  C   UNL     1      -4.251   0.913 -30.673  1.00  0.00     0.141 C 
HETATM    3  N   UNL     1      -4.545   1.870 -31.721  1.00  0.00    -0.316 N 
HETATM    4  C   UNL     1      -5.277   1.261 -32.752  1.00  0.00     0.248 C 
HETATM    5  O   UNL     1      -5.769   1.764 -33.754  1.00  0.00    -0.271 OA
HETATM    6  C   UNL     1      -5.368  -0.240 -32.440  1.00  0.00     0.108 A 
HETATM    7  C   UNL     1      -4.212  -0.979 -33.168  1.00  0.00     0.076 A 
HETATM    8  C   UNL     1      -4.951  -2.041 -33.904  1.00  0.00    -0.035 A 
HETATM    9  C   UNL     1      -4.441  -3.036 -34.721  1.00  0.00     0.009 A 
HETATM   10  C   UNL     1      -5.340  -3.895 -35.358  1.00  0.00     0.001 A 
HETATM   11  C   UNL     1      -6.722  -3.742 -35.175  1.00  0.00     0.002 A 
HETATM   12  C   UNL     1      -7.219  -2.731 -34.349  1.00  0.00     0.024 A 
HETATM   13  C   UNL     1      -6.320  -1.896 -33.711  1.00  0.00     0.015 A 
HETATM   14  N   UNL     1      -6.681  -0.803 -32.884  1.00  0.00    -0.274 NA
HETATM   15  H   UNL     1      -7.163  -0.124 -33.485  1.00  0.00     0.129 HD
ENDROOT
BRANCH   3  16
HETATM   16  C   UNL     1      -4.093   3.218 -31.687  1.00  0.00     0.037 A 
HETATM   17  C   UNL     1      -2.885   3.608 -32.278  1.00  0.00     0.030 A 
HETATM   18  C   UNL     1      -2.443   4.939 -32.235  1.00  0.00     0.014 A 
HETATM   19  C   UNL     1      -3.201   5.926 -31.602  1.00  0.00    -0.023 A 
HETATM   20  C   UNL     1      -4.408   5.550 -31.008  1.00  0.00     0.014 A 
HETATM   21  C   UNL     1      -4.841   4.216 -31.043  1.00  0.00     0.030 A 
BRANCH  19  22
HETATM   22  C   UNL     1      -2.761   7.308 -31.566  1.00  0.00     0.010 A 
HETATM   23  C   UNL     1      -1.914   8.034 -32.437  1.00  0.00     0.152 A 
HETATM   24  N   UNL     1      -1.760   9.309 -32.067  1.00  0.00    -0.187 NA
HETATM   25  N   UNL     1      -2.508   9.405 -30.957  1.00  0.00    -0.289 N 
HETATM   26  H   UNL     1      -2.552  10.301 -30.482  1.00  0.00     0.188 HD
HETATM   27  C   UNL     1      -3.128   8.237 -30.616  1.00  0.00     0.123 A 
ENDBRANCH  19  22
ENDBRANCH   3  16
BRANCH   1  28
HETATM   28  C   UNL     1      -6.521  -0.061 -30.150  1.00  0.00     0.172 C 
BRANCH  28  29
HETATM   29  O   UNL     1      -6.359   1.003 -29.213  1.00  0.00    -0.400 OA
HETATM   30  H   UNL     1      -6.102   0.592 -28.368  1.00  0.00     0.209 HD
ENDBRANCH  28  29
ENDBRANCH   1  28
TORSDOF 4
ENDMDL
MODEL 3
REMARK VINA RESULT:      -8.8      2.837      4.441
REMARK  4 active torsions:
REMARK  status: ('A' for Active; 'I' for Inactive)
REMARK    1  A    between atoms: O_1  and  C_2 
REMARK    2  A    between atoms: C_2  and  C_3 
REMARK    3  A    between atoms: N_5  and  C_17 
REMARK    4  A    between atoms: C_20  and  C_23 
ROOT
HETATM    1  C   UNL     1      -1.030   6.538 -32.417  1.00  0.00     0.060 C 
HETATM    2  C   UNL     1      -1.680   5.310 -33.057  1.00  0.00     0.141 C 
HETATM    3  N   UNL     1      -2.904   5.093 -32.313  1.00  0.00    -0.316 N 
HETATM    4  C   UNL     1      -2.872   5.795 -31.098  1.00  0.00     0.248 C 
HETATM    5  O   UNL     1      -3.748   5.917 -30.251  1.00  0.00    -0.271 OA
HETATM    6  C   UNL     1      -1.477   6.421 -30.954  1.00  0.00     0.108 A 
HETATM    7  C   UNL     1      -0.575   5.461 -30.130  1.00  0.00     0.076 A 
HETATM    8  C   UNL     1      -0.065   6.368 -29.066  1.00  0.00    -0.035 A 
HETATM    9  C   UNL     1       0.814   6.076 -28.036  1.00  0.00     0.009 A 
HETATM   10  C   UNL     1       1.107   7.082 -27.112  1.00  0.00     0.001 A 
HETATM   11  C   UNL     1       0.518   8.349 -27.228  1.00  0.00     0.002 A 
HETATM   12  C   UNL     1      -0.369   8.625 -28.272  1.00  0.00     0.024 A 
HETATM   13  C   UNL     1      -0.641   7.626 -29.190  1.00  0.00     0.015 A 
HETATM   14  N   UNL     1      -1.551   7.748 -30.269  1.00  0.00    -0.274 NA
HETATM   15  H   UNL     1      -2.483   7.873 -29.857  1.00  0.00     0.129 HD
ENDROOT
BRANCH   3  16
HETATM   16  C   UNL     1      -3.947   4.240 -32.770  1.00  0.00     0.037 A 
HETATM   17  C   UNL     1      -4.122   2.948 -32.261  1.00  0.00     0.030 A 
HETATM   18  C   UNL     1      -5.149   2.110 -32.721  1.00  0.00     0.014 A 
HETATM   19  C   UNL     1      -6.041   2.544 -33.704  1.00  0.00    -0.023 A 
HETATM   20  C   UNL     1      -5.877   3.831 -34.221  1.00  0.00     0.014 A 
HETATM   21  C   UNL     1      -4.841   4.662 -33.766  1.00  0.00     0.030 A 
BRANCH  19  22
HETATM   22  C   UNL     1      -7.117   1.692 -34.175  1.00  0.00     0.010 A 
HETATM   23  C   UNL     1      -8.478   1.625 -33.797  1.00  0.00     0.152 A 
HETATM   24  N   UNL     1      -9.162   0.705 -34.483  1.00  0.00    -0.187 NA
HETATM   25  N   UNL     1      -8.241   0.178 -35.304  1.00  0.00    -0.289 N 
HETATM   26  H   UNL     1      -8.528  -0.559 -35.940  1.00  0.00     0.188 HD
HETATM   27  C   UNL     1      -7.003   0.734 -35.161  1.00  0.00     0.123 A 
ENDBRANCH  19  22
ENDBRANCH   3  16
BRANCH   1  28
HETATM   28  C   UNL     1      -1.491   7.827 -33.105  1.00  0.00     0.172 C 
BRANCH  28  29
HETATM   29  O   UNL     1      -1.875   7.526 -34.446  1.00  0.00    -0.400 OA
HETATM   30  H   UNL     1      -2.794   7.208 -34.407  1.00  0.00     0.209 HD
ENDBRANCH  28  29
ENDBRANCH   1  28
TORSDOF 4
ENDMDL
MODEL 4
REMARK VINA RESULT:      -8.7      3.999      5.142
REMARK  4 active torsions:
REMARK  status: ('A' for Active; 'I' for Inactive)
REMARK    1  A    between atoms: O_1  and  C_2 
REMARK    2  A    between atoms: C_2  and  C_3 
REMARK    3  A    between atoms: N_5  and  C_17 
REMARK    4  A    between atoms: C_20  and  C_23 
ROOT
HETATM    1  C   UNL     1      -4.755   1.761 -30.963  1.00  0.00     0.060 C 
HETATM    2  C   UNL     1      -6.267   1.562 -30.846  1.00  0.00     0.141 C 
HETATM    3  N   UNL     1      -6.816   2.054 -32.094  1.00  0.00    -0.316 N 
HETATM    4  C   UNL     1      -5.874   2.850 -32.765  1.00  0.00     0.248 C 
HETATM    5  O   UNL     1      -5.946   3.367 -33.873  1.00  0.00    -0.271 OA
HETATM    6  C   UNL     1      -4.656   3.013 -31.843  1.00  0.00     0.108 A 
HETATM    7  C   UNL     1      -4.810   4.328 -31.031  1.00  0.00     0.076 A 
HETATM    8  C   UNL     1      -3.515   5.006 -31.309  1.00  0.00    -0.035 A 
HETATM    9  C   UNL     1      -3.062   6.225 -30.830  1.00  0.00     0.009 A 
HETATM   10  C   UNL     1      -1.824   6.692 -31.278  1.00  0.00     0.001 A 
HETATM   11  C   UNL     1      -1.069   5.944 -32.193  1.00  0.00     0.002 A 
HETATM   12  C   UNL     1      -1.543   4.719 -32.668  1.00  0.00     0.024 A 
HETATM   13  C   UNL     1      -2.763   4.258 -32.206  1.00  0.00     0.015 A 
HETATM   14  N   UNL     1      -3.387   3.059 -32.634  1.00  0.00    -0.274 NA
HETATM   15  H   UNL     1      -3.604   3.178 -33.630  1.00  0.00     0.129 HD
ENDROOT
BRANCH   3  16
HETATM   16  C   UNL     1      -8.147   1.780 -32.516  1.00  0.00     0.037 A 
HETATM   17  C   UNL     1      -9.056   2.805 -32.805  1.00  0.00     0.030 A 
HETATM   18  C   UNL     1     -10.369   2.526 -33.216  1.00  0.00     0.014 A 
HETATM   19  C   UNL     1     -10.812   1.210 -33.356  1.00  0.00    -0.023 A 
HETATM   20  C   UNL     1      -9.914   0.179 -33.069  1.00  0.00     0.014 A 
HETATM   21  C   UNL     1      -8.606   0.461 -32.648  1.00  0.00     0.030 A 
BRANCH  19  22
HETATM   22  C   UNL     1     -12.162   0.911 -33.795  1.00  0.00     0.010 A 
HETATM   23  C   UNL     1     -13.069   1.663 -34.578  1.00  0.00     0.152 A 
HETATM   24  N   UNL     1     -14.228   1.030 -34.780  1.00  0.00    -0.187 NA
HETATM   25  N   UNL     1     -14.069  -0.131 -34.127  1.00  0.00    -0.289 N 
HETATM   26  H   UNL     1     -14.833  -0.798 -34.136  1.00  0.00     0.188 HD
HETATM   27  C   UNL     1     -12.850  -0.252 -33.522  1.00  0.00     0.123 A 
ENDBRANCH  19  22
ENDBRANCH   3  16
BRANCH   1  28
HETATM   28  C   UNL     1      -4.081   0.524 -31.565  1.00  0.00     0.172 C 
BRANCH  28  29
HETATM   29  O   UNL     1      -2.747   0.435 -31.070  1.00  0.00    -0.400 OA
HETATM   30  H   UNL     1      -2.807   0.471 -30.098  1.00  0.00     0.209 HD
ENDBRANCH  28  29
ENDBRANCH   1  28
TORSDOF 4
ENDMDL
MODEL 5
REMARK VINA RESULT:      -8.6      6.157      8.828
REMARK  4 active torsions:
REMARK  status: ('A' for Active; 'I' for Inactive)
REMARK    1  A    between atoms: O_1  and  C_2 
REMARK    2  A    between atoms: C_2  and  C_3 
REMARK    3  A    between atoms: N_5  and  C_17 
REMARK    4  A    between atoms: C_20  and  C_23 
ROOT
HETATM    1  C   UNL     1      -7.535   2.391 -33.960  1.00  0.00     0.060 C 
HETATM    2  C   UNL     1      -8.991   2.739 -34.274  1.00  0.00     0.141 C 
HETATM    3  N   UNL     1      -9.777   2.008 -33.301  1.00  0.00    -0.316 N 
HETATM    4  C   UNL     1      -9.008   0.997 -32.705  1.00  0.00     0.248 C 
HETATM    5  O   UNL     1      -9.302   0.236 -31.792  1.00  0.00    -0.271 OA
HETATM    6  C   UNL     1      -7.649   0.959 -33.420  1.00  0.00     0.108 A 
HETATM    7  C   UNL     1      -7.703  -0.103 -34.552  1.00  0.00     0.076 A 
HETATM    8  C   UNL     1      -6.509  -0.935 -34.241  1.00  0.00    -0.035 A 
HETATM    9  C   UNL     1      -6.024  -2.035 -34.929  1.00  0.00     0.009 A 
HETATM   10  C   UNL     1      -4.909  -2.700 -34.412  1.00  0.00     0.001 A 
HETATM   11  C   UNL     1      -4.306  -2.261 -33.224  1.00  0.00     0.002 A 
HETATM   12  C   UNL     1      -4.810  -1.150 -32.543  1.00  0.00     0.024 A 
HETATM   13  C   UNL     1      -5.905  -0.491 -33.071  1.00  0.00     0.015 A 
HETATM   14  N   UNL     1      -6.549   0.617 -32.466  1.00  0.00    -0.274 NA
HETATM   15  H   UNL     1      -6.949   0.280 -31.582  1.00  0.00     0.129 HD
ENDROOT
BRANCH   3  16
HETATM   16  C   UNL     1     -11.152   2.283 -33.053  1.00  0.00     0.037 A 
HETATM   17  C   UNL     1     -12.170   1.449 -33.529  1.00  0.00     0.030 A 
HETATM   18  C   UNL     1     -13.523   1.730 -33.285  1.00  0.00     0.014 A 
HETATM   19  C   UNL     1     -13.899   2.854 -32.549  1.00  0.00    -0.023 A 
HETATM   20  C   UNL     1     -12.893   3.695 -32.069  1.00  0.00     0.014 A 
HETATM   21  C   UNL     1     -11.541   3.417 -32.324  1.00  0.00     0.030 A 
BRANCH  19  22
HETATM   22  C   UNL     1     -15.295   3.145 -32.277  1.00  0.00     0.010 A 
HETATM   23  C   UNL     1     -16.433   2.305 -32.271  1.00  0.00     0.152 A 
HETATM   24  N   UNL     1     -17.556   2.954 -31.953  1.00  0.00    -0.187 NA
HETATM   25  N   UNL     1     -17.142   4.215 -31.754  1.00  0.00    -0.289 N 
HETATM   26  H   UNL     1     -17.832   4.913 -31.495  1.00  0.00     0.188 HD
HETATM   27  C   UNL     1     -15.799   4.382 -31.933  1.00  0.00     0.123 A 
ENDBRANCH  19  22
ENDBRANCH   3  16
BRANCH   1  28
HETATM   28  C   UNL     1      -6.934   3.385 -32.961  1.00  0.00     0.172 C 
BRANCH  28  29
HETATM   29  O   UNL     1      -5.511   3.324 -33.043  1.00  0.00    -0.400 OA
HETATM   30  H   UNL     1      -5.184   3.211 -32.133  1.00  0.00     0.209 HD
ENDBRANCH  28  29
ENDBRANCH   1  28
TORSDOF 4
ENDMDL
MODEL 6
REMARK VINA RESULT:      -8.4      1.679      2.144
REMARK  4 active torsions:
REMARK  status: ('A' for Active; 'I' for Inactive)
REMARK    1  A    between atoms: O_1  and  C_2 
REMARK    2  A    between atoms: C_2  and  C_3 
REMARK    3  A    between atoms: N_5  and  C_17 
REMARK    4  A    between atoms: C_20  and  C_23 
ROOT
HETATM    1  C   UNL     1      -5.830   4.983 -33.115  1.00  0.00     0.060 C 
HETATM    2  C   UNL     1      -5.533   3.719 -33.923  1.00  0.00     0.141 C 
HETATM    3  N   UNL     1      -5.495   2.644 -32.952  1.00  0.00    -0.316 N 
HETATM    4  C   UNL     1      -5.359   3.159 -31.653  1.00  0.00     0.248 C 
HETATM    5  O   UNL     1      -5.371   2.567 -30.581  1.00  0.00    -0.271 OA
HETATM    6  C   UNL     1      -5.160   4.677 -31.769  1.00  0.00     0.108 A 
HETATM    7  C   UNL     1      -3.638   4.987 -31.777  1.00  0.00     0.076 A 
HETATM    8  C   UNL     1      -3.532   5.999 -30.690  1.00  0.00    -0.035 A 
HETATM    9  C   UNL     1      -2.404   6.669 -30.245  1.00  0.00     0.009 A 
HETATM   10  C   UNL     1      -2.537   7.541 -29.162  1.00  0.00     0.001 A 
HETATM   11  C   UNL     1      -3.782   7.722 -28.542  1.00  0.00     0.002 A 
HETATM   12  C   UNL     1      -4.909   7.035 -29.002  1.00  0.00     0.024 A 
HETATM   13  C   UNL     1      -4.769   6.186 -30.085  1.00  0.00     0.015 A 
HETATM   14  N   UNL     1      -5.810   5.393 -30.629  1.00  0.00    -0.274 NA
HETATM   15  H   UNL     1      -6.077   4.717 -29.903  1.00  0.00     0.129 HD
ENDROOT
BRANCH   3  16
HETATM   16  C   UNL     1      -5.544   1.269 -33.317  1.00  0.00     0.037 A 
HETATM   17  C   UNL     1      -6.622   0.732 -34.030  1.00  0.00     0.030 A 
HETATM   18  C   UNL     1      -6.666  -0.626 -34.381  1.00  0.00     0.014 A 
HETATM   19  C   UNL     1      -5.625  -1.489 -34.034  1.00  0.00    -0.023 A 
HETATM   20  C   UNL     1      -4.544  -0.966 -33.322  1.00  0.00     0.014 A 
HETATM   21  C   UNL     1      -4.509   0.390 -32.962  1.00  0.00     0.030 A 
BRANCH  19  22
HETATM   22  C   UNL     1      -5.652  -2.892 -34.406  1.00  0.00     0.010 A 
HETATM   23  C   UNL     1      -6.669  -3.671 -35.008  1.00  0.00     0.152 A 
HETATM   24  N   UNL     1      -6.300  -4.940 -35.206  1.00  0.00    -0.187 NA
HETATM   25  N   UNL     1      -5.046  -4.979 -34.731  1.00  0.00    -0.289 N 
HETATM   26  H   UNL     1      -4.543  -5.859 -34.773  1.00  0.00     0.188 HD
HETATM   27  C   UNL     1      -4.611  -3.781 -34.243  1.00  0.00     0.123 A 
ENDBRANCH  19  22
ENDBRANCH   3  16
BRANCH   1  28
HETATM   28  C   UNL     1      -7.338   5.232 -33.014  1.00  0.00     0.172 C 
BRANCH  28  29
HETATM   29  O   UNL     1      -7.860   5.453 -34.323  1.00  0.00    -0.400 OA
HETATM   30  H   UNL     1      -8.733   5.869 -34.208  1.00  0.00     0.209 HD
ENDBRANCH  28  29
ENDBRANCH   1  28
TORSDOF 4
ENDMDL
MODEL 7
REMARK VINA RESULT:      -8.1      4.861      7.271
REMARK  4 active torsions:
REMARK  status: ('A' for Active; 'I' for Inactive)
REMARK    1  A    between atoms: O_1  and  C_2 
REMARK    2  A    between atoms: C_2  and  C_3 
REMARK    3  A    between atoms: N_5  and  C_17 
REMARK    4  A    between atoms: C_20  and  C_23 
ROOT
HETATM    1  C   UNL     1      -9.109   4.499 -32.851  1.00  0.00     0.060 C 
HETATM    2  C   UNL     1      -8.155   3.322 -32.637  1.00  0.00     0.141 C 
HETATM    3  N   UNL     1      -8.820   2.178 -33.228  1.00  0.00    -0.316 N 
HETATM    4  C   UNL     1     -10.183   2.449 -33.425  1.00  0.00     0.248 C 
HETATM    5  O   UNL     1     -11.038   1.761 -33.969  1.00  0.00    -0.271 OA
HETATM    6  C   UNL     1     -10.484   3.820 -32.802  1.00  0.00     0.108 A 
HETATM    7  C   UNL     1     -10.996   3.614 -31.351  1.00  0.00     0.076 A 
HETATM    8  C   UNL     1     -12.268   4.387 -31.368  1.00  0.00    -0.035 A 
HETATM    9  C   UNL     1     -13.166   4.588 -30.333  1.00  0.00     0.009 A 
HETATM   10  C   UNL     1     -14.333   5.308 -30.601  1.00  0.00     0.001 A 
HETATM   11  C   UNL     1     -14.584   5.804 -31.889  1.00  0.00     0.002 A 
HETATM   12  C   UNL     1     -13.667   5.589 -32.921  1.00  0.00     0.024 A 
HETATM   13  C   UNL     1     -12.508   4.888 -32.642  1.00  0.00     0.015 A 
HETATM   14  N   UNL     1     -11.515   4.556 -33.597  1.00  0.00    -0.274 NA
HETATM   15  H   UNL     1     -11.955   3.917 -34.270  1.00  0.00     0.129 HD
ENDROOT
BRANCH   3  16
HETATM   16  C   UNL     1      -8.151   0.954 -33.509  1.00  0.00     0.037 A 
HETATM   17  C   UNL     1      -7.447   0.253 -32.523  1.00  0.00     0.030 A 
HETATM   18  C   UNL     1      -6.784  -0.950 -32.809  1.00  0.00     0.014 A 
HETATM   19  C   UNL     1      -6.811  -1.494 -34.094  1.00  0.00    -0.023 A 
HETATM   20  C   UNL     1      -7.510  -0.804 -35.088  1.00  0.00     0.014 A 
HETATM   21  C   UNL     1      -8.161   0.405 -34.801  1.00  0.00     0.030 A 
BRANCH  19  22
HETATM   22  C   UNL     1      -6.144  -2.747 -34.398  1.00  0.00     0.010 A 
HETATM   23  C   UNL     1      -6.650  -3.968 -34.901  1.00  0.00     0.152 A 
HETATM   24  N   UNL     1      -5.702  -4.896 -35.060  1.00  0.00    -0.187 NA
HETATM   25  N   UNL     1      -4.584  -4.273 -34.658  1.00  0.00    -0.289 N 
HETATM   26  H   UNL     1      -3.709  -4.787 -34.689  1.00  0.00     0.188 HD
HETATM   27  C   UNL     1      -4.793  -2.986 -34.254  1.00  0.00     0.123 A 
ENDBRANCH  19  22
ENDBRANCH   3  16
BRANCH   1  28
HETATM   28  C   UNL     1      -8.816   5.211 -34.175  1.00  0.00     0.172 C 
BRANCH  28  29
HETATM   29  O   UNL     1      -7.412   5.442 -34.277  1.00  0.00    -0.400 OA
HETATM   30  H   UNL     1      -7.026   5.198 -33.417  1.00  0.00     0.209 HD
ENDBRANCH  28  29
ENDBRANCH   1  28
TORSDOF 4
ENDMDL
MODEL 8
REMARK VINA RESULT:      -8.1      2.951      9.026
REMARK  4 active torsions:
REMARK  status: ('A' for Active; 'I' for Inactive)
REMARK    1  A    between atoms: O_1  and  C_2 
REMARK    2  A    between atoms: C_2  and  C_3 
REMARK    3  A    between atoms: N_5  and  C_17 
REMARK    4  A    between atoms: C_20  and  C_23 
ROOT
HETATM    1  C   UNL     1      -7.103   1.231 -31.096  1.00  0.00     0.060 C 
HETATM    2  C   UNL     1      -6.365   2.403 -30.447  1.00  0.00     0.141 C 
HETATM    3  N   UNL     1      -5.872   3.203 -31.549  1.00  0.00    -0.316 N 
HETATM    4  C   UNL     1      -5.900   2.466 -32.743  1.00  0.00     0.248 C 
HETATM    5  O   UNL     1      -5.639   2.828 -33.884  1.00  0.00    -0.271 OA
HETATM    6  C   UNL     1      -6.316   1.028 -32.398  1.00  0.00     0.108 A 
HETATM    7  C   UNL     1      -5.039   0.168 -32.195  1.00  0.00     0.076 A 
HETATM    8  C   UNL     1      -5.298  -0.974 -33.113  1.00  0.00    -0.035 A 
HETATM    9  C   UNL     1      -4.507  -2.088 -33.345  1.00  0.00     0.009 A 
HETATM   10  C   UNL     1      -4.930  -3.012 -34.304  1.00  0.00     0.001 A 
HETATM   11  C   UNL     1      -6.122  -2.805 -35.015  1.00  0.00     0.002 A 
HETATM   12  C   UNL     1      -6.905  -1.675 -34.770  1.00  0.00     0.024 A 
HETATM   13  C   UNL     1      -6.485  -0.774 -33.807  1.00  0.00     0.015 A 
HETATM   14  N   UNL     1      -7.152   0.434 -33.487  1.00  0.00    -0.274 NA
HETATM   15  H   UNL     1      -7.105   1.029 -34.323  1.00  0.00     0.129 HD
ENDROOT
BRANCH   3  16
HETATM   16  C   UNL     1      -5.392   4.533 -31.387  1.00  0.00     0.037 A 
HETATM   17  C   UNL     1      -6.250   5.638 -31.424  1.00  0.00     0.030 A 
HETATM   18  C   UNL     1      -5.768   6.947 -31.268  1.00  0.00     0.014 A 
HETATM   19  C   UNL     1      -4.409   7.190 -31.064  1.00  0.00    -0.023 A 
HETATM   20  C   UNL     1      -3.542   6.095 -31.026  1.00  0.00     0.014 A 
HETATM   21  C   UNL     1      -4.026   4.789 -31.193  1.00  0.00     0.030 A 
BRANCH  19  22
HETATM   22  C   UNL     1      -3.902   8.538 -30.885  1.00  0.00     0.010 A 
HETATM   23  C   UNL     1      -2.606   9.073 -31.076  1.00  0.00     0.152 A 
HETATM   24  N   UNL     1      -2.542  10.382 -30.816  1.00  0.00    -0.187 NA
HETATM   25  N   UNL     1      -3.798  10.691 -30.457  1.00  0.00    -0.289 N 
HETATM   26  H   UNL     1      -4.004  11.653 -30.207  1.00  0.00     0.188 HD
HETATM   27  C   UNL     1      -4.650   9.624 -30.483  1.00  0.00     0.123 A 
ENDBRANCH  19  22
ENDBRANCH   3  16
BRANCH   1  28
HETATM   28  C   UNL     1      -8.583   1.563 -31.312  1.00  0.00     0.172 C 
BRANCH  28  29
HETATM   29  O   UNL     1      -9.351   0.367 -31.186  1.00  0.00    -0.400 OA
HETATM   30  H   UNL     1      -9.537   0.255 -30.236  1.00  0.00     0.209 HD
ENDBRANCH  28  29
ENDBRANCH   1  28
TORSDOF 4
ENDMDL
MODEL 9
REMARK VINA RESULT:      -8.0     16.737     18.173
REMARK  4 active torsions:
REMARK  status: ('A' for Active; 'I' for Inactive)
REMARK    1  A    between atoms: O_1  and  C_2 
REMARK    2  A    between atoms: C_2  and  C_3 
REMARK    3  A    between atoms: N_5  and  C_17 
REMARK    4  A    between atoms: C_20  and  C_23 
ROOT
HETATM    1  C   UNL     1      -2.892 -14.116 -36.005  1.00  0.00     0.060 C 
HETATM    2  C   UNL     1      -4.079 -13.277 -36.481  1.00  0.00     0.141 C 
HETATM    3  N   UNL     1      -4.612 -13.984 -37.628  1.00  0.00    -0.316 N 
HETATM    4  C   UNL     1      -3.679 -14.914 -38.110  1.00  0.00     0.248 C 
HETATM    5  O   UNL     1      -3.801 -15.741 -39.005  1.00  0.00    -0.271 OA
HETATM    6  C   UNL     1      -2.378 -14.729 -37.315  1.00  0.00     0.108 A 
HETATM    7  C   UNL     1      -1.441 -13.767 -38.096  1.00  0.00     0.076 A 
HETATM    8  C   UNL     1      -0.185 -14.562 -38.165  1.00  0.00    -0.035 A 
HETATM    9  C   UNL     1       1.028 -14.207 -38.732  1.00  0.00     0.009 A 
HETATM   10  C   UNL     1       2.061 -15.148 -38.729  1.00  0.00     0.001 A 
HETATM   11  C   UNL     1       1.864 -16.419 -38.169  1.00  0.00     0.002 A 
HETATM   12  C   UNL     1       0.633 -16.761 -37.603  1.00  0.00     0.024 A 
HETATM   13  C   UNL     1      -0.378 -15.816 -37.598  1.00  0.00     0.015 A 
HETATM   14  N   UNL     1      -1.687 -16.038 -37.102  1.00  0.00    -0.274 NA
HETATM   15  H   UNL     1      -2.112 -16.755 -37.701  1.00  0.00     0.129 HD
ENDROOT
BRANCH   3  16
HETATM   16  C   UNL     1      -5.893 -13.705 -38.183  1.00  0.00     0.037 A 
HETATM   17  C   UNL     1      -6.047 -12.900 -39.318  1.00  0.00     0.030 A 
HETATM   18  C   UNL     1      -7.314 -12.625 -39.856  1.00  0.00     0.014 A 
HETATM   19  C   UNL     1      -8.468 -13.153 -39.276  1.00  0.00    -0.023 A 
HETATM   20  C   UNL     1      -8.328 -13.958 -38.142  1.00  0.00     0.014 A 
HETATM   21  C   UNL     1      -7.060 -14.221 -37.601  1.00  0.00     0.030 A 
BRANCH  19  22
HETATM   22  C   UNL     1      -9.782 -12.889 -39.833  1.00  0.00     0.010 A 
HETATM   23  C   UNL     1     -10.860 -13.760 -40.118  1.00  0.00     0.152 A 
HETATM   24  N   UNL     1     -11.922 -13.123 -40.620  1.00  0.00    -0.187 NA
HETATM   25  N   UNL     1     -11.528 -11.841 -40.659  1.00  0.00    -0.289 N 
HETATM   26  H   UNL     1     -12.181 -11.148 -41.011  1.00  0.00     0.188 HD
HETATM   27  C   UNL     1     -10.258 -11.647 -40.199  1.00  0.00     0.123 A 
ENDBRANCH  19  22
ENDBRANCH   3  16
BRANCH   1  28
HETATM   28  C   UNL     1      -3.331 -15.152 -34.966  1.00  0.00     0.172 C 
BRANCH  28  29
HETATM   29  O   UNL     1      -2.193 -15.560 -34.208  1.00  0.00    -0.400 OA
HETATM   30  H   UNL     1      -1.466 -14.958 -34.451  1.00  0.00     0.209 HD
ENDBRANCH  28  29
ENDBRANCH   1  28
TORSDOF 4
ENDMDL
MODEL 10
REMARK VINA RESULT:      -7.6      3.414      4.284
REMARK  4 active torsions:
REMARK  status: ('A' for Active; 'I' for Inactive)
REMARK    1  A    between atoms: O_1  and  C_2 
REMARK    2  A    between atoms: C_2  and  C_3 
REMARK    3  A    between atoms: N_5  and  C_17 
REMARK    4  A    between atoms: C_20  and  C_23 
ROOT
HETATM    1  C   UNL     1      -9.007   4.163 -32.521  1.00  0.00     0.060 C 
HETATM    2  C   UNL     1      -8.377   3.126 -33.453  1.00  0.00     0.141 C 
HETATM    3  N   UNL     1      -7.734   2.166 -32.579  1.00  0.00    -0.316 N 
HETATM    4  C   UNL     1      -7.586   2.697 -31.288  1.00  0.00     0.248 C 
HETATM    5  O   UNL     1      -7.166   2.158 -30.272  1.00  0.00    -0.271 OA
HETATM    6  C   UNL     1      -8.040   4.164 -31.330  1.00  0.00     0.108 A 
HETATM    7  C   UNL     1      -6.800   5.069 -31.570  1.00  0.00     0.076 A 
HETATM    8  C   UNL     1      -6.917   6.041 -30.449  1.00  0.00    -0.035 A 
HETATM    9  C   UNL     1      -6.095   7.116 -30.153  1.00  0.00     0.009 A 
HETATM   10  C   UNL     1      -6.370   7.863 -29.005  1.00  0.00     0.001 A 
HETATM   11  C   UNL     1      -7.448   7.522 -28.175  1.00  0.00     0.002 A 
HETATM   12  C   UNL     1      -8.266   6.433 -28.488  1.00  0.00     0.024 A 
HETATM   13  C   UNL     1      -7.993   5.709 -29.635  1.00  0.00     0.015 A 
HETATM   14  N   UNL     1      -8.707   4.558 -30.051  1.00  0.00    -0.274 NA
HETATM   15  H   UNL     1      -8.543   3.836 -29.339  1.00  0.00     0.129 HD
ENDROOT
BRANCH   3  16
HETATM   16  C   UNL     1      -7.291   0.889 -33.024  1.00  0.00     0.037 A 
HETATM   17  C   UNL     1      -5.938   0.528 -33.002  1.00  0.00     0.030 A 
HETATM   18  C   UNL     1      -5.508  -0.731 -33.449  1.00  0.00     0.014 A 
HETATM   19  C   UNL     1      -6.421  -1.672 -33.927  1.00  0.00    -0.023 A 
HETATM   20  C   UNL     1      -7.773  -1.324 -33.955  1.00  0.00     0.014 A 
HETATM   21  C   UNL     1      -8.199  -0.060 -33.518  1.00  0.00     0.030 A 
BRANCH  19  22
HETATM   22  C   UNL     1      -5.988  -2.983 -34.376  1.00  0.00     0.010 A 
HETATM   23  C   UNL     1      -6.694  -4.013 -35.041  1.00  0.00     0.152 A 
HETATM   24  N   UNL     1      -5.931  -5.080 -35.300  1.00  0.00    -0.187 NA
HETATM   25  N   UNL     1      -4.734  -4.737 -34.801  1.00  0.00    -0.289 N 
HETATM   26  H   UNL     1      -3.971  -5.401 -34.880  1.00  0.00     0.188 HD
HETATM   27  C   UNL     1      -4.714  -3.493 -34.239  1.00  0.00     0.123 A 
ENDBRANCH  19  22
ENDBRANCH   3  16
BRANCH   1  28
HETATM   28  C   UNL     1     -10.442   3.774 -32.154  1.00  0.00     0.172 C 
BRANCH  28  29
HETATM   29  O   UNL     1     -11.143   4.939 -31.723  1.00  0.00    -0.400 OA
HETATM   30  H   UNL     1     -11.500   4.738 -30.839  1.00  0.00     0.209 HD
ENDBRANCH  28  29
ENDBRANCH   1  28
TORSDOF 4
ENDMDL
