MODEL 1
REMARK VINA RESULT:      -8.5      0.000      0.000
REMARK  9 active torsions:
REMARK  status: ('A' for Active; 'I' for Inactive)
REMARK    1  A    between atoms: C_2  and  N_3 
REMARK    2  A    between atoms: C_2  and  C_23 
REMARK       I    between atoms: N_3  and  C_4 
REMARK       I    between atoms: C_4  and  N_5 
REMARK    3  A    between atoms: N_5  and  C_6 
REMARK    4  A    between atoms: C_6  and  C_7 
REMARK    5  A    between atoms: C_7  and  N_8 
REMARK    6  A    between atoms: C_7  and  C_14 
REMARK    7  A    between atoms: C_16  and  O_17 
REMARK    8  A    between atoms: C_23  and  C_24 
REMARK    9  A    between atoms: C_27  and  O_28 
ROOT
HETATM    1  N   UNL     1      -6.723   1.209 -33.419  1.00  0.00    -0.339 N 
HETATM    2  C   UNL     1      -5.505   1.472 -32.867  1.00  0.00     0.316 C 
HETATM    3  N   UNL     1      -5.121   2.777 -33.051  1.00  0.00    -0.341 N 
HETATM    4  O   UNL     1      -4.770   0.636 -32.358  1.00  0.00    -0.248 OA
HETATM    5  H   UNL     1      -7.355   1.978 -33.579  1.00  0.00     0.164 HD
HETATM    6  H   UNL     1      -5.890   3.421 -33.178  1.00  0.00     0.164 HD
ENDROOT
BRANCH   3   7
HETATM    7  C   UNL     1      -3.957   3.295 -32.347  1.00  0.00     0.162 C 
BRANCH   7   8
HETATM    8  C   UNL     1      -4.078   4.709 -31.686  1.00  0.00     0.238 C 
BRANCH   8   9
HETATM    9  N   UNL     1      -4.523   4.707 -30.222  1.00  0.00    -0.061 N 
HETATM   10  H   UNL     1      -3.687   4.393 -29.716  1.00  0.00     0.280 HD
HETATM   11  C   UNL     1      -5.631   3.777 -29.795  1.00  0.00     0.236 C 
HETATM   12  C   UNL     1      -6.712   4.688 -29.248  1.00  0.00     0.029 C 
HETATM   13  C   UNL     1      -5.925   5.823 -28.628  1.00  0.00     0.029 C 
HETATM   14  C   UNL     1      -4.832   6.079 -29.646  1.00  0.00     0.236 C 
ENDBRANCH   8   9
BRANCH   8  15
HETATM   15  C   UNL     1      -2.787   5.511 -31.846  1.00  0.00    -0.023 A 
HETATM   16  C   UNL     1      -1.587   4.999 -31.307  1.00  0.00     0.046 A 
HETATM   17  C   UNL     1      -0.388   5.706 -31.431  1.00  0.00     0.068 A 
HETATM   18  C   UNL     1      -0.376   6.919 -32.117  1.00  0.00     0.037 A 
HETATM   19  C   UNL     1      -1.549   7.440 -32.657  1.00  0.00     0.003 A 
HETATM   20  C   UNL     1      -2.749   6.741 -32.523  1.00  0.00     0.009 A 
BRANCH  17  21
HETATM   21  O   UNL     1       0.826   5.312 -30.948  1.00  0.00    -0.356 OA
HETATM   22  C   UNL     1       0.861   4.777 -29.630  1.00  0.00     0.210 C 
ENDBRANCH  17  21
ENDBRANCH   8  15
ENDBRANCH   7   8
ENDBRANCH   3   7
BRANCH   1  23
HETATM   23  C   UNL     1      -7.303  -0.134 -33.427  1.00  0.00     0.086 C 
HETATM   24  C   UNL     1      -8.799  -0.071 -33.111  1.00  0.00     0.032 C 
BRANCH  23  25
HETATM   25  C   UNL     1      -7.082  -0.833 -34.785  1.00  0.00     0.063 C 
BRANCH  25  26
HETATM   26  C   UNL     1      -6.364  -2.159 -34.668  1.00  0.00    -0.056 A 
HETATM   27  C   UNL     1      -7.046  -3.361 -34.908  1.00  0.00     0.010 A 
HETATM   28  C   UNL     1      -6.382  -4.586 -34.809  1.00  0.00     0.037 A 
HETATM   29  C   UNL     1      -5.038  -4.608 -34.457  1.00  0.00     0.065 A 
HETATM   30  C   UNL     1      -4.347  -3.429 -34.206  1.00  0.00     0.037 A 
HETATM   31  C   UNL     1      -5.006  -2.205 -34.318  1.00  0.00     0.010 A 
BRANCH  29  32
HETATM   32  O   UNL     1      -4.351  -5.780 -34.350  1.00  0.00    -0.361 OA
HETATM   33  H   UNL     1      -3.526  -5.703 -34.860  1.00  0.00     0.217 HD
ENDBRANCH  29  32
ENDBRANCH  25  26
ENDBRANCH  23  25
ENDBRANCH   1  23
TORSDOF 9
ENDMDL
MODEL 2
REMARK VINA RESULT:      -8.2      2.177      3.148
REMARK  9 active torsions:
REMARK  status: ('A' for Active; 'I' for Inactive)
REMARK    1  A    between atoms: C_2  and  N_3 
REMARK    2  A    between atoms: C_2  and  C_23 
REMARK       I    between atoms: N_3  and  C_4 
REMARK       I    between atoms: C_4  and  N_5 
REMARK    3  A    between atoms: N_5  and  C_6 
REMARK    4  A    between atoms: C_6  and  C_7 
REMARK    5  A    between atoms: C_7  and  N_8 
REMARK    6  A    between atoms: C_7  and  C_14 
REMARK    7  A    between atoms: C_16  and  O_17 
REMARK    8  A    between atoms: C_23  and  C_24 
REMARK    9  A    between atoms: C_27  and  O_28 
ROOT
HETATM    1  N   UNL     1      -5.103   1.409 -32.564  1.00  0.00    -0.339 N 
HETATM    2  C   UNL     1      -3.987   1.813 -31.895  1.00  0.00     0.316 C 
HETATM    3  N   UNL     1      -3.641   3.107 -32.193  1.00  0.00    -0.341 N 
HETATM    4  O   UNL     1      -3.292   1.094 -31.188  1.00  0.00    -0.248 OA
HETATM    5  H   UNL     1      -5.741   2.111 -32.904  1.00  0.00     0.164 HD
HETATM    6  H   UNL     1      -4.414   3.681 -32.503  1.00  0.00     0.164 HD
ENDROOT
BRANCH   3   7
HETATM    7  C   UNL     1      -2.612   3.780 -31.414  1.00  0.00     0.162 C 
BRANCH   7   8
HETATM    8  C   UNL     1      -1.763   4.883 -32.130  1.00  0.00     0.238 C 
BRANCH   8   9
HETATM    9  N   UNL     1      -2.484   5.631 -33.254  1.00  0.00    -0.061 N 
HETATM   10  H   UNL     1      -1.981   6.526 -33.309  1.00  0.00     0.280 HD
HETATM   11  C   UNL     1      -3.938   5.990 -33.080  1.00  0.00     0.236 C 
HETATM   12  C   UNL     1      -4.647   5.297 -34.226  1.00  0.00     0.029 C 
HETATM   13  C   UNL     1      -3.626   5.344 -35.343  1.00  0.00     0.029 C 
HETATM   14  C   UNL     1      -2.327   5.015 -34.635  1.00  0.00     0.236 C 
ENDBRANCH   8   9
BRANCH   8  15
HETATM   15  C   UNL     1      -1.176   5.875 -31.126  1.00  0.00    -0.023 A 
HETATM   16  C   UNL     1      -2.027   6.472 -30.171  1.00  0.00     0.046 A 
HETATM   17  C   UNL     1      -1.527   7.385 -29.239  1.00  0.00     0.068 A 
HETATM   18  C   UNL     1      -0.166   7.689 -29.240  1.00  0.00     0.037 A 
HETATM   19  C   UNL     1       0.689   7.109 -30.174  1.00  0.00     0.003 A 
HETATM   20  C   UNL     1       0.188   6.207 -31.112  1.00  0.00     0.009 A 
BRANCH  17  21
HETATM   21  O   UNL     1      -2.253   8.025 -28.276  1.00  0.00    -0.356 OA
HETATM   22  C   UNL     1      -2.495   9.415 -28.460  1.00  0.00     0.210 C 
ENDBRANCH  17  21
ENDBRANCH   8  15
ENDBRANCH   7   8
ENDBRANCH   3   7
BRANCH   1  23
HETATM   23  C   UNL     1      -5.614   0.040 -32.475  1.00  0.00     0.086 C 
HETATM   24  C   UNL     1      -6.766  -0.034 -31.471  1.00  0.00     0.032 C 
BRANCH  23  25
HETATM   25  C   UNL     1      -6.082  -0.475 -33.852  1.00  0.00     0.063 C 
BRANCH  25  26
HETATM   26  C   UNL     1      -5.743  -1.928 -34.097  1.00  0.00    -0.056 A 
HETATM   27  C   UNL     1      -6.710  -2.807 -34.608  1.00  0.00     0.010 A 
HETATM   28  C   UNL     1      -6.395  -4.148 -34.844  1.00  0.00     0.037 A 
HETATM   29  C   UNL     1      -5.118  -4.611 -34.555  1.00  0.00     0.065 A 
HETATM   30  C   UNL     1      -4.150  -3.758 -34.039  1.00  0.00     0.037 A 
HETATM   31  C   UNL     1      -4.459  -2.416 -33.817  1.00  0.00     0.010 A 
BRANCH  29  32
HETATM   32  O   UNL     1      -4.768  -5.910 -34.770  1.00  0.00    -0.361 OA
HETATM   33  H   UNL     1      -5.307  -6.477 -34.193  1.00  0.00     0.217 HD
ENDBRANCH  29  32
ENDBRANCH  25  26
ENDBRANCH  23  25
ENDBRANCH   1  23
TORSDOF 9
ENDMDL
MODEL 3
REMARK VINA RESULT:      -8.2      1.516      1.705
REMARK  9 active torsions:
REMARK  status: ('A' for Active; 'I' for Inactive)
REMARK    1  A    between atoms: C_2  and  N_3 
REMARK    2  A    between atoms: C_2  and  C_23 
REMARK       I    between atoms: N_3  and  C_4 
REMARK       I    between atoms: C_4  and  N_5 
REMARK    3  A    between atoms: N_5  and  C_6 
REMARK    4  A    between atoms: C_6  and  C_7 
REMARK    5  A    between atoms: C_7  and  N_8 
REMARK    6  A    between atoms: C_7  and  C_14 
REMARK    7  A    between atoms: C_16  and  O_17 
REMARK    8  A    between atoms: C_23  and  C_24 
REMARK    9  A    between atoms: C_27  and  O_28 
ROOT
HETATM    1  N   UNL     1      -6.045   1.494 -33.190  1.00  0.00    -0.339 N 
HETATM    2  C   UNL     1      -4.917   1.814 -32.496  1.00  0.00     0.316 C 
HETATM    3  N   UNL     1      -4.510   3.104 -32.730  1.00  0.00    -0.341 N 
HETATM    4  O   UNL     1      -4.260   1.031 -31.823  1.00  0.00    -0.248 OA
HETATM    5  H   UNL     1      -6.649   2.240 -33.499  1.00  0.00     0.164 HD
HETATM    6  H   UNL     1      -5.254   3.727 -33.016  1.00  0.00     0.164 HD
ENDROOT
BRANCH   3   7
HETATM    7  C   UNL     1      -3.457   3.691 -31.915  1.00  0.00     0.162 C 
BRANCH   7   8
HETATM    8  C   UNL     1      -3.412   5.251 -31.799  1.00  0.00     0.238 C 
BRANCH   8   9
HETATM    9  N   UNL     1      -4.552   5.878 -30.993  1.00  0.00    -0.061 N 
HETATM   10  H   UNL     1      -4.086   6.615 -30.449  1.00  0.00     0.280 HD
HETATM   11  C   UNL     1      -5.287   5.031 -29.984  1.00  0.00     0.236 C 
HETATM   12  C   UNL     1      -6.730   5.045 -30.447  1.00  0.00     0.029 C 
HETATM   13  C   UNL     1      -6.886   6.424 -31.051  1.00  0.00     0.029 C 
HETATM   14  C   UNL     1      -5.595   6.609 -31.822  1.00  0.00     0.236 C 
ENDBRANCH   8   9
BRANCH   8  15
HETATM   15  C   UNL     1      -2.062   5.733 -31.269  1.00  0.00    -0.023 A 
HETATM   16  C   UNL     1      -2.029   6.774 -30.316  1.00  0.00     0.046 A 
HETATM   17  C   UNL     1      -0.814   7.243 -29.810  1.00  0.00     0.068 A 
HETATM   18  C   UNL     1       0.377   6.655 -30.235  1.00  0.00     0.037 A 
HETATM   19  C   UNL     1       0.365   5.626 -31.173  1.00  0.00     0.003 A 
HETATM   20  C   UNL     1      -0.847   5.166 -31.687  1.00  0.00     0.009 A 
BRANCH  17  21
HETATM   21  O   UNL     1      -0.660   8.243 -28.894  1.00  0.00    -0.356 OA
HETATM   22  C   UNL     1       0.546   8.256 -28.140  1.00  0.00     0.210 C 
ENDBRANCH  17  21
ENDBRANCH   8  15
ENDBRANCH   7   8
ENDBRANCH   3   7
BRANCH   1  23
HETATM   23  C   UNL     1      -6.618   0.147 -33.170  1.00  0.00     0.086 C 
HETATM   24  C   UNL     1      -8.066   0.191 -32.678  1.00  0.00     0.032 C 
BRANCH  23  25
HETATM   25  C   UNL     1      -6.557  -0.510 -34.564  1.00  0.00     0.063 C 
BRANCH  25  26
HETATM   26  C   UNL     1      -6.041  -1.931 -34.537  1.00  0.00    -0.056 A 
HETATM   27  C   UNL     1      -6.880  -2.998 -34.891  1.00  0.00     0.010 A 
HETATM   28  C   UNL     1      -6.403  -4.311 -34.874  1.00  0.00     0.037 A 
HETATM   29  C   UNL     1      -5.091  -4.557 -34.490  1.00  0.00     0.065 A 
HETATM   30  C   UNL     1      -4.247  -3.514 -34.127  1.00  0.00     0.037 A 
HETATM   31  C   UNL     1      -4.719  -2.202 -34.156  1.00  0.00     0.010 A 
BRANCH  29  32
HETATM   32  O   UNL     1      -4.584  -5.821 -34.461  1.00  0.00    -0.361 OA
HETATM   33  H   UNL     1      -4.094  -5.978 -35.286  1.00  0.00     0.217 HD
ENDBRANCH  29  32
ENDBRANCH  25  26
ENDBRANCH  23  25
ENDBRANCH   1  23
TORSDOF 9
ENDMDL
MODEL 4
REMARK VINA RESULT:      -8.1      1.920      4.169
REMARK  9 active torsions:
REMARK  status: ('A' for Active; 'I' for Inactive)
REMARK    1  A    between atoms: C_2  and  N_3 
REMARK    2  A    between atoms: C_2  and  C_23 
REMARK       I    between atoms: N_3  and  C_4 
REMARK       I    between atoms: C_4  and  N_5 
REMARK    3  A    between atoms: N_5  and  C_6 
REMARK    4  A    between atoms: C_6  and  C_7 
REMARK    5  A    between atoms: C_7  and  N_8 
REMARK    6  A    between atoms: C_7  and  C_14 
REMARK    7  A    between atoms: C_16  and  O_17 
REMARK    8  A    between atoms: C_23  and  C_24 
REMARK    9  A    between atoms: C_27  and  O_28 
ROOT
HETATM    1  N   UNL     1      -4.918   1.645 -32.832  1.00  0.00    -0.339 N 
HETATM    2  C   UNL     1      -3.760   2.125 -32.299  1.00  0.00     0.316 C 
HETATM    3  N   UNL     1      -3.477   3.397 -32.730  1.00  0.00    -0.341 N 
HETATM    4  O   UNL     1      -2.987   1.481 -31.601  1.00  0.00    -0.248 OA
HETATM    5  H   UNL     1      -5.603   2.304 -33.169  1.00  0.00     0.164 HD
HETATM    6  H   UNL     1      -4.289   3.928 -33.016  1.00  0.00     0.164 HD
ENDROOT
BRANCH   3   7
HETATM    7  C   UNL     1      -2.402   4.152 -32.102  1.00  0.00     0.162 C 
BRANCH   7   8
HETATM    8  C   UNL     1      -2.792   5.185 -30.992  1.00  0.00     0.238 C 
BRANCH   8   9
HETATM    9  N   UNL     1      -1.894   6.421 -30.908  1.00  0.00    -0.061 N 
HETATM   10  H   UNL     1      -2.551   7.204 -31.014  1.00  0.00     0.280 HD
HETATM   11  C   UNL     1      -0.837   6.630 -31.963  1.00  0.00     0.236 C 
HETATM   12  C   UNL     1       0.471   6.664 -31.198  1.00  0.00     0.029 C 
HETATM   13  C   UNL     1       0.085   7.304 -29.882  1.00  0.00     0.029 C 
HETATM   14  C   UNL     1      -1.240   6.644 -29.555  1.00  0.00     0.236 C 
ENDBRANCH   8   9
BRANCH   8  15
HETATM   15  C   UNL     1      -4.258   5.603 -31.109  1.00  0.00    -0.023 A 
HETATM   16  C   UNL     1      -5.216   4.992 -30.271  1.00  0.00     0.046 A 
HETATM   17  C   UNL     1      -6.565   5.346 -30.351  1.00  0.00     0.068 A 
HETATM   18  C   UNL     1      -6.962   6.333 -31.251  1.00  0.00     0.037 A 
HETATM   19  C   UNL     1      -6.031   6.948 -32.085  1.00  0.00     0.003 A 
HETATM   20  C   UNL     1      -4.686   6.586 -32.015  1.00  0.00     0.009 A 
BRANCH  17  21
HETATM   21  O   UNL     1      -7.576   4.822 -29.598  1.00  0.00    -0.356 OA
HETATM   22  C   UNL     1      -8.302   3.732 -30.153  1.00  0.00     0.210 C 
ENDBRANCH  17  21
ENDBRANCH   8  15
ENDBRANCH   7   8
ENDBRANCH   3   7
BRANCH   1  23
HETATM   23  C   UNL     1      -5.382   0.278 -32.587  1.00  0.00     0.086 C 
HETATM   24  C   UNL     1      -6.323   0.242 -31.381  1.00  0.00     0.032 C 
BRANCH  23  25
HETATM   25  C   UNL     1      -6.095  -0.302 -33.826  1.00  0.00     0.063 C 
BRANCH  25  26
HETATM   26  C   UNL     1      -5.771  -1.757 -34.080  1.00  0.00    -0.056 A 
HETATM   27  C   UNL     1      -4.485  -2.254 -33.820  1.00  0.00     0.010 A 
HETATM   28  C   UNL     1      -4.186  -3.601 -34.045  1.00  0.00     0.037 A 
HETATM   29  C   UNL     1      -5.170  -4.445 -34.543  1.00  0.00     0.065 A 
HETATM   30  C   UNL     1      -6.447  -3.969 -34.816  1.00  0.00     0.037 A 
HETATM   31  C   UNL     1      -6.750  -2.629 -34.578  1.00  0.00     0.010 A 
BRANCH  29  32
HETATM   32  O   UNL     1      -4.923  -5.765 -34.776  1.00  0.00    -0.361 OA
HETATM   33  H   UNL     1      -4.379  -6.112 -34.049  1.00  0.00     0.217 HD
ENDBRANCH  29  32
ENDBRANCH  25  26
ENDBRANCH  23  25
ENDBRANCH   1  23
TORSDOF 9
ENDMDL
MODEL 5
REMARK VINA RESULT:      -8.0      1.779      2.196
REMARK  9 active torsions:
REMARK  status: ('A' for Active; 'I' for Inactive)
REMARK    1  A    between atoms: C_2  and  N_3 
REMARK    2  A    between atoms: C_2  and  C_23 
REMARK       I    between atoms: N_3  and  C_4 
REMARK       I    between atoms: C_4  and  N_5 
REMARK    3  A    between atoms: N_5  and  C_6 
REMARK    4  A    between atoms: C_6  and  C_7 
REMARK    5  A    between atoms: C_7  and  N_8 
REMARK    6  A    between atoms: C_7  and  C_14 
REMARK    7  A    between atoms: C_16  and  O_17 
REMARK    8  A    between atoms: C_23  and  C_24 
REMARK    9  A    between atoms: C_27  and  O_28 
ROOT
HETATM    1  N   UNL     1      -6.762   0.480 -32.243  1.00  0.00    -0.339 N 
HETATM    2  C   UNL     1      -5.980   1.542 -32.584  1.00  0.00     0.316 C 
HETATM    3  N   UNL     1      -5.465   2.183 -31.485  1.00  0.00    -0.341 N 
HETATM    4  O   UNL     1      -5.826   1.965 -33.722  1.00  0.00    -0.248 OA
HETATM    5  H   UNL     1      -6.629   0.054 -31.339  1.00  0.00     0.164 HD
HETATM    6  H   UNL     1      -5.382   1.597 -30.665  1.00  0.00     0.164 HD
ENDROOT
BRANCH   3   7
HETATM    7  C   UNL     1      -4.437   3.200 -31.655  1.00  0.00     0.162 C 
BRANCH   7   8
HETATM    8  C   UNL     1      -4.882   4.599 -32.196  1.00  0.00     0.238 C 
BRANCH   8   9
HETATM    9  N   UNL     1      -5.565   5.507 -31.170  1.00  0.00    -0.061 N 
HETATM   10  H   UNL     1      -5.157   6.432 -31.358  1.00  0.00     0.280 HD
HETATM   11  C   UNL     1      -5.337   5.252 -29.702  1.00  0.00     0.236 C 
HETATM   12  C   UNL     1      -6.718   4.987 -29.137  1.00  0.00     0.029 C 
HETATM   13  C   UNL     1      -7.611   5.876 -29.976  1.00  0.00     0.029 C 
HETATM   14  C   UNL     1      -7.059   5.693 -31.376  1.00  0.00     0.236 C 
ENDBRANCH   8   9
BRANCH   8  15
HETATM   15  C   UNL     1      -3.721   5.335 -32.864  1.00  0.00    -0.023 A 
HETATM   16  C   UNL     1      -3.353   6.613 -32.391  1.00  0.00     0.046 A 
HETATM   17  C   UNL     1      -2.298   7.317 -32.977  1.00  0.00     0.068 A 
HETATM   18  C   UNL     1      -1.587   6.736 -34.026  1.00  0.00     0.037 A 
HETATM   19  C   UNL     1      -1.933   5.476 -34.506  1.00  0.00     0.003 A 
HETATM   20  C   UNL     1      -2.994   4.777 -33.928  1.00  0.00     0.009 A 
BRANCH  17  21
HETATM   21  O   UNL     1      -1.859   8.556 -32.608  1.00  0.00    -0.356 OA
HETATM   22  C   UNL     1      -2.148   8.980 -31.281  1.00  0.00     0.210 C 
ENDBRANCH  17  21
ENDBRANCH   8  15
ENDBRANCH   7   8
ENDBRANCH   3   7
BRANCH   1  23
HETATM   23  C   UNL     1      -7.492  -0.304 -33.241  1.00  0.00     0.086 C 
HETATM   24  C   UNL     1      -8.757   0.436 -33.680  1.00  0.00     0.032 C 
BRANCH  23  25
HETATM   25  C   UNL     1      -6.609  -0.610 -34.469  1.00  0.00     0.063 C 
BRANCH  25  26
HETATM   26  C   UNL     1      -6.065  -2.021 -34.481  1.00  0.00    -0.056 A 
HETATM   27  C   UNL     1      -4.719  -2.266 -34.171  1.00  0.00     0.010 A 
HETATM   28  C   UNL     1      -4.217  -3.570 -34.173  1.00  0.00     0.037 A 
HETATM   29  C   UNL     1      -5.059  -4.627 -34.498  1.00  0.00     0.065 A 
HETATM   30  C   UNL     1      -6.393  -4.403 -34.817  1.00  0.00     0.037 A 
HETATM   31  C   UNL     1      -6.898  -3.103 -34.801  1.00  0.00     0.010 A 
BRANCH  29  32
HETATM   32  O   UNL     1      -4.612  -5.914 -34.511  1.00  0.00    -0.361 OA
HETATM   33  H   UNL     1      -3.640  -5.904 -34.523  1.00  0.00     0.217 HD
ENDBRANCH  29  32
ENDBRANCH  25  26
ENDBRANCH  23  25
ENDBRANCH   1  23
TORSDOF 9
ENDMDL
MODEL 6
REMARK VINA RESULT:      -8.0      3.058      9.198
REMARK  9 active torsions:
REMARK  status: ('A' for Active; 'I' for Inactive)
REMARK    1  A    between atoms: C_2  and  N_3 
REMARK    2  A    between atoms: C_2  and  C_23 
REMARK       I    between atoms: N_3  and  C_4 
REMARK       I    between atoms: C_4  and  N_5 
REMARK    3  A    between atoms: N_5  and  C_6 
REMARK    4  A    between atoms: C_6  and  C_7 
REMARK    5  A    between atoms: C_7  and  N_8 
REMARK    6  A    between atoms: C_7  and  C_14 
REMARK    7  A    between atoms: C_16  and  O_17 
REMARK    8  A    between atoms: C_23  and  C_24 
REMARK    9  A    between atoms: C_27  and  O_28 
ROOT
HETATM    1  N   UNL     1      -3.021   4.933 -33.239  1.00  0.00    -0.339 N 
HETATM    2  C   UNL     1      -3.423   3.906 -32.440  1.00  0.00     0.316 C 
HETATM    3  N   UNL     1      -4.786   3.878 -32.275  1.00  0.00    -0.341 N 
HETATM    4  O   UNL     1      -2.674   3.149 -31.838  1.00  0.00    -0.248 OA
HETATM    5  H   UNL     1      -3.687   5.332 -33.883  1.00  0.00     0.164 HD
HETATM    6  H   UNL     1      -5.303   4.309 -33.030  1.00  0.00     0.164 HD
ENDROOT
BRANCH   3   7
HETATM    7  C   UNL     1      -5.414   2.730 -31.637  1.00  0.00     0.162 C 
BRANCH   7   8
HETATM    8  C   UNL     1      -5.760   1.497 -32.538  1.00  0.00     0.238 C 
BRANCH   8   9
HETATM    9  N   UNL     1      -5.188   0.161 -32.059  1.00  0.00    -0.061 N 
HETATM   10  H   UNL     1      -6.016  -0.354 -31.736  1.00  0.00     0.280 HD
HETATM   11  C   UNL     1      -4.223   0.151 -30.900  1.00  0.00     0.236 C 
HETATM   12  C   UNL     1      -2.955  -0.465 -31.458  1.00  0.00     0.029 C 
HETATM   13  C   UNL     1      -3.473  -1.464 -32.470  1.00  0.00     0.029 C 
HETATM   14  C   UNL     1      -4.595  -0.709 -33.155  1.00  0.00     0.236 C 
ENDBRANCH   8   9
BRANCH   8  15
HETATM   15  C   UNL     1      -7.266   1.377 -32.765  1.00  0.00    -0.023 A 
HETATM   16  C   UNL     1      -7.906   2.289 -33.632  1.00  0.00     0.046 A 
HETATM   17  C   UNL     1      -9.282   2.212 -33.863  1.00  0.00     0.068 A 
HETATM   18  C   UNL     1     -10.024   1.204 -33.248  1.00  0.00     0.037 A 
HETATM   19  C   UNL     1      -9.411   0.294 -32.390  1.00  0.00     0.003 A 
HETATM   20  C   UNL     1      -8.039   0.379 -32.150  1.00  0.00     0.009 A 
BRANCH  17  21
HETATM   21  O   UNL     1     -10.006   3.039 -34.673  1.00  0.00    -0.356 OA
HETATM   22  C   UNL     1     -11.403   2.791 -34.774  1.00  0.00     0.210 C 
ENDBRANCH  17  21
ENDBRANCH   8  15
ENDBRANCH   7   8
ENDBRANCH   3   7
BRANCH   1  23
HETATM   23  C   UNL     1      -1.608   5.220 -33.490  1.00  0.00     0.086 C 
HETATM   24  C   UNL     1      -1.316   5.194 -34.992  1.00  0.00     0.032 C 
BRANCH  23  25
HETATM   25  C   UNL     1      -1.198   6.586 -32.900  1.00  0.00     0.063 C 
BRANCH  25  26
HETATM   26  C   UNL     1      -0.638   6.491 -31.498  1.00  0.00    -0.056 A 
HETATM   27  C   UNL     1       0.037   5.335 -31.079  1.00  0.00     0.010 A 
HETATM   28  C   UNL     1       0.563   5.250 -29.787  1.00  0.00     0.037 A 
HETATM   29  C   UNL     1       0.400   6.316 -28.911  1.00  0.00     0.065 A 
HETATM   30  C   UNL     1      -0.274   7.466 -29.305  1.00  0.00     0.037 A 
HETATM   31  C   UNL     1      -0.787   7.557 -30.599  1.00  0.00     0.010 A 
BRANCH  29  32
HETATM   32  O   UNL     1       0.898   6.276 -27.644  1.00  0.00    -0.361 OA
HETATM   33  H   UNL     1       1.696   5.722 -27.641  1.00  0.00     0.217 HD
ENDBRANCH  29  32
ENDBRANCH  25  26
ENDBRANCH  23  25
ENDBRANCH   1  23
TORSDOF 9
ENDMDL
MODEL 7
REMARK VINA RESULT:      -8.0      1.676      2.020
REMARK  9 active torsions:
REMARK  status: ('A' for Active; 'I' for Inactive)
REMARK    1  A    between atoms: C_2  and  N_3 
REMARK    2  A    between atoms: C_2  and  C_23 
REMARK       I    between atoms: N_3  and  C_4 
REMARK       I    between atoms: C_4  and  N_5 
REMARK    3  A    between atoms: N_5  and  C_6 
REMARK    4  A    between atoms: C_6  and  C_7 
REMARK    5  A    between atoms: C_7  and  N_8 
REMARK    6  A    between atoms: C_7  and  C_14 
REMARK    7  A    between atoms: C_16  and  O_17 
REMARK    8  A    between atoms: C_23  and  C_24 
REMARK    9  A    between atoms: C_27  and  O_28 
ROOT
HETATM    1  N   UNL     1      -6.162   1.777 -32.576  1.00  0.00    -0.339 N 
HETATM    2  C   UNL     1      -5.519   2.647 -31.748  1.00  0.00     0.316 C 
HETATM    3  N   UNL     1      -6.015   3.923 -31.847  1.00  0.00    -0.341 N 
HETATM    4  O   UNL     1      -4.540   2.374 -31.066  1.00  0.00    -0.248 OA
HETATM    5  H   UNL     1      -7.091   2.010 -32.893  1.00  0.00     0.164 HD
HETATM    6  H   UNL     1      -6.974   3.971 -32.164  1.00  0.00     0.164 HD
ENDROOT
BRANCH   3   7
HETATM    7  C   UNL     1      -5.603   4.936 -30.887  1.00  0.00     0.162 C 
BRANCH   7   8
HETATM    8  C   UNL     1      -4.924   6.232 -31.444  1.00  0.00     0.238 C 
BRANCH   8   9
HETATM    9  N   UNL     1      -4.662   7.327 -30.408  1.00  0.00    -0.061 N 
HETATM   10  H   UNL     1      -3.657   7.239 -30.213  1.00  0.00     0.280 HD
HETATM   11  C   UNL     1      -5.346   7.244 -29.066  1.00  0.00     0.236 C 
HETATM   12  C   UNL     1      -6.162   8.517 -28.968  1.00  0.00     0.029 C 
HETATM   13  C   UNL     1      -5.317   9.527 -29.714  1.00  0.00     0.029 C 
HETATM   14  C   UNL     1      -4.834   8.747 -30.921  1.00  0.00     0.236 C 
ENDBRANCH   8   9
BRANCH   8  15
HETATM   15  C   UNL     1      -3.640   5.906 -32.206  1.00  0.00    -0.023 A 
HETATM   16  C   UNL     1      -2.507   5.466 -31.488  1.00  0.00     0.046 A 
HETATM   17  C   UNL     1      -1.315   5.161 -32.150  1.00  0.00     0.068 A 
HETATM   18  C   UNL     1      -1.255   5.269 -33.538  1.00  0.00     0.037 A 
HETATM   19  C   UNL     1      -2.363   5.700 -34.264  1.00  0.00     0.003 A 
HETATM   20  C   UNL     1      -3.550   6.016 -33.603  1.00  0.00     0.009 A 
BRANCH  17  21
HETATM   21  O   UNL     1      -0.160   4.734 -31.561  1.00  0.00    -0.356 OA
HETATM   22  C   UNL     1       0.157   5.271 -30.283  1.00  0.00     0.210 C 
ENDBRANCH  17  21
ENDBRANCH   8  15
ENDBRANCH   7   8
ENDBRANCH   3   7
BRANCH   1  23
HETATM   23  C   UNL     1      -5.752   0.378 -32.711  1.00  0.00     0.086 C 
HETATM   24  C   UNL     1      -6.422  -0.480 -31.636  1.00  0.00     0.032 C 
BRANCH  23  25
HETATM   25  C   UNL     1      -6.090  -0.174 -34.111  1.00  0.00     0.063 C 
BRANCH  25  26
HETATM   26  C   UNL     1      -5.789  -1.648 -34.264  1.00  0.00    -0.056 A 
HETATM   27  C   UNL     1      -6.798  -2.544 -34.648  1.00  0.00     0.010 A 
HETATM   28  C   UNL     1      -6.519  -3.905 -34.798  1.00  0.00     0.037 A 
HETATM   29  C   UNL     1      -5.233  -4.370 -34.552  1.00  0.00     0.065 A 
HETATM   30  C   UNL     1      -4.222  -3.500 -34.162  1.00  0.00     0.037 A 
HETATM   31  C   UNL     1      -4.497  -2.139 -34.025  1.00  0.00     0.010 A 
BRANCH  29  32
HETATM   32  O   UNL     1      -4.916  -5.688 -34.688  1.00  0.00    -0.361 OA
HETATM   33  H   UNL     1      -4.991  -5.930 -35.627  1.00  0.00     0.217 HD
ENDBRANCH  29  32
ENDBRANCH  25  26
ENDBRANCH  23  25
ENDBRANCH   1  23
TORSDOF 9
ENDMDL
MODEL 8
REMARK VINA RESULT:      -7.9      1.051      1.673
REMARK  9 active torsions:
REMARK  status: ('A' for Active; 'I' for Inactive)
REMARK    1  A    between atoms: C_2  and  N_3 
REMARK    2  A    between atoms: C_2  and  C_23 
REMARK       I    between atoms: N_3  and  C_4 
REMARK       I    between atoms: C_4  and  N_5 
REMARK    3  A    between atoms: N_5  and  C_6 
REMARK    4  A    between atoms: C_6  and  C_7 
REMARK    5  A    between atoms: C_7  and  N_8 
REMARK    6  A    between atoms: C_7  and  C_14 
REMARK    7  A    between atoms: C_16  and  O_17 
REMARK    8  A    between atoms: C_23  and  C_24 
REMARK    9  A    between atoms: C_27  and  O_28 
ROOT
HETATM    1  N   UNL     1      -6.732   1.472 -33.175  1.00  0.00    -0.339 N 
HETATM    2  C   UNL     1      -5.637   2.006 -32.567  1.00  0.00     0.316 C 
HETATM    3  N   UNL     1      -5.597   3.374 -32.672  1.00  0.00    -0.341 N 
HETATM    4  O   UNL     1      -4.723   1.359 -32.072  1.00  0.00    -0.248 OA
HETATM    5  H   UNL     1      -7.538   2.061 -33.321  1.00  0.00     0.164 HD
HETATM    6  H   UNL     1      -6.503   3.806 -32.796  1.00  0.00     0.164 HD
ENDROOT
BRANCH   3   7
HETATM    7  C   UNL     1      -4.623   4.132 -31.901  1.00  0.00     0.162 C 
BRANCH   7   8
HETATM    8  C   UNL     1      -4.515   5.669 -32.177  1.00  0.00     0.238 C 
BRANCH   8   9
HETATM    9  N   UNL     1      -5.446   6.548 -31.338  1.00  0.00    -0.061 N 
HETATM   10  H   UNL     1      -6.349   6.472 -31.820  1.00  0.00     0.280 HD
HETATM   11  C   UNL     1      -5.161   8.026 -31.236  1.00  0.00     0.236 C 
HETATM   12  C   UNL     1      -4.962   8.280 -29.755  1.00  0.00     0.029 C 
HETATM   13  C   UNL     1      -5.907   7.292 -29.105  1.00  0.00     0.029 C 
HETATM   14  C   UNL     1      -5.713   6.036 -29.932  1.00  0.00     0.236 C 
ENDBRANCH   8   9
BRANCH   8  15
HETATM   15  C   UNL     1      -3.073   6.158 -32.055  1.00  0.00    -0.023 A 
HETATM   16  C   UNL     1      -2.319   5.801 -30.916  1.00  0.00     0.046 A 
HETATM   17  C   UNL     1      -0.998   6.231 -30.768  1.00  0.00     0.068 A 
HETATM   18  C   UNL     1      -0.412   7.002 -31.772  1.00  0.00     0.037 A 
HETATM   19  C   UNL     1      -1.139   7.363 -32.904  1.00  0.00     0.003 A 
HETATM   20  C   UNL     1      -2.462   6.944 -33.046  1.00  0.00     0.009 A 
BRANCH  17  21
HETATM   21  O   UNL     1      -0.178   5.953 -29.712  1.00  0.00    -0.356 OA
HETATM   22  C   UNL     1       0.675   4.822 -29.832  1.00  0.00     0.210 C 
ENDBRANCH  17  21
ENDBRANCH   8  15
ENDBRANCH   7   8
ENDBRANCH   3   7
BRANCH   1  23
HETATM   23  C   UNL     1      -6.946   0.027 -33.271  1.00  0.00     0.086 C 
HETATM   24  C   UNL     1      -8.419  -0.311 -33.031  1.00  0.00     0.032 C 
BRANCH  23  25
HETATM   25  C   UNL     1      -6.500  -0.517 -34.644  1.00  0.00     0.063 C 
BRANCH  25  26
HETATM   26  C   UNL     1      -5.994  -1.941 -34.589  1.00  0.00    -0.056 A 
HETATM   27  C   UNL     1      -4.671  -2.212 -34.211  1.00  0.00     0.010 A 
HETATM   28  C   UNL     1      -4.204  -3.527 -34.152  1.00  0.00     0.037 A 
HETATM   29  C   UNL     1      -5.059  -4.571 -34.485  1.00  0.00     0.065 A 
HETATM   30  C   UNL     1      -6.370  -4.323 -34.872  1.00  0.00     0.037 A 
HETATM   31  C   UNL     1      -6.840  -3.010 -34.917  1.00  0.00     0.010 A 
BRANCH  29  32
HETATM   32  O   UNL     1      -4.647  -5.869 -34.440  1.00  0.00    -0.361 OA
HETATM   33  H   UNL     1      -4.076  -5.986 -33.662  1.00  0.00     0.217 HD
ENDBRANCH  29  32
ENDBRANCH  25  26
ENDBRANCH  23  25
ENDBRANCH   1  23
TORSDOF 9
ENDMDL
MODEL 9
REMARK VINA RESULT:      -7.8      2.086      8.919
REMARK  9 active torsions:
REMARK  status: ('A' for Active; 'I' for Inactive)
REMARK    1  A    between atoms: C_2  and  N_3 
REMARK    2  A    between atoms: C_2  and  C_23 
REMARK       I    between atoms: N_3  and  C_4 
REMARK       I    between atoms: C_4  and  N_5 
REMARK    3  A    between atoms: N_5  and  C_6 
REMARK    4  A    between atoms: C_6  and  C_7 
REMARK    5  A    between atoms: C_7  and  N_8 
REMARK    6  A    between atoms: C_7  and  C_14 
REMARK    7  A    between atoms: C_16  and  O_17 
REMARK    8  A    between atoms: C_23  and  C_24 
REMARK    9  A    between atoms: C_27  and  O_28 
ROOT
HETATM    1  N   UNL     1      -3.374   4.435 -33.008  1.00  0.00    -0.339 N 
HETATM    2  C   UNL     1      -3.538   3.427 -32.106  1.00  0.00     0.316 C 
HETATM    3  N   UNL     1      -4.861   3.137 -31.884  1.00  0.00    -0.341 N 
HETATM    4  O   UNL     1      -2.635   2.899 -31.470  1.00  0.00    -0.248 OA
HETATM    5  H   UNL     1      -4.122   4.627 -33.656  1.00  0.00     0.164 HD
HETATM    6  H   UNL     1      -5.473   3.380 -32.651  1.00  0.00     0.164 HD
ENDROOT
BRANCH   3   7
HETATM    7  C   UNL     1      -5.224   1.951 -31.122  1.00  0.00     0.162 C 
BRANCH   7   8
HETATM    8  C   UNL     1      -6.393   1.066 -31.670  1.00  0.00     0.238 C 
BRANCH   8   9
HETATM    9  N   UNL     1      -7.516   1.832 -32.374  1.00  0.00    -0.061 N 
HETATM   10  H   UNL     1      -7.304   2.815 -32.166  1.00  0.00     0.280 HD
HETATM   11  C   UNL     1      -8.940   1.619 -31.926  1.00  0.00     0.236 C 
HETATM   12  C   UNL     1      -9.660   1.106 -33.157  1.00  0.00     0.029 C 
HETATM   13  C   UNL     1      -8.956   1.820 -34.291  1.00  0.00     0.029 C 
HETATM   14  C   UNL     1      -7.496   1.744 -33.891  1.00  0.00     0.236 C 
ENDBRANCH   8   9
BRANCH   8  15
HETATM   15  C   UNL     1      -5.871  -0.053 -32.571  1.00  0.00    -0.023 A 
HETATM   16  C   UNL     1      -6.778  -1.010 -33.076  1.00  0.00     0.046 A 
HETATM   17  C   UNL     1      -6.338  -2.048 -33.900  1.00  0.00     0.068 A 
HETATM   18  C   UNL     1      -4.990  -2.123 -34.246  1.00  0.00     0.037 A 
HETATM   19  C   UNL     1      -4.080  -1.188 -33.760  1.00  0.00     0.003 A 
HETATM   20  C   UNL     1      -4.517  -0.158 -32.927  1.00  0.00     0.009 A 
BRANCH  17  21
HETATM   21  O   UNL     1      -7.120  -3.029 -34.440  1.00  0.00    -0.356 OA
HETATM   22  C   UNL     1      -6.467  -4.212 -34.883  1.00  0.00     0.210 C 
ENDBRANCH  17  21
ENDBRANCH   8  15
ENDBRANCH   7   8
ENDBRANCH   3   7
BRANCH   1  23
HETATM   23  C   UNL     1      -2.056   4.978 -33.340  1.00  0.00     0.086 C 
HETATM   24  C   UNL     1      -1.870   5.036 -34.858  1.00  0.00     0.032 C 
BRANCH  23  25
HETATM   25  C   UNL     1      -1.860   6.384 -32.734  1.00  0.00     0.063 C 
BRANCH  25  26
HETATM   26  C   UNL     1      -1.093   6.374 -31.430  1.00  0.00    -0.056 A 
HETATM   27  C   UNL     1      -0.280   5.282 -31.093  1.00  0.00     0.010 A 
HETATM   28  C   UNL     1       0.437   5.275 -29.893  1.00  0.00     0.037 A 
HETATM   29  C   UNL     1       0.328   6.356 -29.026  1.00  0.00     0.065 A 
HETATM   30  C   UNL     1      -0.480   7.442 -29.338  1.00  0.00     0.037 A 
HETATM   31  C   UNL     1      -1.184   7.455 -30.542  1.00  0.00     0.010 A 
BRANCH  29  32
HETATM   32  O   UNL     1       1.009   6.391 -27.847  1.00  0.00    -0.361 OA
HETATM   33  H   UNL     1       1.865   5.945 -27.969  1.00  0.00     0.217 HD
ENDBRANCH  29  32
ENDBRANCH  25  26
ENDBRANCH  23  25
ENDBRANCH   1  23
TORSDOF 9
ENDMDL
MODEL 10
REMARK VINA RESULT:      -7.8      2.218      4.012
REMARK  9 active torsions:
REMARK  status: ('A' for Active; 'I' for Inactive)
REMARK    1  A    between atoms: C_2  and  N_3 
REMARK    2  A    between atoms: C_2  and  C_23 
REMARK       I    between atoms: N_3  and  C_4 
REMARK       I    between atoms: C_4  and  N_5 
REMARK    3  A    between atoms: N_5  and  C_6 
REMARK    4  A    between atoms: C_6  and  C_7 
REMARK    5  A    between atoms: C_7  and  N_8 
REMARK    6  A    between atoms: C_7  and  C_14 
REMARK    7  A    between atoms: C_16  and  O_17 
REMARK    8  A    between atoms: C_23  and  C_24 
REMARK    9  A    between atoms: C_27  and  O_28 
ROOT
HETATM    1  N   UNL     1      -6.484   1.494 -33.762  1.00  0.00    -0.339 N 
HETATM    2  C   UNL     1      -6.204   2.336 -32.729  1.00  0.00     0.316 C 
HETATM    3  N   UNL     1      -5.823   3.582 -33.162  1.00  0.00    -0.341 N 
HETATM    4  O   UNL     1      -6.179   2.016 -31.548  1.00  0.00    -0.248 OA
HETATM    5  H   UNL     1      -6.729   1.892 -34.656  1.00  0.00     0.164 HD
HETATM    6  H   UNL     1      -6.176   3.828 -34.077  1.00  0.00     0.164 HD
ENDROOT
BRANCH   3   7
HETATM    7  C   UNL     1      -5.697   4.673 -32.206  1.00  0.00     0.162 C 
BRANCH   7   8
HETATM    8  C   UNL     1      -4.304   4.882 -31.522  1.00  0.00     0.238 C 
BRANCH   8   9
HETATM    9  N   UNL     1      -3.187   5.361 -32.451  1.00  0.00    -0.061 N 
HETATM   10  H   UNL     1      -2.589   5.928 -31.837  1.00  0.00     0.280 HD
HETATM   11  C   UNL     1      -3.536   6.254 -33.615  1.00  0.00     0.236 C 
HETATM   12  C   UNL     1      -3.080   5.488 -34.841  1.00  0.00     0.029 C 
HETATM   13  C   UNL     1      -1.855   4.747 -34.348  1.00  0.00     0.029 C 
HETATM   14  C   UNL     1      -2.275   4.263 -32.974  1.00  0.00     0.236 C 
ENDBRANCH   8   9
BRANCH   8  15
HETATM   15  C   UNL     1      -4.412   5.801 -30.306  1.00  0.00    -0.023 A 
HETATM   16  C   UNL     1      -5.589   5.776 -29.526  1.00  0.00     0.046 A 
HETATM   17  C   UNL     1      -5.725   6.603 -28.409  1.00  0.00     0.068 A 
HETATM   18  C   UNL     1      -4.673   7.444 -28.048  1.00  0.00     0.037 A 
HETATM   19  C   UNL     1      -3.504   7.482 -28.803  1.00  0.00     0.003 A 
HETATM   20  C   UNL     1      -3.372   6.665 -29.926  1.00  0.00     0.009 A 
BRANCH  17  21
HETATM   21  O   UNL     1      -6.814   6.668 -27.588  1.00  0.00    -0.356 OA
HETATM   22  C   UNL     1      -8.095   6.571 -28.198  1.00  0.00     0.210 C 
ENDBRANCH  17  21
ENDBRANCH   8  15
ENDBRANCH   7   8
ENDBRANCH   3   7
BRANCH   1  23
HETATM   23  C   UNL     1      -6.826   0.087 -33.552  1.00  0.00     0.086 C 
HETATM   24  C   UNL     1      -8.226  -0.037 -32.944  1.00  0.00     0.032 C 
BRANCH  23  25
HETATM   25  C   UNL     1      -6.755  -0.712 -34.870  1.00  0.00     0.063 C 
BRANCH  25  26
HETATM   26  C   UNL     1      -6.136  -2.083 -34.709  1.00  0.00    -0.056 A 
HETATM   27  C   UNL     1      -4.812  -2.217 -34.266  1.00  0.00     0.010 A 
HETATM   28  C   UNL     1      -4.242  -3.483 -34.108  1.00  0.00     0.037 A 
HETATM   29  C   UNL     1      -4.993  -4.613 -34.407  1.00  0.00     0.065 A 
HETATM   30  C   UNL     1      -6.303  -4.500 -34.856  1.00  0.00     0.037 A 
HETATM   31  C   UNL     1      -6.877  -3.237 -35.000  1.00  0.00     0.010 A 
BRANCH  29  32
HETATM   32  O   UNL     1      -4.478  -5.867 -34.266  1.00  0.00    -0.361 OA
HETATM   33  H   UNL     1      -3.944  -6.073 -35.053  1.00  0.00     0.217 HD
ENDBRANCH  29  32
ENDBRANCH  25  26
ENDBRANCH  23  25
ENDBRANCH   1  23
TORSDOF 9
ENDMDL
