MODEL 1
REMARK VINA RESULT:      -7.5      0.000      0.000
REMARK  4 active torsions:
REMARK  status: ('A' for Active; 'I' for Inactive)
REMARK    1  A    between atoms: C_6  and  C_7 
REMARK    2  A    between atoms: C_7  and  N_8 
REMARK    3  A    between atoms: N_8  and  C_9 
REMARK    4  A    between atoms: C_9  and  C_10 
ROOT
HETATM    1  C   UNL     1      -8.653   0.702 -32.395  1.00  0.00     0.327 C 
ENDROOT
BRANCH   1   2
HETATM    2  N   UNL     1      -8.217  -0.376 -33.298  1.00  0.00     0.097 N 
HETATM    3  H   UNL     1      -8.008  -1.204 -32.729  1.00  0.00     0.317 HD
BRANCH   2   4
HETATM    4  C   UNL     1      -6.953  -0.052 -33.994  1.00  0.00     0.252 C 
HETATM    5  C   UNL     1      -7.164   0.663 -35.329  1.00  0.00     0.048 C 
BRANCH   4   6
HETATM    6  C   UNL     1      -6.218  -1.353 -34.156  1.00  0.00     0.006 A 
HETATM    7  C   UNL     1      -4.894  -1.652 -33.869  1.00  0.00     0.058 A 
HETATM    8  O   UNL     1      -4.621  -2.950 -34.177  1.00  0.00    -0.320 OA
HETATM    9  C   UNL     1      -3.763  -0.882 -33.311  1.00  0.00     0.077 C 
HETATM   10  C   UNL     1      -5.765  -3.506 -34.653  1.00  0.00     0.050 A 
HETATM   11  C   UNL     1      -5.698  -4.930 -35.041  1.00  0.00     0.076 C 
HETATM   12  C   UNL     1      -6.773  -2.569 -34.664  1.00  0.00     0.044 A 
ENDBRANCH   4   6
ENDBRANCH   2   4
ENDBRANCH   1   2
BRANCH   1  13
HETATM   13  C   UNL     1      -9.958   1.285 -32.909  1.00  0.00     0.044 A 
HETATM   14  N   UNL     1     -10.979   0.369 -33.084  1.00  0.00    -0.338 N 
HETATM   15  H   UNL     1     -10.806  -0.610 -32.852  1.00  0.00     0.168 HD
HETATM   16  C   UNL     1     -12.156   0.756 -33.503  1.00  0.00     0.158 A 
HETATM   17  N   UNL     1     -12.411   2.018 -33.775  1.00  0.00    -0.269 N 
HETATM   18  S   UNL     1     -13.506  -0.309 -33.743  1.00  0.00    -0.064 SA
HETATM   19  C   UNL     1     -11.461   3.052 -33.638  1.00  0.00     0.255 A 
HETATM   20  C   UNL     1     -13.708   2.223 -34.200  1.00  0.00     0.109 A 
HETATM   21  O   UNL     1     -11.730   4.209 -33.896  1.00  0.00    -0.268 OA
HETATM   22  C   UNL     1     -10.149   2.588 -33.154  1.00  0.00     0.101 A 
HETATM   23  C   UNL     1     -14.432   1.094 -34.242  1.00  0.00     0.071 A 
ENDBRANCH   1  13
TORSDOF 4
ENDMDL
MODEL 2
REMARK VINA RESULT:      -7.4      4.283      6.030
REMARK  4 active torsions:
REMARK  status: ('A' for Active; 'I' for Inactive)
REMARK    1  A    between atoms: C_6  and  C_7 
REMARK    2  A    between atoms: C_7  and  N_8 
REMARK    3  A    between atoms: N_8  and  C_9 
REMARK    4  A    between atoms: C_9  and  C_10 
ROOT
HETATM    1  C   UNL     1      -7.433   1.398 -31.954  1.00  0.00     0.327 C 
ENDROOT
BRANCH   1   2
HETATM    2  N   UNL     1      -7.417   0.053 -32.550  1.00  0.00     0.097 N 
HETATM    3  H   UNL     1      -6.737  -0.517 -32.035  1.00  0.00     0.317 HD
BRANCH   2   4
HETATM    4  C   UNL     1      -6.939   0.061 -33.949  1.00  0.00     0.252 C 
HETATM    5  C   UNL     1      -8.044   0.357 -34.964  1.00  0.00     0.048 C 
BRANCH   4   6
HETATM    6  C   UNL     1      -6.299  -1.280 -34.181  1.00  0.00     0.006 A 
HETATM    7  C   UNL     1      -4.990  -1.677 -33.949  1.00  0.00     0.058 A 
HETATM    8  O   UNL     1      -4.815  -2.977 -34.311  1.00  0.00    -0.320 OA
HETATM    9  C   UNL     1      -3.794  -1.004 -33.402  1.00  0.00     0.077 C 
HETATM   10  C   UNL     1      -6.008  -3.437 -34.768  1.00  0.00     0.050 A 
HETATM   11  C   UNL     1      -6.049  -4.847 -35.208  1.00  0.00     0.076 C 
HETATM   12  C   UNL     1      -6.950  -2.436 -34.713  1.00  0.00     0.044 A 
ENDBRANCH   4   6
ENDBRANCH   2   4
ENDBRANCH   1   2
BRANCH   1  13
HETATM   13  C   UNL     1      -6.061   2.030 -32.110  1.00  0.00     0.044 A 
HETATM   14  N   UNL     1      -5.995   3.066 -33.024  1.00  0.00    -0.338 N 
HETATM   15  H   UNL     1      -6.846   3.345 -33.514  1.00  0.00     0.168 HD
HETATM   16  C   UNL     1      -4.870   3.701 -33.230  1.00  0.00     0.158 A 
HETATM   17  N   UNL     1      -3.769   3.380 -32.585  1.00  0.00    -0.269 N 
HETATM   18  S   UNL     1      -4.682   5.020 -34.343  1.00  0.00    -0.064 SA
HETATM   19  C   UNL     1      -3.700   2.348 -31.627  1.00  0.00     0.255 A 
HETATM   20  C   UNL     1      -2.692   4.168 -32.940  1.00  0.00     0.109 A 
HETATM   21  O   UNL     1      -2.666   2.079 -31.047  1.00  0.00    -0.268 OA
HETATM   22  C   UNL     1      -4.983   1.658 -31.408  1.00  0.00     0.101 A 
HETATM   23  C   UNL     1      -2.998   5.092 -33.863  1.00  0.00     0.071 A 
ENDBRANCH   1  13
TORSDOF 4
ENDMDL
MODEL 3
REMARK VINA RESULT:      -7.4      2.744      7.721
REMARK  4 active torsions:
REMARK  status: ('A' for Active; 'I' for Inactive)
REMARK    1  A    between atoms: C_6  and  C_7 
REMARK    2  A    between atoms: C_7  and  N_8 
REMARK    3  A    between atoms: N_8  and  C_9 
REMARK    4  A    between atoms: C_9  and  C_10 
ROOT
HETATM    1  C   UNL     1      -7.651   1.257 -34.793  1.00  0.00     0.327 C 
ENDROOT
BRANCH   1   2
HETATM    2  N   UNL     1      -9.022   0.721 -34.789  1.00  0.00     0.097 N 
HETATM    3  H   UNL     1      -9.539   1.161 -35.557  1.00  0.00     0.317 HD
BRANCH   2   4
HETATM    4  C   UNL     1      -9.764   1.080 -33.562  1.00  0.00     0.252 C 
HETATM    5  C   UNL     1      -9.673   0.016 -32.467  1.00  0.00     0.048 C 
BRANCH   4   6
HETATM    6  C   UNL     1     -11.182   1.336 -33.990  1.00  0.00     0.006 A 
HETATM    7  C   UNL     1     -11.701   2.405 -34.705  1.00  0.00     0.058 A 
HETATM    8  O   UNL     1     -13.045   2.261 -34.870  1.00  0.00    -0.320 OA
HETATM    9  C   UNL     1     -11.115   3.620 -35.309  1.00  0.00     0.077 C 
HETATM   10  C   UNL     1     -13.406   1.094 -34.276  1.00  0.00     0.050 A 
HETATM   11  C   UNL     1     -14.836   0.730 -34.346  1.00  0.00     0.076 C 
HETATM   12  C   UNL     1     -12.303   0.491 -33.718  1.00  0.00     0.044 A 
ENDBRANCH   4   6
ENDBRANCH   2   4
ENDBRANCH   1   2
BRANCH   1  13
HETATM   13  C   UNL     1      -6.682   0.154 -34.407  1.00  0.00     0.044 A 
HETATM   14  N   UNL     1      -5.762   0.498 -33.433  1.00  0.00    -0.338 N 
HETATM   15  H   UNL     1      -5.796   1.437 -33.035  1.00  0.00     0.168 HD
HETATM   16  C   UNL     1      -4.889  -0.377 -33.004  1.00  0.00     0.158 A 
HETATM   17  N   UNL     1      -4.849  -1.603 -33.480  1.00  0.00    -0.269 N 
HETATM   18  S   UNL     1      -3.702  -0.051 -31.779  1.00  0.00    -0.064 SA
HETATM   19  C   UNL     1      -5.731  -2.083 -34.471  1.00  0.00     0.255 A 
HETATM   20  C   UNL     1      -3.861  -2.371 -32.897  1.00  0.00     0.109 A 
HETATM   21  O   UNL     1      -5.669  -3.224 -34.887  1.00  0.00    -0.268 OA
HETATM   22  C   UNL     1      -6.709  -1.081 -34.927  1.00  0.00     0.101 A 
HETATM   23  C   UNL     1      -3.155  -1.705 -31.972  1.00  0.00     0.071 A 
ENDBRANCH   1  13
TORSDOF 4
ENDMDL
MODEL 4
REMARK VINA RESULT:      -7.3      1.776      2.015
REMARK  4 active torsions:
REMARK  status: ('A' for Active; 'I' for Inactive)
REMARK    1  A    between atoms: C_6  and  C_7 
REMARK    2  A    between atoms: C_7  and  N_8 
REMARK    3  A    between atoms: N_8  and  C_9 
REMARK    4  A    between atoms: C_9  and  C_10 
ROOT
HETATM    1  C   UNL     1      -9.207   0.519 -32.366  1.00  0.00     0.327 C 
ENDROOT
BRANCH   1   2
HETATM    2  N   UNL     1      -8.550  -0.290 -33.405  1.00  0.00     0.097 N 
HETATM    3  H   UNL     1      -8.575  -1.272 -33.109  1.00  0.00     0.317 HD
BRANCH   2   4
HETATM    4  C   UNL     1      -7.116   0.037 -33.553  1.00  0.00     0.252 C 
HETATM    5  C   UNL     1      -6.855   1.180 -34.536  1.00  0.00     0.048 C 
BRANCH   4   6
HETATM    6  C   UNL     1      -6.436  -1.237 -33.970  1.00  0.00     0.006 A 
HETATM    7  C   UNL     1      -5.094  -1.579 -33.890  1.00  0.00     0.058 A 
HETATM    8  O   UNL     1      -4.890  -2.828 -34.393  1.00  0.00    -0.320 OA
HETATM    9  C   UNL     1      -3.887  -0.896 -33.381  1.00  0.00     0.077 C 
HETATM   10  C   UNL     1      -6.096  -3.309 -34.792  1.00  0.00     0.050 A 
HETATM   11  C   UNL     1      -6.108  -4.670 -35.365  1.00  0.00     0.076 C 
HETATM   12  C   UNL     1      -7.076  -2.372 -34.559  1.00  0.00     0.044 A 
ENDBRANCH   4   6
ENDBRANCH   2   4
ENDBRANCH   1   2
BRANCH   1  13
HETATM   13  C   UNL     1     -10.297   1.361 -33.004  1.00  0.00     0.044 A 
HETATM   14  N   UNL     1     -10.660   2.488 -32.288  1.00  0.00    -0.338 N 
HETATM   15  H   UNL     1     -10.179   2.688 -31.410  1.00  0.00     0.168 HD
HETATM   16  C   UNL     1     -11.575   3.302 -32.747  1.00  0.00     0.158 A 
HETATM   17  N   UNL     1     -12.183   3.081 -33.893  1.00  0.00    -0.269 N 
HETATM   18  S   UNL     1     -12.093   4.747 -31.936  1.00  0.00    -0.064 SA
HETATM   19  C   UNL     1     -11.906   1.973 -34.721  1.00  0.00     0.255 A 
HETATM   20  C   UNL     1     -13.111   4.055 -34.203  1.00  0.00     0.109 A 
HETATM   21  O   UNL     1     -12.485   1.800 -35.776  1.00  0.00    -0.268 OA
HETATM   22  C   UNL     1     -10.864   1.080 -34.185  1.00  0.00     0.101 A 
HETATM   23  C   UNL     1     -13.194   5.017 -33.272  1.00  0.00     0.071 A 
ENDBRANCH   1  13
TORSDOF 4
ENDMDL
MODEL 5
REMARK VINA RESULT:      -7.3      5.964      8.161
REMARK  4 active torsions:
REMARK  status: ('A' for Active; 'I' for Inactive)
REMARK    1  A    between atoms: C_6  and  C_7 
REMARK    2  A    between atoms: C_7  and  N_8 
REMARK    3  A    between atoms: N_8  and  C_9 
REMARK    4  A    between atoms: C_9  and  C_10 
ROOT
HETATM    1  C   UNL     1      -3.724   2.086 -31.333  1.00  0.00     0.327 C 
ENDROOT
BRANCH   1   2
HETATM    2  N   UNL     1      -3.809   1.029 -32.353  1.00  0.00     0.097 N 
HETATM    3  H   UNL     1      -3.507   1.425 -33.250  1.00  0.00     0.317 HD
BRANCH   2   4
HETATM    4  C   UNL     1      -5.196   0.569 -32.576  1.00  0.00     0.252 C 
HETATM    5  C   UNL     1      -6.027   0.508 -31.292  1.00  0.00     0.048 C 
BRANCH   4   6
HETATM    6  C   UNL     1      -5.090  -0.771 -33.248  1.00  0.00     0.006 A 
HETATM    7  C   UNL     1      -5.885  -1.314 -34.247  1.00  0.00     0.058 A 
HETATM    8  O   UNL     1      -5.458  -2.567 -34.568  1.00  0.00    -0.320 OA
HETATM    9  C   UNL     1      -7.051  -0.827 -35.013  1.00  0.00     0.077 C 
HETATM   10  C   UNL     1      -4.379  -2.841 -33.790  1.00  0.00     0.050 A 
HETATM   11  C   UNL     1      -3.743  -4.160 -33.984  1.00  0.00     0.076 C 
HETATM   12  C   UNL     1      -4.114  -1.776 -32.961  1.00  0.00     0.044 A 
ENDBRANCH   4   6
ENDBRANCH   2   4
ENDBRANCH   1   2
BRANCH   1  13
HETATM   13  C   UNL     1      -3.003   3.288 -31.917  1.00  0.00     0.044 A 
HETATM   14  N   UNL     1      -2.343   4.078 -30.994  1.00  0.00    -0.338 N 
HETATM   15  H   UNL     1      -2.366   3.810 -30.010  1.00  0.00     0.168 HD
HETATM   16  C   UNL     1      -1.668   5.131 -31.382  1.00  0.00     0.158 A 
HETATM   17  N   UNL     1      -1.597   5.477 -32.649  1.00  0.00    -0.269 N 
HETATM   18  S   UNL     1      -0.796   6.181 -30.309  1.00  0.00    -0.064 SA
HETATM   19  C   UNL     1      -2.221   4.757 -33.689  1.00  0.00     0.255 A 
HETATM   20  C   UNL     1      -0.838   6.612 -32.852  1.00  0.00     0.109 A 
HETATM   21  O   UNL     1      -2.132   5.102 -34.852  1.00  0.00    -0.268 OA
HETATM   22  C   UNL     1      -2.962   3.572 -33.226  1.00  0.00     0.101 A 
HETATM   23  C   UNL     1      -0.335   7.118 -31.716  1.00  0.00     0.071 A 
ENDBRANCH   1  13
TORSDOF 4
ENDMDL
MODEL 6
REMARK VINA RESULT:      -6.8     14.375     16.333
REMARK  4 active torsions:
REMARK  status: ('A' for Active; 'I' for Inactive)
REMARK    1  A    between atoms: C_6  and  C_7 
REMARK    2  A    between atoms: C_7  and  N_8 
REMARK    3  A    between atoms: N_8  and  C_9 
REMARK    4  A    between atoms: C_9  and  C_10 
ROOT
HETATM    1  C   UNL     1      -6.454 -12.937 -41.474  1.00  0.00     0.327 C 
ENDROOT
BRANCH   1   2
HETATM    2  N   UNL     1      -7.418 -12.116 -40.724  1.00  0.00     0.097 N 
HETATM    3  H   UNL     1      -6.977 -11.829 -39.843  1.00  0.00     0.317 HD
BRANCH   2   4
HETATM    4  C   UNL     1      -8.621 -12.880 -40.328  1.00  0.00     0.252 C 
HETATM    5  C   UNL     1      -9.895 -12.034 -40.307  1.00  0.00     0.048 C 
BRANCH   4   6
HETATM    6  C   UNL     1      -8.314 -13.476 -38.982  1.00  0.00     0.006 A 
HETATM    7  C   UNL     1      -8.522 -14.772 -38.531  1.00  0.00     0.058 A 
HETATM    8  O   UNL     1      -8.117 -14.897 -37.238  1.00  0.00    -0.320 OA
HETATM    9  C   UNL     1      -9.065 -16.000 -39.147  1.00  0.00     0.077 C 
HETATM   10  C   UNL     1      -7.633 -13.691 -36.843  1.00  0.00     0.050 A 
HETATM   11  C   UNL     1      -7.122 -13.602 -35.460  1.00  0.00     0.076 C 
HETATM   12  C   UNL     1      -7.734 -12.784 -37.873  1.00  0.00     0.044 A 
ENDBRANCH   4   6
ENDBRANCH   2   4
ENDBRANCH   1   2
BRANCH   1  13
HETATM   13  C   UNL     1      -5.164 -13.042 -40.680  1.00  0.00     0.044 A 
HETATM   14  N   UNL     1      -4.228 -13.918 -41.199  1.00  0.00    -0.338 N 
HETATM   15  H   UNL     1      -4.446 -14.415 -42.064  1.00  0.00     0.168 HD
HETATM   16  C   UNL     1      -3.070 -14.078 -40.612  1.00  0.00     0.158 A 
HETATM   17  N   UNL     1      -2.755 -13.423 -39.516  1.00  0.00    -0.269 N 
HETATM   18  S   UNL     1      -1.823 -15.141 -41.187  1.00  0.00    -0.064 SA
HETATM   19  C   UNL     1      -3.615 -12.500 -38.886  1.00  0.00     0.255 A 
HETATM   20  C   UNL     1      -1.490 -13.728 -39.055  1.00  0.00     0.109 A 
HETATM   21  O   UNL     1      -3.292 -11.908 -37.874  1.00  0.00    -0.268 OA
HETATM   22  C   UNL     1      -4.907 -12.331 -39.574  1.00  0.00     0.101 A 
HETATM   23  C   UNL     1      -0.852 -14.624 -39.823  1.00  0.00     0.071 A 
ENDBRANCH   1  13
TORSDOF 4
ENDMDL
MODEL 7
REMARK VINA RESULT:      -6.7      3.688      7.803
REMARK  4 active torsions:
REMARK  status: ('A' for Active; 'I' for Inactive)
REMARK    1  A    between atoms: C_6  and  C_7 
REMARK    2  A    between atoms: C_7  and  N_8 
REMARK    3  A    between atoms: N_8  and  C_9 
REMARK    4  A    between atoms: C_9  and  C_10 
ROOT
HETATM    1  C   UNL     1      -3.846   0.796 -32.357  1.00  0.00     0.327 C 
ENDROOT
BRANCH   1   2
HETATM    2  N   UNL     1      -5.227   1.248 -32.593  1.00  0.00     0.097 N 
HETATM    3  H   UNL     1      -5.192   2.099 -33.164  1.00  0.00     0.317 HD
BRANCH   2   4
HETATM    4  C   UNL     1      -5.913   1.643 -31.344  1.00  0.00     0.252 C 
HETATM    5  C   UNL     1      -5.480   0.819 -30.130  1.00  0.00     0.048 C 
BRANCH   4   6
HETATM    6  C   UNL     1      -7.385   1.520 -31.618  1.00  0.00     0.006 A 
HETATM    7  C   UNL     1      -8.428   2.318 -31.170  1.00  0.00     0.058 A 
HETATM    8  O   UNL     1      -9.620   1.853 -31.637  1.00  0.00    -0.320 OA
HETATM    9  C   UNL     1      -8.508   3.530 -30.327  1.00  0.00     0.077 C 
HETATM   10  C   UNL     1      -9.359   0.760 -32.400  1.00  0.00     0.050 A 
HETATM   11  C   UNL     1     -10.522   0.095 -33.023  1.00  0.00     0.076 C 
HETATM   12  C   UNL     1      -8.006   0.511 -32.418  1.00  0.00     0.044 A 
ENDBRANCH   4   6
ENDBRANCH   2   4
ENDBRANCH   1   2
BRANCH   1  13
HETATM   13  C   UNL     1      -3.780  -0.712 -32.516  1.00  0.00     0.044 A 
HETATM   14  N   UNL     1      -4.530  -1.223 -33.560  1.00  0.00    -0.338 N 
HETATM   15  H   UNL     1      -5.055  -0.577 -34.152  1.00  0.00     0.168 HD
HETATM   16  C   UNL     1      -4.536  -2.508 -33.809  1.00  0.00     0.158 A 
HETATM   17  N   UNL     1      -3.841  -3.355 -33.080  1.00  0.00    -0.269 N 
HETATM   18  S   UNL     1      -5.431  -3.249 -35.099  1.00  0.00    -0.064 SA
HETATM   19  C   UNL     1      -3.034  -2.966 -31.991  1.00  0.00     0.255 A 
HETATM   20  C   UNL     1      -3.977  -4.662 -33.504  1.00  0.00     0.109 A 
HETATM   21  O   UNL     1      -2.401  -3.775 -31.340  1.00  0.00    -0.268 OA
HETATM   22  C   UNL     1      -3.037  -1.514 -31.742  1.00  0.00     0.101 A 
HETATM   23  C   UNL     1      -4.787  -4.789 -34.565  1.00  0.00     0.071 A 
ENDBRANCH   1  13
TORSDOF 4
ENDMDL
MODEL 8
REMARK VINA RESULT:      -6.6      2.274      2.807
REMARK  4 active torsions:
REMARK  status: ('A' for Active; 'I' for Inactive)
REMARK    1  A    between atoms: C_6  and  C_7 
REMARK    2  A    between atoms: C_7  and  N_8 
REMARK    3  A    between atoms: N_8  and  C_9 
REMARK    4  A    between atoms: C_9  and  C_10 
ROOT
HETATM    1  C   UNL     1      -7.013   1.673 -34.453  1.00  0.00     0.327 C 
ENDROOT
BRANCH   1   2
HETATM    2  N   UNL     1      -6.211   1.304 -33.275  1.00  0.00     0.097 N 
HETATM    3  H   UNL     1      -5.277   1.030 -33.598  1.00  0.00     0.317 HD
BRANCH   2   4
HETATM    4  C   UNL     1      -6.747   0.116 -32.577  1.00  0.00     0.252 C 
HETATM    5  C   UNL     1      -6.351   0.053 -31.100  1.00  0.00     0.048 C 
BRANCH   4   6
HETATM    6  C   UNL     1      -6.259  -1.078 -33.347  1.00  0.00     0.006 A 
HETATM    7  C   UNL     1      -4.957  -1.483 -33.603  1.00  0.00     0.058 A 
HETATM    8  O   UNL     1      -4.949  -2.617 -34.356  1.00  0.00    -0.320 OA
HETATM    9  C   UNL     1      -3.626  -0.959 -33.233  1.00  0.00     0.077 C 
HETATM   10  C   UNL     1      -6.242  -2.963 -34.585  1.00  0.00     0.050 A 
HETATM   11  C   UNL     1      -6.469  -4.187 -35.382  1.00  0.00     0.076 C 
HETATM   12  C   UNL     1      -7.085  -2.052 -33.991  1.00  0.00     0.044 A 
ENDBRANCH   4   6
ENDBRANCH   2   4
ENDBRANCH   1   2
BRANCH   1  13
HETATM   13  C   UNL     1      -8.431   1.991 -34.011  1.00  0.00     0.044 A 
HETATM   14  N   UNL     1      -8.556   3.113 -33.212  1.00  0.00    -0.338 N 
HETATM   15  H   UNL     1      -7.720   3.652 -32.986  1.00  0.00     0.168 HD
HETATM   16  C   UNL     1      -9.732   3.498 -32.786  1.00  0.00     0.158 A 
HETATM   17  N   UNL     1     -10.828   2.838 -33.093  1.00  0.00    -0.269 N 
HETATM   18  S   UNL     1     -10.000   4.896 -31.792  1.00  0.00    -0.064 SA
HETATM   19  C   UNL     1     -10.840   1.681 -33.900  1.00  0.00     0.255 A 
HETATM   20  C   UNL     1     -11.964   3.405 -32.551  1.00  0.00     0.109 A 
HETATM   21  O   UNL     1     -11.872   1.096 -34.167  1.00  0.00    -0.268 OA
HETATM   22  C   UNL     1      -9.505   1.278 -34.374  1.00  0.00     0.101 A 
HETATM   23  C   UNL     1     -11.708   4.506 -31.829  1.00  0.00     0.071 A 
ENDBRANCH   1  13
TORSDOF 4
ENDMDL
MODEL 9
REMARK VINA RESULT:      -6.5      6.641      8.998
REMARK  4 active torsions:
REMARK  status: ('A' for Active; 'I' for Inactive)
REMARK    1  A    between atoms: C_6  and  C_7 
REMARK    2  A    between atoms: C_7  and  N_8 
REMARK    3  A    between atoms: N_8  and  C_9 
REMARK    4  A    between atoms: C_9  and  C_10 
ROOT
HETATM    1  C   UNL     1      -3.421   2.642 -32.328  1.00  0.00     0.327 C 
ENDROOT
BRANCH   1   2
HETATM    2  N   UNL     1      -4.357   2.758 -31.198  1.00  0.00     0.097 N 
HETATM    3  H   UNL     1      -4.460   1.832 -30.771  1.00  0.00     0.317 HD
BRANCH   2   4
HETATM    4  C   UNL     1      -5.717   3.144 -31.630  1.00  0.00     0.252 C 
HETATM    5  C   UNL     1      -6.624   3.563 -30.472  1.00  0.00     0.048 C 
BRANCH   4   6
HETATM    6  C   UNL     1      -6.267   1.965 -32.384  1.00  0.00     0.006 A 
HETATM    7  C   UNL     1      -6.533   0.682 -31.928  1.00  0.00     0.058 A 
HETATM    8  O   UNL     1      -7.012  -0.094 -32.940  1.00  0.00    -0.320 OA
HETATM    9  C   UNL     1      -6.417   0.012 -30.616  1.00  0.00     0.077 C 
HETATM   10  C   UNL     1      -7.070   0.681 -34.054  1.00  0.00     0.050 A 
HETATM   11  C   UNL     1      -7.578   0.035 -35.282  1.00  0.00     0.076 C 
HETATM   12  C   UNL     1      -6.622   1.949 -33.769  1.00  0.00     0.044 A 
ENDBRANCH   4   6
ENDBRANCH   2   4
ENDBRANCH   1   2
BRANCH   1  13
HETATM   13  C   UNL     1      -2.534   3.873 -32.371  1.00  0.00     0.044 A 
HETATM   14  N   UNL     1      -1.939   4.207 -31.168  1.00  0.00    -0.338 N 
HETATM   15  H   UNL     1      -2.113   3.618 -30.353  1.00  0.00     0.168 HD
HETATM   16  C   UNL     1      -1.137   5.238 -31.086  1.00  0.00     0.158 A 
HETATM   17  N   UNL     1      -0.871   5.990 -32.132  1.00  0.00    -0.269 N 
HETATM   18  S   UNL     1      -0.331   5.734 -29.631  1.00  0.00    -0.064 SA
HETATM   19  C   UNL     1      -1.409   5.759 -33.415  1.00  0.00     0.255 A 
HETATM   20  C   UNL     1      -0.003   7.023 -31.841  1.00  0.00     0.109 A 
HETATM   21  O   UNL     1      -1.141   6.473 -34.362  1.00  0.00    -0.268 OA
HETATM   22  C   UNL     1      -2.299   4.587 -33.480  1.00  0.00     0.101 A 
HETATM   23  C   UNL     1       0.385   7.038 -30.557  1.00  0.00     0.071 A 
ENDBRANCH   1  13
TORSDOF 4
ENDMDL
MODEL 10
REMARK VINA RESULT:      -6.5     13.973     15.663
REMARK  4 active torsions:
REMARK  status: ('A' for Active; 'I' for Inactive)
REMARK    1  A    between atoms: C_6  and  C_7 
REMARK    2  A    between atoms: C_7  and  N_8 
REMARK    3  A    between atoms: N_8  and  C_9 
REMARK    4  A    between atoms: C_9  and  C_10 
ROOT
HETATM    1  C   UNL     1      -3.781 -12.379 -38.132  1.00  0.00     0.327 C 
ENDROOT
BRANCH   1   2
HETATM    2  N   UNL     1      -5.113 -12.008 -38.637  1.00  0.00     0.097 N 
HETATM    3  H   UNL     1      -5.755 -11.957 -37.838  1.00  0.00     0.317 HD
BRANCH   2   4
HETATM    4  C   UNL     1      -5.684 -13.038 -39.531  1.00  0.00     0.252 C 
HETATM    5  C   UNL     1      -5.210 -12.911 -40.980  1.00  0.00     0.048 C 
BRANCH   4   6
HETATM    6  C   UNL     1      -7.177 -12.917 -39.410  1.00  0.00     0.006 A 
HETATM    7  C   UNL     1      -8.021 -13.433 -38.437  1.00  0.00     0.058 A 
HETATM    8  O   UNL     1      -9.315 -13.107 -38.705  1.00  0.00    -0.320 OA
HETATM    9  C   UNL     1      -7.809 -14.228 -37.209  1.00  0.00     0.077 C 
HETATM   10  C   UNL     1      -9.321 -12.368 -39.845  1.00  0.00     0.050 A 
HETATM   11  C   UNL     1     -10.637 -11.892 -40.318  1.00  0.00     0.076 C 
HETATM   12  C   UNL     1      -8.037 -12.226 -40.319  1.00  0.00     0.044 A 
ENDBRANCH   4   6
ENDBRANCH   2   4
ENDBRANCH   1   2
BRANCH   1  13
HETATM   13  C   UNL     1      -3.938 -13.323 -36.954  1.00  0.00     0.044 A 
HETATM   14  N   UNL     1      -4.681 -12.823 -35.900  1.00  0.00    -0.338 N 
HETATM   15  H   UNL     1      -5.078 -11.886 -35.978  1.00  0.00     0.168 HD
HETATM   16  C   UNL     1      -4.902 -13.553 -34.836  1.00  0.00     0.158 A 
HETATM   17  N   UNL     1      -4.428 -14.776 -34.728  1.00  0.00    -0.269 N 
HETATM   18  S   UNL     1      -5.829 -13.026 -33.466  1.00  0.00    -0.064 SA
HETATM   19  C   UNL     1      -3.660 -15.405 -35.730  1.00  0.00     0.255 A 
HETATM   20  C   UNL     1      -4.773 -15.379 -33.535  1.00  0.00     0.109 A 
HETATM   21  O   UNL     1      -3.240 -16.538 -35.599  1.00  0.00    -0.268 OA
HETATM   22  C   UNL     1      -3.437 -14.565 -36.919  1.00  0.00     0.101 A 
HETATM   23  C   UNL     1      -5.516 -14.592 -32.743  1.00  0.00     0.071 A 
ENDBRANCH   1  13
TORSDOF 4
ENDMDL
