MODEL 1
REMARK VINA RESULT:      -9.8      0.000      0.000
REMARK  5 active torsions:
REMARK  status: ('A' for Active; 'I' for Inactive)
REMARK    1  A    between atoms: C_2  and  C_3 
REMARK    2  A    between atoms: C_5  and  N_6 
REMARK       I    between atoms: N_6  and  C_7 
REMARK    3  A    between atoms: C_7  and  C_8 
REMARK    4  A    between atoms: C_16  and  C_17 
REMARK    5  A    between atoms: C_20  and  O_21 
ROOT
HETATM    1  C   UNL     1      -5.899   2.890 -33.135  1.00  0.00     0.047 A 
HETATM    2  C   UNL     1      -7.198   3.289 -33.518  1.00  0.00     0.008 A 
HETATM    3  C   UNL     1      -8.046   2.257 -33.957  1.00  0.00     0.068 A 
HETATM    4  C   UNL     1      -9.349   2.567 -34.321  1.00  0.00     0.032 A 
HETATM    5  C   UNL     1      -9.836   3.876 -34.292  1.00  0.00     0.002 A 
HETATM    6  C   UNL     1      -8.997   4.910 -33.904  1.00  0.00     0.001 A 
HETATM    7  C   UNL     1      -7.687   4.623 -33.526  1.00  0.00     0.015 A 
HETATM    8  N   UNL     1      -7.651   0.977 -34.062  1.00  0.00    -0.248 NA
HETATM    9  C   UNL     1      -6.376   0.623 -33.764  1.00  0.00     0.068 A 
HETATM   10  C   UNL     1      -5.481   1.563 -33.285  1.00  0.00     0.050 A 
ENDROOT
BRANCH   1  11
HETATM   11  C   UNL     1      -4.881   3.815 -32.572  1.00  0.00     0.257 C 
HETATM   12  N   UNL     1      -3.890   4.206 -33.453  1.00  0.00    -0.323 N 
HETATM   13  H   UNL     1      -3.917   3.809 -34.385  1.00  0.00     0.169 HD
HETATM   14  O   UNL     1      -5.028   4.189 -31.415  1.00  0.00    -0.267 OA
BRANCH  12  15
HETATM   15  C   UNL     1      -2.830   5.102 -33.197  1.00  0.00     0.035 A 
HETATM   16  C   UNL     1      -1.828   4.869 -32.249  1.00  0.00     0.044 A 
HETATM   17  C   UNL     1      -0.811   5.811 -32.040  1.00  0.00     0.011 A 
HETATM   18  C   UNL     1      -0.787   6.984 -32.805  1.00  0.00     0.015 A 
HETATM   19  C   UNL     1      -1.781   7.223 -33.750  1.00  0.00     0.003 A 
HETATM   20  C   UNL     1      -2.804   6.291 -33.937  1.00  0.00     0.029 A 
BRANCH  17  21
HETATM   21  C   UNL     1       0.253   5.611 -31.012  1.00  0.00     0.155 C 
HETATM   22  C   UNL     1       0.461   6.668 -29.958  1.00  0.00     0.096 C 
HETATM   23  O   UNL     1       0.949   4.598 -31.043  1.00  0.00    -0.293 OA
ENDBRANCH  17  21
ENDBRANCH  12  15
ENDBRANCH   1  11
BRANCH   9  24
HETATM   24  C   UNL     1      -6.016  -0.792 -34.031  1.00  0.00    -0.007 A 
HETATM   25  C   UNL     1      -4.729  -1.274 -33.722  1.00  0.00     0.016 A 
HETATM   26  C   UNL     1      -4.383  -2.619 -33.903  1.00  0.00     0.037 A 
HETATM   27  C   UNL     1      -5.316  -3.530 -34.387  1.00  0.00     0.068 A 
HETATM   28  C   UNL     1      -6.583  -3.075 -34.742  1.00  0.00     0.037 A 
HETATM   29  C   UNL     1      -6.924  -1.725 -34.568  1.00  0.00     0.016 A 
BRANCH  27  30
HETATM   30  O   UNL     1      -4.876  -4.820 -34.490  1.00  0.00    -0.356 OA
HETATM   31  C   UNL     1      -3.790  -5.178 -33.643  1.00  0.00     0.210 C 
ENDBRANCH  27  30
ENDBRANCH   9  24
TORSDOF 5
ENDMDL
MODEL 2
REMARK VINA RESULT:      -9.4      2.953      9.139
REMARK  5 active torsions:
REMARK  status: ('A' for Active; 'I' for Inactive)
REMARK    1  A    between atoms: C_2  and  C_3 
REMARK    2  A    between atoms: C_5  and  N_6 
REMARK       I    between atoms: N_6  and  C_7 
REMARK    3  A    between atoms: C_7  and  C_8 
REMARK    4  A    between atoms: C_16  and  C_17 
REMARK    5  A    between atoms: C_20  and  O_21 
ROOT
HETATM    1  C   UNL     1      -6.848   1.303 -32.844  1.00  0.00     0.047 A 
HETATM    2  C   UNL     1      -6.195   0.115 -33.238  1.00  0.00     0.008 A 
HETATM    3  C   UNL     1      -4.793   0.135 -33.150  1.00  0.00     0.068 A 
HETATM    4  C   UNL     1      -4.081  -1.008 -33.490  1.00  0.00     0.032 A 
HETATM    5  C   UNL     1      -4.714  -2.167 -33.945  1.00  0.00     0.002 A 
HETATM    6  C   UNL     1      -6.094  -2.186 -34.079  1.00  0.00     0.001 A 
HETATM    7  C   UNL     1      -6.831  -1.055 -33.736  1.00  0.00     0.015 A 
HETATM    8  N   UNL     1      -4.096   1.218 -32.767  1.00  0.00    -0.248 NA
HETATM    9  C   UNL     1      -4.734   2.376 -32.468  1.00  0.00     0.068 A 
HETATM   10  C   UNL     1      -6.116   2.441 -32.486  1.00  0.00     0.050 A 
ENDROOT
BRANCH   1  11
HETATM   11  C   UNL     1      -8.325   1.458 -32.791  1.00  0.00     0.257 C 
HETATM   12  N   UNL     1      -8.921   1.833 -33.981  1.00  0.00    -0.323 N 
HETATM   13  H   UNL     1      -8.308   2.005 -34.771  1.00  0.00     0.169 HD
HETATM   14  O   UNL     1      -8.890   1.196 -31.736  1.00  0.00    -0.267 OA
BRANCH  12  15
HETATM   15  C   UNL     1     -10.300   2.013 -34.223  1.00  0.00     0.035 A 
HETATM   16  C   UNL     1     -11.271   1.049 -33.931  1.00  0.00     0.044 A 
HETATM   17  C   UNL     1     -12.623   1.293 -34.211  1.00  0.00     0.011 A 
HETATM   18  C   UNL     1     -13.004   2.521 -34.765  1.00  0.00     0.015 A 
HETATM   19  C   UNL     1     -12.043   3.485 -35.058  1.00  0.00     0.003 A 
HETATM   20  C   UNL     1     -10.695   3.227 -34.799  1.00  0.00     0.029 A 
BRANCH  17  21
HETATM   21  C   UNL     1     -13.681   0.273 -33.946  1.00  0.00     0.155 C 
HETATM   22  C   UNL     1     -15.107   0.583 -34.322  1.00  0.00     0.096 C 
HETATM   23  O   UNL     1     -13.380  -0.796 -33.419  1.00  0.00    -0.293 OA
ENDBRANCH  17  21
ENDBRANCH  12  15
ENDBRANCH   1  11
BRANCH   9  24
HETATM   24  C   UNL     1      -3.862   3.542 -32.176  1.00  0.00    -0.007 A 
HETATM   25  C   UNL     1      -4.251   4.509 -31.230  1.00  0.00     0.016 A 
HETATM   26  C   UNL     1      -3.420   5.583 -30.888  1.00  0.00     0.037 A 
HETATM   27  C   UNL     1      -2.165   5.719 -31.473  1.00  0.00     0.068 A 
HETATM   28  C   UNL     1      -1.770   4.803 -32.443  1.00  0.00     0.037 A 
HETATM   29  C   UNL     1      -2.609   3.733 -32.790  1.00  0.00     0.016 A 
BRANCH  27  30
HETATM   30  O   UNL     1      -1.429   6.785 -31.038  1.00  0.00    -0.356 OA
HETATM   31  C   UNL     1      -0.023   6.697 -31.237  1.00  0.00     0.210 C 
ENDBRANCH  27  30
ENDBRANCH   9  24
TORSDOF 5
ENDMDL
MODEL 3
REMARK VINA RESULT:      -9.3      1.802      1.901
REMARK  5 active torsions:
REMARK  status: ('A' for Active; 'I' for Inactive)
REMARK    1  A    between atoms: C_2  and  C_3 
REMARK    2  A    between atoms: C_5  and  N_6 
REMARK       I    between atoms: N_6  and  C_7 
REMARK    3  A    between atoms: C_7  and  C_8 
REMARK    4  A    between atoms: C_16  and  C_17 
REMARK    5  A    between atoms: C_20  and  O_21 
ROOT
HETATM    1  C   UNL     1      -6.368   3.013 -33.227  1.00  0.00     0.047 A 
HETATM    2  C   UNL     1      -7.617   3.123 -32.578  1.00  0.00     0.008 A 
HETATM    3  C   UNL     1      -8.257   1.907 -32.281  1.00  0.00     0.068 A 
HETATM    4  C   UNL     1      -9.475   1.933 -31.615  1.00  0.00     0.032 A 
HETATM    5  C   UNL     1     -10.097   3.131 -31.256  1.00  0.00     0.002 A 
HETATM    6  C   UNL     1      -9.499   4.338 -31.583  1.00  0.00     0.001 A 
HETATM    7  C   UNL     1      -8.273   4.339 -32.244  1.00  0.00     0.015 A 
HETATM    8  N   UNL     1      -7.756   0.710 -32.629  1.00  0.00    -0.248 NA
HETATM    9  C   UNL     1      -6.593   0.625 -33.321  1.00  0.00     0.068 A 
HETATM   10  C   UNL     1      -5.871   1.766 -33.623  1.00  0.00     0.050 A 
ENDROOT
BRANCH   1  11
HETATM   11  C   UNL     1      -5.501   4.174 -33.557  1.00  0.00     0.257 C 
HETATM   12  N   UNL     1      -4.291   4.212 -32.889  1.00  0.00    -0.323 N 
HETATM   13  H   UNL     1      -4.112   3.478 -32.213  1.00  0.00     0.169 HD
HETATM   14  O   UNL     1      -5.895   4.957 -34.413  1.00  0.00    -0.267 OA
BRANCH  12  15
HETATM   15  C   UNL     1      -3.267   5.173 -33.038  1.00  0.00     0.035 A 
HETATM   16  C   UNL     1      -3.078   6.248 -32.164  1.00  0.00     0.044 A 
HETATM   17  C   UNL     1      -2.045   7.171 -32.383  1.00  0.00     0.011 A 
HETATM   18  C   UNL     1      -1.183   6.999 -33.473  1.00  0.00     0.015 A 
HETATM   19  C   UNL     1      -1.366   5.931 -34.348  1.00  0.00     0.003 A 
HETATM   20  C   UNL     1      -2.410   5.028 -34.137  1.00  0.00     0.029 A 
BRANCH  17  21
HETATM   21  C   UNL     1      -1.837   8.350 -31.491  1.00  0.00     0.155 C 
HETATM   22  C   UNL     1      -1.330   8.127 -30.089  1.00  0.00     0.096 C 
HETATM   23  O   UNL     1      -2.088   9.481 -31.904  1.00  0.00    -0.293 OA
ENDBRANCH  17  21
ENDBRANCH  12  15
ENDBRANCH   1  11
BRANCH   9  24
HETATM   24  C   UNL     1      -6.195  -0.737 -33.758  1.00  0.00    -0.007 A 
HETATM   25  C   UNL     1      -4.876  -1.192 -33.572  1.00  0.00     0.016 A 
HETATM   26  C   UNL     1      -4.490  -2.494 -33.915  1.00  0.00     0.037 A 
HETATM   27  C   UNL     1      -5.414  -3.389 -34.444  1.00  0.00     0.068 A 
HETATM   28  C   UNL     1      -6.715  -2.956 -34.678  1.00  0.00     0.037 A 
HETATM   29  C   UNL     1      -7.097  -1.647 -34.342  1.00  0.00     0.016 A 
BRANCH  27  30
HETATM   30  O   UNL     1      -4.932  -4.640 -34.708  1.00  0.00    -0.356 OA
HETATM   31  C   UNL     1      -3.809  -5.053 -33.937  1.00  0.00     0.210 C 
ENDBRANCH  27  30
ENDBRANCH   9  24
TORSDOF 5
ENDMDL
MODEL 4
REMARK VINA RESULT:      -9.0      2.214      5.291
REMARK  5 active torsions:
REMARK  status: ('A' for Active; 'I' for Inactive)
REMARK    1  A    between atoms: C_2  and  C_3 
REMARK    2  A    between atoms: C_5  and  N_6 
REMARK       I    between atoms: N_6  and  C_7 
REMARK    3  A    between atoms: C_7  and  C_8 
REMARK    4  A    between atoms: C_16  and  C_17 
REMARK    5  A    between atoms: C_20  and  O_21 
ROOT
HETATM    1  C   UNL     1      -5.824   2.231 -32.665  1.00  0.00     0.047 A 
HETATM    2  C   UNL     1      -5.385   0.913 -32.912  1.00  0.00     0.008 A 
HETATM    3  C   UNL     1      -6.380   0.008 -33.323  1.00  0.00     0.068 A 
HETATM    4  C   UNL     1      -6.020  -1.300 -33.615  1.00  0.00     0.032 A 
HETATM    5  C   UNL     1      -4.705  -1.754 -33.486  1.00  0.00     0.002 A 
HETATM    6  C   UNL     1      -3.722  -0.884 -33.039  1.00  0.00     0.001 A 
HETATM    7  C   UNL     1      -4.056   0.436 -32.747  1.00  0.00     0.015 A 
HETATM    8  N   UNL     1      -7.676   0.343 -33.431  1.00  0.00    -0.248 NA
HETATM    9  C   UNL     1      -8.094   1.593 -33.114  1.00  0.00     0.068 A 
HETATM   10  C   UNL     1      -7.181   2.563 -32.739  1.00  0.00     0.050 A 
ENDROOT
BRANCH   1  11
HETATM   11  C   UNL     1      -4.917   3.351 -32.297  1.00  0.00     0.257 C 
HETATM   12  N   UNL     1      -3.903   3.607 -33.202  1.00  0.00    -0.323 N 
HETATM   13  H   UNL     1      -3.840   2.999 -34.010  1.00  0.00     0.169 HD
HETATM   14  O   UNL     1      -5.167   3.975 -31.274  1.00  0.00    -0.267 OA
BRANCH  12  15
HETATM   15  C   UNL     1      -2.932   4.629 -33.123  1.00  0.00     0.035 A 
HETATM   16  C   UNL     1      -1.855   4.609 -32.231  1.00  0.00     0.044 A 
HETATM   17  C   UNL     1      -0.935   5.667 -32.201  1.00  0.00     0.011 A 
HETATM   18  C   UNL     1      -1.085   6.739 -33.089  1.00  0.00     0.015 A 
HETATM   19  C   UNL     1      -2.156   6.766 -33.979  1.00  0.00     0.003 A 
HETATM   20  C   UNL     1      -3.081   5.720 -33.988  1.00  0.00     0.029 A 
BRANCH  17  21
HETATM   21  C   UNL     1       0.205   5.695 -31.238  1.00  0.00     0.155 C 
HETATM   22  C   UNL     1       0.449   6.943 -30.428  1.00  0.00     0.096 C 
HETATM   23  O   UNL     1       0.933   4.711 -31.125  1.00  0.00    -0.293 OA
ENDBRANCH  17  21
ENDBRANCH  12  15
ENDBRANCH   1  11
BRANCH   9  24
HETATM   24  C   UNL     1      -9.561   1.818 -33.152  1.00  0.00    -0.007 A 
HETATM   25  C   UNL     1     -10.113   3.024 -32.681  1.00  0.00     0.016 A 
HETATM   26  C   UNL     1     -11.486   3.288 -32.765  1.00  0.00     0.037 A 
HETATM   27  C   UNL     1     -12.351   2.360 -33.335  1.00  0.00     0.068 A 
HETATM   28  C   UNL     1     -11.841   1.141 -33.771  1.00  0.00     0.037 A 
HETATM   29  C   UNL     1     -10.466   0.875 -33.677  1.00  0.00     0.016 A 
BRANCH  27  30
HETATM   30  O   UNL     1     -13.662   2.741 -33.394  1.00  0.00    -0.356 OA
HETATM   31  C   UNL     1     -13.990   3.955 -32.729  1.00  0.00     0.210 C 
ENDBRANCH  27  30
ENDBRANCH   9  24
TORSDOF 5
ENDMDL
MODEL 5
REMARK VINA RESULT:      -9.0      2.211      2.568
REMARK  5 active torsions:
REMARK  status: ('A' for Active; 'I' for Inactive)
REMARK    1  A    between atoms: C_2  and  C_3 
REMARK    2  A    between atoms: C_5  and  N_6 
REMARK       I    between atoms: N_6  and  C_7 
REMARK    3  A    between atoms: C_7  and  C_8 
REMARK    4  A    between atoms: C_16  and  C_17 
REMARK    5  A    between atoms: C_20  and  O_21 
ROOT
HETATM    1  C   UNL     1      -5.248   3.762 -32.086  1.00  0.00     0.047 A 
HETATM    2  C   UNL     1      -6.489   4.037 -31.473  1.00  0.00     0.008 A 
HETATM    3  C   UNL     1      -7.401   2.967 -31.440  1.00  0.00     0.068 A 
HETATM    4  C   UNL     1      -8.632   3.151 -30.825  1.00  0.00     0.032 A 
HETATM    5  C   UNL     1      -9.004   4.375 -30.264  1.00  0.00     0.002 A 
HETATM    6  C   UNL     1      -8.133   5.452 -30.329  1.00  0.00     0.001 A 
HETATM    7  C   UNL     1      -6.889   5.290 -30.933  1.00  0.00     0.015 A 
HETATM    8  N   UNL     1      -7.147   1.770 -31.994  1.00  0.00    -0.248 NA
HETATM    9  C   UNL     1      -5.981   1.546 -32.648  1.00  0.00     0.068 A 
HETATM   10  C   UNL     1      -5.005   2.527 -32.697  1.00  0.00     0.050 A 
ENDROOT
BRANCH   1  11
HETATM   11  C   UNL     1      -4.124   4.733 -32.154  1.00  0.00     0.257 C 
HETATM   12  N   UNL     1      -3.162   4.588 -31.172  1.00  0.00    -0.323 N 
HETATM   13  H   UNL     1      -3.315   3.866 -30.477  1.00  0.00     0.169 HD
HETATM   14  O   UNL     1      -4.115   5.532 -33.082  1.00  0.00    -0.267 OA
BRANCH  12  15
HETATM   15  C   UNL     1      -1.978   5.343 -31.023  1.00  0.00     0.035 A 
HETATM   16  C   UNL     1      -1.797   6.316 -30.035  1.00  0.00     0.044 A 
HETATM   17  C   UNL     1      -0.596   7.036 -29.956  1.00  0.00     0.011 A 
HETATM   18  C   UNL     1       0.437   6.759 -30.860  1.00  0.00     0.015 A 
HETATM   19  C   UNL     1       0.264   5.792 -31.847  1.00  0.00     0.003 A 
HETATM   20  C   UNL     1      -0.943   5.094 -31.934  1.00  0.00     0.029 A 
BRANCH  17  21
HETATM   21  C   UNL     1      -0.382   8.106 -28.938  1.00  0.00     0.155 C 
HETATM   22  C   UNL     1       0.948   8.192 -28.234  1.00  0.00     0.096 C 
HETATM   23  O   UNL     1      -1.291   8.894 -28.680  1.00  0.00    -0.293 OA
ENDBRANCH  17  21
ENDBRANCH  12  15
ENDBRANCH   1  11
BRANCH   9  24
HETATM   24  C   UNL     1      -5.857   0.231 -33.325  1.00  0.00    -0.007 A 
HETATM   25  C   UNL     1      -4.647  -0.487 -33.279  1.00  0.00     0.016 A 
HETATM   26  C   UNL     1      -4.522  -1.759 -33.853  1.00  0.00     0.037 A 
HETATM   27  C   UNL     1      -5.607  -2.359 -34.483  1.00  0.00     0.068 A 
HETATM   28  C   UNL     1      -6.804  -1.656 -34.582  1.00  0.00     0.037 A 
HETATM   29  C   UNL     1      -6.923  -0.378 -34.014  1.00  0.00     0.016 A 
BRANCH  27  30
HETATM   30  O   UNL     1      -5.377  -3.613 -34.975  1.00  0.00    -0.356 OA
HETATM   31  C   UNL     1      -6.530  -4.413 -35.211  1.00  0.00     0.210 C 
ENDBRANCH  27  30
ENDBRANCH   9  24
TORSDOF 5
ENDMDL
MODEL 6
REMARK VINA RESULT:      -8.7      7.808     13.140
REMARK  5 active torsions:
REMARK  status: ('A' for Active; 'I' for Inactive)
REMARK    1  A    between atoms: C_2  and  C_3 
REMARK    2  A    between atoms: C_5  and  N_6 
REMARK       I    between atoms: N_6  and  C_7 
REMARK    3  A    between atoms: C_7  and  C_8 
REMARK    4  A    between atoms: C_16  and  C_17 
REMARK    5  A    between atoms: C_20  and  O_21 
ROOT
HETATM    1  C   UNL     1       2.096   8.857 -24.685  1.00  0.00     0.047 A 
HETATM    2  C   UNL     1       0.947   9.555 -24.256  1.00  0.00     0.008 A 
HETATM    3  C   UNL     1      -0.216   9.336 -25.015  1.00  0.00     0.068 A 
HETATM    4  C   UNL     1      -1.395   9.964 -24.636  1.00  0.00     0.032 A 
HETATM    5  C   UNL     1      -1.455  10.830 -23.542  1.00  0.00     0.002 A 
HETATM    6  C   UNL     1      -0.305  11.090 -22.811  1.00  0.00     0.001 A 
HETATM    7  C   UNL     1       0.888  10.466 -23.166  1.00  0.00     0.015 A 
HETATM    8  N   UNL     1      -0.242   8.557 -26.109  1.00  0.00    -0.248 NA
HETATM    9  C   UNL     1       0.888   7.955 -26.553  1.00  0.00     0.068 A 
HETATM   10  C   UNL     1       2.072   8.080 -25.848  1.00  0.00     0.050 A 
ENDROOT
BRANCH   1  11
HETATM   11  C   UNL     1       3.401   8.893 -23.974  1.00  0.00     0.257 C 
HETATM   12  N   UNL     1       3.516   8.016 -22.911  1.00  0.00    -0.323 N 
HETATM   13  H   UNL     1       2.703   7.454 -22.685  1.00  0.00     0.169 HD
HETATM   14  O   UNL     1       4.267   9.642 -24.408  1.00  0.00    -0.267 OA
BRANCH  12  15
HETATM   15  C   UNL     1       4.649   7.815 -22.093  1.00  0.00     0.035 A 
HETATM   16  C   UNL     1       5.616   6.834 -22.333  1.00  0.00     0.044 A 
HETATM   17  C   UNL     1       6.710   6.685 -21.468  1.00  0.00     0.011 A 
HETATM   18  C   UNL     1       6.846   7.543 -20.371  1.00  0.00     0.015 A 
HETATM   19  C   UNL     1       5.887   8.523 -20.126  1.00  0.00     0.003 A 
HETATM   20  C   UNL     1       4.788   8.651 -20.978  1.00  0.00     0.029 A 
BRANCH  17  21
HETATM   21  C   UNL     1       7.741   5.624 -21.674  1.00  0.00     0.155 C 
HETATM   22  C   UNL     1       7.783   4.889 -22.989  1.00  0.00     0.096 C 
HETATM   23  O   UNL     1       8.531   5.358 -20.770  1.00  0.00    -0.293 OA
ENDBRANCH  17  21
ENDBRANCH  12  15
ENDBRANCH   1  11
BRANCH   9  24
HETATM   24  C   UNL     1       0.771   7.218 -27.837  1.00  0.00    -0.007 A 
HETATM   25  C   UNL     1       0.870   5.814 -27.869  1.00  0.00     0.016 A 
HETATM   26  C   UNL     1       0.699   5.090 -29.055  1.00  0.00     0.037 A 
HETATM   27  C   UNL     1       0.411   5.745 -30.248  1.00  0.00     0.068 A 
HETATM   28  C   UNL     1       0.349   7.135 -30.257  1.00  0.00     0.037 A 
HETATM   29  C   UNL     1       0.530   7.859 -29.068  1.00  0.00     0.016 A 
BRANCH  27  30
HETATM   30  O   UNL     1       0.231   4.934 -31.333  1.00  0.00    -0.356 OA
HETATM   31  C   UNL     1      -0.889   5.232 -32.158  1.00  0.00     0.210 C 
ENDBRANCH  27  30
ENDBRANCH   9  24
TORSDOF 5
ENDMDL
MODEL 7
REMARK VINA RESULT:      -8.6      2.614      5.732
REMARK  5 active torsions:
REMARK  status: ('A' for Active; 'I' for Inactive)
REMARK    1  A    between atoms: C_2  and  C_3 
REMARK    2  A    between atoms: C_5  and  N_6 
REMARK       I    between atoms: N_6  and  C_7 
REMARK    3  A    between atoms: C_7  and  C_8 
REMARK    4  A    between atoms: C_16  and  C_17 
REMARK    5  A    between atoms: C_20  and  O_21 
ROOT
HETATM    1  C   UNL     1      -6.127   1.127 -32.654  1.00  0.00     0.047 A 
HETATM    2  C   UNL     1      -5.899  -0.128 -33.258  1.00  0.00     0.008 A 
HETATM    3  C   UNL     1      -7.011  -0.709 -33.891  1.00  0.00     0.068 A 
HETATM    4  C   UNL     1      -6.858  -1.929 -34.536  1.00  0.00     0.032 A 
HETATM    5  C   UNL     1      -5.639  -2.611 -34.549  1.00  0.00     0.002 A 
HETATM    6  C   UNL     1      -4.545  -2.072 -33.891  1.00  0.00     0.001 A 
HETATM    7  C   UNL     1      -4.671  -0.845 -33.244  1.00  0.00     0.015 A 
HETATM    8  N   UNL     1      -8.232  -0.148 -33.889  1.00  0.00    -0.248 NA
HETATM    9  C   UNL     1      -8.453   1.020 -33.237  1.00  0.00     0.068 A 
HETATM   10  C   UNL     1      -7.409   1.686 -32.620  1.00  0.00     0.050 A 
ENDROOT
BRANCH   1  11
HETATM   11  C   UNL     1      -5.065   1.938 -32.002  1.00  0.00     0.257 C 
HETATM   12  N   UNL     1      -4.655   3.050 -32.714  1.00  0.00    -0.323 N 
HETATM   13  H   UNL     1      -5.078   3.200 -33.623  1.00  0.00     0.169 HD
HETATM   14  O   UNL     1      -4.685   1.594 -30.890  1.00  0.00    -0.267 OA
BRANCH  12  15
HETATM   15  C   UNL     1      -3.698   4.009 -32.316  1.00  0.00     0.035 A 
HETATM   16  C   UNL     1      -3.905   4.932 -31.286  1.00  0.00     0.044 A 
HETATM   17  C   UNL     1      -2.911   5.865 -30.955  1.00  0.00     0.011 A 
HETATM   18  C   UNL     1      -1.694   5.853 -31.645  1.00  0.00     0.015 A 
HETATM   19  C   UNL     1      -1.480   4.936 -32.672  1.00  0.00     0.003 A 
HETATM   20  C   UNL     1      -2.482   4.026 -33.013  1.00  0.00     0.029 A 
BRANCH  17  21
HETATM   21  C   UNL     1      -3.113   6.887 -29.886  1.00  0.00     0.155 C 
HETATM   22  C   UNL     1      -1.945   7.280 -29.018  1.00  0.00     0.096 C 
HETATM   23  O   UNL     1      -4.225   7.387 -29.721  1.00  0.00    -0.293 OA
ENDBRANCH  17  21
ENDBRANCH  12  15
ENDBRANCH   1  11
BRANCH   9  24
HETATM   24  C   UNL     1      -9.862   1.486 -33.197  1.00  0.00    -0.007 A 
HETATM   25  C   UNL     1     -10.173   2.792 -32.773  1.00  0.00     0.016 A 
HETATM   26  C   UNL     1     -11.486   3.279 -32.787  1.00  0.00     0.037 A 
HETATM   27  C   UNL     1     -12.531   2.479 -33.238  1.00  0.00     0.068 A 
HETATM   28  C   UNL     1     -12.261   1.170 -33.623  1.00  0.00     0.037 A 
HETATM   29  C   UNL     1     -10.945   0.681 -33.599  1.00  0.00     0.016 A 
BRANCH  27  30
HETATM   30  O   UNL     1     -13.762   3.072 -33.238  1.00  0.00    -0.356 OA
HETATM   31  C   UNL     1     -13.822   4.388 -32.702  1.00  0.00     0.210 C 
ENDBRANCH  27  30
ENDBRANCH   9  24
TORSDOF 5
ENDMDL
MODEL 8
REMARK VINA RESULT:      -8.6      1.724      2.075
REMARK  5 active torsions:
REMARK  status: ('A' for Active; 'I' for Inactive)
REMARK    1  A    between atoms: C_2  and  C_3 
REMARK    2  A    between atoms: C_5  and  N_6 
REMARK       I    between atoms: N_6  and  C_7 
REMARK    3  A    between atoms: C_7  and  C_8 
REMARK    4  A    between atoms: C_16  and  C_17 
REMARK    5  A    between atoms: C_20  and  O_21 
ROOT
HETATM    1  C   UNL     1      -6.827   3.070 -33.767  1.00  0.00     0.047 A 
HETATM    2  C   UNL     1      -8.228   3.120 -33.931  1.00  0.00     0.008 A 
HETATM    3  C   UNL     1      -8.876   1.874 -34.001  1.00  0.00     0.068 A 
HETATM    4  C   UNL     1     -10.258   1.842 -34.130  1.00  0.00     0.032 A 
HETATM    5  C   UNL     1     -11.021   3.008 -34.222  1.00  0.00     0.002 A 
HETATM    6  C   UNL     1     -10.391   4.243 -34.200  1.00  0.00     0.001 A 
HETATM    7  C   UNL     1      -9.006   4.302 -34.062  1.00  0.00     0.015 A 
HETATM    8  N   UNL     1      -8.219   0.703 -33.967  1.00  0.00    -0.248 NA
HETATM    9  C   UNL     1      -6.866   0.673 -33.888  1.00  0.00     0.068 A 
HETATM   10  C   UNL     1      -6.145   1.848 -33.774  1.00  0.00     0.050 A 
ENDROOT
BRANCH   1  11
HETATM   11  C   UNL     1      -5.970   4.273 -33.595  1.00  0.00     0.257 C 
HETATM   12  N   UNL     1      -5.733   4.643 -32.284  1.00  0.00    -0.323 N 
HETATM   13  H   UNL     1      -6.184   4.096 -31.560  1.00  0.00     0.169 HD
HETATM   14  O   UNL     1      -5.510   4.795 -34.603  1.00  0.00    -0.267 OA
BRANCH  12  15
HETATM   15  C   UNL     1      -4.929   5.713 -31.835  1.00  0.00     0.035 A 
HETATM   16  C   UNL     1      -3.561   5.598 -31.570  1.00  0.00     0.044 A 
HETATM   17  C   UNL     1      -2.827   6.703 -31.113  1.00  0.00     0.011 A 
HETATM   18  C   UNL     1      -3.468   7.937 -30.946  1.00  0.00     0.015 A 
HETATM   19  C   UNL     1      -4.831   8.059 -31.208  1.00  0.00     0.003 A 
HETATM   20  C   UNL     1      -5.560   6.949 -31.640  1.00  0.00     0.029 A 
BRANCH  17  21
HETATM   21  C   UNL     1      -1.374   6.607 -30.786  1.00  0.00     0.155 C 
HETATM   22  C   UNL     1      -0.360   6.929 -31.854  1.00  0.00     0.096 C 
HETATM   23  O   UNL     1      -1.024   6.259 -29.660  1.00  0.00    -0.293 OA
ENDBRANCH  17  21
ENDBRANCH  12  15
ENDBRANCH   1  11
BRANCH   9  24
HETATM   24  C   UNL     1      -6.239  -0.669 -33.981  1.00  0.00    -0.007 A 
HETATM   25  C   UNL     1      -6.932  -1.745 -34.569  1.00  0.00     0.016 A 
HETATM   26  C   UNL     1      -6.339  -3.004 -34.727  1.00  0.00     0.037 A 
HETATM   27  C   UNL     1      -5.030  -3.226 -34.314  1.00  0.00     0.068 A 
HETATM   28  C   UNL     1      -4.335  -2.195 -33.691  1.00  0.00     0.037 A 
HETATM   29  C   UNL     1      -4.934  -0.937 -33.525  1.00  0.00     0.016 A 
BRANCH  27  30
HETATM   30  O   UNL     1      -4.547  -4.483 -34.551  1.00  0.00    -0.356 OA
HETATM   31  C   UNL     1      -3.400  -4.863 -33.801  1.00  0.00     0.210 C 
ENDBRANCH  27  30
ENDBRANCH   9  24
TORSDOF 5
ENDMDL
MODEL 9
REMARK VINA RESULT:      -8.6      1.246      1.591
REMARK  5 active torsions:
REMARK  status: ('A' for Active; 'I' for Inactive)
REMARK    1  A    between atoms: C_2  and  C_3 
REMARK    2  A    between atoms: C_5  and  N_6 
REMARK       I    between atoms: N_6  and  C_7 
REMARK    3  A    between atoms: C_7  and  C_8 
REMARK    4  A    between atoms: C_16  and  C_17 
REMARK    5  A    between atoms: C_20  and  O_21 
ROOT
HETATM    1  C   UNL     1      -5.895   3.551 -32.525  1.00  0.00     0.047 A 
HETATM    2  C   UNL     1      -7.121   4.033 -33.033  1.00  0.00     0.008 A 
HETATM    3  C   UNL     1      -7.949   3.070 -33.635  1.00  0.00     0.068 A 
HETATM    4  C   UNL     1      -9.186   3.462 -34.131  1.00  0.00     0.032 A 
HETATM    5  C   UNL     1      -9.620   4.789 -34.075  1.00  0.00     0.002 A 
HETATM    6  C   UNL     1      -8.794   5.757 -33.524  1.00  0.00     0.001 A 
HETATM    7  C   UNL     1      -7.552   5.387 -33.012  1.00  0.00     0.015 A 
HETATM    8  N   UNL     1      -7.596   1.782 -33.775  1.00  0.00    -0.248 NA
HETATM    9  C   UNL     1      -6.383   1.350 -33.352  1.00  0.00     0.068 A 
HETATM   10  C   UNL     1      -5.515   2.217 -32.709  1.00  0.00     0.050 A 
ENDROOT
BRANCH   1  11
HETATM   11  C   UNL     1      -4.917   4.391 -31.785  1.00  0.00     0.257 C 
HETATM   12  N   UNL     1      -3.904   4.930 -32.556  1.00  0.00    -0.323 N 
HETATM   13  H   UNL     1      -3.890   4.684 -33.540  1.00  0.00     0.169 HD
HETATM   14  O   UNL     1      -5.113   4.578 -30.591  1.00  0.00    -0.267 OA
BRANCH  12  15
HETATM   15  C   UNL     1      -2.872   5.791 -32.124  1.00  0.00     0.035 A 
HETATM   16  C   UNL     1      -1.846   5.398 -31.258  1.00  0.00     0.044 A 
HETATM   17  C   UNL     1      -0.860   6.313 -30.860  1.00  0.00     0.011 A 
HETATM   18  C   UNL     1      -0.892   7.622 -31.355  1.00  0.00     0.015 A 
HETATM   19  C   UNL     1      -1.911   8.020 -32.217  1.00  0.00     0.003 A 
HETATM   20  C   UNL     1      -2.902   7.111 -32.591  1.00  0.00     0.029 A 
BRANCH  17  21
HETATM   21  C   UNL     1       0.229   5.938 -29.910  1.00  0.00     0.155 C 
HETATM   22  C   UNL     1       0.994   4.660 -30.140  1.00  0.00     0.096 C 
HETATM   23  O   UNL     1       0.480   6.667 -28.951  1.00  0.00    -0.293 OA
ENDBRANCH  17  21
ENDBRANCH  12  15
ENDBRANCH   1  11
BRANCH   9  24
HETATM   24  C   UNL     1      -6.049  -0.062 -33.665  1.00  0.00    -0.007 A 
HETATM   25  C   UNL     1      -7.007  -0.912 -34.249  1.00  0.00     0.016 A 
HETATM   26  C   UNL     1      -6.699  -2.228 -34.614  1.00  0.00     0.037 A 
HETATM   27  C   UNL     1      -5.419  -2.736 -34.418  1.00  0.00     0.068 A 
HETATM   28  C   UNL     1      -4.462  -1.934 -33.803  1.00  0.00     0.037 A 
HETATM   29  C   UNL     1      -4.776  -0.617 -33.430  1.00  0.00     0.016 A 
BRANCH  27  30
HETATM   30  O   UNL     1      -5.227  -4.020 -34.844  1.00  0.00    -0.356 OA
HETATM   31  C   UNL     1      -6.361  -4.667 -35.408  1.00  0.00     0.210 C 
ENDBRANCH  27  30
ENDBRANCH   9  24
TORSDOF 5
ENDMDL
MODEL 10
REMARK VINA RESULT:      -8.3      2.914      7.403
REMARK  5 active torsions:
REMARK  status: ('A' for Active; 'I' for Inactive)
REMARK    1  A    between atoms: C_2  and  C_3 
REMARK    2  A    between atoms: C_5  and  N_6 
REMARK       I    between atoms: N_6  and  C_7 
REMARK    3  A    between atoms: C_7  and  C_8 
REMARK    4  A    between atoms: C_16  and  C_17 
REMARK    5  A    between atoms: C_20  and  O_21 
ROOT
HETATM    1  C   UNL     1      -6.428   3.132 -32.722  1.00  0.00     0.047 A 
HETATM    2  C   UNL     1      -5.496   4.055 -32.202  1.00  0.00     0.008 A 
HETATM    3  C   UNL     1      -4.203   3.552 -31.978  1.00  0.00     0.068 A 
HETATM    4  C   UNL     1      -3.222   4.409 -31.496  1.00  0.00     0.032 A 
HETATM    5  C   UNL     1      -3.487   5.747 -31.199  1.00  0.00     0.002 A 
HETATM    6  C   UNL     1      -4.770   6.246 -31.373  1.00  0.00     0.001 A 
HETATM    7  C   UNL     1      -5.769   5.409 -31.863  1.00  0.00     0.015 A 
HETATM    8  N   UNL     1      -3.868   2.269 -32.191  1.00  0.00    -0.248 NA
HETATM    9  C   UNL     1      -4.795   1.376 -32.617  1.00  0.00     0.068 A 
HETATM   10  C   UNL     1      -6.085   1.788 -32.903  1.00  0.00     0.050 A 
ENDROOT
BRANCH   1  11
HETATM   11  C   UNL     1      -7.822   3.486 -33.099  1.00  0.00     0.257 C 
HETATM   12  N   UNL     1      -8.807   2.753 -32.464  1.00  0.00    -0.323 N 
HETATM   13  H   UNL     1      -8.504   2.021 -31.830  1.00  0.00     0.169 HD
HETATM   14  O   UNL     1      -7.984   4.412 -33.884  1.00  0.00    -0.267 OA
BRANCH  12  15
HETATM   15  C   UNL     1     -10.204   2.905 -32.603  1.00  0.00     0.035 A 
HETATM   16  C   UNL     1     -10.976   2.184 -33.519  1.00  0.00     0.044 A 
HETATM   17  C   UNL     1     -12.359   2.398 -33.610  1.00  0.00     0.011 A 
HETATM   18  C   UNL     1     -12.973   3.323 -32.758  1.00  0.00     0.015 A 
HETATM   19  C   UNL     1     -12.210   4.045 -31.842  1.00  0.00     0.003 A 
HETATM   20  C   UNL     1     -10.830   3.844 -31.773  1.00  0.00     0.029 A 
BRANCH  17  21
HETATM   21  C   UNL     1     -13.207   1.673 -34.602  1.00  0.00     0.155 C 
HETATM   22  C   UNL     1     -14.300   0.762 -34.103  1.00  0.00     0.096 C 
HETATM   23  O   UNL     1     -13.000   1.819 -35.805  1.00  0.00    -0.293 OA
ENDBRANCH  17  21
ENDBRANCH  12  15
ENDBRANCH   1  11
BRANCH   9  24
HETATM   24  C   UNL     1      -4.347  -0.037 -32.702  1.00  0.00    -0.007 A 
HETATM   25  C   UNL     1      -3.395  -0.542 -31.796  1.00  0.00     0.016 A 
HETATM   26  C   UNL     1      -3.003  -1.886 -31.812  1.00  0.00     0.037 A 
HETATM   27  C   UNL     1      -3.560  -2.774 -32.728  1.00  0.00     0.068 A 
HETATM   28  C   UNL     1      -4.471  -2.295 -33.663  1.00  0.00     0.037 A 
HETATM   29  C   UNL     1      -4.855  -0.945 -33.650  1.00  0.00     0.016 A 
BRANCH  27  30
HETATM   30  O   UNL     1      -3.126  -4.066 -32.627  1.00  0.00    -0.356 OA
HETATM   31  C   UNL     1      -3.594  -4.962 -33.629  1.00  0.00     0.210 C 
ENDBRANCH  27  30
ENDBRANCH   9  24
TORSDOF 5
ENDMDL
