MODEL 1
REMARK VINA RESULT:      -8.0      0.000      0.000
REMARK  6 active torsions:
REMARK  status: ('A' for Active; 'I' for Inactive)
REMARK    1  A    between atoms: C_2  and  N_3 
REMARK    2  A    between atoms: C_2  and  C_17 
REMARK       I    between atoms: N_3  and  C_4 
REMARK    3  A    between atoms: C_4  and  C_5 
REMARK    4  A    between atoms: C_6  and  O_7 
REMARK    5  A    between atoms: O_7  and  C_8 
REMARK    6  A    between atoms: C_8  and  C_9 
ROOT
HETATM    1  N   UNL     1      -7.069  -0.498 -33.100  1.00  0.00    -0.346 N 
HETATM    2  C   UNL     1      -6.670  -0.944 -34.339  1.00  0.00     0.256 C 
HETATM    3  O   UNL     1      -6.812  -0.288 -35.364  1.00  0.00    -0.267 OA
HETATM    4  H   UNL     1      -6.947  -1.062 -32.267  1.00  0.00     0.163 HD
ENDROOT
BRANCH   1   5
HETATM    5  C   UNL     1      -7.782   0.754 -32.939  1.00  0.00     0.150 C 
HETATM    6  C   UNL     1      -8.599   0.753 -31.650  1.00  0.00     0.040 C 
BRANCH   5   7
HETATM    7  C   UNL     1      -6.756   1.844 -32.934  1.00  0.00     0.127 A 
HETATM    8  N   UNL     1      -5.839   2.074 -32.013  1.00  0.00    -0.231 NA
HETATM    9  C   UNL     1      -5.138   3.169 -32.456  1.00  0.00     0.085 A 
HETATM   10  C   UNL     1      -5.612   3.596 -33.691  1.00  0.00     0.062 A 
HETATM   11  C   UNL     1      -4.075   3.858 -31.855  1.00  0.00     0.034 A 
HETATM   12  N   UNL     1      -6.635   2.732 -33.977  1.00  0.00    -0.341 N 
HETATM   13  C   UNL     1      -5.075   4.682 -34.386  1.00  0.00     0.032 A 
HETATM   14  H   UNL     1      -7.203   2.740 -34.813  1.00  0.00     0.167 HD
HETATM   15  C   UNL     1      -4.014   5.357 -33.772  1.00  0.00     0.002 A 
HETATM   16  C   UNL     1      -3.522   4.957 -32.527  1.00  0.00     0.002 A 
ENDBRANCH   5   7
ENDBRANCH   1   5
BRANCH   2  17
HETATM   17  C   UNL     1      -6.064  -2.293 -34.372  1.00  0.00     0.084 A 
HETATM   18  C   UNL     1      -4.742  -2.501 -33.990  1.00  0.00     0.180 A 
HETATM   19  N   UNL     1      -4.145  -3.720 -34.021  1.00  0.00    -0.236 NA
HETATM   20  C   UNL     1      -4.882  -4.757 -34.475  1.00  0.00     0.119 A 
HETATM   21  C   UNL     1      -6.199  -4.642 -34.891  1.00  0.00     0.020 A 
HETATM   22  C   UNL     1      -6.800  -3.389 -34.838  1.00  0.00     0.023 A 
BRANCH  18  23
HETATM   23  O   UNL     1      -4.026  -1.444 -33.470  1.00  0.00    -0.328 OA
BRANCH  23  24
HETATM   24  C   UNL     1      -3.493  -1.700 -32.164  1.00  0.00     0.248 C 
BRANCH  24  25
HETATM   25  C   UNL     1      -2.984  -0.397 -31.574  1.00  0.00     0.377 C 
HETATM   26  F   UNL     1      -3.062   0.590 -32.505  1.00  0.00    -0.212 F 
HETATM   27  F   UNL     1      -3.778  -0.008 -30.542  1.00  0.00    -0.212 F 
ENDBRANCH  24  25
ENDBRANCH  23  24
ENDBRANCH  18  23
ENDBRANCH   2  17
TORSDOF 6
ENDMDL
MODEL 2
REMARK VINA RESULT:      -7.9      1.320      1.732
REMARK  6 active torsions:
REMARK  status: ('A' for Active; 'I' for Inactive)
REMARK    1  A    between atoms: C_2  and  N_3 
REMARK    2  A    between atoms: C_2  and  C_17 
REMARK       I    between atoms: N_3  and  C_4 
REMARK    3  A    between atoms: C_4  and  C_5 
REMARK    4  A    between atoms: C_6  and  O_7 
REMARK    5  A    between atoms: O_7  and  C_8 
REMARK    6  A    between atoms: C_8  and  C_9 
ROOT
HETATM    1  N   UNL     1      -7.694  -0.907 -33.452  1.00  0.00    -0.346 N 
HETATM    2  C   UNL     1      -6.834  -1.138 -34.501  1.00  0.00     0.256 C 
HETATM    3  O   UNL     1      -6.642  -0.328 -35.399  1.00  0.00    -0.267 OA
HETATM    4  H   UNL     1      -7.842  -1.596 -32.724  1.00  0.00     0.163 HD
ENDROOT
BRANCH   1   5
HETATM    5  C   UNL     1      -8.514   0.287 -33.393  1.00  0.00     0.150 C 
HETATM    6  C   UNL     1      -9.873  -0.016 -32.769  1.00  0.00     0.040 C 
BRANCH   5   7
HETATM    7  C   UNL     1      -7.756   1.297 -32.590  1.00  0.00     0.127 A 
HETATM    8  N   UNL     1      -7.921   1.590 -31.313  1.00  0.00    -0.231 NA
HETATM    9  C   UNL     1      -6.996   2.566 -31.036  1.00  0.00     0.085 A 
HETATM   10  C   UNL     1      -6.223   2.852 -32.156  1.00  0.00     0.062 A 
HETATM   11  C   UNL     1      -6.751   3.259 -29.842  1.00  0.00     0.034 A 
HETATM   12  N   UNL     1      -6.722   2.026 -33.129  1.00  0.00    -0.341 N 
HETATM   13  C   UNL     1      -5.194   3.796 -32.160  1.00  0.00     0.032 A 
HETATM   14  H   UNL     1      -6.386   1.958 -34.079  1.00  0.00     0.167 HD
HETATM   15  C   UNL     1      -4.964   4.476 -30.958  1.00  0.00     0.002 A 
HETATM   16  C   UNL     1      -5.729   4.218 -29.819  1.00  0.00     0.002 A 
ENDBRANCH   5   7
ENDBRANCH   1   5
BRANCH   2  17
HETATM   17  C   UNL     1      -6.154  -2.451 -34.497  1.00  0.00     0.084 A 
HETATM   18  C   UNL     1      -4.810  -2.568 -34.150  1.00  0.00     0.180 A 
HETATM   19  N   UNL     1      -4.145  -3.752 -34.150  1.00  0.00    -0.236 NA
HETATM   20  C   UNL     1      -4.836  -4.847 -34.535  1.00  0.00     0.119 A 
HETATM   21  C   UNL     1      -6.169  -4.825 -34.911  1.00  0.00     0.020 A 
HETATM   22  C   UNL     1      -6.839  -3.606 -34.892  1.00  0.00     0.023 A 
BRANCH  18  23
HETATM   23  O   UNL     1      -4.140  -1.451 -33.700  1.00  0.00    -0.328 OA
BRANCH  23  24
HETATM   24  C   UNL     1      -3.784  -1.517 -32.313  1.00  0.00     0.248 C 
BRANCH  24  25
HETATM   25  C   UNL     1      -4.466  -0.378 -31.574  1.00  0.00     0.377 C 
HETATM   26  F   UNL     1      -5.684  -0.785 -31.129  1.00  0.00    -0.212 F 
HETATM   27  F   UNL     1      -3.750  -0.043 -30.469  1.00  0.00    -0.212 F 
ENDBRANCH  24  25
ENDBRANCH  23  24
ENDBRANCH  18  23
ENDBRANCH   2  17
TORSDOF 6
ENDMDL
MODEL 3
REMARK VINA RESULT:      -7.8      2.246      4.144
REMARK  6 active torsions:
REMARK  status: ('A' for Active; 'I' for Inactive)
REMARK    1  A    between atoms: C_2  and  N_3 
REMARK    2  A    between atoms: C_2  and  C_17 
REMARK       I    between atoms: N_3  and  C_4 
REMARK    3  A    between atoms: C_4  and  C_5 
REMARK    4  A    between atoms: C_6  and  O_7 
REMARK    5  A    between atoms: O_7  and  C_8 
REMARK    6  A    between atoms: C_8  and  C_9 
ROOT
HETATM    1  N   UNL     1      -6.732  -0.231 -32.755  1.00  0.00    -0.346 N 
HETATM    2  C   UNL     1      -6.536  -0.640 -34.055  1.00  0.00     0.256 C 
HETATM    3  O   UNL     1      -6.740   0.084 -35.021  1.00  0.00    -0.267 OA
HETATM    4  H   UNL     1      -6.563  -0.852 -31.972  1.00  0.00     0.163 HD
ENDROOT
BRANCH   1   5
HETATM    5  C   UNL     1      -7.294   1.069 -32.446  1.00  0.00     0.150 C 
HETATM    6  C   UNL     1      -6.456   2.184 -33.063  1.00  0.00     0.040 C 
BRANCH   5   7
HETATM    7  C   UNL     1      -8.693   1.077 -32.980  1.00  0.00     0.127 A 
HETATM    8  N   UNL     1      -9.685   0.278 -32.635  1.00  0.00    -0.231 NA
HETATM    9  C   UNL     1     -10.760   0.678 -33.391  1.00  0.00     0.085 A 
HETATM   10  C   UNL     1     -10.430   1.768 -34.189  1.00  0.00     0.062 A 
HETATM   11  C   UNL     1     -12.061   0.157 -33.448  1.00  0.00     0.034 A 
HETATM   12  N   UNL     1      -9.111   2.007 -33.903  1.00  0.00    -0.341 N 
HETATM   13  C   UNL     1     -11.334   2.392 -35.050  1.00  0.00     0.032 A 
HETATM   14  H   UNL     1      -8.543   2.743 -34.297  1.00  0.00     0.167 HD
HETATM   15  C   UNL     1     -12.629   1.859 -35.093  1.00  0.00     0.002 A 
HETATM   16  C   UNL     1     -12.988   0.760 -34.310  1.00  0.00     0.002 A 
ENDBRANCH   5   7
ENDBRANCH   1   5
BRANCH   2  17
HETATM   17  C   UNL     1      -6.075  -2.034 -34.228  1.00  0.00     0.084 A 
HETATM   18  C   UNL     1      -4.741  -2.384 -34.030  1.00  0.00     0.180 A 
HETATM   19  N   UNL     1      -4.275  -3.648 -34.194  1.00  0.00    -0.236 NA
HETATM   20  C   UNL     1      -5.161  -4.586 -34.596  1.00  0.00     0.119 A 
HETATM   21  C   UNL     1      -6.501  -4.328 -34.831  1.00  0.00     0.020 A 
HETATM   22  C   UNL     1      -6.966  -3.030 -34.644  1.00  0.00     0.023 A 
BRANCH  18  23
HETATM   23  O   UNL     1      -3.866  -1.428 -33.560  1.00  0.00    -0.328 OA
BRANCH  23  24
HETATM   24  C   UNL     1      -3.457  -1.644 -32.204  1.00  0.00     0.248 C 
BRANCH  24  25
HETATM   25  C   UNL     1      -3.182  -0.301 -31.551  1.00  0.00     0.377 C 
HETATM   26  F   UNL     1      -3.460   0.700 -32.427  1.00  0.00    -0.212 F 
HETATM   27  F   UNL     1      -4.010  -0.117 -30.489  1.00  0.00    -0.212 F 
ENDBRANCH  24  25
ENDBRANCH  23  24
ENDBRANCH  18  23
ENDBRANCH   2  17
TORSDOF 6
ENDMDL
MODEL 4
REMARK VINA RESULT:      -7.5      3.340      7.032
REMARK  6 active torsions:
REMARK  status: ('A' for Active; 'I' for Inactive)
REMARK    1  A    between atoms: C_2  and  N_3 
REMARK    2  A    between atoms: C_2  and  C_17 
REMARK       I    between atoms: N_3  and  C_4 
REMARK    3  A    between atoms: C_4  and  C_5 
REMARK    4  A    between atoms: C_6  and  O_7 
REMARK    5  A    between atoms: O_7  and  C_8 
REMARK    6  A    between atoms: C_8  and  C_9 
ROOT
HETATM    1  N   UNL     1      -4.796   2.853 -32.126  1.00  0.00    -0.346 N 
HETATM    2  C   UNL     1      -3.438   3.061 -32.045  1.00  0.00     0.256 C 
HETATM    3  O   UNL     1      -2.699   2.381 -31.343  1.00  0.00    -0.267 OA
HETATM    4  H   UNL     1      -5.388   3.434 -32.708  1.00  0.00     0.163 HD
ENDROOT
BRANCH   1   5
HETATM    5  C   UNL     1      -5.463   1.866 -31.300  1.00  0.00     0.150 C 
HETATM    6  C   UNL     1      -6.802   2.394 -30.795  1.00  0.00     0.040 C 
BRANCH   5   7
HETATM    7  C   UNL     1      -5.641   0.642 -32.142  1.00  0.00     0.127 A 
HETATM    8  N   UNL     1      -6.763   0.194 -32.675  1.00  0.00    -0.231 NA
HETATM    9  C   UNL     1      -6.417  -0.946 -33.358  1.00  0.00     0.085 A 
HETATM   10  C   UNL     1      -5.049  -1.183 -33.272  1.00  0.00     0.062 A 
HETATM   11  C   UNL     1      -7.221  -1.838 -34.083  1.00  0.00     0.034 A 
HETATM   12  N   UNL     1      -4.578  -0.154 -32.500  1.00  0.00    -0.341 N 
HETATM   13  C   UNL     1      -4.417  -2.266 -33.884  1.00  0.00     0.032 A 
HETATM   14  H   UNL     1      -3.614  -0.000 -32.241  1.00  0.00     0.167 HD
HETATM   15  C   UNL     1      -5.235  -3.145 -34.605  1.00  0.00     0.002 A 
HETATM   16  C   UNL     1      -6.613  -2.939 -34.702  1.00  0.00     0.002 A 
ENDBRANCH   5   7
ENDBRANCH   1   5
BRANCH   2  17
HETATM   17  C   UNL     1      -2.909   4.182 -32.851  1.00  0.00     0.084 A 
HETATM   18  C   UNL     1      -1.783   4.895 -32.446  1.00  0.00     0.180 A 
HETATM   19  N   UNL     1      -1.276   5.940 -33.148  1.00  0.00    -0.236 NA
HETATM   20  C   UNL     1      -1.930   6.303 -34.274  1.00  0.00     0.119 A 
HETATM   21  C   UNL     1      -3.066   5.664 -34.745  1.00  0.00     0.020 A 
HETATM   22  C   UNL     1      -3.563   4.585 -34.021  1.00  0.00     0.023 A 
BRANCH  18  23
HETATM   23  O   UNL     1      -1.094   4.471 -31.331  1.00  0.00    -0.328 OA
BRANCH  23  24
HETATM   24  C   UNL     1      -0.793   5.526 -30.408  1.00  0.00     0.248 C 
BRANCH  24  25
HETATM   25  C   UNL     1       0.705   5.777 -30.415  1.00  0.00     0.377 C 
HETATM   26  F   UNL     1       1.332   4.788 -31.104  1.00  0.00    -0.212 F 
HETATM   27  F   UNL     1       0.983   6.933 -31.073  1.00  0.00    -0.212 F 
ENDBRANCH  24  25
ENDBRANCH  23  24
ENDBRANCH  18  23
ENDBRANCH   2  17
TORSDOF 6
ENDMDL
MODEL 5
REMARK VINA RESULT:      -7.4      2.880      6.982
REMARK  6 active torsions:
REMARK  status: ('A' for Active; 'I' for Inactive)
REMARK    1  A    between atoms: C_2  and  N_3 
REMARK    2  A    between atoms: C_2  and  C_17 
REMARK       I    between atoms: N_3  and  C_4 
REMARK    3  A    between atoms: C_4  and  C_5 
REMARK    4  A    between atoms: C_6  and  O_7 
REMARK    5  A    between atoms: O_7  and  C_8 
REMARK    6  A    between atoms: C_8  and  C_9 
ROOT
HETATM    1  N   UNL     1      -5.524   1.217 -31.901  1.00  0.00    -0.346 N 
HETATM    2  C   UNL     1      -6.101   2.344 -32.442  1.00  0.00     0.256 C 
HETATM    3  O   UNL     1      -5.691   2.879 -33.465  1.00  0.00    -0.267 OA
HETATM    4  H   UNL     1      -5.877   0.797 -31.049  1.00  0.00     0.163 HD
ENDROOT
BRANCH   1   5
HETATM    5  C   UNL     1      -4.319   0.639 -32.461  1.00  0.00     0.150 C 
HETATM    6  C   UNL     1      -3.254   0.451 -31.384  1.00  0.00     0.040 C 
BRANCH   5   7
HETATM    7  C   UNL     1      -4.708  -0.668 -33.078  1.00  0.00     0.127 A 
HETATM    8  N   UNL     1      -5.842  -0.956 -33.691  1.00  0.00    -0.231 NA
HETATM    9  C   UNL     1      -5.724  -2.266 -34.086  1.00  0.00     0.085 A 
HETATM   10  C   UNL     1      -4.479  -2.781 -33.741  1.00  0.00     0.062 A 
HETATM   11  C   UNL     1      -6.643  -3.090 -34.752  1.00  0.00     0.034 A 
HETATM   12  N   UNL     1      -3.849  -1.741 -33.108  1.00  0.00    -0.341 N 
HETATM   13  C   UNL     1      -4.079  -4.086 -34.033  1.00  0.00     0.032 A 
HETATM   14  H   UNL     1      -2.912  -1.756 -32.732  1.00  0.00     0.167 HD
HETATM   15  C   UNL     1      -5.009  -4.893 -34.699  1.00  0.00     0.002 A 
HETATM   16  C   UNL     1      -6.271  -4.408 -35.050  1.00  0.00     0.002 A 
ENDBRANCH   5   7
ENDBRANCH   1   5
BRANCH   2  17
HETATM   17  C   UNL     1      -7.252   2.898 -31.697  1.00  0.00     0.084 A 
HETATM   18  C   UNL     1      -8.393   2.137 -31.460  1.00  0.00     0.180 A 
HETATM   19  N   UNL     1      -9.477   2.614 -30.796  1.00  0.00    -0.236 NA
HETATM   20  C   UNL     1      -9.430   3.898 -30.380  1.00  0.00     0.119 A 
HETATM   21  C   UNL     1      -8.345   4.735 -30.584  1.00  0.00     0.020 A 
HETATM   22  C   UNL     1      -7.237   4.226 -31.254  1.00  0.00     0.023 A 
BRANCH  18  23
HETATM   23  O   UNL     1      -8.398   0.811 -31.836  1.00  0.00    -0.328 OA
BRANCH  23  24
HETATM   24  C   UNL     1      -9.491   0.463 -32.695  1.00  0.00     0.248 C 
BRANCH  24  25
HETATM   25  C   UNL     1      -9.240   1.046 -34.075  1.00  0.00     0.377 C 
HETATM   26  F   UNL     1      -8.695   0.098 -34.881  1.00  0.00    -0.212 F 
HETATM   27  F   UNL     1     -10.416   1.406 -34.652  1.00  0.00    -0.212 F 
ENDBRANCH  24  25
ENDBRANCH  23  24
ENDBRANCH  18  23
ENDBRANCH   2  17
TORSDOF 6
ENDMDL
MODEL 6
REMARK VINA RESULT:      -7.3      2.443      4.632
REMARK  6 active torsions:
REMARK  status: ('A' for Active; 'I' for Inactive)
REMARK    1  A    between atoms: C_2  and  N_3 
REMARK    2  A    between atoms: C_2  and  C_17 
REMARK       I    between atoms: N_3  and  C_4 
REMARK    3  A    between atoms: C_4  and  C_5 
REMARK    4  A    between atoms: C_6  and  O_7 
REMARK    5  A    between atoms: O_7  and  C_8 
REMARK    6  A    between atoms: C_8  and  C_9 
ROOT
HETATM    1  N   UNL     1      -5.188   1.727 -31.674  1.00  0.00    -0.346 N 
HETATM    2  C   UNL     1      -6.309   1.400 -30.945  1.00  0.00     0.256 C 
HETATM    3  O   UNL     1      -6.308   1.305 -29.724  1.00  0.00    -0.267 OA
HETATM    4  H   UNL     1      -5.213   1.794 -32.685  1.00  0.00     0.163 HD
ENDROOT
BRANCH   1   5
HETATM    5  C   UNL     1      -3.893   1.886 -31.042  1.00  0.00     0.150 C 
HETATM    6  C   UNL     1      -3.096   0.587 -31.101  1.00  0.00     0.040 C 
BRANCH   5   7
HETATM    7  C   UNL     1      -3.189   2.992 -31.764  1.00  0.00     0.127 A 
HETATM    8  N   UNL     1      -3.129   3.184 -33.069  1.00  0.00    -0.231 NA
HETATM    9  C   UNL     1      -2.381   4.323 -33.240  1.00  0.00     0.085 A 
HETATM   10  C   UNL     1      -2.005   4.861 -32.014  1.00  0.00     0.062 A 
HETATM   11  C   UNL     1      -1.980   4.966 -34.420  1.00  0.00     0.034 A 
HETATM   12  N   UNL     1      -2.539   4.000 -31.091  1.00  0.00    -0.341 N 
HETATM   13  C   UNL     1      -1.250   6.028 -31.886  1.00  0.00     0.032 A 
HETATM   14  H   UNL     1      -2.472   4.091 -30.088  1.00  0.00     0.167 HD
HETATM   15  C   UNL     1      -0.861   6.657 -33.075  1.00  0.00     0.002 A 
HETATM   16  C   UNL     1      -1.214   6.136 -34.321  1.00  0.00     0.002 A 
ENDBRANCH   5   7
ENDBRANCH   1   5
BRANCH   2  17
HETATM   17  C   UNL     1      -7.536   1.146 -31.731  1.00  0.00     0.084 A 
HETATM   18  C   UNL     1      -7.625   0.062 -32.600  1.00  0.00     0.180 A 
HETATM   19  N   UNL     1      -8.727  -0.197 -33.350  1.00  0.00    -0.236 NA
HETATM   20  C   UNL     1      -9.758   0.670 -33.251  1.00  0.00     0.119 A 
HETATM   21  C   UNL     1      -9.753   1.783 -32.426  1.00  0.00     0.020 A 
HETATM   22  C   UNL     1      -8.622   2.025 -31.653  1.00  0.00     0.023 A 
BRANCH  18  23
HETATM   23  O   UNL     1      -6.589  -0.845 -32.640  1.00  0.00    -0.328 OA
BRANCH  23  24
HETATM   24  C   UNL     1      -6.045  -1.036 -33.953  1.00  0.00     0.248 C 
BRANCH  24  25
HETATM   25  C   UNL     1      -4.735  -1.795 -33.839  1.00  0.00     0.377 C 
HETATM   26  F   UNL     1      -4.607  -2.648 -34.890  1.00  0.00    -0.212 F 
HETATM   27  F   UNL     1      -3.686  -0.935 -33.918  1.00  0.00    -0.212 F 
ENDBRANCH  24  25
ENDBRANCH  23  24
ENDBRANCH  18  23
ENDBRANCH   2  17
TORSDOF 6
ENDMDL
MODEL 7
REMARK VINA RESULT:      -7.2      3.688      5.214
REMARK  6 active torsions:
REMARK  status: ('A' for Active; 'I' for Inactive)
REMARK    1  A    between atoms: C_2  and  N_3 
REMARK    2  A    between atoms: C_2  and  C_17 
REMARK       I    between atoms: N_3  and  C_4 
REMARK    3  A    between atoms: C_4  and  C_5 
REMARK    4  A    between atoms: C_6  and  O_7 
REMARK    5  A    between atoms: O_7  and  C_8 
REMARK    6  A    between atoms: C_8  and  C_9 
ROOT
HETATM    1  N   UNL     1      -5.216   1.682 -31.948  1.00  0.00    -0.346 N 
HETATM    2  C   UNL     1      -6.448   1.790 -31.344  1.00  0.00     0.256 C 
HETATM    3  O   UNL     1      -6.592   2.110 -30.171  1.00  0.00    -0.267 OA
HETATM    4  H   UNL     1      -5.123   1.409 -32.919  1.00  0.00     0.163 HD
ENDROOT
BRANCH   1   5
HETATM    5  C   UNL     1      -3.987   1.848 -31.197  1.00  0.00     0.150 C 
HETATM    6  C   UNL     1      -3.160   0.566 -31.219  1.00  0.00     0.040 C 
BRANCH   5   7
HETATM    7  C   UNL     1      -3.245   2.988 -31.821  1.00  0.00     0.127 A 
HETATM    8  N   UNL     1      -3.077   3.222 -33.110  1.00  0.00    -0.231 NA
HETATM    9  C   UNL     1      -2.339   4.379 -33.180  1.00  0.00     0.085 A 
HETATM   10  C   UNL     1      -2.080   4.883 -31.910  1.00  0.00     0.062 A 
HETATM   11  C   UNL     1      -1.850   5.065 -34.301  1.00  0.00     0.034 A 
HETATM   12  N   UNL     1      -2.675   3.984 -31.064  1.00  0.00    -0.341 N 
HETATM   13  C   UNL     1      -1.362   6.058 -31.681  1.00  0.00     0.032 A 
HETATM   14  H   UNL     1      -2.696   4.043 -30.056  1.00  0.00     0.167 HD
HETATM   15  C   UNL     1      -0.884   6.731 -32.812  1.00  0.00     0.002 A 
HETATM   16  C   UNL     1      -1.119   6.244 -34.100  1.00  0.00     0.002 A 
ENDBRANCH   5   7
ENDBRANCH   1   5
BRANCH   2  17
HETATM   17  C   UNL     1      -7.613   1.475 -32.199  1.00  0.00     0.084 A 
HETATM   18  C   UNL     1      -7.847   2.166 -33.385  1.00  0.00     0.180 A 
HETATM   19  N   UNL     1      -8.913   1.918 -34.189  1.00  0.00    -0.236 NA
HETATM   20  C   UNL     1      -9.786   0.971 -33.781  1.00  0.00     0.119 A 
HETATM   21  C   UNL     1      -9.643   0.244 -32.611  1.00  0.00     0.020 A 
HETATM   22  C   UNL     1      -8.538   0.501 -31.806  1.00  0.00     0.023 A 
BRANCH  18  23
HETATM   23  O   UNL     1      -6.913   3.083 -33.815  1.00  0.00    -0.328 OA
BRANCH  23  24
HETATM   24  C   UNL     1      -7.398   4.432 -33.826  1.00  0.00     0.248 C 
BRANCH  24  25
HETATM   25  C   UNL     1      -6.259   5.369 -33.464  1.00  0.00     0.377 C 
HETATM   26  F   UNL     1      -5.720   4.998 -32.273  1.00  0.00    -0.212 F 
HETATM   27  F   UNL     1      -5.261   5.270 -34.381  1.00  0.00    -0.212 F 
ENDBRANCH  24  25
ENDBRANCH  23  24
ENDBRANCH  18  23
ENDBRANCH   2  17
TORSDOF 6
ENDMDL
MODEL 8
REMARK VINA RESULT:      -7.1      3.753      7.281
REMARK  6 active torsions:
REMARK  status: ('A' for Active; 'I' for Inactive)
REMARK    1  A    between atoms: C_2  and  N_3 
REMARK    2  A    between atoms: C_2  and  C_17 
REMARK       I    between atoms: N_3  and  C_4 
REMARK    3  A    between atoms: C_4  and  C_5 
REMARK    4  A    between atoms: C_6  and  O_7 
REMARK    5  A    between atoms: O_7  and  C_8 
REMARK    6  A    between atoms: C_8  and  C_9 
ROOT
HETATM    1  N   UNL     1      -4.343   3.934 -31.587  1.00  0.00    -0.346 N 
HETATM    2  C   UNL     1      -2.978   3.807 -31.709  1.00  0.00     0.256 C 
HETATM    3  O   UNL     1      -2.353   2.853 -31.263  1.00  0.00    -0.267 OA
HETATM    4  H   UNL     1      -4.837   4.737 -31.959  1.00  0.00     0.163 HD
ENDROOT
BRANCH   1   5
HETATM    5  C   UNL     1      -5.128   2.981 -30.827  1.00  0.00     0.150 C 
HETATM    6  C   UNL     1      -6.284   3.675 -30.113  1.00  0.00     0.040 C 
BRANCH   5   7
HETATM    7  C   UNL     1      -5.623   1.953 -31.796  1.00  0.00     0.127 A 
HETATM    8  N   UNL     1      -5.458   0.645 -31.728  1.00  0.00    -0.231 NA
HETATM    9  C   UNL     1      -6.093   0.135 -32.834  1.00  0.00     0.085 A 
HETATM   10  C   UNL     1      -6.692   1.148 -33.576  1.00  0.00     0.062 A 
HETATM   11  C   UNL     1      -6.205  -1.192 -33.273  1.00  0.00     0.034 A 
HETATM   12  N   UNL     1      -6.385   2.294 -32.890  1.00  0.00    -0.341 N 
HETATM   13  C   UNL     1      -7.419   0.917 -34.744  1.00  0.00     0.032 A 
HETATM   14  H   UNL     1      -6.672   3.229 -33.140  1.00  0.00     0.167 HD
HETATM   15  C   UNL     1      -7.522  -0.414 -35.167  1.00  0.00     0.002 A 
HETATM   16  C   UNL     1      -6.924  -1.452 -34.448  1.00  0.00     0.002 A 
ENDBRANCH   5   7
ENDBRANCH   1   5
BRANCH   2  17
HETATM   17  C   UNL     1      -2.289   4.916 -32.404  1.00  0.00     0.084 A 
HETATM   18  C   UNL     1      -2.010   6.114 -31.752  1.00  0.00     0.180 A 
HETATM   19  N   UNL     1      -1.393   7.161 -32.359  1.00  0.00    -0.236 NA
HETATM   20  C   UNL     1      -1.073   7.017 -33.663  1.00  0.00     0.119 A 
HETATM   21  C   UNL     1      -1.325   5.868 -34.396  1.00  0.00     0.020 A 
HETATM   22  C   UNL     1      -1.944   4.800 -33.755  1.00  0.00     0.023 A 
BRANCH  18  23
HETATM   23  O   UNL     1      -2.287   6.220 -30.407  1.00  0.00    -0.328 OA
BRANCH  23  24
HETATM   24  C   UNL     1      -1.429   7.137 -29.715  1.00  0.00     0.248 C 
BRANCH  24  25
HETATM   25  C   UNL     1      -0.353   6.352 -28.986  1.00  0.00     0.377 C 
HETATM   26  F   UNL     1      -0.205   5.131 -29.563  1.00  0.00    -0.212 F 
HETATM   27  F   UNL     1       0.847   6.978 -29.108  1.00  0.00    -0.212 F 
ENDBRANCH  24  25
ENDBRANCH  23  24
ENDBRANCH  18  23
ENDBRANCH   2  17
TORSDOF 6
ENDMDL
MODEL 9
REMARK VINA RESULT:      -7.1     14.625     15.875
REMARK  6 active torsions:
REMARK  status: ('A' for Active; 'I' for Inactive)
REMARK    1  A    between atoms: C_2  and  N_3 
REMARK    2  A    between atoms: C_2  and  C_17 
REMARK       I    between atoms: N_3  and  C_4 
REMARK    3  A    between atoms: C_4  and  C_5 
REMARK    4  A    between atoms: C_6  and  O_7 
REMARK    5  A    between atoms: O_7  and  C_8 
REMARK    6  A    between atoms: C_8  and  C_9 
ROOT
HETATM    1  N   UNL     1      -4.404 -13.779 -39.730  1.00  0.00    -0.346 N 
HETATM    2  C   UNL     1      -3.902 -13.009 -38.706  1.00  0.00     0.256 C 
HETATM    3  O   UNL     1      -3.969 -11.786 -38.693  1.00  0.00    -0.267 OA
HETATM    4  H   UNL     1      -4.330 -14.789 -39.721  1.00  0.00     0.163 HD
ENDROOT
BRANCH   1   5
HETATM    5  C   UNL     1      -4.967 -13.179 -40.923  1.00  0.00     0.150 C 
HETATM    6  C   UNL     1      -4.488 -13.906 -42.176  1.00  0.00     0.040 C 
BRANCH   5   7
HETATM    7  C   UNL     1      -6.456 -13.249 -40.787  1.00  0.00     0.127 A 
HETATM    8  N   UNL     1      -7.209 -14.334 -40.796  1.00  0.00    -0.231 NA
HETATM    9  C   UNL     1      -8.498 -13.889 -40.633  1.00  0.00     0.085 A 
HETATM   10  C   UNL     1      -8.533 -12.507 -40.484  1.00  0.00     0.062 A 
HETATM   11  C   UNL     1      -9.700 -14.611 -40.599  1.00  0.00     0.034 A 
HETATM   12  N   UNL     1      -7.220 -12.125 -40.577  1.00  0.00    -0.341 N 
HETATM   13  C   UNL     1      -9.711 -11.785 -40.288  1.00  0.00     0.032 A 
HETATM   14  H   UNL     1      -6.870 -11.181 -40.501  1.00  0.00     0.167 HD
HETATM   15  C   UNL     1     -10.901 -12.522 -40.255  1.00  0.00     0.002 A 
HETATM   16  C   UNL     1     -10.899 -13.910 -40.411  1.00  0.00     0.002 A 
ENDBRANCH   5   7
ENDBRANCH   1   5
BRANCH   2  17
HETATM   17  C   UNL     1      -3.245 -13.750 -37.607  1.00  0.00     0.084 A 
HETATM   18  C   UNL     1      -3.973 -14.582 -36.761  1.00  0.00     0.180 A 
HETATM   19  N   UNL     1      -3.411 -15.266 -35.731  1.00  0.00    -0.236 NA
HETATM   20  C   UNL     1      -2.087 -15.092 -35.524  1.00  0.00     0.119 A 
HETATM   21  C   UNL     1      -1.287 -14.273 -36.304  1.00  0.00     0.020 A 
HETATM   22  C   UNL     1      -1.876 -13.591 -37.364  1.00  0.00     0.023 A 
BRANCH  18  23
HETATM   23  O   UNL     1      -5.308 -14.797 -37.026  1.00  0.00    -0.328 OA
BRANCH  23  24
HETATM   24  C   UNL     1      -6.181 -14.314 -35.997  1.00  0.00     0.248 C 
BRANCH  24  25
HETATM   25  C   UNL     1      -7.373 -13.629 -36.642  1.00  0.00     0.377 C 
HETATM   26  F   UNL     1      -6.941 -12.708 -37.543  1.00  0.00    -0.212 F 
HETATM   27  F   UNL     1      -8.110 -14.530 -37.343  1.00  0.00    -0.212 F 
ENDBRANCH  24  25
ENDBRANCH  23  24
ENDBRANCH  18  23
ENDBRANCH   2  17
TORSDOF 6
ENDMDL
MODEL 10
REMARK VINA RESULT:      -7.0      3.419      7.242
REMARK  6 active torsions:
REMARK  status: ('A' for Active; 'I' for Inactive)
REMARK    1  A    between atoms: C_2  and  N_3 
REMARK    2  A    between atoms: C_2  and  C_17 
REMARK       I    between atoms: N_3  and  C_4 
REMARK    3  A    between atoms: C_4  and  C_5 
REMARK    4  A    between atoms: C_6  and  O_7 
REMARK    5  A    between atoms: O_7  and  C_8 
REMARK    6  A    between atoms: C_8  and  C_9 
ROOT
HETATM    1  N   UNL     1      -4.608   3.144 -31.963  1.00  0.00    -0.346 N 
HETATM    2  C   UNL     1      -3.265   3.432 -31.884  1.00  0.00     0.256 C 
HETATM    3  O   UNL     1      -2.480   2.779 -31.208  1.00  0.00    -0.267 OA
HETATM    4  H   UNL     1      -5.239   3.703 -32.524  1.00  0.00     0.163 HD
ENDROOT
BRANCH   1   5
HETATM    5  C   UNL     1      -5.206   2.093 -31.163  1.00  0.00     0.150 C 
HETATM    6  C   UNL     1      -6.565   2.528 -30.621  1.00  0.00     0.040 C 
BRANCH   5   7
HETATM    7  C   UNL     1      -5.330   0.890 -32.045  1.00  0.00     0.127 A 
HETATM    8  N   UNL     1      -4.362   0.078 -32.430  1.00  0.00    -0.231 NA
HETATM    9  C   UNL     1      -4.968  -0.869 -33.218  1.00  0.00     0.085 A 
HETATM   10  C   UNL     1      -6.340  -0.655 -33.288  1.00  0.00     0.062 A 
HETATM   11  C   UNL     1      -4.408  -1.952 -33.911  1.00  0.00     0.034 A 
HETATM   12  N   UNL     1      -6.546   0.465 -32.527  1.00  0.00    -0.341 N 
HETATM   13  C   UNL     1      -7.210  -1.475 -34.010  1.00  0.00     0.032 A 
HETATM   14  H   UNL     1      -7.437   0.903 -32.344  1.00  0.00     0.167 HD
HETATM   15  C   UNL     1      -6.633  -2.553 -34.693  1.00  0.00     0.002 A 
HETATM   16  C   UNL     1      -5.257  -2.788 -34.650  1.00  0.00     0.002 A 
ENDBRANCH   5   7
ENDBRANCH   1   5
BRANCH   2  17
HETATM   17  C   UNL     1      -2.813   4.608 -32.659  1.00  0.00     0.084 A 
HETATM   18  C   UNL     1      -3.143   5.902 -32.267  1.00  0.00     0.180 A 
HETATM   19  N   UNL     1      -2.762   7.006 -32.959  1.00  0.00    -0.236 NA
HETATM   20  C   UNL     1      -2.053   6.809 -34.093  1.00  0.00     0.119 A 
HETATM   21  C   UNL     1      -1.692   5.559 -34.568  1.00  0.00     0.020 A 
HETATM   22  C   UNL     1      -2.078   4.440 -33.838  1.00  0.00     0.023 A 
BRANCH  18  23
HETATM   23  O   UNL     1      -3.812   6.086 -31.076  1.00  0.00    -0.328 OA
BRANCH  23  24
HETATM   24  C   UNL     1      -4.871   7.048 -31.156  1.00  0.00     0.248 C 
BRANCH  24  25
HETATM   25  C   UNL     1      -6.060   6.417 -31.861  1.00  0.00     0.377 C 
HETATM   26  F   UNL     1      -6.913   5.894 -30.941  1.00  0.00    -0.212 F 
HETATM   27  F   UNL     1      -6.762   7.364 -32.535  1.00  0.00    -0.212 F 
ENDBRANCH  24  25
ENDBRANCH  23  24
ENDBRANCH  18  23
ENDBRANCH   2  17
TORSDOF 6
ENDMDL
