MODEL 1
REMARK VINA RESULT:      -8.0      0.000      0.000
REMARK  11 active torsions:
REMARK  status: ('A' for Active; 'I' for Inactive)
REMARK    1  A    between atoms: C_2  and  C_3 
REMARK    2  A    between atoms: C_3  and  C_4 
REMARK    3  A    between atoms: C_4  and  O_5 
REMARK    4  A    between atoms: O_5  and  C_6 
REMARK    5  A    between atoms: C_9  and  C_10 
REMARK       I    between atoms: C_10  and  N_11 
REMARK    6  A    between atoms: N_11  and  C_12 
REMARK    7  A    between atoms: C_12  and  C_13 
REMARK       I    between atoms: C_13  and  N_14 
REMARK    8  A    between atoms: N_14  and  N_15 
REMARK    9  A    between atoms: C_16  and  C_17 
REMARK   10  A    between atoms: C_18  and  O_19 
REMARK   11  A    between atoms: C_21  and  O_22 
ROOT
HETATM    1  C   UNL     1      -2.697   4.465 -32.801  1.00  0.00     0.227 C 
ENDROOT
BRANCH   1   2
HETATM    2  N   UNL     1      -2.841   3.013 -32.871  1.00  0.00    -0.348 N 
HETATM    3  C   UNL     1      -3.595   2.318 -31.954  1.00  0.00     0.252 C 
HETATM    4  O   UNL     1      -4.067   2.860 -30.959  1.00  0.00    -0.268 OA
HETATM    5  H   UNL     1      -2.566   2.569 -33.737  1.00  0.00     0.163 HD
BRANCH   3   6
HETATM    6  C   UNL     1      -3.788   0.861 -32.183  1.00  0.00     0.032 A 
HETATM    7  C   UNL     1      -4.763   0.362 -33.056  1.00  0.00     0.020 A 
HETATM    8  C   UNL     1      -4.848  -1.014 -33.299  1.00  0.00     0.038 A 
HETATM    9  C   UNL     1      -3.951  -1.892 -32.688  1.00  0.00     0.068 A 
HETATM   10  C   UNL     1      -3.007  -1.398 -31.788  1.00  0.00     0.038 A 
HETATM   11  C   UNL     1      -2.915  -0.026 -31.543  1.00  0.00     0.020 A 
BRANCH   9  12
HETATM   12  O   UNL     1      -3.911  -3.243 -32.892  1.00  0.00    -0.351 OA
BRANCH  12  13
HETATM   13  C   UNL     1      -3.978  -3.669 -34.254  1.00  0.00     0.175 C 
BRANCH  13  14
HETATM   14  C   UNL     1      -4.766  -4.976 -34.328  1.00  0.00     0.026 C 
BRANCH  14  15
HETATM   15  C   UNL     1      -6.021  -4.863 -35.193  1.00  0.00    -0.002 C 
HETATM   16  C   UNL     1      -6.897  -3.705 -34.738  1.00  0.00     0.005 C 
ENDBRANCH  14  15
ENDBRANCH  13  14
ENDBRANCH  12  13
ENDBRANCH   9  12
ENDBRANCH   3   6
ENDBRANCH   1   2
BRANCH   1  17
HETATM   17  C   UNL     1      -1.489   4.951 -31.990  1.00  0.00     0.255 C 
HETATM   18  N   UNL     1      -1.685   4.902 -30.619  1.00  0.00    -0.246 N 
HETATM   19  H   UNL     1      -2.592   4.594 -30.258  1.00  0.00     0.192 HD
HETATM   20  O   UNL     1      -0.499   5.432 -32.541  1.00  0.00    -0.270 OA
BRANCH  18  21
HETATM   21  N   UNL     1      -0.727   5.359 -29.769  1.00  0.00    -0.184 NA
HETATM   22  C   UNL     1      -0.983   6.503 -29.217  1.00  0.00     0.153 C 
BRANCH  22  23
HETATM   23  C   UNL     1      -0.020   7.124 -28.286  1.00  0.00     0.016 A 
HETATM   24  C   UNL     1       0.130   6.681 -26.965  1.00  0.00     0.080 A 
HETATM   25  C   UNL     1       1.058   7.285 -26.118  1.00  0.00     0.074 A 
HETATM   26  C   UNL     1       1.831   8.337 -26.599  1.00  0.00     0.068 A 
HETATM   27  C   UNL     1       1.690   8.792 -27.907  1.00  0.00     0.037 A 
HETATM   28  C   UNL     1       0.763   8.184 -28.757  1.00  0.00     0.018 A 
BRANCH  24  29
HETATM   29  O   UNL     1      -0.599   5.653 -26.429  1.00  0.00    -0.360 OA
HETATM   30  H   UNL     1      -1.481   5.636 -26.870  1.00  0.00     0.217 HD
ENDBRANCH  24  29
BRANCH  26  31
HETATM   31  O   UNL     1       2.752   8.959 -25.808  1.00  0.00    -0.361 OA
HETATM   32  H   UNL     1       3.630   8.847 -26.213  1.00  0.00     0.217 HD
ENDBRANCH  26  31
ENDBRANCH  22  23
ENDBRANCH  18  21
ENDBRANCH   1  17
TORSDOF 11
ENDMDL
MODEL 2
REMARK VINA RESULT:      -7.7      2.294      3.028
REMARK  11 active torsions:
REMARK  status: ('A' for Active; 'I' for Inactive)
REMARK    1  A    between atoms: C_2  and  C_3 
REMARK    2  A    between atoms: C_3  and  C_4 
REMARK    3  A    between atoms: C_4  and  O_5 
REMARK    4  A    between atoms: O_5  and  C_6 
REMARK    5  A    between atoms: C_9  and  C_10 
REMARK       I    between atoms: C_10  and  N_11 
REMARK    6  A    between atoms: N_11  and  C_12 
REMARK    7  A    between atoms: C_12  and  C_13 
REMARK       I    between atoms: C_13  and  N_14 
REMARK    8  A    between atoms: N_14  and  N_15 
REMARK    9  A    between atoms: C_16  and  C_17 
REMARK   10  A    between atoms: C_18  and  O_19 
REMARK   11  A    between atoms: C_21  and  O_22 
ROOT
HETATM    1  C   UNL     1      -5.998   5.009 -33.851  1.00  0.00     0.227 C 
ENDROOT
BRANCH   1   2
HETATM    2  N   UNL     1      -6.123   3.590 -34.171  1.00  0.00    -0.348 N 
HETATM    3  C   UNL     1      -6.256   2.637 -33.186  1.00  0.00     0.252 C 
HETATM    4  O   UNL     1      -6.137   2.915 -31.996  1.00  0.00    -0.268 OA
HETATM    5  H   UNL     1      -6.342   3.356 -35.130  1.00  0.00     0.163 HD
BRANCH   3   6
HETATM    6  C   UNL     1      -6.507   1.235 -33.612  1.00  0.00     0.032 A 
HETATM    7  C   UNL     1      -7.134   0.921 -34.824  1.00  0.00     0.020 A 
HETATM    8  C   UNL     1      -7.272  -0.416 -35.217  1.00  0.00     0.038 A 
HETATM    9  C   UNL     1      -6.769  -1.439 -34.412  1.00  0.00     0.068 A 
HETATM   10  C   UNL     1      -6.181  -1.127 -33.187  1.00  0.00     0.038 A 
HETATM   11  C   UNL     1      -6.038   0.204 -32.791  1.00  0.00     0.020 A 
BRANCH   9  12
HETATM   12  O   UNL     1      -6.803  -2.771 -34.720  1.00  0.00    -0.351 OA
BRANCH  12  13
HETATM   13  C   UNL     1      -5.562  -3.346 -35.133  1.00  0.00     0.175 C 
BRANCH  13  14
HETATM   14  C   UNL     1      -5.481  -4.780 -34.612  1.00  0.00     0.026 C 
BRANCH  14  15
HETATM   15  C   UNL     1      -4.145  -5.089 -33.936  1.00  0.00    -0.002 C 
HETATM   16  C   UNL     1      -3.591  -3.860 -33.230  1.00  0.00     0.005 C 
ENDBRANCH  14  15
ENDBRANCH  13  14
ENDBRANCH  12  13
ENDBRANCH   9  12
ENDBRANCH   3   6
ENDBRANCH   1   2
BRANCH   1  17
HETATM   17  C   UNL     1      -4.573   5.468 -33.516  1.00  0.00     0.255 C 
HETATM   18  N   UNL     1      -4.278   5.420 -32.163  1.00  0.00    -0.246 N 
HETATM   19  H   UNL     1      -5.008   5.130 -31.506  1.00  0.00     0.192 HD
HETATM   20  O   UNL     1      -3.828   5.930 -34.381  1.00  0.00    -0.270 OA
BRANCH  18  21
HETATM   21  N   UNL     1      -3.074   5.854 -31.704  1.00  0.00    -0.184 NA
HETATM   22  C   UNL     1      -3.068   6.254 -30.471  1.00  0.00     0.153 C 
BRANCH  22  23
HETATM   23  C   UNL     1      -1.831   6.767 -29.850  1.00  0.00     0.016 A 
HETATM   24  C   UNL     1      -0.651   6.013 -29.807  1.00  0.00     0.080 A 
HETATM   25  C   UNL     1       0.501   6.537 -29.222  1.00  0.00     0.074 A 
HETATM   26  C   UNL     1       0.463   7.815 -28.675  1.00  0.00     0.068 A 
HETATM   27  C   UNL     1      -0.703   8.574 -28.703  1.00  0.00     0.037 A 
HETATM   28  C   UNL     1      -1.856   8.051 -29.294  1.00  0.00     0.018 A 
BRANCH  24  29
HETATM   29  O   UNL     1      -0.546   4.750 -30.326  1.00  0.00    -0.360 OA
HETATM   30  H   UNL     1       0.411   4.529 -30.412  1.00  0.00     0.217 HD
ENDBRANCH  24  29
BRANCH  26  31
HETATM   31  O   UNL     1       1.564   8.369 -28.091  1.00  0.00    -0.361 OA
HETATM   32  H   UNL     1       1.324   8.657 -27.193  1.00  0.00     0.217 HD
ENDBRANCH  26  31
ENDBRANCH  22  23
ENDBRANCH  18  21
ENDBRANCH   1  17
TORSDOF 11
ENDMDL
MODEL 3
REMARK VINA RESULT:      -7.6      2.681     10.891
REMARK  11 active torsions:
REMARK  status: ('A' for Active; 'I' for Inactive)
REMARK    1  A    between atoms: C_2  and  C_3 
REMARK    2  A    between atoms: C_3  and  C_4 
REMARK    3  A    between atoms: C_4  and  O_5 
REMARK    4  A    between atoms: O_5  and  C_6 
REMARK    5  A    between atoms: C_9  and  C_10 
REMARK       I    between atoms: C_10  and  N_11 
REMARK    6  A    between atoms: N_11  and  C_12 
REMARK    7  A    between atoms: C_12  and  C_13 
REMARK       I    between atoms: C_13  and  N_14 
REMARK    8  A    between atoms: N_14  and  N_15 
REMARK    9  A    between atoms: C_16  and  C_17 
REMARK   10  A    between atoms: C_18  and  O_19 
REMARK   11  A    between atoms: C_21  and  O_22 
ROOT
HETATM    1  C   UNL     1      -6.749   4.200 -33.429  1.00  0.00     0.227 C 
ENDROOT
BRANCH   1   2
HETATM    2  N   UNL     1      -5.388   4.439 -32.957  1.00  0.00    -0.348 N 
HETATM    3  C   UNL     1      -4.433   5.012 -33.766  1.00  0.00     0.252 C 
HETATM    4  O   UNL     1      -4.636   5.221 -34.959  1.00  0.00    -0.268 OA
HETATM    5  H   UNL     1      -5.236   4.388 -31.958  1.00  0.00     0.163 HD
BRANCH   3   6
HETATM    6  C   UNL     1      -3.116   5.334 -33.157  1.00  0.00     0.032 A 
HETATM    7  C   UNL     1      -2.312   6.382 -33.621  1.00  0.00     0.020 A 
HETATM    8  C   UNL     1      -1.119   6.697 -32.959  1.00  0.00     0.038 A 
HETATM    9  C   UNL     1      -0.736   5.980 -31.824  1.00  0.00     0.068 A 
HETATM   10  C   UNL     1      -1.517   4.912 -31.386  1.00  0.00     0.038 A 
HETATM   11  C   UNL     1      -2.709   4.594 -32.040  1.00  0.00     0.020 A 
BRANCH   9  12
HETATM   12  O   UNL     1       0.379   6.234 -31.073  1.00  0.00    -0.351 OA
BRANCH  12  13
HETATM   13  C   UNL     1       0.358   5.726 -29.738  1.00  0.00     0.175 C 
BRANCH  13  14
HETATM   14  C   UNL     1      -0.037   6.852 -28.784  1.00  0.00     0.026 C 
BRANCH  14  15
HETATM   15  C   UNL     1       1.036   7.142 -27.734  1.00  0.00    -0.002 C 
HETATM   16  C   UNL     1       1.486   8.594 -27.798  1.00  0.00     0.005 C 
ENDBRANCH  14  15
ENDBRANCH  13  14
ENDBRANCH  12  13
ENDBRANCH   9  12
ENDBRANCH   3   6
ENDBRANCH   1   2
BRANCH   1  17
HETATM   17  C   UNL     1      -7.047   2.746 -33.817  1.00  0.00     0.255 C 
HETATM   18  N   UNL     1      -5.931   1.925 -33.794  1.00  0.00    -0.246 N 
HETATM   19  H   UNL     1      -5.020   2.334 -33.565  1.00  0.00     0.192 HD
HETATM   20  O   UNL     1      -8.163   2.403 -34.209  1.00  0.00    -0.270 OA
BRANCH  18  21
HETATM   21  N   UNL     1      -6.024   0.623 -34.173  1.00  0.00    -0.184 NA
HETATM   22  C   UNL     1      -5.232  -0.189 -33.547  1.00  0.00     0.153 C 
BRANCH  22  23
HETATM   23  C   UNL     1      -5.216  -1.629 -33.872  1.00  0.00     0.016 A 
HETATM   24  C   UNL     1      -6.286  -2.257 -34.524  1.00  0.00     0.080 A 
HETATM   25  C   UNL     1      -6.230  -3.617 -34.826  1.00  0.00     0.074 A 
HETATM   26  C   UNL     1      -5.101  -4.345 -34.465  1.00  0.00     0.068 A 
HETATM   27  C   UNL     1      -4.033  -3.738 -33.812  1.00  0.00     0.037 A 
HETATM   28  C   UNL     1      -4.087  -2.374 -33.515  1.00  0.00     0.018 A 
BRANCH  24  29
HETATM   29  O   UNL     1      -7.425  -1.599 -34.905  1.00  0.00    -0.360 OA
HETATM   30  H   UNL     1      -8.079  -1.662 -34.170  1.00  0.00     0.217 HD
ENDBRANCH  24  29
BRANCH  26  31
HETATM   31  O   UNL     1      -5.001  -5.679 -34.738  1.00  0.00    -0.361 OA
HETATM   32  H   UNL     1      -4.676  -5.781 -35.649  1.00  0.00     0.217 HD
ENDBRANCH  26  31
ENDBRANCH  22  23
ENDBRANCH  18  21
ENDBRANCH   1  17
TORSDOF 11
ENDMDL
MODEL 4
REMARK VINA RESULT:      -7.6      2.750     10.742
REMARK  11 active torsions:
REMARK  status: ('A' for Active; 'I' for Inactive)
REMARK    1  A    between atoms: C_2  and  C_3 
REMARK    2  A    between atoms: C_3  and  C_4 
REMARK    3  A    between atoms: C_4  and  O_5 
REMARK    4  A    between atoms: O_5  and  C_6 
REMARK    5  A    between atoms: C_9  and  C_10 
REMARK       I    between atoms: C_10  and  N_11 
REMARK    6  A    between atoms: N_11  and  C_12 
REMARK    7  A    between atoms: C_12  and  C_13 
REMARK       I    between atoms: C_13  and  N_14 
REMARK    8  A    between atoms: N_14  and  N_15 
REMARK    9  A    between atoms: C_16  and  C_17 
REMARK   10  A    between atoms: C_18  and  O_19 
REMARK   11  A    between atoms: C_21  and  O_22 
ROOT
HETATM    1  C   UNL     1      -7.272   3.746 -32.909  1.00  0.00     0.227 C 
ENDROOT
BRANCH   1   2
HETATM    2  N   UNL     1      -5.940   4.189 -32.506  1.00  0.00    -0.348 N 
HETATM    3  C   UNL     1      -5.051   4.721 -33.413  1.00  0.00     0.252 C 
HETATM    4  O   UNL     1      -5.278   4.721 -34.619  1.00  0.00    -0.268 OA
HETATM    5  H   UNL     1      -5.779   4.308 -31.515  1.00  0.00     0.163 HD
BRANCH   3   6
HETATM    6  C   UNL     1      -3.770   5.262 -32.886  1.00  0.00     0.032 A 
HETATM    7  C   UNL     1      -3.710   6.432 -32.120  1.00  0.00     0.020 A 
HETATM    8  C   UNL     1      -2.489   6.854 -31.578  1.00  0.00     0.038 A 
HETATM    9  C   UNL     1      -1.333   6.100 -31.784  1.00  0.00     0.068 A 
HETATM   10  C   UNL     1      -1.386   4.957 -32.580  1.00  0.00     0.038 A 
HETATM   11  C   UNL     1      -2.601   4.530 -33.121  1.00  0.00     0.020 A 
BRANCH   9  12
HETATM   12  O   UNL     1      -0.102   6.390 -31.262  1.00  0.00    -0.351 OA
BRANCH  12  13
HETATM   13  C   UNL     1       0.384   5.480 -30.274  1.00  0.00     0.175 C 
BRANCH  13  14
HETATM   14  C   UNL     1       0.419   6.188 -28.920  1.00  0.00     0.026 C 
BRANCH  14  15
HETATM   15  C   UNL     1       0.517   7.708 -29.050  1.00  0.00    -0.002 C 
HETATM   16  C   UNL     1       1.350   8.302 -27.924  1.00  0.00     0.005 C 
ENDBRANCH  14  15
ENDBRANCH  13  14
ENDBRANCH  12  13
ENDBRANCH   9  12
ENDBRANCH   3   6
ENDBRANCH   1   2
BRANCH   1  17
HETATM   17  C   UNL     1      -7.370   2.260 -33.277  1.00  0.00     0.255 C 
HETATM   18  N   UNL     1      -6.607   1.436 -32.465  1.00  0.00    -0.246 N 
HETATM   19  H   UNL     1      -6.028   1.859 -31.733  1.00  0.00     0.192 HD
HETATM   20  O   UNL     1      -7.992   1.885 -34.270  1.00  0.00    -0.270 OA
BRANCH  18  21
HETATM   21  N   UNL     1      -6.542   0.099 -32.705  1.00  0.00    -0.184 NA
HETATM   22  C   UNL     1      -5.563  -0.275 -33.467  1.00  0.00     0.153 C 
BRANCH  22  23
HETATM   23  C   UNL     1      -5.385  -1.697 -33.823  1.00  0.00     0.016 A 
HETATM   24  C   UNL     1      -4.254  -2.427 -33.432  1.00  0.00     0.080 A 
HETATM   25  C   UNL     1      -4.127  -3.771 -33.777  1.00  0.00     0.074 A 
HETATM   26  C   UNL     1      -5.133  -4.379 -34.521  1.00  0.00     0.068 A 
HETATM   27  C   UNL     1      -6.259  -3.666 -34.922  1.00  0.00     0.037 A 
HETATM   28  C   UNL     1      -6.389  -2.320 -34.571  1.00  0.00     0.018 A 
BRANCH  24  29
HETATM   29  O   UNL     1      -3.228  -1.889 -32.701  1.00  0.00    -0.360 OA
HETATM   30  H   UNL     1      -2.932  -2.560 -32.043  1.00  0.00     0.217 HD
ENDBRANCH  24  29
BRANCH  26  31
HETATM   31  O   UNL     1      -5.053  -5.692 -34.883  1.00  0.00    -0.361 OA
HETATM   32  H   UNL     1      -4.362  -5.781 -35.561  1.00  0.00     0.217 HD
ENDBRANCH  26  31
ENDBRANCH  22  23
ENDBRANCH  18  21
ENDBRANCH   1  17
TORSDOF 11
ENDMDL
MODEL 5
REMARK VINA RESULT:      -7.5      2.187      3.033
REMARK  11 active torsions:
REMARK  status: ('A' for Active; 'I' for Inactive)
REMARK    1  A    between atoms: C_2  and  C_3 
REMARK    2  A    between atoms: C_3  and  C_4 
REMARK    3  A    between atoms: C_4  and  O_5 
REMARK    4  A    between atoms: O_5  and  C_6 
REMARK    5  A    between atoms: C_9  and  C_10 
REMARK       I    between atoms: C_10  and  N_11 
REMARK    6  A    between atoms: N_11  and  C_12 
REMARK    7  A    between atoms: C_12  and  C_13 
REMARK       I    between atoms: C_13  and  N_14 
REMARK    8  A    between atoms: N_14  and  N_15 
REMARK    9  A    between atoms: C_16  and  C_17 
REMARK   10  A    between atoms: C_18  and  O_19 
REMARK   11  A    between atoms: C_21  and  O_22 
ROOT
HETATM    1  C   UNL     1      -1.736   6.883 -33.895  1.00  0.00     0.227 C 
ENDROOT
BRANCH   1   2
HETATM    2  N   UNL     1      -2.854   5.944 -33.869  1.00  0.00    -0.348 N 
HETATM    3  C   UNL     1      -2.751   4.717 -33.254  1.00  0.00     0.252 C 
HETATM    4  O   UNL     1      -1.682   4.296 -32.822  1.00  0.00    -0.268 OA
HETATM    5  H   UNL     1      -3.764   6.312 -34.109  1.00  0.00     0.163 HD
BRANCH   3   6
HETATM    6  C   UNL     1      -3.980   3.885 -33.167  1.00  0.00     0.032 A 
HETATM    7  C   UNL     1      -5.166   4.227 -33.828  1.00  0.00     0.020 A 
HETATM    8  C   UNL     1      -6.269   3.366 -33.781  1.00  0.00     0.038 A 
HETATM    9  C   UNL     1      -6.186   2.156 -33.091  1.00  0.00     0.068 A 
HETATM   10  C   UNL     1      -5.018   1.835 -32.399  1.00  0.00     0.038 A 
HETATM   11  C   UNL     1      -3.914   2.688 -32.445  1.00  0.00     0.020 A 
BRANCH   9  12
HETATM   12  O   UNL     1      -7.180   1.220 -33.021  1.00  0.00    -0.351 OA
BRANCH  12  13
HETATM   13  C   UNL     1      -6.752  -0.143 -33.008  1.00  0.00     0.175 C 
BRANCH  13  14
HETATM   14  C   UNL     1      -6.914  -0.728 -34.411  1.00  0.00     0.026 C 
BRANCH  14  15
HETATM   15  C   UNL     1      -6.821  -2.254 -34.429  1.00  0.00    -0.002 C 
HETATM   16  C   UNL     1      -5.407  -2.712 -34.754  1.00  0.00     0.005 C 
ENDBRANCH  14  15
ENDBRANCH  13  14
ENDBRANCH  12  13
ENDBRANCH   9  12
ENDBRANCH   3   6
ENDBRANCH   1   2
BRANCH   1  17
HETATM   17  C   UNL     1      -1.526   7.666 -32.593  1.00  0.00     0.255 C 
HETATM   18  N   UNL     1      -0.784   6.978 -31.645  1.00  0.00    -0.246 N 
HETATM   19  H   UNL     1      -0.473   6.025 -31.855  1.00  0.00     0.192 HD
HETATM   20  O   UNL     1      -2.069   8.754 -32.403  1.00  0.00    -0.270 OA
BRANCH  18  21
HETATM   21  N   UNL     1      -0.566   7.516 -30.416  1.00  0.00    -0.184 NA
HETATM   22  C   UNL     1       0.386   6.960 -29.734  1.00  0.00     0.153 C 
BRANCH  22  23
HETATM   23  C   UNL     1       0.718   7.434 -28.376  1.00  0.00     0.016 A 
HETATM   24  C   UNL     1       0.262   6.777 -27.226  1.00  0.00     0.080 A 
HETATM   25  C   UNL     1       0.607   7.247 -25.960  1.00  0.00     0.074 A 
HETATM   26  C   UNL     1       1.404   8.382 -25.852  1.00  0.00     0.068 A 
HETATM   27  C   UNL     1       1.860   9.049 -26.984  1.00  0.00     0.037 A 
HETATM   28  C   UNL     1       1.519   8.575 -28.253  1.00  0.00     0.018 A 
BRANCH  24  29
HETATM   29  O   UNL     1      -0.526   5.657 -27.262  1.00  0.00    -0.360 OA
HETATM   30  H   UNL     1      -1.396   5.877 -26.854  1.00  0.00     0.217 HD
ENDBRANCH  24  29
BRANCH  26  31
HETATM   31  O   UNL     1       1.767   8.880 -24.634  1.00  0.00    -0.361 OA
HETATM   32  H   UNL     1       1.681   8.171 -23.974  1.00  0.00     0.217 HD
ENDBRANCH  26  31
ENDBRANCH  22  23
ENDBRANCH  18  21
ENDBRANCH   1  17
TORSDOF 11
ENDMDL
MODEL 6
REMARK VINA RESULT:      -7.5      1.892      2.426
REMARK  11 active torsions:
REMARK  status: ('A' for Active; 'I' for Inactive)
REMARK    1  A    between atoms: C_2  and  C_3 
REMARK    2  A    between atoms: C_3  and  C_4 
REMARK    3  A    between atoms: C_4  and  O_5 
REMARK    4  A    between atoms: O_5  and  C_6 
REMARK    5  A    between atoms: C_9  and  C_10 
REMARK       I    between atoms: C_10  and  N_11 
REMARK    6  A    between atoms: N_11  and  C_12 
REMARK    7  A    between atoms: C_12  and  C_13 
REMARK       I    between atoms: C_13  and  N_14 
REMARK    8  A    between atoms: N_14  and  N_15 
REMARK    9  A    between atoms: C_16  and  C_17 
REMARK   10  A    between atoms: C_18  and  O_19 
REMARK   11  A    between atoms: C_21  and  O_22 
ROOT
HETATM    1  C   UNL     1      -1.795   6.258 -34.227  1.00  0.00     0.227 C 
ENDROOT
BRANCH   1   2
HETATM    2  N   UNL     1      -2.411   5.002 -33.807  1.00  0.00    -0.348 N 
HETATM    3  C   UNL     1      -3.716   4.948 -33.374  1.00  0.00     0.252 C 
HETATM    4  O   UNL     1      -4.380   5.964 -33.188  1.00  0.00    -0.268 OA
HETATM    5  H   UNL     1      -1.930   4.151 -34.063  1.00  0.00     0.163 HD
BRANCH   3   6
HETATM    6  C   UNL     1      -4.294   3.607 -33.092  1.00  0.00     0.032 A 
HETATM    7  C   UNL     1      -5.580   3.243 -33.507  1.00  0.00     0.020 A 
HETATM    8  C   UNL     1      -6.045   1.940 -33.290  1.00  0.00     0.038 A 
HETATM    9  C   UNL     1      -5.222   0.995 -32.675  1.00  0.00     0.068 A 
HETATM   10  C   UNL     1      -3.956   1.370 -32.227  1.00  0.00     0.038 A 
HETATM   11  C   UNL     1      -3.486   2.666 -32.443  1.00  0.00     0.020 A 
BRANCH   9  12
HETATM   12  O   UNL     1      -5.553  -0.314 -32.459  1.00  0.00    -0.351 OA
BRANCH  12  13
HETATM   13  C   UNL     1      -4.949  -1.262 -33.340  1.00  0.00     0.175 C 
BRANCH  13  14
HETATM   14  C   UNL     1      -5.998  -1.753 -34.337  1.00  0.00     0.026 C 
BRANCH  14  15
HETATM   15  C   UNL     1      -5.566  -3.020 -35.076  1.00  0.00    -0.002 C 
HETATM   16  C   UNL     1      -6.622  -4.109 -34.960  1.00  0.00     0.005 C 
ENDBRANCH  14  15
ENDBRANCH  13  14
ENDBRANCH  12  13
ENDBRANCH   9  12
ENDBRANCH   3   6
ENDBRANCH   1   2
BRANCH   1  17
HETATM   17  C   UNL     1      -1.294   7.142 -33.077  1.00  0.00     0.255 C 
HETATM   18  N   UNL     1      -0.533   6.459 -32.142  1.00  0.00    -0.246 N 
HETATM   19  H   UNL     1      -0.393   5.451 -32.257  1.00  0.00     0.192 HD
HETATM   20  O   UNL     1      -1.644   8.318 -32.973  1.00  0.00    -0.270 OA
BRANCH  18  21
HETATM   21  N   UNL     1      -0.069   7.094 -31.033  1.00  0.00    -0.184 NA
HETATM   22  C   UNL     1      -0.533   6.646 -29.909  1.00  0.00     0.153 C 
BRANCH  22  23
HETATM   23  C   UNL     1      -0.127   7.256 -28.628  1.00  0.00     0.016 A 
HETATM   24  C   UNL     1      -0.882   7.103 -27.458  1.00  0.00     0.080 A 
HETATM   25  C   UNL     1      -0.460   7.683 -26.263  1.00  0.00     0.074 A 
HETATM   26  C   UNL     1       0.719   8.423 -26.247  1.00  0.00     0.068 A 
HETATM   27  C   UNL     1       1.477   8.589 -27.403  1.00  0.00     0.037 A 
HETATM   28  C   UNL     1       1.056   8.002 -28.599  1.00  0.00     0.018 A 
BRANCH  24  29
HETATM   29  O   UNL     1      -2.050   6.390 -27.405  1.00  0.00    -0.360 OA
HETATM   30  H   UNL     1      -1.998   5.765 -26.644  1.00  0.00     0.217 HD
ENDBRANCH  24  29
BRANCH  26  31
HETATM   31  O   UNL     1       1.172   9.010 -25.103  1.00  0.00    -0.361 OA
HETATM   32  H   UNL     1       1.954   8.520 -24.795  1.00  0.00     0.217 HD
ENDBRANCH  26  31
ENDBRANCH  22  23
ENDBRANCH  18  21
ENDBRANCH   1  17
TORSDOF 11
ENDMDL
MODEL 7
REMARK VINA RESULT:      -7.2      2.285     11.159
REMARK  11 active torsions:
REMARK  status: ('A' for Active; 'I' for Inactive)
REMARK    1  A    between atoms: C_2  and  C_3 
REMARK    2  A    between atoms: C_3  and  C_4 
REMARK    3  A    between atoms: C_4  and  O_5 
REMARK    4  A    between atoms: O_5  and  C_6 
REMARK    5  A    between atoms: C_9  and  C_10 
REMARK       I    between atoms: C_10  and  N_11 
REMARK    6  A    between atoms: N_11  and  C_12 
REMARK    7  A    between atoms: C_12  and  C_13 
REMARK       I    between atoms: C_13  and  N_14 
REMARK    8  A    between atoms: N_14  and  N_15 
REMARK    9  A    between atoms: C_16  and  C_17 
REMARK   10  A    between atoms: C_18  and  O_19 
REMARK   11  A    between atoms: C_21  and  O_22 
ROOT
HETATM    1  C   UNL     1      -6.272   3.550 -31.788  1.00  0.00     0.227 C 
ENDROOT
BRANCH   1   2
HETATM    2  N   UNL     1      -5.046   4.152 -31.272  1.00  0.00    -0.348 N 
HETATM    3  C   UNL     1      -3.971   4.415 -32.089  1.00  0.00     0.252 C 
HETATM    4  O   UNL     1      -3.935   4.031 -33.255  1.00  0.00    -0.268 OA
HETATM    5  H   UNL     1      -5.099   4.580 -30.357  1.00  0.00     0.163 HD
BRANCH   3   6
HETATM    6  C   UNL     1      -2.819   5.147 -31.500  1.00  0.00     0.032 A 
HETATM    7  C   UNL     1      -1.501   4.933 -31.921  1.00  0.00     0.020 A 
HETATM    8  C   UNL     1      -0.462   5.709 -31.393  1.00  0.00     0.038 A 
HETATM    9  C   UNL     1      -0.738   6.710 -30.460  1.00  0.00     0.068 A 
HETATM   10  C   UNL     1      -2.045   6.896 -30.012  1.00  0.00     0.038 A 
HETATM   11  C   UNL     1      -3.086   6.127 -30.537  1.00  0.00     0.020 A 
BRANCH   9  12
HETATM   12  O   UNL     1       0.189   7.557 -29.918  1.00  0.00    -0.351 OA
BRANCH  12  13
HETATM   13  C   UNL     1      -0.175   8.167 -28.679  1.00  0.00     0.175 C 
BRANCH  13  14
HETATM   14  C   UNL     1       0.786   7.693 -27.590  1.00  0.00     0.026 C 
BRANCH  14  15
HETATM   15  C   UNL     1       1.810   8.759 -27.198  1.00  0.00    -0.002 C 
HETATM   16  C   UNL     1       1.178   9.828 -26.319  1.00  0.00     0.005 C 
ENDBRANCH  14  15
ENDBRANCH  13  14
ENDBRANCH  12  13
ENDBRANCH   9  12
ENDBRANCH   3   6
ENDBRANCH   1   2
BRANCH   1  17
HETATM   17  C   UNL     1      -6.312   2.018 -31.718  1.00  0.00     0.255 C 
HETATM   18  N   UNL     1      -5.269   1.404 -32.392  1.00  0.00    -0.246 N 
HETATM   19  H   UNL     1      -4.594   1.985 -32.898  1.00  0.00     0.192 HD
HETATM   20  O   UNL     1      -7.256   1.424 -31.195  1.00  0.00    -0.270 OA
BRANCH  18  21
HETATM   21  N   UNL     1      -5.202   0.048 -32.473  1.00  0.00    -0.184 NA
HETATM   22  C   UNL     1      -4.938  -0.420 -33.652  1.00  0.00     0.153 C 
BRANCH  22  23
HETATM   23  C   UNL     1      -4.854  -1.875 -33.886  1.00  0.00     0.016 A 
HETATM   24  C   UNL     1      -3.923  -2.683 -33.220  1.00  0.00     0.080 A 
HETATM   25  C   UNL     1      -3.881  -4.056 -33.457  1.00  0.00     0.074 A 
HETATM   26  C   UNL     1      -4.771  -4.614 -34.370  1.00  0.00     0.068 A 
HETATM   27  C   UNL     1      -5.698  -3.824 -35.043  1.00  0.00     0.037 A 
HETATM   28  C   UNL     1      -5.743  -2.449 -34.801  1.00  0.00     0.018 A 
BRANCH  24  29
HETATM   29  O   UNL     1      -3.019  -2.198 -32.312  1.00  0.00    -0.360 OA
HETATM   30  H   UNL     1      -2.140  -2.602 -32.504  1.00  0.00     0.217 HD
ENDBRANCH  24  29
BRANCH  26  31
HETATM   31  O   UNL     1      -4.768  -5.952 -34.636  1.00  0.00    -0.361 OA
HETATM   32  H   UNL     1      -4.008  -6.354 -34.181  1.00  0.00     0.217 HD
ENDBRANCH  26  31
ENDBRANCH  22  23
ENDBRANCH  18  21
ENDBRANCH   1  17
TORSDOF 11
ENDMDL
MODEL 8
REMARK VINA RESULT:      -7.1      2.253     11.231
REMARK  11 active torsions:
REMARK  status: ('A' for Active; 'I' for Inactive)
REMARK    1  A    between atoms: C_2  and  C_3 
REMARK    2  A    between atoms: C_3  and  C_4 
REMARK    3  A    between atoms: C_4  and  O_5 
REMARK    4  A    between atoms: O_5  and  C_6 
REMARK    5  A    between atoms: C_9  and  C_10 
REMARK       I    between atoms: C_10  and  N_11 
REMARK    6  A    between atoms: N_11  and  C_12 
REMARK    7  A    between atoms: C_12  and  C_13 
REMARK       I    between atoms: C_13  and  N_14 
REMARK    8  A    between atoms: N_14  and  N_15 
REMARK    9  A    between atoms: C_16  and  C_17 
REMARK   10  A    between atoms: C_18  and  O_19 
REMARK   11  A    between atoms: C_21  and  O_22 
ROOT
HETATM    1  C   UNL     1      -5.992   3.906 -32.027  1.00  0.00     0.227 C 
ENDROOT
BRANCH   1   2
HETATM    2  N   UNL     1      -4.731   4.388 -31.470  1.00  0.00    -0.348 N 
HETATM    3  C   UNL     1      -3.889   5.204 -32.190  1.00  0.00     0.252 C 
HETATM    4  O   UNL     1      -4.085   5.453 -33.376  1.00  0.00    -0.268 OA
HETATM    5  H   UNL     1      -4.610   4.297 -30.470  1.00  0.00     0.163 HD
BRANCH   3   6
HETATM    6  C   UNL     1      -2.693   5.748 -31.493  1.00  0.00     0.032 A 
HETATM    7  C   UNL     1      -2.606   7.085 -31.087  1.00  0.00     0.020 A 
HETATM    8  C   UNL     1      -1.494   7.527 -30.360  1.00  0.00     0.038 A 
HETATM    9  C   UNL     1      -0.477   6.633 -30.021  1.00  0.00     0.068 A 
HETATM   10  C   UNL     1      -0.546   5.311 -30.460  1.00  0.00     0.038 A 
HETATM   11  C   UNL     1      -1.654   4.864 -31.183  1.00  0.00     0.020 A 
BRANCH   9  12
HETATM   12  O   UNL     1       0.626   6.942 -29.275  1.00  0.00    -0.351 OA
BRANCH  12  13
HETATM   13  C   UNL     1       0.657   6.396 -27.955  1.00  0.00     0.175 C 
BRANCH  13  14
HETATM   14  C   UNL     1       1.433   7.344 -27.042  1.00  0.00     0.026 C 
BRANCH  14  15
HETATM   15  C   UNL     1       1.539   8.759 -27.612  1.00  0.00    -0.002 C 
HETATM   16  C   UNL     1       1.143   9.798 -26.572  1.00  0.00     0.005 C 
ENDBRANCH  14  15
ENDBRANCH  13  14
ENDBRANCH  12  13
ENDBRANCH   9  12
ENDBRANCH   3   6
ENDBRANCH   1   2
BRANCH   1  17
HETATM   17  C   UNL     1      -6.126   2.379 -32.084  1.00  0.00     0.255 C 
HETATM   18  N   UNL     1      -5.989   1.857 -33.360  1.00  0.00    -0.246 N 
HETATM   19  H   UNL     1      -5.850   2.498 -34.147  1.00  0.00     0.192 HD
HETATM   20  O   UNL     1      -6.433   1.725 -31.087  1.00  0.00    -0.270 OA
BRANCH  18  21
HETATM   21  N   UNL     1      -6.144   0.524 -33.581  1.00  0.00    -0.184 NA
HETATM   22  C   UNL     1      -5.041  -0.143 -33.711  1.00  0.00     0.153 C 
BRANCH  22  23
HETATM   23  C   UNL     1      -5.063  -1.596 -33.972  1.00  0.00     0.016 A 
HETATM   24  C   UNL     1      -6.121  -2.214 -34.653  1.00  0.00     0.080 A 
HETATM   25  C   UNL     1      -6.101  -3.587 -34.891  1.00  0.00     0.074 A 
HETATM   26  C   UNL     1      -5.020  -4.338 -34.439  1.00  0.00     0.068 A 
HETATM   27  C   UNL     1      -3.965  -3.740 -33.757  1.00  0.00     0.037 A 
HETATM   28  C   UNL     1      -3.983  -2.363 -33.523  1.00  0.00     0.018 A 
BRANCH  24  29
HETATM   29  O   UNL     1      -7.213  -1.533 -35.122  1.00  0.00    -0.360 OA
HETATM   30  H   UNL     1      -7.558  -0.963 -34.396  1.00  0.00     0.217 HD
ENDBRANCH  24  29
BRANCH  26  31
HETATM   31  O   UNL     1      -4.956  -5.685 -34.648  1.00  0.00    -0.361 OA
HETATM   32  H   UNL     1      -5.776  -6.087 -34.312  1.00  0.00     0.217 HD
ENDBRANCH  26  31
ENDBRANCH  22  23
ENDBRANCH  18  21
ENDBRANCH   1  17
TORSDOF 11
ENDMDL
MODEL 9
REMARK VINA RESULT:      -7.1      2.056     11.802
REMARK  11 active torsions:
REMARK  status: ('A' for Active; 'I' for Inactive)
REMARK    1  A    between atoms: C_2  and  C_3 
REMARK    2  A    between atoms: C_3  and  C_4 
REMARK    3  A    between atoms: C_4  and  O_5 
REMARK    4  A    between atoms: O_5  and  C_6 
REMARK    5  A    between atoms: C_9  and  C_10 
REMARK       I    between atoms: C_10  and  N_11 
REMARK    6  A    between atoms: N_11  and  C_12 
REMARK    7  A    between atoms: C_12  and  C_13 
REMARK       I    between atoms: C_13  and  N_14 
REMARK    8  A    between atoms: N_14  and  N_15 
REMARK    9  A    between atoms: C_16  and  C_17 
REMARK   10  A    between atoms: C_18  and  O_19 
REMARK   11  A    between atoms: C_21  and  O_22 
ROOT
HETATM    1  C   UNL     1      -3.590   5.549 -31.001  1.00  0.00     0.227 C 
ENDROOT
BRANCH   1   2
HETATM    2  N   UNL     1      -2.665   5.900 -29.927  1.00  0.00    -0.348 N 
HETATM    3  C   UNL     1      -1.654   6.814 -30.117  1.00  0.00     0.252 C 
HETATM    4  O   UNL     1      -1.394   7.273 -31.226  1.00  0.00    -0.268 OA
HETATM    5  H   UNL     1      -2.931   5.632 -28.990  1.00  0.00     0.163 HD
BRANCH   3   6
HETATM    6  C   UNL     1      -0.845   7.204 -28.931  1.00  0.00     0.032 A 
HETATM    7  C   UNL     1       0.483   7.636 -29.039  1.00  0.00     0.020 A 
HETATM    8  C   UNL     1       1.173   8.070 -27.901  1.00  0.00     0.038 A 
HETATM    9  C   UNL     1       0.536   8.093 -26.659  1.00  0.00     0.068 A 
HETATM   10  C   UNL     1      -0.773   7.625 -26.547  1.00  0.00     0.038 A 
HETATM   11  C   UNL     1      -1.468   7.193 -27.678  1.00  0.00     0.020 A 
BRANCH   9  12
HETATM   12  O   UNL     1       1.096   8.543 -25.496  1.00  0.00    -0.351 OA
BRANCH  12  13
HETATM   13  C   UNL     1       2.512   8.734 -25.521  1.00  0.00     0.175 C 
BRANCH  13  14
HETATM   14  C   UNL     1       2.903   9.695 -24.399  1.00  0.00     0.026 C 
BRANCH  14  15
HETATM   15  C   UNL     1       2.250   9.342 -23.062  1.00  0.00    -0.002 C 
HETATM   16  C   UNL     1       3.198   8.539 -22.184  1.00  0.00     0.005 C 
ENDBRANCH  14  15
ENDBRANCH  13  14
ENDBRANCH  12  13
ENDBRANCH   9  12
ENDBRANCH   3   6
ENDBRANCH   1   2
BRANCH   1  17
HETATM   17  C   UNL     1      -3.294   4.210 -31.690  1.00  0.00     0.255 C 
HETATM   18  N   UNL     1      -4.431   3.541 -32.115  1.00  0.00    -0.246 N 
HETATM   19  H   UNL     1      -5.350   3.949 -31.917  1.00  0.00     0.192 HD
HETATM   20  O   UNL     1      -2.151   3.757 -31.746  1.00  0.00    -0.270 OA
BRANCH  18  21
HETATM   21  N   UNL     1      -4.335   2.312 -32.689  1.00  0.00    -0.184 NA
HETATM   22  C   UNL     1      -5.451   1.662 -32.785  1.00  0.00     0.153 C 
BRANCH  22  23
HETATM   23  C   UNL     1      -5.489   0.308 -33.372  1.00  0.00     0.016 A 
HETATM   24  C   UNL     1      -4.414  -0.583 -33.256  1.00  0.00     0.080 A 
HETATM   25  C   UNL     1      -4.491  -1.859 -33.814  1.00  0.00     0.074 A 
HETATM   26  C   UNL     1      -5.646  -2.234 -34.493  1.00  0.00     0.068 A 
HETATM   27  C   UNL     1      -6.719  -1.358 -34.621  1.00  0.00     0.037 A 
HETATM   28  C   UNL     1      -6.644  -0.082 -34.058  1.00  0.00     0.018 A 
BRANCH  24  29
HETATM   29  O   UNL     1      -3.250  -0.277 -32.603  1.00  0.00    -0.360 OA
HETATM   30  H   UNL     1      -2.659  -1.066 -32.637  1.00  0.00     0.217 HD
ENDBRANCH  24  29
BRANCH  26  31
HETATM   31  O   UNL     1      -5.767  -3.471 -35.055  1.00  0.00    -0.361 OA
HETATM   32  H   UNL     1      -6.666  -3.799 -34.882  1.00  0.00     0.217 HD
ENDBRANCH  26  31
ENDBRANCH  22  23
ENDBRANCH  18  21
ENDBRANCH   1  17
TORSDOF 11
ENDMDL
MODEL 10
REMARK VINA RESULT:      -7.0      6.012     10.711
REMARK  11 active torsions:
REMARK  status: ('A' for Active; 'I' for Inactive)
REMARK    1  A    between atoms: C_2  and  C_3 
REMARK    2  A    between atoms: C_3  and  C_4 
REMARK    3  A    between atoms: C_4  and  O_5 
REMARK    4  A    between atoms: O_5  and  C_6 
REMARK    5  A    between atoms: C_9  and  C_10 
REMARK       I    between atoms: C_10  and  N_11 
REMARK    6  A    between atoms: N_11  and  C_12 
REMARK    7  A    between atoms: C_12  and  C_13 
REMARK       I    between atoms: C_13  and  N_14 
REMARK    8  A    between atoms: N_14  and  N_15 
REMARK    9  A    between atoms: C_16  and  C_17 
REMARK   10  A    between atoms: C_18  and  O_19 
REMARK   11  A    between atoms: C_21  and  O_22 
ROOT
HETATM    1  C   UNL     1      -5.825   3.957 -32.225  1.00  0.00     0.227 C 
ENDROOT
BRANCH   1   2
HETATM    2  N   UNL     1      -7.276   3.897 -32.380  1.00  0.00    -0.348 N 
HETATM    3  C   UNL     1      -7.909   4.456 -33.467  1.00  0.00     0.252 C 
HETATM    4  O   UNL     1      -7.307   5.148 -34.282  1.00  0.00    -0.268 OA
HETATM    5  H   UNL     1      -7.770   3.238 -31.794  1.00  0.00     0.163 HD
BRANCH   3   6
HETATM    6  C   UNL     1      -9.373   4.231 -33.603  1.00  0.00     0.032 A 
HETATM    7  C   UNL     1     -10.111   4.731 -34.682  1.00  0.00     0.020 A 
HETATM    8  C   UNL     1     -11.471   4.420 -34.807  1.00  0.00     0.038 A 
HETATM    9  C   UNL     1     -12.091   3.596 -33.867  1.00  0.00     0.068 A 
HETATM   10  C   UNL     1     -11.365   3.130 -32.771  1.00  0.00     0.038 A 
HETATM   11  C   UNL     1     -10.008   3.435 -32.643  1.00  0.00     0.020 A 
BRANCH   9  12
HETATM   12  O   UNL     1     -13.395   3.188 -33.917  1.00  0.00    -0.351 OA
BRANCH  12  13
HETATM   13  C   UNL     1     -13.746   2.116 -33.041  1.00  0.00     0.175 C 
BRANCH  13  14
HETATM   14  C   UNL     1     -14.813   2.603 -32.062  1.00  0.00     0.026 C 
BRANCH  14  15
HETATM   15  C   UNL     1     -16.219   2.130 -32.436  1.00  0.00    -0.002 C 
HETATM   16  C   UNL     1     -17.263   3.175 -32.073  1.00  0.00     0.005 C 
ENDBRANCH  14  15
ENDBRANCH  13  14
ENDBRANCH  12  13
ENDBRANCH   9  12
ENDBRANCH   3   6
ENDBRANCH   1   2
BRANCH   1  17
HETATM   17  C   UNL     1      -5.082   2.683 -32.645  1.00  0.00     0.255 C 
HETATM   18  N   UNL     1      -5.915   1.689 -33.132  1.00  0.00    -0.246 N 
HETATM   19  H   UNL     1      -6.927   1.851 -33.144  1.00  0.00     0.192 HD
HETATM   20  O   UNL     1      -3.873   2.553 -32.452  1.00  0.00    -0.270 OA
BRANCH  18  21
HETATM   21  N   UNL     1      -5.410   0.477 -33.487  1.00  0.00    -0.184 NA
HETATM   22  C   UNL     1      -6.278  -0.483 -33.548  1.00  0.00     0.153 C 
BRANCH  22  23
HETATM   23  C   UNL     1      -5.863  -1.854 -33.904  1.00  0.00     0.016 A 
HETATM   24  C   UNL     1      -4.578  -2.339 -33.627  1.00  0.00     0.080 A 
HETATM   25  C   UNL     1      -4.226  -3.644 -33.968  1.00  0.00     0.074 A 
HETATM   26  C   UNL     1      -5.166  -4.459 -34.592  1.00  0.00     0.068 A 
HETATM   27  C   UNL     1      -6.444  -3.990 -34.879  1.00  0.00     0.037 A 
HETATM   28  C   UNL     1      -6.798  -2.684 -34.533  1.00  0.00     0.018 A 
BRANCH  24  29
HETATM   29  O   UNL     1      -3.607  -1.590 -33.017  1.00  0.00    -0.360 OA
HETATM   30  H   UNL     1      -3.091  -2.180 -32.419  1.00  0.00     0.217 HD
ENDBRANCH  24  29
BRANCH  26  31
HETATM   31  O   UNL     1      -4.868  -5.743 -34.945  1.00  0.00    -0.361 OA
HETATM   32  H   UNL     1      -4.636  -5.755 -35.890  1.00  0.00     0.217 HD
ENDBRANCH  26  31
ENDBRANCH  22  23
ENDBRANCH  18  21
ENDBRANCH   1  17
TORSDOF 11
ENDMDL
