MODEL 1
REMARK VINA RESULT:      -8.7      0.000      0.000
REMARK  9 active torsions:
REMARK  status: ('A' for Active; 'I' for Inactive)
REMARK    1  A    between atoms: C_2  and  N_3 
REMARK    2  A    between atoms: C_4  and  S_5 
REMARK    3  A    between atoms: S_5  and  C_6 
REMARK    4  A    between atoms: C_6  and  C_7 
REMARK       I    between atoms: C_7  and  N_8 
REMARK    5  A    between atoms: N_8  and  C_9 
REMARK    6  A    between atoms: C_11  and  O_12 
REMARK    7  A    between atoms: C_19  and  C_20 
REMARK    8  A    between atoms: C_23  and  S_24 
REMARK    9  A    between atoms: S_24  and  N_25 
ROOT
HETATM    1  N   UNL     1      -4.238   5.750 -33.113  1.00  0.00    -0.308 N 
HETATM    2  C   UNL     1      -3.075   6.152 -33.715  1.00  0.00     0.192 A 
HETATM    3  N   UNL     1      -3.114   5.892 -34.995  1.00  0.00    -0.122 NA
HETATM    4  N   UNL     1      -4.281   5.225 -35.239  1.00  0.00    -0.128 NA
HETATM    5  C   UNL     1      -4.958   5.111 -34.108  1.00  0.00     0.164 A 
ENDROOT
BRANCH   5   6
HETATM    6  C   UNL     1      -6.191   4.329 -33.989  1.00  0.00     0.012 A 
HETATM    7  C   UNL     1      -7.395   5.029 -33.794  1.00  0.00     0.017 A 
HETATM    8  C   UNL     1      -8.606   4.355 -33.630  1.00  0.00     0.026 A 
HETATM    9  C   UNL     1      -8.623   2.961 -33.676  1.00  0.00     0.074 A 
HETATM   10  C   UNL     1      -7.436   2.243 -33.843  1.00  0.00     0.026 A 
HETATM   11  C   UNL     1      -6.223   2.928 -33.991  1.00  0.00     0.017 A 
BRANCH   9  12
HETATM   12  S   UNL     1     -10.141   2.092 -33.421  1.00  0.00     0.243 S 
HETATM   13  O   UNL     1     -10.002   0.751 -33.936  1.00  0.00    -0.206 OA
HETATM   14  O   UNL     1     -10.612   2.328 -32.073  1.00  0.00    -0.206 OA
BRANCH  12  15
HETATM   15  N   UNL     1     -11.250   2.913 -34.444  1.00  0.00    -0.203 NA
HETATM   16  C   UNL     1     -12.134   3.931 -33.791  1.00  0.00     0.135 C 
HETATM   17  C   UNL     1     -13.318   3.302 -33.026  1.00  0.00     0.250 C 
HETATM   18  N   UNL     1     -14.084   2.315 -33.904  1.00  0.00    -0.073 N 
HETATM   19  H   UNL     1     -14.521   2.853 -34.663  1.00  0.00     0.279 HD
HETATM   20  C   UNL     1     -15.193   1.649 -33.136  1.00  0.00     0.269 C 
HETATM   21  C   UNL     1     -13.161   1.283 -34.552  1.00  0.00     0.250 C 
HETATM   22  C   UNL     1     -12.040   1.994 -35.328  1.00  0.00     0.135 C 
ENDBRANCH  12  15
ENDBRANCH   9  12
ENDBRANCH   5   6
BRANCH   1  23
HETATM   23  C   UNL     1      -4.586   5.899 -31.716  1.00  0.00     0.128 C 
HETATM   24  C   UNL     1      -4.324   4.634 -30.914  1.00  0.00     0.027 C 
ENDBRANCH   1  23
BRANCH   2  25
HETATM   25  S   UNL     1      -1.711   6.854 -32.927  1.00  0.00    -0.081 SA
BRANCH  25  26
HETATM   26  C   UNL     1      -0.848   5.380 -32.316  1.00  0.00     0.185 C 
BRANCH  26  27
HETATM   27  C   UNL     1      -0.098   5.527 -30.998  1.00  0.00     0.231 C 
HETATM   28  N   UNL     1      -0.436   6.632 -30.246  1.00  0.00    -0.326 N 
HETATM   29  H   UNL     1      -0.936   7.368 -30.739  1.00  0.00     0.169 HD
HETATM   30  O   UNL     1       0.697   4.647 -30.665  1.00  0.00    -0.272 OA
BRANCH  28  31
HETATM   31  C   UNL     1       0.046   6.984 -28.968  1.00  0.00     0.037 A 
HETATM   32  C   UNL     1       0.980   7.998 -28.740  1.00  0.00     0.066 A 
HETATM   33  C   UNL     1       1.397   8.273 -27.437  1.00  0.00     0.067 A 
HETATM   34  C   UNL     1       0.902   7.555 -26.357  1.00  0.00     0.036 A 
HETATM   35  C   UNL     1      -0.022   6.538 -26.577  1.00  0.00     0.005 A 
HETATM   36  C   UNL     1      -0.446   6.252 -27.878  1.00  0.00     0.029 A 
BRANCH  33  37
HETATM   37  O   UNL     1       2.307   9.258 -27.180  1.00  0.00    -0.361 OA
HETATM   38  H   UNL     1       3.171   8.971 -27.521  1.00  0.00     0.217 HD
ENDBRANCH  33  37
ENDBRANCH  28  31
ENDBRANCH  26  27
ENDBRANCH  25  26
ENDBRANCH   2  25
TORSDOF 9
ENDMDL
MODEL 2
REMARK VINA RESULT:      -8.7      3.347     10.602
REMARK  9 active torsions:
REMARK  status: ('A' for Active; 'I' for Inactive)
REMARK    1  A    between atoms: C_2  and  N_3 
REMARK    2  A    between atoms: C_4  and  S_5 
REMARK    3  A    between atoms: S_5  and  C_6 
REMARK    4  A    between atoms: C_6  and  C_7 
REMARK       I    between atoms: C_7  and  N_8 
REMARK    5  A    between atoms: N_8  and  C_9 
REMARK    6  A    between atoms: C_11  and  O_12 
REMARK    7  A    between atoms: C_19  and  C_20 
REMARK    8  A    between atoms: C_23  and  S_24 
REMARK    9  A    between atoms: S_24  and  N_25 
ROOT
HETATM    1  N   UNL     1      -7.125   3.229 -33.118  1.00  0.00    -0.308 N 
HETATM    2  C   UNL     1      -8.470   3.121 -33.351  1.00  0.00     0.192 A 
HETATM    3  N   UNL     1      -8.904   4.169 -34.000  1.00  0.00    -0.122 NA
HETATM    4  N   UNL     1      -7.853   5.033 -34.124  1.00  0.00    -0.128 NA
HETATM    5  C   UNL     1      -6.779   4.489 -33.575  1.00  0.00     0.164 A 
ENDROOT
BRANCH   5   6
HETATM    6  C   UNL     1      -5.512   5.206 -33.415  1.00  0.00     0.012 A 
HETATM    7  C   UNL     1      -4.428   4.809 -34.217  1.00  0.00     0.017 A 
HETATM    8  C   UNL     1      -3.176   5.415 -34.096  1.00  0.00     0.026 A 
HETATM    9  C   UNL     1      -3.003   6.444 -33.170  1.00  0.00     0.074 A 
HETATM   10  C   UNL     1      -4.059   6.839 -32.344  1.00  0.00     0.026 A 
HETATM   11  C   UNL     1      -5.307   6.214 -32.463  1.00  0.00     0.017 A 
BRANCH   9  12
HETATM   12  S   UNL     1      -1.412   7.187 -32.970  1.00  0.00     0.243 S 
HETATM   13  O   UNL     1      -0.717   7.145 -34.235  1.00  0.00    -0.206 OA
HETATM   14  O   UNL     1      -1.547   8.426 -32.235  1.00  0.00    -0.206 OA
BRANCH  12  15
HETATM   15  N   UNL     1      -0.596   6.110 -31.910  1.00  0.00    -0.203 NA
HETATM   16  C   UNL     1      -1.434   5.436 -30.868  1.00  0.00     0.135 C 
HETATM   17  C   UNL     1      -1.764   6.353 -29.671  1.00  0.00     0.250 C 
HETATM   18  N   UNL     1      -0.502   6.998 -29.102  1.00  0.00    -0.073 N 
HETATM   19  H   UNL     1       0.075   6.247 -28.704  1.00  0.00     0.279 HD
HETATM   20  C   UNL     1      -0.832   7.947 -27.982  1.00  0.00     0.269 C 
HETATM   21  C   UNL     1       0.331   7.686 -30.184  1.00  0.00     0.250 C 
HETATM   22  C   UNL     1       0.651   6.691 -31.313  1.00  0.00     0.135 C 
ENDBRANCH  12  15
ENDBRANCH   9  12
ENDBRANCH   5   6
BRANCH   1  23
HETATM   23  C   UNL     1      -6.280   2.256 -32.459  1.00  0.00     0.128 C 
HETATM   24  C   UNL     1      -6.112   2.541 -30.975  1.00  0.00     0.027 C 
ENDBRANCH   1  23
BRANCH   2  25
HETATM   25  S   UNL     1      -9.493   1.832 -32.833  1.00  0.00    -0.081 SA
BRANCH  25  26
HETATM   26  C   UNL     1      -9.518   0.775 -34.308  1.00  0.00     0.185 C 
BRANCH  26  27
HETATM   27  C   UNL     1      -8.212   0.078 -34.668  1.00  0.00     0.231 C 
HETATM   28  N   UNL     1      -7.880  -1.002 -33.877  1.00  0.00    -0.326 N 
HETATM   29  H   UNL     1      -8.373  -1.070 -32.990  1.00  0.00     0.169 HD
HETATM   30  O   UNL     1      -7.580   0.471 -35.650  1.00  0.00    -0.272 OA
BRANCH  28  31
HETATM   31  C   UNL     1      -6.773  -1.865 -34.019  1.00  0.00     0.037 A 
HETATM   32  C   UNL     1      -6.838  -3.122 -34.622  1.00  0.00     0.066 A 
HETATM   33  C   UNL     1      -5.687  -3.905 -34.715  1.00  0.00     0.067 A 
HETATM   34  C   UNL     1      -4.470  -3.457 -34.217  1.00  0.00     0.036 A 
HETATM   35  C   UNL     1      -4.400  -2.208 -33.606  1.00  0.00     0.005 A 
HETATM   36  C   UNL     1      -5.547  -1.417 -33.505  1.00  0.00     0.029 A 
BRANCH  33  37
HETATM   37  O   UNL     1      -5.715  -5.138 -35.300  1.00  0.00    -0.361 OA
HETATM   38  H   UNL     1      -4.805  -5.475 -35.346  1.00  0.00     0.217 HD
ENDBRANCH  33  37
ENDBRANCH  28  31
ENDBRANCH  26  27
ENDBRANCH  25  26
ENDBRANCH   2  25
TORSDOF 9
ENDMDL
MODEL 3
REMARK VINA RESULT:      -8.6      3.520     11.154
REMARK  9 active torsions:
REMARK  status: ('A' for Active; 'I' for Inactive)
REMARK    1  A    between atoms: C_2  and  N_3 
REMARK    2  A    between atoms: C_4  and  S_5 
REMARK    3  A    between atoms: S_5  and  C_6 
REMARK    4  A    between atoms: C_6  and  C_7 
REMARK       I    between atoms: C_7  and  N_8 
REMARK    5  A    between atoms: N_8  and  C_9 
REMARK    6  A    between atoms: C_11  and  O_12 
REMARK    7  A    between atoms: C_19  and  C_20 
REMARK    8  A    between atoms: C_23  and  S_24 
REMARK    9  A    between atoms: S_24  and  N_25 
ROOT
HETATM    1  N   UNL     1      -6.333   2.963 -32.010  1.00  0.00    -0.308 N 
HETATM    2  C   UNL     1      -7.396   2.833 -32.866  1.00  0.00     0.192 A 
HETATM    3  N   UNL     1      -7.227   3.592 -33.916  1.00  0.00    -0.122 NA
HETATM    4  N   UNL     1      -6.081   4.309 -33.720  1.00  0.00    -0.128 NA
HETATM    5  C   UNL     1      -5.545   3.957 -32.563  1.00  0.00     0.164 A 
ENDROOT
BRANCH   5   6
HETATM    6  C   UNL     1      -4.380   4.631 -31.983  1.00  0.00     0.012 A 
HETATM    7  C   UNL     1      -4.569   5.913 -31.437  1.00  0.00     0.017 A 
HETATM    8  C   UNL     1      -3.503   6.637 -30.903  1.00  0.00     0.026 A 
HETATM    9  C   UNL     1      -2.228   6.072 -30.899  1.00  0.00     0.074 A 
HETATM   10  C   UNL     1      -2.010   4.810 -31.459  1.00  0.00     0.026 A 
HETATM   11  C   UNL     1      -3.085   4.097 -32.006  1.00  0.00     0.017 A 
BRANCH   9  12
HETATM   12  S   UNL     1      -0.859   6.998 -30.271  1.00  0.00     0.243 S 
HETATM   13  O   UNL     1       0.345   6.553 -30.932  1.00  0.00    -0.206 OA
HETATM   14  O   UNL     1      -1.207   8.401 -30.222  1.00  0.00    -0.206 OA
BRANCH  12  15
HETATM   15  N   UNL     1      -0.751   6.494 -28.633  1.00  0.00    -0.203 NA
HETATM   16  C   UNL     1      -1.678   7.163 -27.666  1.00  0.00     0.135 C 
HETATM   17  C   UNL     1      -1.207   8.574 -27.254  1.00  0.00     0.250 C 
HETATM   18  N   UNL     1       0.245   8.559 -26.782  1.00  0.00    -0.073 N 
HETATM   19  H   UNL     1       0.281   8.009 -25.915  1.00  0.00     0.279 HD
HETATM   20  C   UNL     1       0.725   9.945 -26.450  1.00  0.00     0.269 C 
HETATM   21  C   UNL     1       1.171   7.878 -27.790  1.00  0.00     0.250 C 
HETATM   22  C   UNL     1       0.654   6.465 -28.109  1.00  0.00     0.135 C 
ENDBRANCH  12  15
ENDBRANCH   9  12
ENDBRANCH   5   6
BRANCH   1  23
HETATM   23  C   UNL     1      -6.138   2.261 -30.760  1.00  0.00     0.128 C 
HETATM   24  C   UNL     1      -5.273   1.020 -30.919  1.00  0.00     0.027 C 
ENDBRANCH   1  23
BRANCH   2  25
HETATM   25  S   UNL     1      -8.798   1.861 -32.608  1.00  0.00    -0.081 SA
BRANCH  25  26
HETATM   26  C   UNL     1      -8.957   1.024 -34.210  1.00  0.00     0.185 C 
BRANCH  26  27
HETATM   27  C   UNL     1      -7.779   0.163 -34.649  1.00  0.00     0.231 C 
HETATM   28  N   UNL     1      -7.525  -0.938 -33.858  1.00  0.00    -0.326 N 
HETATM   29  H   UNL     1      -7.954  -0.931 -32.936  1.00  0.00     0.169 HD
HETATM   30  O   UNL     1      -7.179   0.459 -35.683  1.00  0.00    -0.272 OA
BRANCH  28  31
HETATM   31  C   UNL     1      -6.548  -1.936 -34.059  1.00  0.00     0.037 A 
HETATM   32  C   UNL     1      -6.804  -3.165 -34.671  1.00  0.00     0.066 A 
HETATM   33  C   UNL     1      -5.771  -4.089 -34.826  1.00  0.00     0.067 A 
HETATM   34  C   UNL     1      -4.485  -3.811 -34.380  1.00  0.00     0.036 A 
HETATM   35  C   UNL     1      -4.224  -2.592 -33.762  1.00  0.00     0.005 A 
HETATM   36  C   UNL     1      -5.252  -1.660 -33.600  1.00  0.00     0.029 A 
BRANCH  33  37
HETATM   37  O   UNL     1      -5.987  -5.299 -35.420  1.00  0.00    -0.361 OA
HETATM   38  H   UNL     1      -6.517  -5.154 -36.222  1.00  0.00     0.217 HD
ENDBRANCH  33  37
ENDBRANCH  28  31
ENDBRANCH  26  27
ENDBRANCH  25  26
ENDBRANCH   2  25
TORSDOF 9
ENDMDL
MODEL 4
REMARK VINA RESULT:      -8.6      5.529      8.022
REMARK  9 active torsions:
REMARK  status: ('A' for Active; 'I' for Inactive)
REMARK    1  A    between atoms: C_2  and  N_3 
REMARK    2  A    between atoms: C_4  and  S_5 
REMARK    3  A    between atoms: S_5  and  C_6 
REMARK    4  A    between atoms: C_6  and  C_7 
REMARK       I    between atoms: C_7  and  N_8 
REMARK    5  A    between atoms: N_8  and  C_9 
REMARK    6  A    between atoms: C_11  and  O_12 
REMARK    7  A    between atoms: C_19  and  C_20 
REMARK    8  A    between atoms: C_23  and  S_24 
REMARK    9  A    between atoms: S_24  and  N_25 
ROOT
HETATM    1  N   UNL     1      -6.399   1.992 -32.384  1.00  0.00    -0.308 N 
HETATM    2  C   UNL     1      -5.461   1.590 -31.470  1.00  0.00     0.192 A 
HETATM    3  N   UNL     1      -6.024   0.889 -30.521  1.00  0.00    -0.122 NA
HETATM    4  N   UNL     1      -7.370   0.898 -30.753  1.00  0.00    -0.128 NA
HETATM    5  C   UNL     1      -7.613   1.580 -31.860  1.00  0.00     0.164 A 
ENDROOT
BRANCH   5   6
HETATM    6  C   UNL     1      -8.966   1.899 -32.323  1.00  0.00     0.012 A 
HETATM    7  C   UNL     1      -9.504   3.148 -31.965  1.00  0.00     0.017 A 
HETATM    8  C   UNL     1     -10.801   3.510 -32.331  1.00  0.00     0.026 A 
HETATM    9  C   UNL     1     -11.572   2.620 -33.079  1.00  0.00     0.074 A 
HETATM   10  C   UNL     1     -11.068   1.364 -33.425  1.00  0.00     0.026 A 
HETATM   11  C   UNL     1      -9.770   1.004 -33.039  1.00  0.00     0.017 A 
BRANCH   9  12
HETATM   12  S   UNL     1     -13.234   3.045 -33.509  1.00  0.00     0.243 S 
HETATM   13  O   UNL     1     -13.267   4.424 -33.932  1.00  0.00    -0.206 OA
HETATM   14  O   UNL     1     -13.801   1.998 -34.332  1.00  0.00    -0.206 OA
BRANCH  12  15
HETATM   15  N   UNL     1     -14.071   2.955 -32.012  1.00  0.00    -0.203 NA
HETATM   16  C   UNL     1     -15.228   2.007 -31.949  1.00  0.00     0.135 C 
HETATM   17  C   UNL     1     -16.503   2.564 -32.619  1.00  0.00     0.250 C 
HETATM   18  N   UNL     1     -16.840   3.959 -32.098  1.00  0.00    -0.073 N 
HETATM   19  H   UNL     1     -17.087   3.865 -31.105  1.00  0.00     0.279 HD
HETATM   20  C   UNL     1     -18.040   4.530 -32.803  1.00  0.00     0.269 C 
HETATM   21  C   UNL     1     -15.644   4.909 -32.180  1.00  0.00     0.250 C 
HETATM   22  C   UNL     1     -14.436   4.297 -31.451  1.00  0.00     0.135 C 
ENDBRANCH  12  15
ENDBRANCH   9  12
ENDBRANCH   5   6
BRANCH   1  23
HETATM   23  C   UNL     1      -6.161   2.754 -33.591  1.00  0.00     0.128 C 
HETATM   24  C   UNL     1      -6.218   4.255 -33.351  1.00  0.00     0.027 C 
ENDBRANCH   1  23
BRANCH   2  25
HETATM   25  S   UNL     1      -3.780   1.975 -31.500  1.00  0.00    -0.081 SA
BRANCH  25  26
HETATM   26  C   UNL     1      -3.156   0.778 -32.713  1.00  0.00     0.185 C 
BRANCH  26  27
HETATM   27  C   UNL     1      -3.808  -0.599 -32.708  1.00  0.00     0.231 C 
HETATM   28  N   UNL     1      -4.464  -0.946 -33.871  1.00  0.00    -0.326 N 
HETATM   29  H   UNL     1      -4.682  -0.180 -34.503  1.00  0.00     0.169 HD
HETATM   30  O   UNL     1      -3.664  -1.321 -31.721  1.00  0.00    -0.272 OA
BRANCH  28  31
HETATM   31  C   UNL     1      -5.097  -2.171 -34.169  1.00  0.00     0.037 A 
HETATM   32  C   UNL     1      -4.421  -3.388 -34.289  1.00  0.00     0.066 A 
HETATM   33  C   UNL     1      -5.135  -4.549 -34.587  1.00  0.00     0.067 A 
HETATM   34  C   UNL     1      -6.512  -4.520 -34.769  1.00  0.00     0.036 A 
HETATM   35  C   UNL     1      -7.190  -3.310 -34.659  1.00  0.00     0.005 A 
HETATM   36  C   UNL     1      -6.485  -2.140 -34.363  1.00  0.00     0.029 A 
BRANCH  33  37
HETATM   37  O   UNL     1      -4.506  -5.754 -34.711  1.00  0.00    -0.361 OA
HETATM   38  H   UNL     1      -3.861  -5.688 -35.435  1.00  0.00     0.217 HD
ENDBRANCH  33  37
ENDBRANCH  28  31
ENDBRANCH  26  27
ENDBRANCH  25  26
ENDBRANCH   2  25
TORSDOF 9
ENDMDL
MODEL 5
REMARK VINA RESULT:      -8.5      3.978     10.805
REMARK  9 active torsions:
REMARK  status: ('A' for Active; 'I' for Inactive)
REMARK    1  A    between atoms: C_2  and  N_3 
REMARK    2  A    between atoms: C_4  and  S_5 
REMARK    3  A    between atoms: S_5  and  C_6 
REMARK    4  A    between atoms: C_6  and  C_7 
REMARK       I    between atoms: C_7  and  N_8 
REMARK    5  A    between atoms: N_8  and  C_9 
REMARK    6  A    between atoms: C_11  and  O_12 
REMARK    7  A    between atoms: C_19  and  C_20 
REMARK    8  A    between atoms: C_23  and  S_24 
REMARK    9  A    between atoms: S_24  and  N_25 
ROOT
HETATM    1  N   UNL     1      -6.280   3.157 -33.007  1.00  0.00    -0.308 N 
HETATM    2  C   UNL     1      -6.937   1.957 -33.079  1.00  0.00     0.192 A 
HETATM    3  N   UNL     1      -6.562   1.175 -32.102  1.00  0.00    -0.122 NA
HETATM    4  N   UNL     1      -5.573   1.824 -31.419  1.00  0.00    -0.128 NA
HETATM    5  C   UNL     1      -5.376   3.011 -31.969  1.00  0.00     0.164 A 
ENDROOT
BRANCH   5   6
HETATM    6  C   UNL     1      -4.293   3.910 -31.564  1.00  0.00     0.012 A 
HETATM    7  C   UNL     1      -4.625   5.024 -30.773  1.00  0.00     0.017 A 
HETATM    8  C   UNL     1      -3.656   5.949 -30.381  1.00  0.00     0.026 A 
HETATM    9  C   UNL     1      -2.331   5.756 -30.771  1.00  0.00     0.074 A 
HETATM   10  C   UNL     1      -1.981   4.670 -31.578  1.00  0.00     0.026 A 
HETATM   11  C   UNL     1      -2.963   3.755 -31.979  1.00  0.00     0.017 A 
BRANCH   9  12
HETATM   12  S   UNL     1      -1.102   6.945 -30.323  1.00  0.00     0.243 S 
HETATM   13  O   UNL     1       0.097   6.683 -31.083  1.00  0.00    -0.206 OA
HETATM   14  O   UNL     1      -1.695   8.266 -30.298  1.00  0.00    -0.206 OA
BRANCH  12  15
HETATM   15  N   UNL     1      -0.754   6.567 -28.685  1.00  0.00    -0.203 NA
HETATM   16  C   UNL     1      -1.625   7.211 -27.651  1.00  0.00     0.135 C 
HETATM   17  C   UNL     1      -1.255   8.685 -27.381  1.00  0.00     0.250 C 
HETATM   18  N   UNL     1       0.237   8.838 -27.090  1.00  0.00    -0.073 N 
HETATM   19  H   UNL     1       0.428   8.354 -26.203  1.00  0.00     0.279 HD
HETATM   20  C   UNL     1       0.610  10.282 -26.898  1.00  0.00     0.269 C 
HETATM   21  C   UNL     1       1.103   8.179 -28.163  1.00  0.00     0.250 C 
HETATM   22  C   UNL     1       0.697   6.705 -28.335  1.00  0.00     0.135 C 
ENDBRANCH  12  15
ENDBRANCH   9  12
ENDBRANCH   5   6
BRANCH   1  23
HETATM   23  C   UNL     1      -6.451   4.292 -33.888  1.00  0.00     0.128 C 
HETATM   24  C   UNL     1      -7.440   5.310 -33.341  1.00  0.00     0.027 C 
ENDBRANCH   1  23
BRANCH   2  25
HETATM   25  S   UNL     1      -8.065   1.486 -34.297  1.00  0.00    -0.081 SA
BRANCH  25  26
HETATM   26  C   UNL     1      -7.048   0.391 -35.326  1.00  0.00     0.185 C 
BRANCH  26  27
HETATM   27  C   UNL     1      -6.557  -0.895 -34.673  1.00  0.00     0.231 C 
HETATM   28  N   UNL     1      -5.210  -0.930 -34.376  1.00  0.00    -0.326 N 
HETATM   29  H   UNL     1      -4.634  -0.236 -34.847  1.00  0.00     0.169 HD
HETATM   30  O   UNL     1      -7.375  -1.775 -34.403  1.00  0.00    -0.272 OA
BRANCH  28  31
HETATM   31  C   UNL     1      -4.500  -1.956 -33.719  1.00  0.00     0.037 A 
HETATM   32  C   UNL     1      -4.373  -3.256 -34.214  1.00  0.00     0.066 A 
HETATM   33  C   UNL     1      -3.649  -4.204 -33.491  1.00  0.00     0.067 A 
HETATM   34  C   UNL     1      -3.049  -3.881 -32.281  1.00  0.00     0.036 A 
HETATM   35  C   UNL     1      -3.179  -2.591 -31.777  1.00  0.00     0.005 A 
HETATM   36  C   UNL     1      -3.903  -1.633 -32.492  1.00  0.00     0.029 A 
BRANCH  33  37
HETATM   37  O   UNL     1      -3.506  -5.483 -33.948  1.00  0.00    -0.361 OA
HETATM   38  H   UNL     1      -3.665  -5.484 -34.907  1.00  0.00     0.217 HD
ENDBRANCH  33  37
ENDBRANCH  28  31
ENDBRANCH  26  27
ENDBRANCH  25  26
ENDBRANCH   2  25
TORSDOF 9
ENDMDL
MODEL 6
REMARK VINA RESULT:      -8.4      2.034      2.638
REMARK  9 active torsions:
REMARK  status: ('A' for Active; 'I' for Inactive)
REMARK    1  A    between atoms: C_2  and  N_3 
REMARK    2  A    between atoms: C_4  and  S_5 
REMARK    3  A    between atoms: S_5  and  C_6 
REMARK    4  A    between atoms: C_6  and  C_7 
REMARK       I    between atoms: C_7  and  N_8 
REMARK    5  A    between atoms: N_8  and  C_9 
REMARK    6  A    between atoms: C_11  and  O_12 
REMARK    7  A    between atoms: C_19  and  C_20 
REMARK    8  A    between atoms: C_23  and  S_24 
REMARK    9  A    between atoms: S_24  and  N_25 
ROOT
HETATM    1  N   UNL     1      -3.106   5.036 -32.974  1.00  0.00    -0.308 N 
HETATM    2  C   UNL     1      -1.808   5.263 -32.596  1.00  0.00     0.192 A 
HETATM    3  N   UNL     1      -1.433   4.379 -31.709  1.00  0.00    -0.122 NA
HETATM    4  N   UNL     1      -2.521   3.605 -31.421  1.00  0.00    -0.128 NA
HETATM    5  C   UNL     1      -3.544   4.006 -32.159  1.00  0.00     0.164 A 
ENDROOT
BRANCH   5   6
HETATM    6  C   UNL     1      -4.901   3.478 -32.000  1.00  0.00     0.012 A 
HETATM    7  C   UNL     1      -5.480   2.816 -33.096  1.00  0.00     0.017 A 
HETATM    8  C   UNL     1      -6.783   2.320 -33.038  1.00  0.00     0.026 A 
HETATM    9  C   UNL     1      -7.519   2.474 -31.863  1.00  0.00     0.074 A 
HETATM   10  C   UNL     1      -6.974   3.150 -30.769  1.00  0.00     0.026 A 
HETATM   11  C   UNL     1      -5.670   3.657 -30.843  1.00  0.00     0.017 A 
BRANCH   9  12
HETATM   12  S   UNL     1      -9.188   1.895 -31.791  1.00  0.00     0.243 S 
HETATM   13  O   UNL     1      -9.179   0.453 -31.730  1.00  0.00    -0.206 OA
HETATM   14  O   UNL     1      -9.928   2.677 -30.823  1.00  0.00    -0.206 OA
BRANCH  12  15
HETATM   15  N   UNL     1      -9.832   2.332 -33.322  1.00  0.00    -0.203 NA
HETATM   16  C   UNL     1     -10.744   3.519 -33.349  1.00  0.00     0.135 C 
HETATM   17  C   UNL     1     -12.170   3.198 -32.851  1.00  0.00     0.250 C 
HETATM   18  N   UNL     1     -12.747   1.980 -33.568  1.00  0.00    -0.073 N 
HETATM   19  H   UNL     1     -12.867   2.233 -34.557  1.00  0.00     0.279 HD
HETATM   20  C   UNL     1     -14.106   1.624 -33.032  1.00  0.00     0.269 C 
HETATM   21  C   UNL     1     -11.800   0.780 -33.520  1.00  0.00     0.250 C 
HETATM   22  C   UNL     1     -10.421   1.176 -34.073  1.00  0.00     0.135 C 
ENDBRANCH  12  15
ENDBRANCH   9  12
ENDBRANCH   5   6
BRANCH   1  23
HETATM   23  C   UNL     1      -3.863   5.779 -33.958  1.00  0.00     0.128 C 
HETATM   24  C   UNL     1      -3.738   5.190 -35.354  1.00  0.00     0.027 C 
ENDBRANCH   1  23
BRANCH   2  25
HETATM   25  S   UNL     1      -0.798   6.548 -33.146  1.00  0.00    -0.081 SA
BRANCH  25  26
HETATM   26  C   UNL     1      -1.533   7.974 -32.298  1.00  0.00     0.185 C 
BRANCH  26  27
HETATM   27  C   UNL     1      -1.419   7.996 -30.779  1.00  0.00     0.231 C 
HETATM   28  N   UNL     1      -0.340   7.313 -30.257  1.00  0.00    -0.326 N 
HETATM   29  H   UNL     1       0.112   6.652 -30.885  1.00  0.00     0.169 HD
HETATM   30  O   UNL     1      -2.235   8.652 -30.131  1.00  0.00    -0.272 OA
BRANCH  28  31
HETATM   31  C   UNL     1       0.047   7.219 -28.904  1.00  0.00     0.037 A 
HETATM   32  C   UNL     1      -0.453   6.263 -28.016  1.00  0.00     0.066 A 
HETATM   33  C   UNL     1      -0.009   6.249 -26.694  1.00  0.00     0.067 A 
HETATM   34  C   UNL     1       0.923   7.172 -26.238  1.00  0.00     0.036 A 
HETATM   35  C   UNL     1       1.418   8.133 -27.115  1.00  0.00     0.005 A 
HETATM   36  C   UNL     1       0.979   8.158 -28.441  1.00  0.00     0.029 A 
BRANCH  33  37
HETATM   37  O   UNL     1      -0.476   5.328 -25.801  1.00  0.00    -0.361 OA
HETATM   38  H   UNL     1       0.156   4.591 -25.765  1.00  0.00     0.217 HD
ENDBRANCH  33  37
ENDBRANCH  28  31
ENDBRANCH  26  27
ENDBRANCH  25  26
ENDBRANCH   2  25
TORSDOF 9
ENDMDL
MODEL 7
REMARK VINA RESULT:      -8.1      4.513     11.189
REMARK  9 active torsions:
REMARK  status: ('A' for Active; 'I' for Inactive)
REMARK    1  A    between atoms: C_2  and  N_3 
REMARK    2  A    between atoms: C_4  and  S_5 
REMARK    3  A    between atoms: S_5  and  C_6 
REMARK    4  A    between atoms: C_6  and  C_7 
REMARK       I    between atoms: C_7  and  N_8 
REMARK    5  A    between atoms: N_8  and  C_9 
REMARK    6  A    between atoms: C_11  and  O_12 
REMARK    7  A    between atoms: C_19  and  C_20 
REMARK    8  A    between atoms: C_23  and  S_24 
REMARK    9  A    between atoms: S_24  and  N_25 
ROOT
HETATM    1  N   UNL     1      -2.229   6.322 -32.349  1.00  0.00    -0.308 N 
HETATM    2  C   UNL     1      -2.330   6.287 -33.715  1.00  0.00     0.192 A 
HETATM    3  N   UNL     1      -1.854   7.388 -34.233  1.00  0.00    -0.122 NA
HETATM    4  N   UNL     1      -1.513   8.210 -33.198  1.00  0.00    -0.128 NA
HETATM    5  C   UNL     1      -1.756   7.589 -32.055  1.00  0.00     0.164 A 
ENDROOT
BRANCH   5   6
HETATM    6  C   UNL     1      -1.630   8.239 -30.748  1.00  0.00     0.012 A 
HETATM    7  C   UNL     1      -2.358   9.423 -30.532  1.00  0.00     0.017 A 
HETATM    8  C   UNL     1      -2.260  10.124 -29.330  1.00  0.00     0.026 A 
HETATM    9  C   UNL     1      -1.435   9.633 -28.318  1.00  0.00     0.074 A 
HETATM   10  C   UNL     1      -0.682   8.472 -28.519  1.00  0.00     0.026 A 
HETATM   11  C   UNL     1      -0.776   7.784 -29.736  1.00  0.00     0.017 A 
BRANCH   9  12
HETATM   12  S   UNL     1      -1.263  10.536 -26.808  1.00  0.00     0.243 S 
HETATM   13  O   UNL     1      -0.127  11.420 -26.922  1.00  0.00    -0.206 OA
HETATM   14  O   UNL     1      -2.557  11.035 -26.394  1.00  0.00    -0.206 OA
BRANCH  12  15
HETATM   15  N   UNL     1      -0.848   9.326 -25.662  1.00  0.00    -0.203 NA
HETATM   16  C   UNL     1      -1.757   9.187 -24.480  1.00  0.00     0.135 C 
HETATM   17  C   UNL     1      -1.524  10.272 -23.407  1.00  0.00     0.250 C 
HETATM   18  N   UNL     1      -0.049  10.366 -23.023  1.00  0.00    -0.073 N 
HETATM   19  H   UNL     1       0.206   9.484 -22.561  1.00  0.00     0.279 HD
HETATM   20  C   UNL     1       0.188  11.472 -22.031  1.00  0.00     0.269 C 
HETATM   21  C   UNL     1       0.856  10.515 -24.246  1.00  0.00     0.250 C 
HETATM   22  C   UNL     1       0.590   9.372 -25.240  1.00  0.00     0.135 C 
ENDBRANCH  12  15
ENDBRANCH   9  12
ENDBRANCH   5   6
BRANCH   1  23
HETATM   23  C   UNL     1      -2.615   5.277 -31.426  1.00  0.00     0.128 C 
HETATM   24  C   UNL     1      -3.925   5.584 -30.717  1.00  0.00     0.027 C 
ENDBRANCH   1  23
BRANCH   2  25
HETATM   25  S   UNL     1      -3.026   5.017 -34.653  1.00  0.00    -0.081 SA
BRANCH  25  26
HETATM   26  C   UNL     1      -4.797   5.279 -34.358  1.00  0.00     0.185 C 
BRANCH  26  27
HETATM   27  C   UNL     1      -5.574   4.101 -33.783  1.00  0.00     0.231 C 
HETATM   28  N   UNL     1      -4.818   3.175 -33.095  1.00  0.00    -0.326 N 
HETATM   29  H   UNL     1      -3.815   3.212 -33.258  1.00  0.00     0.169 HD
HETATM   30  O   UNL     1      -6.799   4.078 -33.910  1.00  0.00    -0.272 OA
BRANCH  28  31
HETATM   31  C   UNL     1      -5.275   2.029 -32.411  1.00  0.00     0.037 A 
HETATM   32  C   UNL     1      -5.480   1.977 -31.030  1.00  0.00     0.066 A 
HETATM   33  C   UNL     1      -5.935   0.796 -30.442  1.00  0.00     0.067 A 
HETATM   34  C   UNL     1      -6.188  -0.336 -31.206  1.00  0.00     0.036 A 
HETATM   35  C   UNL     1      -5.978  -0.294 -32.581  1.00  0.00     0.005 A 
HETATM   36  C   UNL     1      -5.521   0.883 -33.180  1.00  0.00     0.029 A 
BRANCH  33  37
HETATM   37  O   UNL     1      -6.146   0.712 -29.096  1.00  0.00    -0.361 OA
HETATM   38  H   UNL     1      -6.137  -0.226 -28.844  1.00  0.00     0.217 HD
ENDBRANCH  33  37
ENDBRANCH  28  31
ENDBRANCH  26  27
ENDBRANCH  25  26
ENDBRANCH   2  25
TORSDOF 9
ENDMDL
MODEL 8
REMARK VINA RESULT:      -8.1      5.575      8.129
REMARK  9 active torsions:
REMARK  status: ('A' for Active; 'I' for Inactive)
REMARK    1  A    between atoms: C_2  and  N_3 
REMARK    2  A    between atoms: C_4  and  S_5 
REMARK    3  A    between atoms: S_5  and  C_6 
REMARK    4  A    between atoms: C_6  and  C_7 
REMARK       I    between atoms: C_7  and  N_8 
REMARK    5  A    between atoms: N_8  and  C_9 
REMARK    6  A    between atoms: C_11  and  O_12 
REMARK    7  A    between atoms: C_19  and  C_20 
REMARK    8  A    between atoms: C_23  and  S_24 
REMARK    9  A    between atoms: S_24  and  N_25 
ROOT
HETATM    1  N   UNL     1      -6.230   1.733 -32.193  1.00  0.00    -0.308 N 
HETATM    2  C   UNL     1      -5.426   1.115 -31.273  1.00  0.00     0.192 A 
HETATM    3  N   UNL     1      -6.122   0.274 -30.554  1.00  0.00    -0.122 NA
HETATM    4  N   UNL     1      -7.427   0.396 -30.937  1.00  0.00    -0.128 NA
HETATM    5  C   UNL     1      -7.510   1.290 -31.908  1.00  0.00     0.164 A 
ENDROOT
BRANCH   5   6
HETATM    6  C   UNL     1      -8.785   1.761 -32.455  1.00  0.00     0.012 A 
HETATM    7  C   UNL     1      -9.164   1.298 -33.727  1.00  0.00     0.017 A 
HETATM    8  C   UNL     1     -10.344   1.731 -34.335  1.00  0.00     0.026 A 
HETATM    9  C   UNL     1     -11.169   2.630 -33.659  1.00  0.00     0.074 A 
HETATM   10  C   UNL     1     -10.801   3.124 -32.405  1.00  0.00     0.026 A 
HETATM   11  C   UNL     1      -9.607   2.694 -31.810  1.00  0.00     0.017 A 
BRANCH   9  12
HETATM   12  S   UNL     1     -12.641   3.226 -34.436  1.00  0.00     0.243 S 
HETATM   13  O   UNL     1     -13.187   2.177 -35.264  1.00  0.00    -0.206 OA
HETATM   14  O   UNL     1     -13.462   3.906 -33.457  1.00  0.00    -0.206 OA
BRANCH  12  15
HETATM   15  N   UNL     1     -12.070   4.455 -35.490  1.00  0.00    -0.203 NA
HETATM   16  C   UNL     1     -10.840   5.190 -35.054  1.00  0.00     0.135 C 
HETATM   17  C   UNL     1     -11.122   6.257 -33.976  1.00  0.00     0.250 C 
HETATM   18  N   UNL     1     -12.259   7.186 -34.398  1.00  0.00    -0.073 N 
HETATM   19  H   UNL     1     -11.933   7.719 -35.214  1.00  0.00     0.279 HD
HETATM   20  C   UNL     1     -12.582   8.180 -33.317  1.00  0.00     0.269 C 
HETATM   21  C   UNL     1     -13.504   6.412 -34.831  1.00  0.00     0.250 C 
HETATM   22  C   UNL     1     -13.141   5.405 -35.935  1.00  0.00     0.135 C 
ENDBRANCH  12  15
ENDBRANCH   9  12
ENDBRANCH   5   6
BRANCH   1  23
HETATM   23  C   UNL     1      -5.822   2.700 -33.189  1.00  0.00     0.128 C 
HETATM   24  C   UNL     1      -5.953   4.133 -32.695  1.00  0.00     0.027 C 
ENDBRANCH   1  23
BRANCH   2  25
HETATM   25  S   UNL     1      -3.744   1.413 -31.027  1.00  0.00    -0.081 SA
BRANCH  25  26
HETATM   26  C   UNL     1      -3.001   0.376 -32.317  1.00  0.00     0.185 C 
BRANCH  26  27
HETATM   27  C   UNL     1      -3.608  -1.007 -32.513  1.00  0.00     0.231 C 
HETATM   28  N   UNL     1      -4.441  -1.138 -33.605  1.00  0.00    -0.326 N 
HETATM   29  H   UNL     1      -4.781  -0.269 -34.009  1.00  0.00     0.169 HD
HETATM   30  O   UNL     1      -3.282  -1.914 -31.746  1.00  0.00    -0.272 OA
BRANCH  28  31
HETATM   31  C   UNL     1      -5.085  -2.307 -34.062  1.00  0.00     0.037 A 
HETATM   32  C   UNL     1      -4.461  -3.554 -34.153  1.00  0.00     0.066 A 
HETATM   33  C   UNL     1      -5.181  -4.655 -34.617  1.00  0.00     0.067 A 
HETATM   34  C   UNL     1      -6.512  -4.536 -34.994  1.00  0.00     0.036 A 
HETATM   35  C   UNL     1      -7.137  -3.295 -34.915  1.00  0.00     0.005 A 
HETATM   36  C   UNL     1      -6.425  -2.185 -34.453  1.00  0.00     0.029 A 
BRANCH  33  37
HETATM   37  O   UNL     1      -4.602  -5.887 -34.717  1.00  0.00    -0.361 OA
HETATM   38  H   UNL     1      -4.855  -6.274 -35.572  1.00  0.00     0.217 HD
ENDBRANCH  33  37
ENDBRANCH  28  31
ENDBRANCH  26  27
ENDBRANCH  25  26
ENDBRANCH   2  25
TORSDOF 9
ENDMDL
MODEL 9
REMARK VINA RESULT:      -8.1      8.574     16.246
REMARK  9 active torsions:
REMARK  status: ('A' for Active; 'I' for Inactive)
REMARK    1  A    between atoms: C_2  and  N_3 
REMARK    2  A    between atoms: C_4  and  S_5 
REMARK    3  A    between atoms: S_5  and  C_6 
REMARK    4  A    between atoms: C_6  and  C_7 
REMARK       I    between atoms: C_7  and  N_8 
REMARK    5  A    between atoms: N_8  and  C_9 
REMARK    6  A    between atoms: C_11  and  O_12 
REMARK    7  A    between atoms: C_19  and  C_20 
REMARK    8  A    between atoms: C_23  and  S_24 
REMARK    9  A    between atoms: S_24  and  N_25 
ROOT
HETATM    1  N   UNL     1       1.220  10.066 -24.676  1.00  0.00    -0.308 N 
HETATM    2  C   UNL     1       0.763   9.845 -25.949  1.00  0.00     0.192 A 
HETATM    3  N   UNL     1       1.488   8.931 -26.539  1.00  0.00    -0.122 NA
HETATM    4  N   UNL     1       2.500   8.600 -25.682  1.00  0.00    -0.128 NA
HETATM    5  C   UNL     1       2.364   9.295 -24.564  1.00  0.00     0.164 A 
ENDROOT
BRANCH   5   6
HETATM    6  C   UNL     1       3.358   9.280 -23.488  1.00  0.00     0.012 A 
HETATM    7  C   UNL     1       3.263   8.264 -22.521  1.00  0.00     0.017 A 
HETATM    8  C   UNL     1       4.146   8.205 -21.442  1.00  0.00     0.026 A 
HETATM    9  C   UNL     1       5.151   9.166 -21.330  1.00  0.00     0.074 A 
HETATM   10  C   UNL     1       5.250  10.200 -22.265  1.00  0.00     0.026 A 
HETATM   11  C   UNL     1       4.349  10.259 -23.336  1.00  0.00     0.017 A 
BRANCH   9  12
HETATM   12  S   UNL     1       6.246   9.134 -19.943  1.00  0.00     0.243 S 
HETATM   13  O   UNL     1       6.226  10.428 -19.304  1.00  0.00    -0.206 OA
HETATM   14  O   UNL     1       6.025   7.923 -19.181  1.00  0.00    -0.206 OA
BRANCH  12  15
HETATM   15  N   UNL     1       7.796   8.949 -20.659  1.00  0.00    -0.203 NA
HETATM   16  C   UNL     1       7.886   8.013 -21.824  1.00  0.00     0.135 C 
HETATM   17  C   UNL     1       7.911   6.527 -21.405  1.00  0.00     0.250 C 
HETATM   18  N   UNL     1       8.976   6.268 -20.342  1.00  0.00    -0.073 N 
HETATM   19  H   UNL     1       9.892   6.431 -20.778  1.00  0.00     0.279 HD
HETATM   20  C   UNL     1       8.952   4.836 -19.883  1.00  0.00     0.269 C 
HETATM   21  C   UNL     1       8.858   7.232 -19.161  1.00  0.00     0.250 C 
HETATM   22  C   UNL     1       8.886   8.685 -19.664  1.00  0.00     0.135 C 
ENDBRANCH  12  15
ENDBRANCH   9  12
ENDBRANCH   5   6
BRANCH   1  23
HETATM   23  C   UNL     1       0.659  10.976 -23.701  1.00  0.00     0.128 C 
HETATM   24  C   UNL     1      -0.099  10.252 -22.599  1.00  0.00     0.027 C 
ENDBRANCH   1  23
BRANCH   2  25
HETATM   25  S   UNL     1      -0.541  10.670 -26.721  1.00  0.00    -0.081 SA
BRANCH  25  26
HETATM   26  C   UNL     1      -1.879   9.455 -26.565  1.00  0.00     0.185 C 
BRANCH  26  27
HETATM   27  C   UNL     1      -1.770   8.207 -27.432  1.00  0.00     0.231 C 
HETATM   28  N   UNL     1      -0.764   8.228 -28.375  1.00  0.00    -0.326 N 
HETATM   29  H   UNL     1      -0.375   9.144 -28.587  1.00  0.00     0.169 HD
HETATM   30  O   UNL     1      -2.524   7.259 -27.206  1.00  0.00    -0.272 OA
BRANCH  28  31
HETATM   31  C   UNL     1      -0.395   7.196 -29.263  1.00  0.00     0.037 A 
HETATM   32  C   UNL     1       0.246   6.020 -28.866  1.00  0.00     0.066 A 
HETATM   33  C   UNL     1       0.572   5.055 -29.819  1.00  0.00     0.067 A 
HETATM   34  C   UNL     1       0.273   5.241 -31.163  1.00  0.00     0.036 A 
HETATM   35  C   UNL     1      -0.358   6.414 -31.566  1.00  0.00     0.005 A 
HETATM   36  C   UNL     1      -0.687   7.389 -30.621  1.00  0.00     0.029 A 
BRANCH  33  37
HETATM   37  O   UNL     1       1.198   3.895 -29.465  1.00  0.00    -0.361 OA
HETATM   38  H   UNL     1       0.878   3.186 -30.048  1.00  0.00     0.217 HD
ENDBRANCH  33  37
ENDBRANCH  28  31
ENDBRANCH  26  27
ENDBRANCH  25  26
ENDBRANCH   2  25
TORSDOF 9
ENDMDL
MODEL 10
REMARK VINA RESULT:      -8.0      3.727     11.765
REMARK  9 active torsions:
REMARK  status: ('A' for Active; 'I' for Inactive)
REMARK    1  A    between atoms: C_2  and  N_3 
REMARK    2  A    between atoms: C_4  and  S_5 
REMARK    3  A    between atoms: S_5  and  C_6 
REMARK    4  A    between atoms: C_6  and  C_7 
REMARK       I    between atoms: C_7  and  N_8 
REMARK    5  A    between atoms: N_8  and  C_9 
REMARK    6  A    between atoms: C_11  and  O_12 
REMARK    7  A    between atoms: C_19  and  C_20 
REMARK    8  A    between atoms: C_23  and  S_24 
REMARK    9  A    between atoms: S_24  and  N_25 
ROOT
HETATM    1  N   UNL     1      -5.291   4.749 -32.557  1.00  0.00    -0.308 N 
HETATM    2  C   UNL     1      -6.109   3.661 -32.711  1.00  0.00     0.192 A 
HETATM    3  N   UNL     1      -6.168   2.977 -31.598  1.00  0.00    -0.122 NA
HETATM    4  N   UNL     1      -5.307   3.564 -30.715  1.00  0.00    -0.128 NA
HETATM    5  C   UNL     1      -4.753   4.620 -31.289  1.00  0.00     0.164 A 
ENDROOT
BRANCH   5   6
HETATM    6  C   UNL     1      -3.680   5.397 -30.665  1.00  0.00     0.012 A 
HETATM    7  C   UNL     1      -4.040   6.368 -29.714  1.00  0.00     0.017 A 
HETATM    8  C   UNL     1      -3.080   7.178 -29.105  1.00  0.00     0.026 A 
HETATM    9  C   UNL     1      -1.736   7.009 -29.437  1.00  0.00     0.074 A 
HETATM   10  C   UNL     1      -1.355   6.068 -30.398  1.00  0.00     0.026 A 
HETATM   11  C   UNL     1      -2.329   5.271 -31.014  1.00  0.00     0.017 A 
BRANCH   9  12
HETATM   12  S   UNL     1      -0.513   8.061 -28.711  1.00  0.00     0.243 S 
HETATM   13  O   UNL     1       0.752   7.823 -29.364  1.00  0.00    -0.206 OA
HETATM   14  O   UNL     1      -1.045   9.401 -28.582  1.00  0.00    -0.206 OA
BRANCH  12  15
HETATM   15  N   UNL     1      -0.374   7.465 -27.107  1.00  0.00    -0.203 NA
HETATM   16  C   UNL     1      -1.094   8.235 -26.043  1.00  0.00     0.135 C 
HETATM   17  C   UNL     1      -0.354   9.522 -25.621  1.00  0.00     0.250 C 
HETATM   18  N   UNL     1       1.104   9.234 -25.271  1.00  0.00    -0.073 N 
HETATM   19  H   UNL     1       1.108   8.644 -24.430  1.00  0.00     0.279 HD
HETATM   20  C   UNL     1       1.844  10.499 -24.930  1.00  0.00     0.269 C 
HETATM   21  C   UNL     1       1.819   8.455 -26.375  1.00  0.00     0.250 C 
HETATM   22  C   UNL     1       1.039   7.170 -26.701  1.00  0.00     0.135 C 
ENDBRANCH  12  15
ENDBRANCH   9  12
ENDBRANCH   5   6
BRANCH   1  23
HETATM   23  C   UNL     1      -5.002   5.761 -33.550  1.00  0.00     0.128 C 
HETATM   24  C   UNL     1      -3.812   5.395 -34.423  1.00  0.00     0.027 C 
ENDBRANCH   1  23
BRANCH   2  25
HETATM   25  S   UNL     1      -6.921   3.193 -34.160  1.00  0.00    -0.081 SA
BRANCH  25  26
HETATM   26  C   UNL     1      -7.612   1.585 -33.684  1.00  0.00     0.185 C 
BRANCH  26  27
HETATM   27  C   UNL     1      -7.044   0.363 -34.395  1.00  0.00     0.231 C 
HETATM   28  N   UNL     1      -6.585  -0.641 -33.568  1.00  0.00    -0.326 N 
HETATM   29  H   UNL     1      -6.419  -0.377 -32.600  1.00  0.00     0.169 HD
HETATM   30  O   UNL     1      -7.083   0.319 -35.625  1.00  0.00    -0.272 OA
BRANCH  28  31
HETATM   31  C   UNL     1      -6.071  -1.900 -33.945  1.00  0.00     0.037 A 
HETATM   32  C   UNL     1      -6.829  -2.896 -34.564  1.00  0.00     0.066 A 
HETATM   33  C   UNL     1      -6.232  -4.111 -34.900  1.00  0.00     0.067 A 
HETATM   34  C   UNL     1      -4.891  -4.352 -34.630  1.00  0.00     0.036 A 
HETATM   35  C   UNL     1      -4.132  -3.367 -34.005  1.00  0.00     0.005 A 
HETATM   36  C   UNL     1      -4.721  -2.147 -33.662  1.00  0.00     0.029 A 
BRANCH  33  37
HETATM   37  O   UNL     1      -6.944  -5.105 -35.507  1.00  0.00    -0.361 OA
HETATM   38  H   UNL     1      -6.640  -5.181 -36.427  1.00  0.00     0.217 HD
ENDBRANCH  33  37
ENDBRANCH  28  31
ENDBRANCH  26  27
ENDBRANCH  25  26
ENDBRANCH   2  25
TORSDOF 9
ENDMDL
