MODEL 1
REMARK VINA RESULT:      -8.1      0.000      0.000
REMARK  5 active torsions:
REMARK  status: ('A' for Active; 'I' for Inactive)
REMARK    1  A    between atoms: C_2  and  C_3 
REMARK    2  A    between atoms: C_11  and  N_12 
REMARK       I    between atoms: N_12  and  C_13 
REMARK    3  A    between atoms: C_13  and  C_14 
REMARK    4  A    between atoms: C_16  and  O_17 
REMARK    5  A    between atoms: O_17  and  C_18 
ROOT
HETATM    1  N   UNL     1      -4.057   2.773 -31.786  1.00  0.00    -0.323 N 
HETATM    2  C   UNL     1      -3.184   3.741 -32.248  1.00  0.00     0.256 C 
HETATM    3  O   UNL     1      -2.497   3.681 -33.261  1.00  0.00    -0.267 OA
HETATM    4  H   UNL     1      -4.509   2.930 -30.897  1.00  0.00     0.169 HD
ENDROOT
BRANCH   1   5
HETATM    5  C   UNL     1      -4.313   1.514 -32.374  1.00  0.00     0.035 A 
HETATM    6  C   UNL     1      -3.441   0.427 -32.306  1.00  0.00     0.030 A 
HETATM    7  C   UNL     1      -3.786  -0.806 -32.878  1.00  0.00     0.016 A 
HETATM    8  C   UNL     1      -5.010  -0.979 -33.535  1.00  0.00    -0.005 A 
HETATM    9  C   UNL     1      -5.870   0.123 -33.624  1.00  0.00     0.016 A 
HETATM   10  C   UNL     1      -5.528   1.353 -33.048  1.00  0.00     0.030 A 
BRANCH   8  11
HETATM   11  C   UNL     1      -5.392  -2.276 -34.104  1.00  0.00     0.088 A 
HETATM   12  N   UNL     1      -4.498  -3.269 -34.267  1.00  0.00    -0.175 NA
HETATM   13  N   UNL     1      -5.196  -4.274 -34.814  1.00  0.00    -0.289 N 
HETATM   14  H   UNL     1      -4.708  -5.139 -35.023  1.00  0.00     0.188 HD
HETATM   15  C   UNL     1      -6.506  -3.978 -35.022  1.00  0.00     0.111 A 
HETATM   16  C   UNL     1      -6.671  -2.692 -34.573  1.00  0.00     0.053 A 
ENDBRANCH   8  11
ENDBRANCH   1   5
BRANCH   2  17
HETATM   17  C   UNL     1      -3.054   4.961 -31.401  1.00  0.00     0.037 A 
HETATM   18  C   UNL     1      -1.768   5.352 -31.026  1.00  0.00     0.075 A 
HETATM   19  C   UNL     1      -1.631   6.494 -30.265  1.00  0.00     0.165 A 
HETATM   20  N   UNL     1      -2.666   7.253 -29.854  1.00  0.00    -0.237 NA
HETATM   21  C   UNL     1      -3.899   6.859 -30.239  1.00  0.00     0.120 A 
HETATM   22  C   UNL     1      -4.146   5.735 -31.011  1.00  0.00     0.036 A 
BRANCH  19  23
HETATM   23  O   UNL     1      -0.342   6.854 -29.920  1.00  0.00    -0.329 OA
BRANCH  23  24
HETATM   24  C   UNL     1      -0.148   7.328 -28.573  1.00  0.00     0.130 C 
HETATM   25  C   UNL     1       0.426   6.322 -27.541  1.00  0.00     0.032 C 
HETATM   26  C   UNL     1       1.275   7.478 -26.979  1.00  0.00     0.005 C 
HETATM   27  C   UNL     1       1.156   8.144 -28.362  1.00  0.00     0.032 C 
ENDBRANCH  23  24
ENDBRANCH  19  23
ENDBRANCH   2  17
TORSDOF 5
ENDMDL
MODEL 2
REMARK VINA RESULT:      -7.9      4.601      5.510
REMARK  5 active torsions:
REMARK  status: ('A' for Active; 'I' for Inactive)
REMARK    1  A    between atoms: C_2  and  C_3 
REMARK    2  A    between atoms: C_11  and  N_12 
REMARK       I    between atoms: N_12  and  C_13 
REMARK    3  A    between atoms: C_13  and  C_14 
REMARK    4  A    between atoms: C_16  and  O_17 
REMARK    5  A    between atoms: O_17  and  C_18 
ROOT
HETATM    1  N   UNL     1      -7.099   3.294 -34.025  1.00  0.00    -0.323 N 
HETATM    2  C   UNL     1      -6.070   3.234 -33.102  1.00  0.00     0.256 C 
HETATM    3  O   UNL     1      -6.093   2.661 -32.019  1.00  0.00    -0.267 OA
HETATM    4  H   UNL     1      -6.962   3.860 -34.849  1.00  0.00     0.169 HD
ENDROOT
BRANCH   1   5
HETATM    5  C   UNL     1      -8.389   2.731 -33.892  1.00  0.00     0.035 A 
HETATM    6  C   UNL     1      -9.521   3.450 -33.509  1.00  0.00     0.030 A 
HETATM    7  C   UNL     1     -10.777   2.829 -33.443  1.00  0.00     0.016 A 
HETATM    8  C   UNL     1     -10.927   1.473 -33.754  1.00  0.00    -0.005 A 
HETATM    9  C   UNL     1      -9.783   0.749 -34.111  1.00  0.00     0.016 A 
HETATM   10  C   UNL     1      -8.529   1.370 -34.183  1.00  0.00     0.030 A 
BRANCH   8  11
HETATM   11  C   UNL     1     -12.244   0.827 -33.722  1.00  0.00     0.088 A 
HETATM   12  N   UNL     1     -12.398  -0.446 -33.313  1.00  0.00    -0.175 NA
HETATM   13  N   UNL     1     -13.712  -0.688 -33.430  1.00  0.00    -0.289 N 
HETATM   14  H   UNL     1     -14.055  -1.606 -33.168  1.00  0.00     0.188 HD
HETATM   15  C   UNL     1     -14.421   0.370 -33.905  1.00  0.00     0.111 A 
HETATM   16  C   UNL     1     -13.504   1.371 -34.105  1.00  0.00     0.053 A 
ENDBRANCH   8  11
ENDBRANCH   1   5
BRANCH   2  17
HETATM   17  C   UNL     1      -4.824   3.969 -33.464  1.00  0.00     0.037 A 
HETATM   18  C   UNL     1      -3.737   3.862 -32.596  1.00  0.00     0.075 A 
HETATM   19  C   UNL     1      -2.570   4.515 -32.932  1.00  0.00     0.165 A 
HETATM   20  N   UNL     1      -2.418   5.259 -34.045  1.00  0.00    -0.237 NA
HETATM   21  C   UNL     1      -3.481   5.338 -34.873  1.00  0.00     0.120 A 
HETATM   22  C   UNL     1      -4.695   4.714 -34.635  1.00  0.00     0.036 A 
BRANCH  19  23
HETATM   23  O   UNL     1      -1.513   4.378 -32.053  1.00  0.00    -0.329 OA
BRANCH  23  24
HETATM   24  C   UNL     1      -0.603   5.493 -31.967  1.00  0.00     0.130 C 
HETATM   25  C   UNL     1      -1.041   6.704 -31.101  1.00  0.00     0.032 C 
HETATM   26  C   UNL     1       0.413   6.797 -30.605  1.00  0.00     0.005 C 
HETATM   27  C   UNL     1       0.551   5.302 -30.946  1.00  0.00     0.032 C 
ENDBRANCH  23  24
ENDBRANCH  19  23
ENDBRANCH   2  17
TORSDOF 5
ENDMDL
MODEL 3
REMARK VINA RESULT:      -7.8      1.745      2.367
REMARK  5 active torsions:
REMARK  status: ('A' for Active; 'I' for Inactive)
REMARK    1  A    between atoms: C_2  and  C_3 
REMARK    2  A    between atoms: C_11  and  N_12 
REMARK       I    between atoms: N_12  and  C_13 
REMARK    3  A    between atoms: C_13  and  C_14 
REMARK    4  A    between atoms: C_16  and  O_17 
REMARK    5  A    between atoms: O_17  and  C_18 
ROOT
HETATM    1  N   UNL     1      -4.739   2.269 -32.018  1.00  0.00    -0.323 N 
HETATM    2  C   UNL     1      -5.156   2.645 -30.753  1.00  0.00     0.256 C 
HETATM    3  O   UNL     1      -5.678   1.922 -29.912  1.00  0.00    -0.267 OA
HETATM    4  H   UNL     1      -4.385   2.988 -32.631  1.00  0.00     0.169 HD
ENDROOT
BRANCH   1   5
HETATM    5  C   UNL     1      -4.854   0.987 -32.601  1.00  0.00     0.035 A 
HETATM    6  C   UNL     1      -3.848   0.021 -32.572  1.00  0.00     0.030 A 
HETATM    7  C   UNL     1      -4.055  -1.247 -33.135  1.00  0.00     0.016 A 
HETATM    8  C   UNL     1      -5.270  -1.575 -33.746  1.00  0.00    -0.005 A 
HETATM    9  C   UNL     1      -6.267  -0.592 -33.798  1.00  0.00     0.016 A 
HETATM   10  C   UNL     1      -6.063   0.673 -33.229  1.00  0.00     0.030 A 
BRANCH   8  11
HETATM   11  C   UNL     1      -5.505  -2.910 -34.306  1.00  0.00     0.088 A 
HETATM   12  N   UNL     1      -4.564  -3.871 -34.263  1.00  0.00    -0.175 NA
HETATM   13  N   UNL     1      -5.124  -4.928 -34.870  1.00  0.00    -0.289 N 
HETATM   14  H   UNL     1      -4.579  -5.780 -34.949  1.00  0.00     0.188 HD
HETATM   15  C   UNL     1      -6.388  -4.695 -35.315  1.00  0.00     0.111 A 
HETATM   16  C   UNL     1      -6.670  -3.399 -34.965  1.00  0.00     0.053 A 
ENDBRANCH   8  11
ENDBRANCH   1   5
BRANCH   2  17
HETATM   17  C   UNL     1      -4.972   4.082 -30.404  1.00  0.00     0.037 A 
HETATM   18  C   UNL     1      -4.008   4.799 -31.113  1.00  0.00     0.075 A 
HETATM   19  C   UNL     1      -3.846   6.137 -30.820  1.00  0.00     0.165 A 
HETATM   20  N   UNL     1      -4.557   6.793 -29.881  1.00  0.00    -0.237 NA
HETATM   21  C   UNL     1      -5.490   6.079 -29.217  1.00  0.00     0.120 A 
HETATM   22  C   UNL     1      -5.741   4.735 -29.441  1.00  0.00     0.036 A 
BRANCH  19  23
HETATM   23  O   UNL     1      -2.888   6.816 -31.549  1.00  0.00    -0.329 OA
BRANCH  23  24
HETATM   24  C   UNL     1      -1.550   6.280 -31.505  1.00  0.00     0.130 C 
HETATM   25  C   UNL     1      -0.443   7.072 -32.250  1.00  0.00     0.032 C 
HETATM   26  C   UNL     1       0.491   6.756 -31.067  1.00  0.00     0.005 C 
HETATM   27  C   UNL     1      -0.772   6.602 -30.201  1.00  0.00     0.032 C 
ENDBRANCH  23  24
ENDBRANCH  19  23
ENDBRANCH   2  17
TORSDOF 5
ENDMDL
MODEL 4
REMARK VINA RESULT:      -7.6      3.100     10.747
REMARK  5 active torsions:
REMARK  status: ('A' for Active; 'I' for Inactive)
REMARK    1  A    between atoms: C_2  and  C_3 
REMARK    2  A    between atoms: C_11  and  N_12 
REMARK       I    between atoms: N_12  and  C_13 
REMARK    3  A    between atoms: C_13  and  C_14 
REMARK    4  A    between atoms: C_16  and  O_17 
REMARK    5  A    between atoms: O_17  and  C_18 
ROOT
HETATM    1  N   UNL     1      -0.878   6.222 -29.647  1.00  0.00    -0.323 N 
HETATM    2  C   UNL     1      -0.354   5.271 -30.505  1.00  0.00     0.256 C 
HETATM    3  O   UNL     1       0.779   4.806 -30.474  1.00  0.00    -0.267 OA
HETATM    4  H   UNL     1      -1.809   6.563 -29.832  1.00  0.00     0.169 HD
ENDROOT
BRANCH   1   5
HETATM    5  C   UNL     1      -0.204   6.866 -28.584  1.00  0.00     0.035 A 
HETATM    6  C   UNL     1      -0.316   6.489 -27.245  1.00  0.00     0.030 A 
HETATM    7  C   UNL     1       0.420   7.149 -26.250  1.00  0.00     0.016 A 
HETATM    8  C   UNL     1       1.280   8.204 -26.572  1.00  0.00    -0.005 A 
HETATM    9  C   UNL     1       1.368   8.597 -27.914  1.00  0.00     0.016 A 
HETATM   10  C   UNL     1       0.637   7.934 -28.908  1.00  0.00     0.030 A 
BRANCH   8  11
HETATM   11  C   UNL     1       2.080   8.876 -25.540  1.00  0.00     0.088 A 
HETATM   12  N   UNL     1       2.183  10.216 -25.486  1.00  0.00    -0.175 NA
HETATM   13  N   UNL     1       2.988  10.456 -24.441  1.00  0.00    -0.289 N 
HETATM   14  H   UNL     1       3.203  11.421 -24.213  1.00  0.00     0.188 HD
HETATM   15  C   UNL     1       3.421   9.329 -23.816  1.00  0.00     0.111 A 
HETATM   16  C   UNL     1       2.852   8.285 -24.499  1.00  0.00     0.053 A 
ENDBRANCH   8  11
ENDBRANCH   1   5
BRANCH   2  17
HETATM   17  C   UNL     1      -1.263   4.796 -31.587  1.00  0.00     0.037 A 
HETATM   18  C   UNL     1      -2.262   3.887 -31.237  1.00  0.00     0.075 A 
HETATM   19  C   UNL     1      -3.127   3.460 -32.222  1.00  0.00     0.165 A 
HETATM   20  N   UNL     1      -3.061   3.861 -33.507  1.00  0.00    -0.237 NA
HETATM   21  C   UNL     1      -2.092   4.748 -33.818  1.00  0.00     0.120 A 
HETATM   22  C   UNL     1      -1.179   5.248 -32.903  1.00  0.00     0.036 A 
BRANCH  19  23
HETATM   23  O   UNL     1      -4.108   2.567 -31.836  1.00  0.00    -0.329 OA
BRANCH  23  24
HETATM   24  C   UNL     1      -3.937   1.201 -32.264  1.00  0.00     0.130 C 
HETATM   25  C   UNL     1      -3.159   0.251 -31.315  1.00  0.00     0.032 C 
HETATM   26  C   UNL     1      -4.184  -0.842 -31.671  1.00  0.00     0.005 C 
HETATM   27  C   UNL     1      -5.169   0.291 -32.012  1.00  0.00     0.032 C 
ENDBRANCH  23  24
ENDBRANCH  19  23
ENDBRANCH   2  17
TORSDOF 5
ENDMDL
MODEL 5
REMARK VINA RESULT:      -7.5      2.537      9.869
REMARK  5 active torsions:
REMARK  status: ('A' for Active; 'I' for Inactive)
REMARK    1  A    between atoms: C_2  and  C_3 
REMARK    2  A    between atoms: C_11  and  N_12 
REMARK       I    between atoms: N_12  and  C_13 
REMARK    3  A    between atoms: C_13  and  C_14 
REMARK    4  A    between atoms: C_16  and  O_17 
REMARK    5  A    between atoms: O_17  and  C_18 
ROOT
HETATM    1  N   UNL     1      -5.010   3.176 -32.963  1.00  0.00    -0.323 N 
HETATM    2  C   UNL     1      -5.611   2.037 -32.457  1.00  0.00     0.256 C 
HETATM    3  O   UNL     1      -5.506   1.601 -31.317  1.00  0.00    -0.267 OA
HETATM    4  H   UNL     1      -5.133   3.379 -33.943  1.00  0.00     0.169 HD
ENDROOT
BRANCH   1   5
HETATM    5  C   UNL     1      -4.137   4.049 -32.274  1.00  0.00     0.035 A 
HETATM    6  C   UNL     1      -4.560   5.124 -31.493  1.00  0.00     0.030 A 
HETATM    7  C   UNL     1      -3.633   5.919 -30.804  1.00  0.00     0.016 A 
HETATM    8  C   UNL     1      -2.260   5.659 -30.885  1.00  0.00    -0.005 A 
HETATM    9  C   UNL     1      -1.838   4.595 -31.693  1.00  0.00     0.016 A 
HETATM   10  C   UNL     1      -2.765   3.797 -32.377  1.00  0.00     0.030 A 
BRANCH   8  11
HETATM   11  C   UNL     1      -1.288   6.465 -30.138  1.00  0.00     0.088 A 
HETATM   12  N   UNL     1      -1.639   7.162 -29.042  1.00  0.00    -0.175 NA
HETATM   13  N   UNL     1      -0.512   7.771 -28.646  1.00  0.00    -0.289 N 
HETATM   14  H   UNL     1      -0.549   8.359 -27.820  1.00  0.00     0.188 HD
HETATM   15  C   UNL     1       0.558   7.508 -29.442  1.00  0.00     0.111 A 
HETATM   16  C   UNL     1       0.095   6.663 -30.418  1.00  0.00     0.053 A 
ENDBRANCH   8  11
ENDBRANCH   1   5
BRANCH   2  17
HETATM   17  C   UNL     1      -6.443   1.257 -33.417  1.00  0.00     0.037 A 
HETATM   18  C   UNL     1      -5.872   0.121 -33.991  1.00  0.00     0.075 A 
HETATM   19  C   UNL     1      -6.639  -0.626 -34.860  1.00  0.00     0.165 A 
HETATM   20  N   UNL     1      -7.908  -0.319 -35.197  1.00  0.00    -0.237 NA
HETATM   21  C   UNL     1      -8.441   0.779 -34.620  1.00  0.00     0.120 A 
HETATM   22  C   UNL     1      -7.761   1.592 -33.727  1.00  0.00     0.036 A 
BRANCH  19  23
HETATM   23  O   UNL     1      -6.042  -1.748 -35.401  1.00  0.00    -0.329 OA
BRANCH  23  24
HETATM   24  C   UNL     1      -5.977  -2.912 -34.553  1.00  0.00     0.130 C 
HETATM   25  C   UNL     1      -6.405  -4.268 -35.172  1.00  0.00     0.032 C 
HETATM   26  C   UNL     1      -5.229  -4.913 -34.416  1.00  0.00     0.005 C 
HETATM   27  C   UNL     1      -4.559  -3.528 -34.418  1.00  0.00     0.032 C 
ENDBRANCH  23  24
ENDBRANCH  19  23
ENDBRANCH   2  17
TORSDOF 5
ENDMDL
MODEL 6
REMARK VINA RESULT:      -7.4      6.438      8.846
REMARK  5 active torsions:
REMARK  status: ('A' for Active; 'I' for Inactive)
REMARK    1  A    between atoms: C_2  and  C_3 
REMARK    2  A    between atoms: C_11  and  N_12 
REMARK       I    between atoms: N_12  and  C_13 
REMARK    3  A    between atoms: C_13  and  C_14 
REMARK    4  A    between atoms: C_16  and  O_17 
REMARK    5  A    between atoms: O_17  and  C_18 
ROOT
HETATM    1  N   UNL     1      -8.597   1.795 -34.122  1.00  0.00    -0.323 N 
HETATM    2  C   UNL     1      -8.370   3.158 -34.037  1.00  0.00     0.256 C 
HETATM    3  O   UNL     1      -7.294   3.707 -33.831  1.00  0.00    -0.267 OA
HETATM    4  H   UNL     1      -9.550   1.482 -34.230  1.00  0.00     0.169 HD
ENDROOT
BRANCH   1   5
HETATM    5  C   UNL     1      -7.641   0.766 -33.962  1.00  0.00     0.035 A 
HETATM    6  C   UNL     1      -6.958   0.511 -32.772  1.00  0.00     0.030 A 
HETATM    7  C   UNL     1      -6.056  -0.558 -32.679  1.00  0.00     0.016 A 
HETATM    8  C   UNL     1      -5.813  -1.394 -33.775  1.00  0.00    -0.005 A 
HETATM    9  C   UNL     1      -6.480  -1.117 -34.975  1.00  0.00     0.016 A 
HETATM   10  C   UNL     1      -7.386  -0.052 -35.067  1.00  0.00     0.030 A 
BRANCH   8  11
HETATM   11  C   UNL     1      -4.897  -2.536 -33.673  1.00  0.00     0.088 A 
HETATM   12  N   UNL     1      -3.943  -2.596 -32.726  1.00  0.00    -0.175 NA
HETATM   13  N   UNL     1      -3.309  -3.756 -32.950  1.00  0.00    -0.289 N 
HETATM   14  H   UNL     1      -2.540  -4.008 -32.338  1.00  0.00     0.188 HD
HETATM   15  C   UNL     1      -3.802  -4.451 -34.009  1.00  0.00     0.111 A 
HETATM   16  C   UNL     1      -4.834  -3.693 -34.501  1.00  0.00     0.053 A 
ENDBRANCH   8  11
ENDBRANCH   1   5
BRANCH   2  17
HETATM   17  C   UNL     1      -9.570   4.030 -34.185  1.00  0.00     0.037 A 
HETATM   18  C   UNL     1     -10.823   3.421 -34.115  1.00  0.00     0.075 A 
HETATM   19  C   UNL     1     -11.942   4.220 -34.223  1.00  0.00     0.165 A 
HETATM   20  N   UNL     1     -11.898   5.555 -34.402  1.00  0.00    -0.237 NA
HETATM   21  C   UNL     1     -10.674   6.121 -34.456  1.00  0.00     0.120 A 
HETATM   22  C   UNL     1      -9.488   5.413 -34.348  1.00  0.00     0.036 A 
BRANCH  19  23
HETATM   23  O   UNL     1     -13.164   3.582 -34.141  1.00  0.00    -0.329 OA
BRANCH  23  24
HETATM   24  C   UNL     1     -13.153   2.240 -33.614  1.00  0.00     0.130 C 
HETATM   25  C   UNL     1     -14.460   1.724 -32.955  1.00  0.00     0.032 C 
HETATM   26  C   UNL     1     -14.191   0.366 -33.630  1.00  0.00     0.005 C 
HETATM   27  C   UNL     1     -13.365   1.131 -34.680  1.00  0.00     0.032 C 
ENDBRANCH  23  24
ENDBRANCH  19  23
ENDBRANCH   2  17
TORSDOF 5
ENDMDL
MODEL 7
REMARK VINA RESULT:      -7.4      7.314     10.440
REMARK  5 active torsions:
REMARK  status: ('A' for Active; 'I' for Inactive)
REMARK    1  A    between atoms: C_2  and  C_3 
REMARK    2  A    between atoms: C_11  and  N_12 
REMARK       I    between atoms: N_12  and  C_13 
REMARK    3  A    between atoms: C_13  and  C_14 
REMARK    4  A    between atoms: C_16  and  O_17 
REMARK    5  A    between atoms: O_17  and  C_18 
ROOT
HETATM    1  N   UNL     1     -10.715   0.293 -32.978  1.00  0.00    -0.323 N 
HETATM    2  C   UNL     1     -11.335   1.359 -33.605  1.00  0.00     0.256 C 
HETATM    3  O   UNL     1     -10.783   2.310 -34.145  1.00  0.00    -0.267 OA
HETATM    4  H   UNL     1     -11.299  -0.389 -32.517  1.00  0.00     0.169 HD
ENDROOT
BRANCH   1   5
HETATM    5  C   UNL     1      -9.324   0.101 -32.812  1.00  0.00     0.035 A 
HETATM    6  C   UNL     1      -8.495  -0.483 -33.769  1.00  0.00     0.030 A 
HETATM    7  C   UNL     1      -7.115  -0.598 -33.548  1.00  0.00     0.016 A 
HETATM    8  C   UNL     1      -6.534  -0.135 -32.362  1.00  0.00    -0.005 A 
HETATM    9  C   UNL     1      -7.375   0.426 -31.392  1.00  0.00     0.016 A 
HETATM   10  C   UNL     1      -8.753   0.546 -31.615  1.00  0.00     0.030 A 
BRANCH   8  11
HETATM   11  C   UNL     1      -5.086  -0.220 -32.140  1.00  0.00     0.088 A 
HETATM   12  N   UNL     1      -4.242  -0.608 -33.114  1.00  0.00    -0.175 NA
HETATM   13  N   UNL     1      -3.027  -0.576 -32.548  1.00  0.00    -0.289 N 
HETATM   14  H   UNL     1      -2.227  -0.836 -33.116  1.00  0.00     0.188 HD
HETATM   15  C   UNL     1      -3.042  -0.191 -31.244  1.00  0.00     0.111 A 
HETATM   16  C   UNL     1      -4.359   0.050 -30.945  1.00  0.00     0.053 A 
ENDBRANCH   8  11
ENDBRANCH   1   5
BRANCH   2  17
HETATM   17  C   UNL     1     -12.826   1.349 -33.589  1.00  0.00     0.037 A 
HETATM   18  C   UNL     1     -13.467   2.236 -32.724  1.00  0.00     0.075 A 
HETATM   19  C   UNL     1     -14.846   2.256 -32.718  1.00  0.00     0.165 A 
HETATM   20  N   UNL     1     -15.614   1.463 -33.492  1.00  0.00    -0.237 NA
HETATM   21  C   UNL     1     -14.969   0.621 -34.327  1.00  0.00     0.120 A 
HETATM   22  C   UNL     1     -13.589   0.528 -34.419  1.00  0.00     0.036 A 
BRANCH  19  23
HETATM   23  O   UNL     1     -15.445   3.154 -31.856  1.00  0.00    -0.329 OA
BRANCH  23  24
HETATM   24  C   UNL     1     -15.156   4.549 -32.079  1.00  0.00     0.130 C 
HETATM   25  C   UNL     1     -16.331   5.551 -31.932  1.00  0.00     0.032 C 
HETATM   26  C   UNL     1     -15.344   6.510 -31.242  1.00  0.00     0.005 C 
HETATM   27  C   UNL     1     -14.511   5.272 -30.867  1.00  0.00     0.032 C 
ENDBRANCH  23  24
ENDBRANCH  19  23
ENDBRANCH   2  17
TORSDOF 5
ENDMDL
MODEL 8
REMARK VINA RESULT:      -7.4      6.584      8.347
REMARK  5 active torsions:
REMARK  status: ('A' for Active; 'I' for Inactive)
REMARK    1  A    between atoms: C_2  and  C_3 
REMARK    2  A    between atoms: C_11  and  N_12 
REMARK       I    between atoms: N_12  and  C_13 
REMARK    3  A    between atoms: C_13  and  C_14 
REMARK    4  A    between atoms: C_16  and  O_17 
REMARK    5  A    between atoms: O_17  and  C_18 
ROOT
HETATM    1  N   UNL     1      -8.497   1.863 -34.687  1.00  0.00    -0.323 N 
HETATM    2  C   UNL     1      -9.787   1.906 -34.188  1.00  0.00     0.256 C 
HETATM    3  O   UNL     1     -10.306   1.091 -33.434  1.00  0.00    -0.267 OA
HETATM    4  H   UNL     1      -8.225   2.569 -35.354  1.00  0.00     0.169 HD
ENDROOT
BRANCH   1   5
HETATM    5  C   UNL     1      -7.531   0.859 -34.448  1.00  0.00     0.035 A 
HETATM    6  C   UNL     1      -6.414   1.028 -33.630  1.00  0.00     0.030 A 
HETATM    7  C   UNL     1      -5.522  -0.032 -33.406  1.00  0.00     0.016 A 
HETATM    8  C   UNL     1      -5.725  -1.282 -34.000  1.00  0.00    -0.005 A 
HETATM    9  C   UNL     1      -6.833  -1.438 -34.844  1.00  0.00     0.016 A 
HETATM   10  C   UNL     1      -7.727  -0.382 -35.062  1.00  0.00     0.030 A 
BRANCH   8  11
HETATM   11  C   UNL     1      -4.816  -2.404 -33.742  1.00  0.00     0.088 A 
HETATM   12  N   UNL     1      -3.958  -2.396 -32.706  1.00  0.00    -0.175 NA
HETATM   13  N   UNL     1      -3.297  -3.559 -32.798  1.00  0.00    -0.289 N 
HETATM   14  H   UNL     1      -2.589  -3.765 -32.101  1.00  0.00     0.188 HD
HETATM   15  C   UNL     1      -3.681  -4.323 -33.855  1.00  0.00     0.111 A 
HETATM   16  C   UNL     1      -4.665  -3.608 -34.490  1.00  0.00     0.053 A 
ENDBRANCH   8  11
ENDBRANCH   1   5
BRANCH   2  17
HETATM   17  C   UNL     1     -10.626   3.049 -34.647  1.00  0.00     0.037 A 
HETATM   18  C   UNL     1     -10.010   4.296 -34.763  1.00  0.00     0.075 A 
HETATM   19  C   UNL     1     -10.768   5.357 -35.212  1.00  0.00     0.165 A 
HETATM   20  N   UNL     1     -12.073   5.265 -35.537  1.00  0.00    -0.237 NA
HETATM   21  C   UNL     1     -12.643   4.046 -35.426  1.00  0.00     0.120 A 
HETATM   22  C   UNL     1     -11.970   2.914 -34.995  1.00  0.00     0.036 A 
BRANCH  19  23
HETATM   23  O   UNL     1     -10.121   6.573 -35.323  1.00  0.00    -0.329 OA
BRANCH  23  24
HETATM   24  C   UNL     1     -10.884   7.655 -35.894  1.00  0.00     0.130 C 
HETATM   25  C   UNL     1     -10.740   9.052 -35.234  1.00  0.00     0.032 C 
HETATM   26  C   UNL     1     -10.752   9.653 -36.652  1.00  0.00     0.005 C 
HETATM   27  C   UNL     1     -10.247   8.290 -37.159  1.00  0.00     0.032 C 
ENDBRANCH  23  24
ENDBRANCH  19  23
ENDBRANCH   2  17
TORSDOF 5
ENDMDL
MODEL 9
REMARK VINA RESULT:      -7.2      3.825      4.503
REMARK  5 active torsions:
REMARK  status: ('A' for Active; 'I' for Inactive)
REMARK    1  A    between atoms: C_2  and  C_3 
REMARK    2  A    between atoms: C_11  and  N_12 
REMARK       I    between atoms: N_12  and  C_13 
REMARK    3  A    between atoms: C_13  and  C_14 
REMARK    4  A    between atoms: C_16  and  O_17 
REMARK    5  A    between atoms: O_17  and  C_18 
ROOT
HETATM    1  N   UNL     1      -5.193   4.295 -33.021  1.00  0.00    -0.323 N 
HETATM    2  C   UNL     1      -4.424   4.816 -34.047  1.00  0.00     0.256 C 
HETATM    3  O   UNL     1      -4.698   4.806 -35.241  1.00  0.00    -0.267 OA
HETATM    4  H   UNL     1      -4.810   4.314 -32.088  1.00  0.00     0.169 HD
ENDROOT
BRANCH   1   5
HETATM    5  C   UNL     1      -6.432   3.626 -33.147  1.00  0.00     0.035 A 
HETATM    6  C   UNL     1      -6.597   2.250 -32.987  1.00  0.00     0.030 A 
HETATM    7  C   UNL     1      -7.869   1.665 -33.083  1.00  0.00     0.016 A 
HETATM    8  C   UNL     1      -9.002   2.443 -33.347  1.00  0.00    -0.005 A 
HETATM    9  C   UNL     1      -8.826   3.820 -33.534  1.00  0.00     0.016 A 
HETATM   10  C   UNL     1      -7.557   4.405 -33.432  1.00  0.00     0.030 A 
BRANCH   8  11
HETATM   11  C   UNL     1     -10.339   1.842 -33.414  1.00  0.00     0.088 A 
HETATM   12  N   UNL     1     -10.536   0.528 -33.201  1.00  0.00    -0.175 NA
HETATM   13  N   UNL     1     -11.855   0.349 -33.355  1.00  0.00    -0.289 N 
HETATM   14  H   UNL     1     -12.230  -0.587 -33.234  1.00  0.00     0.188 HD
HETATM   15  C   UNL     1     -12.527   1.488 -33.668  1.00  0.00     0.111 A 
HETATM   16  C   UNL     1     -11.578   2.478 -33.713  1.00  0.00     0.053 A 
ENDBRANCH   8  11
ENDBRANCH   1   5
BRANCH   2  17
HETATM   17  C   UNL     1      -3.122   5.420 -33.646  1.00  0.00     0.037 A 
HETATM   18  C   UNL     1      -2.407   4.792 -32.625  1.00  0.00     0.075 A 
HETATM   19  C   UNL     1      -1.188   5.324 -32.262  1.00  0.00     0.165 A 
HETATM   20  N   UNL     1      -0.648   6.422 -32.828  1.00  0.00    -0.237 NA
HETATM   21  C   UNL     1      -1.355   7.005 -33.819  1.00  0.00     0.120 A 
HETATM   22  C   UNL     1      -2.583   6.546 -34.267  1.00  0.00     0.036 A 
BRANCH  19  23
HETATM   23  O   UNL     1      -0.505   4.670 -31.255  1.00  0.00    -0.329 OA
BRANCH  23  24
HETATM   24  C   UNL     1       0.286   5.495 -30.377  1.00  0.00     0.130 C 
HETATM   25  C   UNL     1      -0.471   6.323 -29.305  1.00  0.00     0.032 C 
HETATM   26  C   UNL     1       0.661   5.972 -28.323  1.00  0.00     0.005 C 
HETATM   27  C   UNL     1       0.935   4.731 -29.191  1.00  0.00     0.032 C 
ENDBRANCH  23  24
ENDBRANCH  19  23
ENDBRANCH   2  17
TORSDOF 5
ENDMDL
MODEL 10
REMARK VINA RESULT:      -7.2      1.682      2.606
REMARK  5 active torsions:
REMARK  status: ('A' for Active; 'I' for Inactive)
REMARK    1  A    between atoms: C_2  and  C_3 
REMARK    2  A    between atoms: C_11  and  N_12 
REMARK       I    between atoms: N_12  and  C_13 
REMARK    3  A    between atoms: C_13  and  C_14 
REMARK    4  A    between atoms: C_16  and  O_17 
REMARK    5  A    between atoms: O_17  and  C_18 
ROOT
HETATM    1  N   UNL     1      -3.373   2.833 -31.598  1.00  0.00    -0.323 N 
HETATM    2  C   UNL     1      -2.706   3.837 -32.277  1.00  0.00     0.256 C 
HETATM    3  O   UNL     1      -2.516   3.899 -33.487  1.00  0.00    -0.267 OA
HETATM    4  H   UNL     1      -3.396   2.880 -30.591  1.00  0.00     0.169 HD
ENDROOT
BRANCH   1   5
HETATM    5  C   UNL     1      -3.945   1.668 -32.158  1.00  0.00     0.035 A 
HETATM    6  C   UNL     1      -5.177   1.638 -32.812  1.00  0.00     0.030 A 
HETATM    7  C   UNL     1      -5.658   0.450 -33.381  1.00  0.00     0.016 A 
HETATM    8  C   UNL     1      -4.920  -0.736 -33.304  1.00  0.00    -0.005 A 
HETATM    9  C   UNL     1      -3.696  -0.707 -32.622  1.00  0.00     0.016 A 
HETATM   10  C   UNL     1      -3.213   0.481 -32.059  1.00  0.00     0.030 A 
BRANCH   8  11
HETATM   11  C   UNL     1      -5.401  -1.974 -33.928  1.00  0.00     0.088 A 
HETATM   12  N   UNL     1      -4.570  -2.995 -34.209  1.00  0.00    -0.175 NA
HETATM   13  N   UNL     1      -5.350  -3.928 -34.773  1.00  0.00    -0.289 N 
HETATM   14  H   UNL     1      -4.920  -4.799 -35.066  1.00  0.00     0.188 HD
HETATM   15  C   UNL     1      -6.653  -3.557 -34.880  1.00  0.00     0.111 A 
HETATM   16  C   UNL     1      -6.725  -2.297 -34.341  1.00  0.00     0.053 A 
ENDBRANCH   8  11
ENDBRANCH   1   5
BRANCH   2  17
HETATM   17  C   UNL     1      -2.142   4.932 -31.437  1.00  0.00     0.037 A 
HETATM   18  C   UNL     1      -3.041   5.730 -30.729  1.00  0.00     0.075 A 
HETATM   19  C   UNL     1      -2.532   6.729 -29.927  1.00  0.00     0.165 A 
HETATM   20  N   UNL     1      -1.216   6.988 -29.790  1.00  0.00    -0.237 NA
HETATM   21  C   UNL     1      -0.367   6.195 -30.477  1.00  0.00     0.120 A 
HETATM   22  C   UNL     1      -0.773   5.158 -31.303  1.00  0.00     0.036 A 
BRANCH  19  23
HETATM   23  O   UNL     1      -3.453   7.493 -29.235  1.00  0.00    -0.329 OA
BRANCH  23  24
HETATM   24  C   UNL     1      -3.513   7.288 -27.809  1.00  0.00     0.130 C 
HETATM   25  C   UNL     1      -3.237   8.517 -26.903  1.00  0.00     0.032 C 
HETATM   26  C   UNL     1      -4.374   8.022 -25.991  1.00  0.00     0.005 C 
HETATM   27  C   UNL     1      -4.949   7.295 -27.220  1.00  0.00     0.032 C 
ENDBRANCH  23  24
ENDBRANCH  19  23
ENDBRANCH   2  17
TORSDOF 5
ENDMDL
