MODEL 1
REMARK VINA RESULT:      -9.9      0.000      0.000
REMARK  9 active torsions:
REMARK  status: ('A' for Active; 'I' for Inactive)
REMARK    1  A    between atoms: C_2  and  C_3 
REMARK    2  A    between atoms: C_3  and  O_4 
REMARK    3  A    between atoms: O_4  and  C_5 
REMARK    4  A    between atoms: C_8  and  C_9 
REMARK       I    between atoms: C_9  and  N_10 
REMARK    5  A    between atoms: N_10  and  C_11 
REMARK    6  A    between atoms: C_11  and  N_12 
REMARK    7  A    between atoms: N_12  and  C_13 
REMARK    8  A    between atoms: C_15  and  C_16 
REMARK    9  A    between atoms: C_27  and  O_28 
ROOT
HETATM    1  C   UNL     1      -3.169   3.910 -31.511  1.00  0.00     0.035 A 
HETATM    2  C   UNL     1      -3.358   2.647 -32.083  1.00  0.00     0.048 A 
HETATM    3  C   UNL     1      -4.653   2.134 -32.296  1.00  0.00     0.052 A 
HETATM    4  C   UNL     1      -5.755   2.919 -31.919  1.00  0.00     0.080 A 
HETATM    5  C   UNL     1      -5.578   4.175 -31.350  1.00  0.00     0.040 A 
HETATM    6  C   UNL     1      -4.290   4.664 -31.141  1.00  0.00     0.032 A 
ENDROOT
BRANCH   1   7
HETATM    7  N   UNL     1      -1.913   4.460 -31.184  1.00  0.00    -0.333 N 
HETATM    8  H   UNL     1      -1.440   4.016 -30.400  1.00  0.00     0.168 HD
BRANCH   7   9
HETATM    9  C   UNL     1      -1.095   5.331 -31.851  1.00  0.00     0.179 C 
HETATM   10  S   UNL     1      -1.375   5.508 -33.494  1.00  0.00    -0.040 SA
BRANCH   9  11
HETATM   11  N   UNL     1      -0.064   5.893 -31.138  1.00  0.00    -0.299 N 
HETATM   12  C   UNL     1       0.372   5.404 -29.917  1.00  0.00     0.257 C 
HETATM   13  O   UNL     1       0.824   4.267 -29.795  1.00  0.00    -0.267 OA
HETATM   14  H   UNL     1      -0.011   6.887 -31.290  1.00  0.00     0.171 HD
BRANCH  12  15
HETATM   15  C   UNL     1       0.387   6.326 -28.740  1.00  0.00     0.032 A 
HETATM   16  C   UNL     1       0.878   7.623 -28.955  1.00  0.00     0.020 A 
HETATM   17  C   UNL     1       0.992   8.540 -27.905  1.00  0.00     0.038 A 
HETATM   18  C   UNL     1       0.610   8.175 -26.617  1.00  0.00     0.068 A 
HETATM   19  C   UNL     1       0.111   6.888 -26.396  1.00  0.00     0.038 A 
HETATM   20  C   UNL     1       0.004   5.961 -27.445  1.00  0.00     0.020 A 
BRANCH  18  21
HETATM   21  O   UNL     1       0.678   8.971 -25.505  1.00  0.00    -0.351 OA
BRANCH  21  22
HETATM   22  C   UNL     1       1.846   9.783 -25.366  1.00  0.00     0.175 C 
BRANCH  22  23
HETATM   23  C   UNL     1       2.934   8.948 -24.696  1.00  0.00     0.022 C 
HETATM   24  C   UNL     1       2.743   8.883 -23.190  1.00  0.00     0.007 C 
ENDBRANCH  22  23
ENDBRANCH  21  22
ENDBRANCH  18  21
ENDBRANCH  12  15
ENDBRANCH   9  11
ENDBRANCH   7   9
ENDBRANCH   1   7
BRANCH   3  25
HETATM   25  C   UNL     1      -4.863   0.802 -32.858  1.00  0.00     0.183 A 
HETATM   26  O   UNL     1      -3.931  -0.163 -32.576  1.00  0.00    -0.289 OA
HETATM   27  C   UNL     1      -4.406  -1.271 -33.216  1.00  0.00     0.107 A 
HETATM   28  C   UNL     1      -5.582  -0.924 -33.852  1.00  0.00     0.094 A 
HETATM   29  C   UNL     1      -3.840  -2.539 -33.238  1.00  0.00     0.047 A 
HETATM   30  N   UNL     1      -5.860   0.402 -33.632  1.00  0.00    -0.221 NA
HETATM   31  C   UNL     1      -6.278  -1.903 -34.572  1.00  0.00     0.041 A 
HETATM   32  C   UNL     1      -5.749  -3.211 -34.631  1.00  0.00    -0.054 A 
HETATM   33  C   UNL     1      -4.542  -3.526 -33.960  1.00  0.00    -0.053 A 
HETATM   34  C   UNL     1      -6.530  -4.262 -35.377  1.00  0.00     0.049 C 
HETATM   35  C   UNL     1      -3.968  -4.920 -34.007  1.00  0.00     0.049 C 
ENDBRANCH   3  25
BRANCH   4  36
HETATM   36  O   UNL     1      -7.054   2.506 -32.063  1.00  0.00    -0.360 OA
HETATM   37  H   UNL     1      -7.491   2.526 -31.185  1.00  0.00     0.217 HD
ENDBRANCH   4  36
TORSDOF 9
ENDMDL
MODEL 2
REMARK VINA RESULT:      -9.6      1.021      1.521
REMARK  9 active torsions:
REMARK  status: ('A' for Active; 'I' for Inactive)
REMARK    1  A    between atoms: C_2  and  C_3 
REMARK    2  A    between atoms: C_3  and  O_4 
REMARK    3  A    between atoms: O_4  and  C_5 
REMARK    4  A    between atoms: C_8  and  C_9 
REMARK       I    between atoms: C_9  and  N_10 
REMARK    5  A    between atoms: N_10  and  C_11 
REMARK    6  A    between atoms: C_11  and  N_12 
REMARK    7  A    between atoms: N_12  and  C_13 
REMARK    8  A    between atoms: C_15  and  C_16 
REMARK    9  A    between atoms: C_27  and  O_28 
ROOT
HETATM    1  C   UNL     1      -3.281   3.992 -31.461  1.00  0.00     0.035 A 
HETATM    2  C   UNL     1      -3.417   2.721 -32.032  1.00  0.00     0.048 A 
HETATM    3  C   UNL     1      -4.691   2.153 -32.241  1.00  0.00     0.052 A 
HETATM    4  C   UNL     1      -5.823   2.891 -31.860  1.00  0.00     0.080 A 
HETATM    5  C   UNL     1      -5.699   4.153 -31.292  1.00  0.00     0.040 A 
HETATM    6  C   UNL     1      -4.432   4.696 -31.086  1.00  0.00     0.032 A 
ENDROOT
BRANCH   1   7
HETATM    7  N   UNL     1      -2.049   4.594 -31.136  1.00  0.00    -0.333 N 
HETATM    8  H   UNL     1      -1.632   4.279 -30.264  1.00  0.00     0.168 HD
BRANCH   7   9
HETATM    9  C   UNL     1      -1.185   5.360 -31.872  1.00  0.00     0.179 C 
HETATM   10  S   UNL     1      -1.471   5.432 -33.522  1.00  0.00    -0.040 SA
BRANCH   9  11
HETATM   11  N   UNL     1      -0.113   5.907 -31.209  1.00  0.00    -0.299 N 
HETATM   12  C   UNL     1       0.345   5.440 -29.989  1.00  0.00     0.257 C 
HETATM   13  O   UNL     1       0.763   4.292 -29.846  1.00  0.00    -0.267 OA
HETATM   14  H   UNL     1      -0.032   6.894 -31.394  1.00  0.00     0.171 HD
BRANCH  12  15
HETATM   15  C   UNL     1       0.430   6.394 -28.841  1.00  0.00     0.032 A 
HETATM   16  C   UNL     1       0.020   5.917 -27.585  1.00  0.00     0.020 A 
HETATM   17  C   UNL     1       0.004   6.750 -26.462  1.00  0.00     0.038 A 
HETATM   18  C   UNL     1       0.402   8.078 -26.574  1.00  0.00     0.068 A 
HETATM   19  C   UNL     1       0.820   8.559 -27.818  1.00  0.00     0.038 A 
HETATM   20  C   UNL     1       0.830   7.730 -28.951  1.00  0.00     0.020 A 
BRANCH  18  21
HETATM   21  O   UNL     1       0.425   8.996 -25.559  1.00  0.00    -0.351 OA
BRANCH  21  22
HETATM   22  C   UNL     1      -0.705   9.867 -25.454  1.00  0.00     0.175 C 
BRANCH  22  23
HETATM   23  C   UNL     1      -1.354   9.648 -24.090  1.00  0.00     0.022 C 
HETATM   24  C   UNL     1      -2.560   8.728 -24.185  1.00  0.00     0.007 C 
ENDBRANCH  22  23
ENDBRANCH  21  22
ENDBRANCH  18  21
ENDBRANCH  12  15
ENDBRANCH   9  11
ENDBRANCH   7   9
ENDBRANCH   1   7
BRANCH   3  25
HETATM   25  C   UNL     1      -4.845   0.814 -32.803  1.00  0.00     0.183 A 
HETATM   26  O   UNL     1      -3.910  -0.130 -32.467  1.00  0.00    -0.289 OA
HETATM   27  C   UNL     1      -4.329  -1.252 -33.121  1.00  0.00     0.107 A 
HETATM   28  C   UNL     1      -5.478  -0.933 -33.819  1.00  0.00     0.094 A 
HETATM   29  C   UNL     1      -3.738  -2.508 -33.105  1.00  0.00     0.047 A 
HETATM   30  N   UNL     1      -5.792   0.389 -33.624  1.00  0.00    -0.221 NA
HETATM   31  C   UNL     1      -6.116  -1.930 -34.566  1.00  0.00     0.041 A 
HETATM   32  C   UNL     1      -5.559  -3.228 -34.589  1.00  0.00    -0.054 A 
HETATM   33  C   UNL     1      -4.382  -3.514 -33.854  1.00  0.00    -0.053 A 
HETATM   34  C   UNL     1      -6.279  -4.299 -35.366  1.00  0.00     0.049 C 
HETATM   35  C   UNL     1      -3.779  -4.896 -33.861  1.00  0.00     0.049 C 
ENDBRANCH   3  25
BRANCH   4  36
HETATM   36  O   UNL     1      -7.104   2.423 -32.001  1.00  0.00    -0.360 OA
HETATM   37  H   UNL     1      -7.371   1.979 -31.167  1.00  0.00     0.217 HD
ENDBRANCH   4  36
TORSDOF 9
ENDMDL
MODEL 3
REMARK VINA RESULT:      -9.4      1.912      2.505
REMARK  9 active torsions:
REMARK  status: ('A' for Active; 'I' for Inactive)
REMARK    1  A    between atoms: C_2  and  C_3 
REMARK    2  A    between atoms: C_3  and  O_4 
REMARK    3  A    between atoms: O_4  and  C_5 
REMARK    4  A    between atoms: C_8  and  C_9 
REMARK       I    between atoms: C_9  and  N_10 
REMARK    5  A    between atoms: N_10  and  C_11 
REMARK    6  A    between atoms: C_11  and  N_12 
REMARK    7  A    between atoms: N_12  and  C_13 
REMARK    8  A    between atoms: C_15  and  C_16 
REMARK    9  A    between atoms: C_27  and  O_28 
ROOT
HETATM    1  C   UNL     1      -5.334   4.297 -32.280  1.00  0.00     0.035 A 
HETATM    2  C   UNL     1      -5.362   3.037 -32.889  1.00  0.00     0.048 A 
HETATM    3  C   UNL     1      -5.522   1.865 -32.123  1.00  0.00     0.052 A 
HETATM    4  C   UNL     1      -5.653   1.988 -30.730  1.00  0.00     0.080 A 
HETATM    5  C   UNL     1      -5.626   3.234 -30.115  1.00  0.00     0.040 A 
HETATM    6  C   UNL     1      -5.460   4.382 -30.888  1.00  0.00     0.032 A 
ENDROOT
BRANCH   1   7
HETATM    7  N   UNL     1      -5.089   5.507 -32.959  1.00  0.00    -0.333 N 
HETATM    8  H   UNL     1      -5.876   6.151 -32.989  1.00  0.00     0.168 HD
BRANCH   7   9
HETATM    9  C   UNL     1      -3.931   6.091 -33.396  1.00  0.00     0.179 C 
HETATM   10  S   UNL     1      -3.281   5.486 -34.818  1.00  0.00    -0.040 SA
BRANCH   9  11
HETATM   11  N   UNL     1      -3.359   7.037 -32.581  1.00  0.00    -0.299 N 
HETATM   12  C   UNL     1      -2.018   7.377 -32.636  1.00  0.00     0.257 C 
HETATM   13  O   UNL     1      -1.507   7.851 -33.650  1.00  0.00    -0.267 OA
HETATM   14  H   UNL     1      -3.815   7.073 -31.684  1.00  0.00     0.171 HD
BRANCH  12  15
HETATM   15  C   UNL     1      -1.196   7.261 -31.392  1.00  0.00     0.032 A 
HETATM   16  C   UNL     1      -0.154   6.320 -31.405  1.00  0.00     0.020 A 
HETATM   17  C   UNL     1       0.632   6.092 -30.271  1.00  0.00     0.038 A 
HETATM   18  C   UNL     1       0.391   6.806 -29.101  1.00  0.00     0.068 A 
HETATM   19  C   UNL     1      -0.638   7.752 -29.083  1.00  0.00     0.038 A 
HETATM   20  C   UNL     1      -1.436   7.978 -30.216  1.00  0.00     0.020 A 
BRANCH  18  21
HETATM   21  O   UNL     1       1.079   6.674 -27.925  1.00  0.00    -0.351 OA
BRANCH  21  22
HETATM   22  C   UNL     1       0.745   7.589 -26.878  1.00  0.00     0.175 C 
BRANCH  22  23
HETATM   23  C   UNL     1       1.958   8.475 -26.611  1.00  0.00     0.022 C 
HETATM   24  C   UNL     1       2.143   8.737 -25.125  1.00  0.00     0.007 C 
ENDBRANCH  22  23
ENDBRANCH  21  22
ENDBRANCH  18  21
ENDBRANCH  12  15
ENDBRANCH   9  11
ENDBRANCH   7   9
ENDBRANCH   1   7
BRANCH   3  25
HETATM   25  C   UNL     1      -5.517   0.542 -32.742  1.00  0.00     0.183 A 
HETATM   26  O   UNL     1      -4.454  -0.282 -32.476  1.00  0.00    -0.289 OA
HETATM   27  C   UNL     1      -4.743  -1.421 -33.170  1.00  0.00     0.107 A 
HETATM   28  C   UNL     1      -5.946  -1.229 -33.821  1.00  0.00     0.094 A 
HETATM   29  C   UNL     1      -3.990  -2.586 -33.229  1.00  0.00     0.047 A 
HETATM   30  N   UNL     1      -6.426   0.030 -33.556  1.00  0.00    -0.221 NA
HETATM   31  C   UNL     1      -6.471  -2.269 -34.596  1.00  0.00     0.041 A 
HETATM   32  C   UNL     1      -5.748  -3.479 -34.694  1.00  0.00    -0.054 A 
HETATM   33  C   UNL     1      -4.520  -3.637 -34.006  1.00  0.00    -0.053 A 
HETATM   34  C   UNL     1      -6.346  -4.604 -35.501  1.00  0.00     0.049 C 
HETATM   35  C   UNL     1      -3.741  -4.925 -34.094  1.00  0.00     0.049 C 
ENDBRANCH   3  25
BRANCH   4  36
HETATM   36  O   UNL     1      -5.793   0.912 -29.893  1.00  0.00    -0.360 OA
HETATM   37  H   UNL     1      -5.303   1.093 -29.062  1.00  0.00     0.217 HD
ENDBRANCH   4  36
TORSDOF 9
ENDMDL
MODEL 4
REMARK VINA RESULT:      -9.1      4.883      9.901
REMARK  9 active torsions:
REMARK  status: ('A' for Active; 'I' for Inactive)
REMARK    1  A    between atoms: C_2  and  C_3 
REMARK    2  A    between atoms: C_3  and  O_4 
REMARK    3  A    between atoms: O_4  and  C_5 
REMARK    4  A    between atoms: C_8  and  C_9 
REMARK       I    between atoms: C_9  and  N_10 
REMARK    5  A    between atoms: N_10  and  C_11 
REMARK    6  A    between atoms: C_11  and  N_12 
REMARK    7  A    between atoms: N_12  and  C_13 
REMARK    8  A    between atoms: C_15  and  C_16 
REMARK    9  A    between atoms: C_27  and  O_28 
ROOT
HETATM    1  C   UNL     1      -9.602   3.630 -32.546  1.00  0.00     0.035 A 
HETATM    2  C   UNL     1      -8.244   3.885 -32.765  1.00  0.00     0.048 A 
HETATM    3  C   UNL     1      -7.313   3.816 -31.709  1.00  0.00     0.052 A 
HETATM    4  C   UNL     1      -7.780   3.486 -30.426  1.00  0.00     0.080 A 
HETATM    5  C   UNL     1      -9.127   3.231 -30.198  1.00  0.00     0.040 A 
HETATM    6  C   UNL     1     -10.034   3.310 -31.253  1.00  0.00     0.032 A 
ENDROOT
BRANCH   1   7
HETATM    7  N   UNL     1     -10.609   3.763 -33.524  1.00  0.00    -0.333 N 
HETATM    8  H   UNL     1     -10.722   4.701 -33.900  1.00  0.00     0.168 HD
BRANCH   7   9
HETATM    9  C   UNL     1     -11.319   2.835 -34.235  1.00  0.00     0.179 C 
HETATM   10  S   UNL     1     -12.967   3.107 -34.382  1.00  0.00    -0.040 SA
BRANCH   9  11
HETATM   11  N   UNL     1     -10.639   1.722 -34.669  1.00  0.00    -0.299 N 
HETATM   12  C   UNL     1     -10.228   0.706 -33.822  1.00  0.00     0.257 C 
HETATM   13  O   UNL     1     -11.027   0.039 -33.168  1.00  0.00    -0.267 OA
HETATM   14  H   UNL     1     -10.060   1.933 -35.464  1.00  0.00     0.171 HD
BRANCH  12  15
HETATM   15  C   UNL     1      -8.777   0.344 -33.788  1.00  0.00     0.032 A 
HETATM   16  C   UNL     1      -8.189   0.194 -32.521  1.00  0.00     0.020 A 
HETATM   17  C   UNL     1      -6.826  -0.083 -32.382  1.00  0.00     0.038 A 
HETATM   18  C   UNL     1      -6.023  -0.218 -33.511  1.00  0.00     0.068 A 
HETATM   19  C   UNL     1      -6.602  -0.079 -34.776  1.00  0.00     0.038 A 
HETATM   20  C   UNL     1      -7.969   0.207 -34.921  1.00  0.00     0.020 A 
BRANCH  18  21
HETATM   21  O   UNL     1      -4.680  -0.480 -33.513  1.00  0.00    -0.351 OA
BRANCH  21  22
HETATM   22  C   UNL     1      -4.229  -1.537 -32.663  1.00  0.00     0.175 C 
BRANCH  22  23
HETATM   23  C   UNL     1      -2.931  -1.095 -31.994  1.00  0.00     0.022 C 
HETATM   24  C   UNL     1      -3.111   0.202 -31.224  1.00  0.00     0.007 C 
ENDBRANCH  22  23
ENDBRANCH  21  22
ENDBRANCH  18  21
ENDBRANCH  12  15
ENDBRANCH   9  11
ENDBRANCH   7   9
ENDBRANCH   1   7
BRANCH   3  25
HETATM   25  C   UNL     1      -5.899   4.115 -31.917  1.00  0.00     0.183 A 
HETATM   26  O   UNL     1      -5.488   4.392 -33.195  1.00  0.00    -0.289 OA
HETATM   27  C   UNL     1      -4.153   4.639 -33.062  1.00  0.00     0.107 A 
HETATM   28  C   UNL     1      -3.824   4.494 -31.728  1.00  0.00     0.094 A 
HETATM   29  C   UNL     1      -3.255   4.986 -34.063  1.00  0.00     0.047 A 
HETATM   30  N   UNL     1      -4.939   4.145 -31.007  1.00  0.00    -0.221 NA
HETATM   31  C   UNL     1      -2.501   4.712 -31.327  1.00  0.00     0.041 A 
HETATM   32  C   UNL     1      -1.542   5.067 -32.303  1.00  0.00    -0.054 A 
HETATM   33  C   UNL     1      -1.922   5.211 -33.661  1.00  0.00    -0.053 A 
HETATM   34  C   UNL     1      -0.131   5.337 -31.850  1.00  0.00     0.049 C 
HETATM   35  C   UNL     1      -0.913   5.596 -34.712  1.00  0.00     0.049 C 
ENDBRANCH   3  25
BRANCH   4  36
HETATM   36  O   UNL     1      -6.963   3.412 -29.328  1.00  0.00    -0.360 OA
HETATM   37  H   UNL     1      -7.000   4.268 -28.849  1.00  0.00     0.217 HD
ENDBRANCH   4  36
TORSDOF 9
ENDMDL
MODEL 5
REMARK VINA RESULT:      -9.1      2.725     11.226
REMARK  9 active torsions:
REMARK  status: ('A' for Active; 'I' for Inactive)
REMARK    1  A    between atoms: C_2  and  C_3 
REMARK    2  A    between atoms: C_3  and  O_4 
REMARK    3  A    between atoms: O_4  and  C_5 
REMARK    4  A    between atoms: C_8  and  C_9 
REMARK       I    between atoms: C_9  and  N_10 
REMARK    5  A    between atoms: N_10  and  C_11 
REMARK    6  A    between atoms: C_11  and  N_12 
REMARK    7  A    between atoms: N_12  and  C_13 
REMARK    8  A    between atoms: C_15  and  C_16 
REMARK    9  A    between atoms: C_27  and  O_28 
ROOT
HETATM    1  C   UNL     1      -4.890   5.370 -33.841  1.00  0.00     0.035 A 
HETATM    2  C   UNL     1      -4.327   6.018 -32.736  1.00  0.00     0.048 A 
HETATM    3  C   UNL     1      -2.992   6.472 -32.763  1.00  0.00     0.052 A 
HETATM    4  C   UNL     1      -2.236   6.257 -33.928  1.00  0.00     0.080 A 
HETATM    5  C   UNL     1      -2.786   5.615 -35.031  1.00  0.00     0.040 A 
HETATM    6  C   UNL     1      -4.105   5.167 -34.983  1.00  0.00     0.032 A 
ENDROOT
BRANCH   1   7
HETATM    7  N   UNL     1      -6.182   4.809 -33.865  1.00  0.00    -0.333 N 
HETATM    8  H   UNL     1      -6.444   4.368 -34.744  1.00  0.00     0.168 HD
BRANCH   7   9
HETATM    9  C   UNL     1      -7.079   4.538 -32.868  1.00  0.00     0.179 C 
HETATM   10  S   UNL     1      -7.919   5.848 -32.243  1.00  0.00    -0.040 SA
BRANCH   9  11
HETATM   11  N   UNL     1      -7.130   3.246 -32.404  1.00  0.00    -0.299 N 
HETATM   12  C   UNL     1      -6.007   2.450 -32.248  1.00  0.00     0.257 C 
HETATM   13  O   UNL     1      -5.094   2.755 -31.483  1.00  0.00    -0.267 OA
HETATM   14  H   UNL     1      -7.991   2.795 -32.666  1.00  0.00     0.171 HD
BRANCH  12  15
HETATM   15  C   UNL     1      -5.958   1.132 -32.953  1.00  0.00     0.032 A 
HETATM   16  C   UNL     1      -5.010   0.202 -32.497  1.00  0.00     0.020 A 
HETATM   17  C   UNL     1      -4.843  -1.034 -33.129  1.00  0.00     0.038 A 
HETATM   18  C   UNL     1      -5.628  -1.366 -34.229  1.00  0.00     0.068 A 
HETATM   19  C   UNL     1      -6.581  -0.450 -34.683  1.00  0.00     0.038 A 
HETATM   20  C   UNL     1      -6.746   0.796 -34.058  1.00  0.00     0.020 A 
BRANCH  18  21
HETATM   21  O   UNL     1      -5.561  -2.534 -34.940  1.00  0.00    -0.351 OA
BRANCH  21  22
HETATM   22  C   UNL     1      -6.700  -3.394 -34.872  1.00  0.00     0.175 C 
BRANCH  22  23
HETATM   23  C   UNL     1      -6.216  -4.840 -34.949  1.00  0.00     0.022 C 
HETATM   24  C   UNL     1      -4.813  -4.991 -34.386  1.00  0.00     0.007 C 
ENDBRANCH  22  23
ENDBRANCH  21  22
ENDBRANCH  18  21
ENDBRANCH  12  15
ENDBRANCH   9  11
ENDBRANCH   7   9
ENDBRANCH   1   7
BRANCH   3  25
HETATM   25  C   UNL     1      -2.382   7.117 -31.604  1.00  0.00     0.183 A 
HETATM   26  O   UNL     1      -1.172   6.637 -31.171  1.00  0.00    -0.289 OA
HETATM   27  C   UNL     1      -0.866   7.437 -30.109  1.00  0.00     0.107 A 
HETATM   28  C   UNL     1      -1.896   8.344 -29.948  1.00  0.00     0.094 A 
HETATM   29  C   UNL     1       0.272   7.385 -29.314  1.00  0.00     0.047 A 
HETATM   30  N   UNL     1      -2.866   8.124 -30.894  1.00  0.00    -0.221 NA
HETATM   31  C   UNL     1      -1.809   9.294 -28.923  1.00  0.00     0.041 A 
HETATM   32  C   UNL     1      -0.675   9.288 -28.081  1.00  0.00    -0.054 A 
HETATM   33  C   UNL     1       0.362   8.343 -28.284  1.00  0.00    -0.053 A 
HETATM   34  C   UNL     1      -0.579  10.341 -27.008  1.00  0.00     0.049 C 
HETATM   35  C   UNL     1       1.582   8.329 -27.399  1.00  0.00     0.049 C 
ENDBRANCH   3  25
BRANCH   4  36
HETATM   36  O   UNL     1      -0.926   6.640 -34.051  1.00  0.00    -0.360 OA
HETATM   37  H   UNL     1      -0.778   6.967 -34.964  1.00  0.00     0.217 HD
ENDBRANCH   4  36
TORSDOF 9
ENDMDL
MODEL 6
REMARK VINA RESULT:      -9.0      2.318      3.153
REMARK  9 active torsions:
REMARK  status: ('A' for Active; 'I' for Inactive)
REMARK    1  A    between atoms: C_2  and  C_3 
REMARK    2  A    between atoms: C_3  and  O_4 
REMARK    3  A    between atoms: O_4  and  C_5 
REMARK    4  A    between atoms: C_8  and  C_9 
REMARK       I    between atoms: C_9  and  N_10 
REMARK    5  A    between atoms: N_10  and  C_11 
REMARK    6  A    between atoms: C_11  and  N_12 
REMARK    7  A    between atoms: N_12  and  C_13 
REMARK    8  A    between atoms: C_15  and  C_16 
REMARK    9  A    between atoms: C_27  and  O_28 
ROOT
HETATM    1  C   UNL     1      -6.675   4.034 -31.164  1.00  0.00     0.035 A 
HETATM    2  C   UNL     1      -6.335   2.863 -31.853  1.00  0.00     0.048 A 
HETATM    3  C   UNL     1      -7.210   1.759 -31.880  1.00  0.00     0.052 A 
HETATM    4  C   UNL     1      -8.434   1.857 -31.198  1.00  0.00     0.080 A 
HETATM    5  C   UNL     1      -8.781   3.014 -30.511  1.00  0.00     0.040 A 
HETATM    6  C   UNL     1      -7.901   4.094 -30.489  1.00  0.00     0.032 A 
ENDROOT
BRANCH   1   7
HETATM    7  N   UNL     1      -5.824   5.147 -31.012  1.00  0.00    -0.333 N 
HETATM    8  H   UNL     1      -5.083   5.032 -30.326  1.00  0.00     0.168 HD
BRANCH   7   9
HETATM    9  C   UNL     1      -5.657   6.278 -31.765  1.00  0.00     0.179 C 
HETATM   10  S   UNL     1      -7.055   7.062 -32.257  1.00  0.00    -0.040 SA
BRANCH   9  11
HETATM   11  N   UNL     1      -4.373   6.601 -32.133  1.00  0.00    -0.299 N 
HETATM   12  C   UNL     1      -3.293   5.754 -31.948  1.00  0.00     0.257 C 
HETATM   13  O   UNL     1      -3.234   4.648 -32.481  1.00  0.00    -0.267 OA
HETATM   14  H   UNL     1      -4.209   7.592 -32.061  1.00  0.00     0.171 HD
BRANCH  12  15
HETATM   15  C   UNL     1      -2.121   6.247 -31.160  1.00  0.00     0.032 A 
HETATM   16  C   UNL     1      -2.400   6.902 -29.950  1.00  0.00     0.020 A 
HETATM   17  C   UNL     1      -1.378   7.454 -29.171  1.00  0.00     0.038 A 
HETATM   18  C   UNL     1      -0.054   7.356 -29.588  1.00  0.00     0.068 A 
HETATM   19  C   UNL     1       0.233   6.696 -30.787  1.00  0.00     0.038 A 
HETATM   20  C   UNL     1      -0.790   6.149 -31.576  1.00  0.00     0.020 A 
BRANCH  18  21
HETATM   21  O   UNL     1       1.034   7.857 -28.926  1.00  0.00    -0.351 OA
BRANCH  21  22
HETATM   22  C   UNL     1       1.165   7.507 -27.546  1.00  0.00     0.175 C 
BRANCH  22  23
HETATM   23  C   UNL     1       1.898   8.638 -26.831  1.00  0.00     0.022 C 
HETATM   24  C   UNL     1       1.953   8.409 -25.330  1.00  0.00     0.007 C 
ENDBRANCH  22  23
ENDBRANCH  21  22
ENDBRANCH  18  21
ENDBRANCH  12  15
ENDBRANCH   9  11
ENDBRANCH   7   9
ENDBRANCH   1   7
BRANCH   3  25
HETATM   25  C   UNL     1      -6.852   0.519 -32.565  1.00  0.00     0.183 A 
HETATM   26  O   UNL     1      -5.587   0.027 -32.372  1.00  0.00    -0.289 OA
HETATM   27  C   UNL     1      -5.566  -1.119 -33.112  1.00  0.00     0.107 A 
HETATM   28  C   UNL     1      -6.801  -1.257 -33.716  1.00  0.00     0.094 A 
HETATM   29  C   UNL     1      -4.514  -2.013 -33.252  1.00  0.00     0.047 A 
HETATM   30  N   UNL     1      -7.610  -0.202 -33.375  1.00  0.00    -0.221 NA
HETATM   31  C   UNL     1      -7.038  -2.374 -34.526  1.00  0.00     0.041 A 
HETATM   32  C   UNL     1      -6.003  -3.319 -34.706  1.00  0.00    -0.054 A 
HETATM   33  C   UNL     1      -4.752  -3.141 -34.064  1.00  0.00    -0.053 A 
HETATM   34  C   UNL     1      -6.287  -4.536 -35.549  1.00  0.00     0.049 C 
HETATM   35  C   UNL     1      -3.641  -4.144 -34.239  1.00  0.00     0.049 C 
ENDBRANCH   3  25
BRANCH   4  36
HETATM   36  O   UNL     1      -9.346   0.834 -31.145  1.00  0.00    -0.360 OA
HETATM   37  H   UNL     1     -10.076   1.031 -31.772  1.00  0.00     0.217 HD
ENDBRANCH   4  36
TORSDOF 9
ENDMDL
MODEL 7
REMARK VINA RESULT:      -8.9      5.545      7.510
REMARK  9 active torsions:
REMARK  status: ('A' for Active; 'I' for Inactive)
REMARK    1  A    between atoms: C_2  and  C_3 
REMARK    2  A    between atoms: C_3  and  O_4 
REMARK    3  A    between atoms: O_4  and  C_5 
REMARK    4  A    between atoms: C_8  and  C_9 
REMARK       I    between atoms: C_9  and  N_10 
REMARK    5  A    between atoms: N_10  and  C_11 
REMARK    6  A    between atoms: C_11  and  N_12 
REMARK    7  A    between atoms: N_12  and  C_13 
REMARK    8  A    between atoms: C_15  and  C_16 
REMARK    9  A    between atoms: C_27  and  O_28 
ROOT
HETATM    1  C   UNL     1      -9.003   3.122 -30.456  1.00  0.00     0.035 A 
HETATM    2  C   UNL     1      -8.516   1.982 -31.106  1.00  0.00     0.048 A 
HETATM    3  C   UNL     1      -7.133   1.714 -31.161  1.00  0.00     0.052 A 
HETATM    4  C   UNL     1      -6.251   2.620 -30.549  1.00  0.00     0.080 A 
HETATM    5  C   UNL     1      -6.724   3.754 -29.901  1.00  0.00     0.040 A 
HETATM    6  C   UNL     1      -8.094   4.007 -29.862  1.00  0.00     0.032 A 
ENDROOT
BRANCH   1   7
HETATM    7  N   UNL     1     -10.358   3.510 -30.431  1.00  0.00    -0.333 N 
HETATM    8  H   UNL     1     -10.863   3.256 -29.586  1.00  0.00     0.168 HD
BRANCH   7   9
HETATM    9  C   UNL     1     -11.078   4.362 -31.223  1.00  0.00     0.179 C 
HETATM   10  S   UNL     1     -12.741   4.153 -31.226  1.00  0.00    -0.040 SA
BRANCH   9  11
HETATM   11  N   UNL     1     -10.368   5.232 -32.016  1.00  0.00    -0.299 N 
HETATM   12  C   UNL     1      -9.715   4.844 -33.174  1.00  0.00     0.257 C 
HETATM   13  O   UNL     1     -10.319   4.365 -34.132  1.00  0.00    -0.267 OA
HETATM   14  H   UNL     1      -9.957   5.972 -31.472  1.00  0.00     0.171 HD
BRANCH  12  15
HETATM   15  C   UNL     1      -8.250   5.116 -33.297  1.00  0.00     0.032 A 
HETATM   16  C   UNL     1      -7.480   4.155 -33.973  1.00  0.00     0.020 A 
HETATM   17  C   UNL     1      -6.092   4.287 -34.087  1.00  0.00     0.038 A 
HETATM   18  C   UNL     1      -5.449   5.388 -33.530  1.00  0.00     0.068 A 
HETATM   19  C   UNL     1      -6.209   6.354 -32.865  1.00  0.00     0.038 A 
HETATM   20  C   UNL     1      -7.601   6.222 -32.739  1.00  0.00     0.020 A 
BRANCH  18  21
HETATM   21  O   UNL     1      -4.102   5.631 -33.564  1.00  0.00    -0.351 OA
BRANCH  21  22
HETATM   22  C   UNL     1      -3.437   5.395 -34.807  1.00  0.00     0.175 C 
BRANCH  22  23
HETATM   23  C   UNL     1      -1.985   5.028 -34.514  1.00  0.00     0.022 C 
HETATM   24  C   UNL     1      -1.777   4.699 -33.045  1.00  0.00     0.007 C 
ENDBRANCH  22  23
ENDBRANCH  21  22
ENDBRANCH  18  21
ENDBRANCH  12  15
ENDBRANCH   9  11
ENDBRANCH   7   9
ENDBRANCH   1   7
BRANCH   3  25
HETATM   25  C   UNL     1      -6.610   0.548 -31.868  1.00  0.00     0.183 A 
HETATM   26  O   UNL     1      -7.455  -0.112 -32.722  1.00  0.00    -0.289 OA
HETATM   27  C   UNL     1      -6.687  -1.120 -33.227  1.00  0.00     0.107 A 
HETATM   28  C   UNL     1      -5.433  -1.026 -32.655  1.00  0.00     0.094 A 
HETATM   29  C   UNL     1      -7.061  -2.080 -34.157  1.00  0.00     0.047 A 
HETATM   30  N   UNL     1      -5.395   0.029 -31.778  1.00  0.00    -0.221 NA
HETATM   31  C   UNL     1      -4.447  -1.949 -33.026  1.00  0.00     0.041 A 
HETATM   32  C   UNL     1      -4.771  -2.951 -33.968  1.00  0.00    -0.054 A 
HETATM   33  C   UNL     1      -6.068  -3.008 -34.535  1.00  0.00    -0.053 A 
HETATM   34  C   UNL     1      -3.688  -3.912 -34.387  1.00  0.00     0.049 C 
HETATM   35  C   UNL     1      -6.427  -4.066 -35.548  1.00  0.00     0.049 C 
ENDBRANCH   3  25
BRANCH   4  36
HETATM   36  O   UNL     1      -4.889   2.463 -30.562  1.00  0.00    -0.360 OA
HETATM   37  H   UNL     1      -4.470   3.337 -30.406  1.00  0.00     0.217 HD
ENDBRANCH   4  36
TORSDOF 9
ENDMDL
MODEL 8
REMARK VINA RESULT:      -8.8      5.923      9.388
REMARK  9 active torsions:
REMARK  status: ('A' for Active; 'I' for Inactive)
REMARK    1  A    between atoms: C_2  and  C_3 
REMARK    2  A    between atoms: C_3  and  O_4 
REMARK    3  A    between atoms: O_4  and  C_5 
REMARK    4  A    between atoms: C_8  and  C_9 
REMARK       I    between atoms: C_9  and  N_10 
REMARK    5  A    between atoms: N_10  and  C_11 
REMARK    6  A    between atoms: C_11  and  N_12 
REMARK    7  A    between atoms: N_12  and  C_13 
REMARK    8  A    between atoms: C_15  and  C_16 
REMARK    9  A    between atoms: C_27  and  O_28 
ROOT
HETATM    1  C   UNL     1      -6.034   4.240 -31.706  1.00  0.00     0.035 A 
HETATM    2  C   UNL     1      -5.933   3.031 -32.403  1.00  0.00     0.048 A 
HETATM    3  C   UNL     1      -6.119   1.797 -31.747  1.00  0.00     0.052 A 
HETATM    4  C   UNL     1      -6.407   1.807 -30.372  1.00  0.00     0.080 A 
HETATM    5  C   UNL     1      -6.509   3.002 -29.670  1.00  0.00     0.040 A 
HETATM    6  C   UNL     1      -6.315   4.212 -30.334  1.00  0.00     0.032 A 
ENDROOT
BRANCH   1   7
HETATM    7  N   UNL     1      -5.776   5.508 -32.263  1.00  0.00    -0.333 N 
HETATM    8  H   UNL     1      -4.910   5.578 -32.793  1.00  0.00     0.168 HD
BRANCH   7   9
HETATM    9  C   UNL     1      -6.568   6.613 -32.425  1.00  0.00     0.179 C 
HETATM   10  S   UNL     1      -6.095   7.997 -31.607  1.00  0.00    -0.040 SA
BRANCH   9  11
HETATM   11  N   UNL     1      -7.723   6.454 -33.152  1.00  0.00    -0.299 N 
HETATM   12  C   UNL     1      -8.930   6.075 -32.588  1.00  0.00     0.257 C 
HETATM   13  O   UNL     1      -9.489   6.754 -31.729  1.00  0.00    -0.267 OA
HETATM   14  H   UNL     1      -7.527   6.147 -34.091  1.00  0.00     0.171 HD
BRANCH  12  15
HETATM   15  C   UNL     1      -9.619   4.858 -33.119  1.00  0.00     0.032 A 
HETATM   16  C   UNL     1      -9.707   3.752 -32.258  1.00  0.00     0.020 A 
HETATM   17  C   UNL     1     -10.276   2.547 -32.681  1.00  0.00     0.038 A 
HETATM   18  C   UNL     1     -10.775   2.428 -33.975  1.00  0.00     0.068 A 
HETATM   19  C   UNL     1     -10.700   3.528 -34.835  1.00  0.00     0.038 A 
HETATM   20  C   UNL     1     -10.121   4.737 -34.418  1.00  0.00     0.020 A 
BRANCH  18  21
HETATM   21  O   UNL     1     -11.347   1.308 -34.514  1.00  0.00    -0.351 OA
BRANCH  21  22
HETATM   22  C   UNL     1     -12.527   0.816 -33.872  1.00  0.00     0.175 C 
BRANCH  22  23
HETATM   23  C   UNL     1     -13.740   1.447 -34.550  1.00  0.00     0.022 C 
HETATM   24  C   UNL     1     -15.007   0.650 -34.284  1.00  0.00     0.007 C 
ENDBRANCH  22  23
ENDBRANCH  21  22
ENDBRANCH  18  21
ENDBRANCH  12  15
ENDBRANCH   9  11
ENDBRANCH   7   9
ENDBRANCH   1   7
BRANCH   3  25
HETATM   25  C   UNL     1      -5.981   0.528 -32.456  1.00  0.00     0.183 A 
HETATM   26  O   UNL     1      -4.829  -0.189 -32.261  1.00  0.00    -0.289 OA
HETATM   27  C   UNL     1      -5.005  -1.304 -33.027  1.00  0.00     0.107 A 
HETATM   28  C   UNL     1      -6.236  -1.204 -33.648  1.00  0.00     0.094 A 
HETATM   29  C   UNL     1      -4.131  -2.372 -33.176  1.00  0.00     0.047 A 
HETATM   30  N   UNL     1      -6.846  -0.027 -33.291  1.00  0.00    -0.221 NA
HETATM   31  C   UNL     1      -6.660  -2.242 -34.486  1.00  0.00     0.041 A 
HETATM   32  C   UNL     1      -5.810  -3.355 -34.676  1.00  0.00    -0.054 A 
HETATM   33  C   UNL     1      -4.558  -3.421 -34.017  1.00  0.00    -0.053 A 
HETATM   34  C   UNL     1      -6.297  -4.482 -35.550  1.00  0.00     0.049 C 
HETATM   35  C   UNL     1      -3.644  -4.605 -34.203  1.00  0.00     0.049 C 
ENDBRANCH   3  25
BRANCH   4  36
HETATM   36  O   UNL     1      -6.586   0.665 -29.636  1.00  0.00    -0.360 OA
HETATM   37  H   UNL     1      -6.336  -0.108 -30.188  1.00  0.00     0.217 HD
ENDBRANCH   4  36
TORSDOF 9
ENDMDL
MODEL 9
REMARK VINA RESULT:      -8.7      4.089      9.801
REMARK  9 active torsions:
REMARK  status: ('A' for Active; 'I' for Inactive)
REMARK    1  A    between atoms: C_2  and  C_3 
REMARK    2  A    between atoms: C_3  and  O_4 
REMARK    3  A    between atoms: O_4  and  C_5 
REMARK    4  A    between atoms: C_8  and  C_9 
REMARK       I    between atoms: C_9  and  N_10 
REMARK    5  A    between atoms: N_10  and  C_11 
REMARK    6  A    between atoms: C_11  and  N_12 
REMARK    7  A    between atoms: N_12  and  C_13 
REMARK    8  A    between atoms: C_15  and  C_16 
REMARK    9  A    between atoms: C_27  and  O_28 
ROOT
HETATM    1  C   UNL     1      -5.205  -0.258 -32.727  1.00  0.00     0.035 A 
HETATM    2  C   UNL     1      -4.503   0.952 -32.670  1.00  0.00     0.048 A 
HETATM    3  C   UNL     1      -4.665   1.834 -31.582  1.00  0.00     0.052 A 
HETATM    4  C   UNL     1      -5.550   1.472 -30.554  1.00  0.00     0.080 A 
HETATM    5  C   UNL     1      -6.251   0.274 -30.600  1.00  0.00     0.040 A 
HETATM    6  C   UNL     1      -6.084  -0.583 -31.687  1.00  0.00     0.032 A 
ENDROOT
BRANCH   1   7
HETATM    7  N   UNL     1      -5.169  -1.152 -33.816  1.00  0.00    -0.333 N 
HETATM    8  H   UNL     1      -4.239  -1.443 -34.103  1.00  0.00     0.168 HD
BRANCH   7   9
HETATM    9  C   UNL     1      -6.150  -1.886 -34.426  1.00  0.00     0.179 C 
HETATM   10  S   UNL     1      -5.733  -3.438 -34.902  1.00  0.00    -0.040 SA
BRANCH   9  11
HETATM   11  N   UNL     1      -7.341  -1.251 -34.683  1.00  0.00    -0.299 N 
HETATM   12  C   UNL     1      -7.429   0.090 -35.021  1.00  0.00     0.257 C 
HETATM   13  O   UNL     1      -6.897   0.543 -36.032  1.00  0.00    -0.267 OA
HETATM   14  H   UNL     1      -8.093  -1.649 -34.145  1.00  0.00     0.171 HD
BRANCH  12  15
HETATM   15  C   UNL     1      -8.286   0.985 -34.184  1.00  0.00     0.032 A 
HETATM   16  C   UNL     1      -7.766   2.252 -33.872  1.00  0.00     0.020 A 
HETATM   17  C   UNL     1      -8.462   3.139 -33.045  1.00  0.00     0.038 A 
HETATM   18  C   UNL     1      -9.697   2.775 -32.517  1.00  0.00     0.068 A 
HETATM   19  C   UNL     1     -10.226   1.520 -32.830  1.00  0.00     0.038 A 
HETATM   20  C   UNL     1      -9.527   0.622 -33.652  1.00  0.00     0.020 A 
BRANCH  18  21
HETATM   21  O   UNL     1     -10.474   3.543 -31.691  1.00  0.00    -0.351 OA
BRANCH  21  22
HETATM   22  C   UNL     1     -10.056   4.895 -31.490  1.00  0.00     0.175 C 
BRANCH  22  23
HETATM   23  C   UNL     1      -9.426   5.002 -30.104  1.00  0.00     0.022 C 
HETATM   24  C   UNL     1      -8.967   6.419 -29.805  1.00  0.00     0.007 C 
ENDBRANCH  22  23
ENDBRANCH  21  22
ENDBRANCH  18  21
ENDBRANCH  12  15
ENDBRANCH   9  11
ENDBRANCH   7   9
ENDBRANCH   1   7
BRANCH   3  25
HETATM   25  C   UNL     1      -3.967   3.116 -31.529  1.00  0.00     0.183 A 
HETATM   26  O   UNL     1      -2.600   3.093 -31.428  1.00  0.00    -0.289 OA
HETATM   27  C   UNL     1      -2.251   4.412 -31.416  1.00  0.00     0.107 A 
HETATM   28  C   UNL     1      -3.411   5.159 -31.501  1.00  0.00     0.094 A 
HETATM   29  C   UNL     1      -0.972   4.946 -31.341  1.00  0.00     0.047 A 
HETATM   30  N   UNL     1      -4.501   4.327 -31.558  1.00  0.00    -0.221 NA
HETATM   31  C   UNL     1      -3.317   6.555 -31.523  1.00  0.00     0.041 A 
HETATM   32  C   UNL     1      -2.041   7.156 -31.449  1.00  0.00    -0.054 A 
HETATM   33  C   UNL     1      -0.876   6.352 -31.368  1.00  0.00    -0.053 A 
HETATM   34  C   UNL     1      -1.954   8.659 -31.513  1.00  0.00     0.049 C 
HETATM   35  C   UNL     1       0.494   6.977 -31.296  1.00  0.00     0.049 C 
ENDBRANCH   3  25
BRANCH   4  36
HETATM   36  O   UNL     1      -5.795   2.266 -29.463  1.00  0.00    -0.360 OA
HETATM   37  H   UNL     1      -6.542   1.883 -28.956  1.00  0.00     0.217 HD
ENDBRANCH   4  36
TORSDOF 9
ENDMDL
MODEL 10
REMARK VINA RESULT:      -8.7      3.173      4.896
REMARK  9 active torsions:
REMARK  status: ('A' for Active; 'I' for Inactive)
REMARK    1  A    between atoms: C_2  and  C_3 
REMARK    2  A    between atoms: C_3  and  O_4 
REMARK    3  A    between atoms: O_4  and  C_5 
REMARK    4  A    between atoms: C_8  and  C_9 
REMARK       I    between atoms: C_9  and  N_10 
REMARK    5  A    between atoms: N_10  and  C_11 
REMARK    6  A    between atoms: C_11  and  N_12 
REMARK    7  A    between atoms: N_12  and  C_13 
REMARK    8  A    between atoms: C_15  and  C_16 
REMARK    9  A    between atoms: C_27  and  O_28 
ROOT
HETATM    1  C   UNL     1      -8.138   3.935 -31.485  1.00  0.00     0.035 A 
HETATM    2  C   UNL     1      -7.837   2.763 -32.188  1.00  0.00     0.048 A 
HETATM    3  C   UNL     1      -7.161   1.695 -31.563  1.00  0.00     0.052 A 
HETATM    4  C   UNL     1      -6.794   1.834 -30.214  1.00  0.00     0.080 A 
HETATM    5  C   UNL     1      -7.088   2.993 -29.507  1.00  0.00     0.040 A 
HETATM    6  C   UNL     1      -7.750   4.042 -30.143  1.00  0.00     0.032 A 
ENDROOT
BRANCH   1   7
HETATM    7  N   UNL     1      -8.729   5.080 -32.056  1.00  0.00    -0.333 N 
HETATM    8  H   UNL     1      -9.350   5.597 -31.439  1.00  0.00     0.168 HD
BRANCH   7   9
HETATM    9  C   UNL     1      -8.461   5.767 -33.209  1.00  0.00     0.179 C 
HETATM   10  S   UNL     1      -9.633   5.702 -34.406  1.00  0.00    -0.040 SA
BRANCH   9  11
HETATM   11  N   UNL     1      -7.223   6.352 -33.317  1.00  0.00    -0.299 N 
HETATM   12  C   UNL     1      -6.049   5.629 -33.451  1.00  0.00     0.257 C 
HETATM   13  O   UNL     1      -5.850   4.883 -34.408  1.00  0.00    -0.267 OA
HETATM   14  H   UNL     1      -7.182   7.221 -32.811  1.00  0.00     0.171 HD
BRANCH  12  15
HETATM   15  C   UNL     1      -4.955   5.845 -32.455  1.00  0.00     0.032 A 
HETATM   16  C   UNL     1      -5.239   6.695 -31.374  1.00  0.00     0.020 A 
HETATM   17  C   UNL     1      -4.264   7.011 -30.423  1.00  0.00     0.038 A 
HETATM   18  C   UNL     1      -2.984   6.476 -30.533  1.00  0.00     0.068 A 
HETATM   19  C   UNL     1      -2.696   5.621 -31.601  1.00  0.00     0.038 A 
HETATM   20  C   UNL     1      -3.669   5.308 -32.563  1.00  0.00     0.020 A 
BRANCH  18  21
HETATM   21  O   UNL     1      -1.941   6.709 -29.678  1.00  0.00    -0.351 OA
BRANCH  21  22
HETATM   22  C   UNL     1      -0.700   7.100 -30.270  1.00  0.00     0.175 C 
BRANCH  22  23
HETATM   23  C   UNL     1       0.422   6.783 -29.285  1.00  0.00     0.022 C 
HETATM   24  C   UNL     1       0.798   7.999 -28.455  1.00  0.00     0.007 C 
ENDBRANCH  22  23
ENDBRANCH  21  22
ENDBRANCH  18  21
ENDBRANCH  12  15
ENDBRANCH   9  11
ENDBRANCH   7   9
ENDBRANCH   1   7
BRANCH   3  25
HETATM   25  C   UNL     1      -6.810   0.481 -32.295  1.00  0.00     0.183 A 
HETATM   26  O   UNL     1      -5.544  -0.019 -32.129  1.00  0.00    -0.289 OA
HETATM   27  C   UNL     1      -5.530  -1.136 -32.913  1.00  0.00     0.107 A 
HETATM   28  C   UNL     1      -6.769  -1.250 -33.514  1.00  0.00     0.094 A 
HETATM   29  C   UNL     1      -4.480  -2.027 -33.093  1.00  0.00     0.047 A 
HETATM   30  N   UNL     1      -7.574  -0.208 -33.128  1.00  0.00    -0.221 NA
HETATM   31  C   UNL     1      -7.013  -2.335 -34.363  1.00  0.00     0.041 A 
HETATM   32  C   UNL     1      -5.981  -3.274 -34.585  1.00  0.00    -0.054 A 
HETATM   33  C   UNL     1      -4.726  -3.123 -33.945  1.00  0.00    -0.053 A 
HETATM   34  C   UNL     1      -6.273  -4.458 -35.471  1.00  0.00     0.049 C 
HETATM   35  C   UNL     1      -3.617  -4.120 -34.165  1.00  0.00     0.049 C 
ENDBRANCH   3  25
BRANCH   4  36
HETATM   36  O   UNL     1      -6.117   0.865 -29.519  1.00  0.00    -0.360 OA
HETATM   37  H   UNL     1      -5.175   1.129 -29.447  1.00  0.00     0.217 HD
ENDBRANCH   4  36
TORSDOF 9
ENDMDL
