MODEL 1
REMARK VINA RESULT:      -8.4      0.000      0.000
REMARK  5 active torsions:
REMARK  status: ('A' for Active; 'I' for Inactive)
REMARK    1  A    between atoms: O_2  and  C_3 
REMARK    2  A    between atoms: C_7  and  C_8 
REMARK       I    between atoms: C_8  and  N_9 
REMARK    3  A    between atoms: N_9  and  C_10 
REMARK    4  A    between atoms: C_10  and  C_11 
REMARK    5  A    between atoms: C_11  and  C_12 
ROOT
HETATM    1  C   UNL     1      -3.555   0.336 -31.864  1.00  0.00     0.251 C 
HETATM    2  N   UNL     1      -4.131   1.584 -31.910  1.00  0.00    -0.356 N 
HETATM    3  O   UNL     1      -2.617   0.051 -31.128  1.00  0.00    -0.268 OA
HETATM    4  H   UNL     1      -4.815   1.824 -32.617  1.00  0.00     0.162 HD
ENDROOT
BRANCH   2   5
HETATM    5  C   UNL     1      -3.574   2.708 -31.179  1.00  0.00     0.130 C 
BRANCH   5   6
HETATM    6  C   UNL     1      -2.792   3.655 -32.090  1.00  0.00     0.098 C 
BRANCH   6   7
HETATM    7  C   UNL     1      -2.050   4.691 -31.307  1.00  0.00     0.106 A 
HETATM    8  N   UNL     1      -0.743   4.788 -31.151  1.00  0.00    -0.233 NA
HETATM    9  C   UNL     1      -0.547   5.900 -30.366  1.00  0.00     0.085 A 
HETATM   10  C   UNL     1      -1.760   6.495 -30.035  1.00  0.00     0.062 A 
HETATM   11  C   UNL     1       0.644   6.470 -29.894  1.00  0.00     0.034 A 
HETATM   12  N   UNL     1      -2.700   5.701 -30.637  1.00  0.00    -0.343 N 
HETATM   13  C   UNL     1      -1.863   7.646 -29.253  1.00  0.00     0.032 A 
HETATM   14  H   UNL     1      -3.699   5.840 -30.600  1.00  0.00     0.167 HD
HETATM   15  C   UNL     1      -0.664   8.202 -28.793  1.00  0.00     0.002 A 
HETATM   16  C   UNL     1       0.570   7.626 -29.104  1.00  0.00     0.002 A 
ENDBRANCH   6   7
ENDBRANCH   5   6
ENDBRANCH   2   5
BRANCH   1  17
HETATM   17  C   UNL     1      -4.139  -0.711 -32.745  1.00  0.00     0.035 A 
HETATM   18  C   UNL     1      -3.595  -1.996 -32.849  1.00  0.00     0.044 A 
HETATM   19  C   UNL     1      -4.186  -2.930 -33.704  1.00  0.00     0.070 A 
HETATM   20  C   UNL     1      -5.333  -2.601 -34.441  1.00  0.00     0.111 A 
HETATM   21 CL   UNL     1      -3.463  -4.496 -33.822  1.00  0.00    -0.081 Cl
HETATM   22  C   UNL     1      -5.866  -1.311 -34.340  1.00  0.00     0.070 A 
HETATM   23  C   UNL     1      -5.281  -0.377 -33.484  1.00  0.00     0.044 A 
HETATM   24 CL   UNL     1      -7.234  -0.817 -35.269  1.00  0.00    -0.081 Cl
BRANCH  20  25
HETATM   25  O   UNL     1      -5.867  -3.513 -35.318  1.00  0.00    -0.352 OA
HETATM   26  C   UNL     1      -6.876  -4.300 -34.682  1.00  0.00     0.210 C 
ENDBRANCH  20  25
ENDBRANCH   1  17
TORSDOF 5
ENDMDL
MODEL 2
REMARK VINA RESULT:      -8.4      3.389      4.545
REMARK  5 active torsions:
REMARK  status: ('A' for Active; 'I' for Inactive)
REMARK    1  A    between atoms: O_2  and  C_3 
REMARK    2  A    between atoms: C_7  and  C_8 
REMARK       I    between atoms: C_8  and  N_9 
REMARK    3  A    between atoms: N_9  and  C_10 
REMARK    4  A    between atoms: C_10  and  C_11 
REMARK    5  A    between atoms: C_11  and  C_12 
ROOT
HETATM    1  C   UNL     1      -7.771   0.065 -33.587  1.00  0.00     0.251 C 
HETATM    2  N   UNL     1      -7.472   1.359 -33.944  1.00  0.00    -0.356 N 
HETATM    3  O   UNL     1      -8.879  -0.290 -33.199  1.00  0.00    -0.268 OA
HETATM    4  H   UNL     1      -6.520   1.647 -34.135  1.00  0.00     0.162 HD
ENDROOT
BRANCH   2   5
HETATM    5  C   UNL     1      -8.420   2.442 -33.753  1.00  0.00     0.130 C 
BRANCH   5   6
HETATM    6  C   UNL     1      -7.853   3.555 -32.872  1.00  0.00     0.098 C 
BRANCH   6   7
HETATM    7  C   UNL     1      -6.457   3.920 -33.269  1.00  0.00     0.106 A 
HETATM    8  N   UNL     1      -6.078   4.536 -34.373  1.00  0.00    -0.233 NA
HETATM    9  C   UNL     1      -4.711   4.655 -34.277  1.00  0.00     0.085 A 
HETATM   10  C   UNL     1      -4.246   4.100 -33.091  1.00  0.00     0.062 A 
HETATM   11  C   UNL     1      -3.794   5.231 -35.167  1.00  0.00     0.034 A 
HETATM   12  N   UNL     1      -5.374   3.630 -32.473  1.00  0.00    -0.343 N 
HETATM   13  C   UNL     1      -2.899   4.086 -32.724  1.00  0.00     0.032 A 
HETATM   14  H   UNL     1      -5.405   3.158 -31.581  1.00  0.00     0.167 HD
HETATM   15  C   UNL     1      -1.998   4.668 -33.624  1.00  0.00     0.002 A 
HETATM   16  C   UNL     1      -2.434   5.230 -34.826  1.00  0.00     0.002 A 
ENDBRANCH   6   7
ENDBRANCH   5   6
ENDBRANCH   2   5
BRANCH   1  17
HETATM   17  C   UNL     1      -6.684  -0.941 -33.715  1.00  0.00     0.035 A 
HETATM   18  C   UNL     1      -5.454  -0.808 -33.063  1.00  0.00     0.044 A 
HETATM   19  C   UNL     1      -4.469  -1.785 -33.235  1.00  0.00     0.070 A 
HETATM   20  C   UNL     1      -4.711  -2.912 -34.035  1.00  0.00     0.111 A 
HETATM   21 CL   UNL     1      -2.954  -1.563 -32.433  1.00  0.00    -0.081 Cl
HETATM   22  C   UNL     1      -5.940  -3.034 -34.692  1.00  0.00     0.070 A 
HETATM   23  C   UNL     1      -6.927  -2.062 -34.520  1.00  0.00     0.044 A 
HETATM   24 CL   UNL     1      -6.280  -4.359 -35.746  1.00  0.00    -0.081 Cl
BRANCH  20  25
HETATM   25  O   UNL     1      -3.714  -3.833 -34.237  1.00  0.00    -0.352 OA
HETATM   26  C   UNL     1      -3.799  -4.893 -33.282  1.00  0.00     0.210 C 
ENDBRANCH  20  25
ENDBRANCH   1  17
TORSDOF 5
ENDMDL
MODEL 3
REMARK VINA RESULT:      -8.4      3.461      4.703
REMARK  5 active torsions:
REMARK  status: ('A' for Active; 'I' for Inactive)
REMARK    1  A    between atoms: O_2  and  C_3 
REMARK    2  A    between atoms: C_7  and  C_8 
REMARK       I    between atoms: C_8  and  N_9 
REMARK    3  A    between atoms: N_9  and  C_10 
REMARK    4  A    between atoms: C_10  and  C_11 
REMARK    5  A    between atoms: C_11  and  C_12 
ROOT
HETATM    1  C   UNL     1      -7.872   0.058 -33.638  1.00  0.00     0.251 C 
HETATM    2  N   UNL     1      -7.656   1.330 -34.115  1.00  0.00    -0.356 N 
HETATM    3  O   UNL     1      -8.904  -0.284 -33.070  1.00  0.00    -0.268 OA
HETATM    4  H   UNL     1      -6.749   1.616 -34.462  1.00  0.00     0.162 HD
ENDROOT
BRANCH   2   5
HETATM    5  C   UNL     1      -8.590   2.411 -33.856  1.00  0.00     0.130 C 
BRANCH   5   6
HETATM    6  C   UNL     1      -8.006   3.459 -32.908  1.00  0.00     0.098 C 
BRANCH   6   7
HETATM    7  C   UNL     1      -6.605   3.825 -33.281  1.00  0.00     0.106 A 
HETATM    8  N   UNL     1      -6.214   4.506 -34.341  1.00  0.00    -0.233 NA
HETATM    9  C   UNL     1      -4.845   4.595 -34.239  1.00  0.00     0.085 A 
HETATM   10  C   UNL     1      -4.390   3.954 -33.092  1.00  0.00     0.062 A 
HETATM   11  C   UNL     1      -3.918   5.214 -35.089  1.00  0.00     0.034 A 
HETATM   12  N   UNL     1      -5.527   3.464 -32.506  1.00  0.00    -0.343 N 
HETATM   13  C   UNL     1      -3.044   3.893 -32.728  1.00  0.00     0.032 A 
HETATM   14  H   UNL     1      -5.566   2.935 -31.647  1.00  0.00     0.167 HD
HETATM   15  C   UNL     1      -2.133   4.518 -33.587  1.00  0.00     0.002 A 
HETATM   16  C   UNL     1      -2.558   5.167 -34.749  1.00  0.00     0.002 A 
ENDBRANCH   6   7
ENDBRANCH   5   6
ENDBRANCH   2   5
BRANCH   1  17
HETATM   17  C   UNL     1      -6.794  -0.942 -33.861  1.00  0.00     0.035 A 
HETATM   18  C   UNL     1      -7.001  -2.126 -34.575  1.00  0.00     0.044 A 
HETATM   19  C   UNL     1      -5.947  -3.029 -34.738  1.00  0.00     0.070 A 
HETATM   20  C   UNL     1      -4.676  -2.749 -34.215  1.00  0.00     0.111 A 
HETATM   21 CL   UNL     1      -6.257  -4.493 -35.604  1.00  0.00    -0.081 Cl
HETATM   22  C   UNL     1      -4.478  -1.567 -33.492  1.00  0.00     0.070 A 
HETATM   23  C   UNL     1      -5.527  -0.661 -33.330  1.00  0.00     0.044 A 
HETATM   24 CL   UNL     1      -2.960  -1.191 -32.762  1.00  0.00    -0.081 Cl
BRANCH  20  25
HETATM   25  O   UNL     1      -3.668  -3.673 -34.337  1.00  0.00    -0.352 OA
HETATM   26  C   UNL     1      -3.662  -4.569 -33.223  1.00  0.00     0.210 C 
ENDBRANCH  20  25
ENDBRANCH   1  17
TORSDOF 5
ENDMDL
MODEL 4
REMARK VINA RESULT:      -8.3      5.938      8.898
REMARK  5 active torsions:
REMARK  status: ('A' for Active; 'I' for Inactive)
REMARK    1  A    between atoms: O_2  and  C_3 
REMARK    2  A    between atoms: C_7  and  C_8 
REMARK       I    between atoms: C_8  and  N_9 
REMARK    3  A    between atoms: N_9  and  C_10 
REMARK    4  A    between atoms: C_10  and  C_11 
REMARK    5  A    between atoms: C_11  and  C_12 
ROOT
HETATM    1  C   UNL     1      -7.836  -0.059 -33.196  1.00  0.00     0.251 C 
HETATM    2  N   UNL     1      -7.450   1.256 -33.082  1.00  0.00    -0.356 N 
HETATM    3  O   UNL     1      -8.994  -0.438 -33.059  1.00  0.00    -0.268 OA
HETATM    4  H   UNL     1      -6.473   1.520 -33.072  1.00  0.00     0.162 HD
ENDROOT
BRANCH   2   5
HETATM    5  C   UNL     1      -8.376   2.288 -32.651  1.00  0.00     0.130 C 
BRANCH   5   6
HETATM    6  C   UNL     1      -9.208   2.835 -33.811  1.00  0.00     0.098 C 
BRANCH   6   7
HETATM    7  C   UNL     1     -10.655   2.482 -33.670  1.00  0.00     0.106 A 
HETATM    8  N   UNL     1     -11.574   3.142 -32.990  1.00  0.00    -0.233 NA
HETATM    9  C   UNL     1     -12.742   2.438 -33.171  1.00  0.00     0.085 A 
HETATM   10  C   UNL     1     -12.532   1.326 -33.978  1.00  0.00     0.062 A 
HETATM   11  C   UNL     1     -14.030   2.691 -32.678  1.00  0.00     0.034 A 
HETATM   12  N   UNL     1     -11.195   1.370 -34.273  1.00  0.00    -0.343 N 
HETATM   13  C   UNL     1     -13.544   0.434 -34.336  1.00  0.00     0.032 A 
HETATM   14  H   UNL     1     -10.695   0.704 -34.843  1.00  0.00     0.167 HD
HETATM   15  C   UNL     1     -14.823   0.703 -33.836  1.00  0.00     0.002 A 
HETATM   16  C   UNL     1     -15.066   1.811 -33.020  1.00  0.00     0.002 A 
ENDBRANCH   6   7
ENDBRANCH   5   6
ENDBRANCH   2   5
BRANCH   1  17
HETATM   17  C   UNL     1      -6.777  -1.049 -33.529  1.00  0.00     0.035 A 
HETATM   18  C   UNL     1      -7.003  -2.135 -34.382  1.00  0.00     0.044 A 
HETATM   19  C   UNL     1      -5.967  -3.036 -34.645  1.00  0.00     0.070 A 
HETATM   20  C   UNL     1      -4.696  -2.849 -34.083  1.00  0.00     0.111 A 
HETATM   21 CL   UNL     1      -6.301  -4.378 -35.681  1.00  0.00    -0.081 Cl
HETATM   22  C   UNL     1      -4.480  -1.767 -33.222  1.00  0.00     0.070 A 
HETATM   23  C   UNL     1      -5.510  -0.863 -32.960  1.00  0.00     0.044 A 
HETATM   24 CL   UNL     1      -2.961  -1.515 -32.441  1.00  0.00    -0.081 Cl
BRANCH  20  25
HETATM   25  O   UNL     1      -3.707  -3.774 -34.307  1.00  0.00    -0.352 OA
HETATM   26  C   UNL     1      -3.730  -4.796 -33.307  1.00  0.00     0.210 C 
ENDBRANCH  20  25
ENDBRANCH   1  17
TORSDOF 5
ENDMDL
MODEL 5
REMARK VINA RESULT:      -8.2      3.648      4.907
REMARK  5 active torsions:
REMARK  status: ('A' for Active; 'I' for Inactive)
REMARK    1  A    between atoms: O_2  and  C_3 
REMARK    2  A    between atoms: C_7  and  C_8 
REMARK       I    between atoms: C_8  and  N_9 
REMARK    3  A    between atoms: N_9  and  C_10 
REMARK    4  A    between atoms: C_10  and  C_11 
REMARK    5  A    between atoms: C_11  and  C_12 
ROOT
HETATM    1  C   UNL     1      -7.973  -0.123 -33.626  1.00  0.00     0.251 C 
HETATM    2  N   UNL     1      -8.259   0.222 -32.325  1.00  0.00    -0.356 N 
HETATM    3  O   UNL     1      -8.568   0.339 -34.593  1.00  0.00    -0.268 OA
HETATM    4  H   UNL     1      -7.840  -0.271 -31.545  1.00  0.00     0.162 HD
ENDROOT
BRANCH   2   5
HETATM    5  C   UNL     1      -9.392   1.065 -31.990  1.00  0.00     0.130 C 
BRANCH   5   6
HETATM    6  C   UNL     1      -8.958   2.385 -31.352  1.00  0.00     0.098 C 
BRANCH   6   7
HETATM    7  C   UNL     1      -7.502   2.651 -31.565  1.00  0.00     0.106 A 
HETATM    8  N   UNL     1      -6.493   2.170 -30.865  1.00  0.00    -0.233 NA
HETATM    9  C   UNL     1      -5.359   2.689 -31.447  1.00  0.00     0.085 A 
HETATM   10  C   UNL     1      -5.684   3.505 -32.524  1.00  0.00     0.062 A 
HETATM   11  C   UNL     1      -4.011   2.505 -31.111  1.00  0.00     0.034 A 
HETATM   12  N   UNL     1      -7.053   3.473 -32.572  1.00  0.00    -0.343 N 
HETATM   13  C   UNL     1      -4.731   4.159 -33.308  1.00  0.00     0.032 A 
HETATM   14  H   UNL     1      -7.630   3.964 -33.239  1.00  0.00     0.167 HD
HETATM   15  C   UNL     1      -3.390   3.962 -32.959  1.00  0.00     0.002 A 
HETATM   16  C   UNL     1      -3.032   3.151 -31.879  1.00  0.00     0.002 A 
ENDBRANCH   6   7
ENDBRANCH   5   6
ENDBRANCH   2   5
BRANCH   1  17
HETATM   17  C   UNL     1      -6.862  -1.087 -33.843  1.00  0.00     0.035 A 
HETATM   18  C   UNL     1      -7.022  -2.268 -34.573  1.00  0.00     0.044 A 
HETATM   19  C   UNL     1      -5.938  -3.138 -34.730  1.00  0.00     0.070 A 
HETATM   20  C   UNL     1      -4.685  -2.825 -34.184  1.00  0.00     0.111 A 
HETATM   21 CL   UNL     1      -6.191  -4.600 -35.616  1.00  0.00    -0.081 Cl
HETATM   22  C   UNL     1      -4.534  -1.646 -33.445  1.00  0.00     0.070 A 
HETATM   23  C   UNL     1      -5.613  -0.774 -33.289  1.00  0.00     0.044 A 
HETATM   24 CL   UNL     1      -3.039  -1.233 -32.686  1.00  0.00    -0.081 Cl
BRANCH  20  25
HETATM   25  O   UNL     1      -3.648  -3.717 -34.299  1.00  0.00    -0.352 OA
HETATM   26  C   UNL     1      -3.639  -4.632 -33.202  1.00  0.00     0.210 C 
ENDBRANCH  20  25
ENDBRANCH   1  17
TORSDOF 5
ENDMDL
MODEL 6
REMARK VINA RESULT:      -7.9      5.806      8.835
REMARK  5 active torsions:
REMARK  status: ('A' for Active; 'I' for Inactive)
REMARK    1  A    between atoms: O_2  and  C_3 
REMARK    2  A    between atoms: C_7  and  C_8 
REMARK       I    between atoms: C_8  and  N_9 
REMARK    3  A    between atoms: N_9  and  C_10 
REMARK    4  A    between atoms: C_10  and  C_11 
REMARK    5  A    between atoms: C_11  and  C_12 
ROOT
HETATM    1  C   UNL     1      -7.474   0.490 -34.387  1.00  0.00     0.251 C 
HETATM    2  N   UNL     1      -7.260   1.729 -33.832  1.00  0.00    -0.356 N 
HETATM    3  O   UNL     1      -8.469   0.206 -35.045  1.00  0.00    -0.268 OA
HETATM    4  H   UNL     1      -6.495   1.894 -33.189  1.00  0.00     0.162 HD
ENDROOT
BRANCH   2   5
HETATM    5  C   UNL     1      -8.274   2.767 -33.868  1.00  0.00     0.130 C 
BRANCH   5   6
HETATM    6  C   UNL     1      -9.124   2.784 -32.597  1.00  0.00     0.098 C 
BRANCH   6   7
HETATM    7  C   UNL     1     -10.532   2.355 -32.865  1.00  0.00     0.106 A 
HETATM    8  N   UNL     1     -11.618   3.101 -32.805  1.00  0.00    -0.233 NA
HETATM    9  C   UNL     1     -12.658   2.267 -33.144  1.00  0.00     0.085 A 
HETATM   10  C   UNL     1     -12.197   0.984 -33.416  1.00  0.00     0.062 A 
HETATM   11  C   UNL     1     -14.030   2.536 -33.245  1.00  0.00     0.034 A 
HETATM   12  N   UNL     1     -10.843   1.064 -33.222  1.00  0.00    -0.343 N 
HETATM   13  C   UNL     1     -13.032  -0.068 -33.795  1.00  0.00     0.032 A 
HETATM   14  H   UNL     1     -10.187   0.304 -33.329  1.00  0.00     0.167 HD
HETATM   15  C   UNL     1     -14.398   0.219 -33.893  1.00  0.00     0.002 A 
HETATM   16  C   UNL     1     -14.893   1.497 -33.622  1.00  0.00     0.002 A 
ENDBRANCH   6   7
ENDBRANCH   5   6
ENDBRANCH   2   5
BRANCH   1  17
HETATM   17  C   UNL     1      -6.413  -0.534 -34.188  1.00  0.00     0.035 A 
HETATM   18  C   UNL     1      -5.225  -0.264 -33.502  1.00  0.00     0.044 A 
HETATM   19  C   UNL     1      -4.264  -1.269 -33.360  1.00  0.00     0.070 A 
HETATM   20  C   UNL     1      -4.489  -2.553 -33.876  1.00  0.00     0.111 A 
HETATM   21 CL   UNL     1      -2.798  -0.880 -32.530  1.00  0.00    -0.081 Cl
HETATM   22  C   UNL     1      -5.676  -2.814 -34.570  1.00  0.00     0.070 A 
HETATM   23  C   UNL     1      -6.639  -1.815 -34.711  1.00  0.00     0.044 A 
HETATM   24 CL   UNL     1      -5.989  -4.352 -35.290  1.00  0.00    -0.081 Cl
BRANCH  20  25
HETATM   25  O   UNL     1      -3.511  -3.511 -33.776  1.00  0.00    -0.352 OA
HETATM   26  C   UNL     1      -3.421  -4.009 -32.439  1.00  0.00     0.210 C 
ENDBRANCH  20  25
ENDBRANCH   1  17
TORSDOF 5
ENDMDL
MODEL 7
REMARK VINA RESULT:      -7.9      3.793      9.420
REMARK  5 active torsions:
REMARK  status: ('A' for Active; 'I' for Inactive)
REMARK    1  A    between atoms: O_2  and  C_3 
REMARK    2  A    between atoms: C_7  and  C_8 
REMARK       I    between atoms: C_8  and  N_9 
REMARK    3  A    between atoms: N_9  and  C_10 
REMARK    4  A    between atoms: C_10  and  C_11 
REMARK    5  A    between atoms: C_11  and  C_12 
ROOT
HETATM    1  C   UNL     1      -4.334   2.490 -32.345  1.00  0.00     0.251 C 
HETATM    2  N   UNL     1      -5.588   2.612 -32.896  1.00  0.00    -0.356 N 
HETATM    3  O   UNL     1      -3.870   1.425 -31.949  1.00  0.00    -0.268 OA
HETATM    4  H   UNL     1      -5.991   3.520 -33.093  1.00  0.00     0.162 HD
ENDROOT
BRANCH   2   5
HETATM    5  C   UNL     1      -6.522   1.500 -32.922  1.00  0.00     0.130 C 
BRANCH   5   6
HETATM    6  C   UNL     1      -6.645   0.887 -34.317  1.00  0.00     0.098 C 
BRANCH   6   7
HETATM    7  C   UNL     1      -6.175  -0.533 -34.342  1.00  0.00     0.106 A 
HETATM    8  N   UNL     1      -5.014  -0.996 -33.918  1.00  0.00    -0.233 NA
HETATM    9  C   UNL     1      -5.055  -2.353 -34.139  1.00  0.00     0.085 A 
HETATM   10  C   UNL     1      -6.266  -2.726 -34.710  1.00  0.00     0.062 A 
HETATM   11  C   UNL     1      -4.092  -3.337 -33.873  1.00  0.00     0.034 A 
HETATM   12  N   UNL     1      -6.956  -1.550 -34.838  1.00  0.00    -0.343 N 
HETATM   13  C   UNL     1      -6.587  -4.045 -35.035  1.00  0.00     0.032 A 
HETATM   14  H   UNL     1      -7.883  -1.450 -35.225  1.00  0.00     0.167 HD
HETATM   15  C   UNL     1      -5.615  -5.014 -34.761  1.00  0.00     0.002 A 
HETATM   16  C   UNL     1      -4.387  -4.670 -34.191  1.00  0.00     0.002 A 
ENDBRANCH   6   7
ENDBRANCH   5   6
ENDBRANCH   2   5
BRANCH   1  17
HETATM   17  C   UNL     1      -3.507   3.723 -32.264  1.00  0.00     0.035 A 
HETATM   18  C   UNL     1      -3.527   4.572 -31.153  1.00  0.00     0.044 A 
HETATM   19  C   UNL     1      -2.733   5.722 -31.146  1.00  0.00     0.070 A 
HETATM   20  C   UNL     1      -1.897   6.022 -32.230  1.00  0.00     0.111 A 
HETATM   21 CL   UNL     1      -2.814   6.756 -29.763  1.00  0.00    -0.081 Cl
HETATM   22  C   UNL     1      -1.888   5.173 -33.344  1.00  0.00     0.070 A 
HETATM   23  C   UNL     1      -2.677   4.022 -33.353  1.00  0.00     0.044 A 
HETATM   24 CL   UNL     1      -0.935   5.517 -34.742  1.00  0.00    -0.081 Cl
BRANCH  20  25
HETATM   25  O   UNL     1      -1.167   7.184 -32.230  1.00  0.00    -0.352 OA
HETATM   26  C   UNL     1       0.104   6.986 -31.606  1.00  0.00     0.210 C 
ENDBRANCH  20  25
ENDBRANCH   1  17
TORSDOF 5
ENDMDL
MODEL 8
REMARK VINA RESULT:      -7.8      5.599      8.887
REMARK  5 active torsions:
REMARK  status: ('A' for Active; 'I' for Inactive)
REMARK    1  A    between atoms: O_2  and  C_3 
REMARK    2  A    between atoms: C_7  and  C_8 
REMARK       I    between atoms: C_8  and  N_9 
REMARK    3  A    between atoms: N_9  and  C_10 
REMARK    4  A    between atoms: C_10  and  C_11 
REMARK    5  A    between atoms: C_11  and  C_12 
ROOT
HETATM    1  C   UNL     1      -8.054   1.187 -32.131  1.00  0.00     0.251 C 
HETATM    2  N   UNL     1      -6.852   1.787 -32.424  1.00  0.00    -0.356 N 
HETATM    3  O   UNL     1      -8.175   0.279 -31.314  1.00  0.00    -0.268 OA
HETATM    4  H   UNL     1      -6.762   2.441 -33.192  1.00  0.00     0.162 HD
ENDROOT
BRANCH   2   5
HETATM    5  C   UNL     1      -5.599   1.292 -31.882  1.00  0.00     0.130 C 
BRANCH   5   6
HETATM    6  C   UNL     1      -4.639   0.833 -32.980  1.00  0.00     0.098 C 
BRANCH   6   7
HETATM    7  C   UNL     1      -4.946  -0.556 -33.440  1.00  0.00     0.106 A 
HETATM    8  N   UNL     1      -6.075  -0.990 -33.970  1.00  0.00    -0.233 NA
HETATM    9  C   UNL     1      -5.869  -2.323 -34.237  1.00  0.00     0.085 A 
HETATM   10  C   UNL     1      -4.588  -2.712 -33.862  1.00  0.00     0.062 A 
HETATM   11  C   UNL     1      -6.731  -3.271 -34.805  1.00  0.00     0.034 A 
HETATM   12  N   UNL     1      -4.026  -1.573 -33.349  1.00  0.00    -0.343 N 
HETATM   13  C   UNL     1      -4.100  -4.010 -34.025  1.00  0.00     0.032 A 
HETATM   14  H   UNL     1      -3.091  -1.495 -32.974  1.00  0.00     0.167 HD
HETATM   15  C   UNL     1      -4.975  -4.942 -34.596  1.00  0.00     0.002 A 
HETATM   16  C   UNL     1      -6.269  -4.583 -34.980  1.00  0.00     0.002 A 
ENDBRANCH   6   7
ENDBRANCH   5   6
ENDBRANCH   2   5
BRANCH   1  17
HETATM   17  C   UNL     1      -9.258   1.702 -32.835  1.00  0.00     0.035 A 
HETATM   18  C   UNL     1     -10.419   0.940 -32.999  1.00  0.00     0.044 A 
HETATM   19  C   UNL     1     -11.512   1.481 -33.681  1.00  0.00     0.070 A 
HETATM   20  C   UNL     1     -11.467   2.790 -34.182  1.00  0.00     0.111 A 
HETATM   21 CL   UNL     1     -12.914   0.491 -33.885  1.00  0.00    -0.081 Cl
HETATM   22  C   UNL     1     -10.299   3.544 -34.023  1.00  0.00     0.070 A 
HETATM   23  C   UNL     1      -9.207   3.009 -33.339  1.00  0.00     0.044 A 
HETATM   24 CL   UNL     1     -10.149   5.137 -34.673  1.00  0.00    -0.081 Cl
BRANCH  20  25
HETATM   25  O   UNL     1     -12.528   3.285 -34.897  1.00  0.00    -0.352 OA
HETATM   26  C   UNL     1     -12.306   3.142 -36.302  1.00  0.00     0.210 C 
ENDBRANCH  20  25
ENDBRANCH   1  17
TORSDOF 5
ENDMDL
MODEL 9
REMARK VINA RESULT:      -7.8      6.762      9.184
REMARK  5 active torsions:
REMARK  status: ('A' for Active; 'I' for Inactive)
REMARK    1  A    between atoms: O_2  and  C_3 
REMARK    2  A    between atoms: C_7  and  C_8 
REMARK       I    between atoms: C_8  and  N_9 
REMARK    3  A    between atoms: N_9  and  C_10 
REMARK    4  A    between atoms: C_10  and  C_11 
REMARK    5  A    between atoms: C_11  and  C_12 
ROOT
HETATM    1  C   UNL     1      -9.240   1.563 -33.312  1.00  0.00     0.251 C 
HETATM    2  N   UNL     1      -8.644   1.436 -34.545  1.00  0.00    -0.356 N 
HETATM    3  O   UNL     1      -8.616   1.571 -32.256  1.00  0.00    -0.268 OA
HETATM    4  H   UNL     1      -9.193   1.303 -35.385  1.00  0.00     0.162 HD
ENDROOT
BRANCH   2   5
HETATM    5  C   UNL     1      -7.225   1.158 -34.681  1.00  0.00     0.130 C 
BRANCH   5   6
HETATM    6  C   UNL     1      -6.965  -0.171 -35.390  1.00  0.00     0.098 C 
BRANCH   6   7
HETATM    7  C   UNL     1      -6.000  -1.025 -34.630  1.00  0.00     0.106 A 
HETATM    8  N   UNL     1      -5.294  -0.680 -33.570  1.00  0.00    -0.233 NA
HETATM    9  C   UNL     1      -4.571  -1.799 -33.228  1.00  0.00     0.085 A 
HETATM   10  C   UNL     1      -4.841  -2.849 -34.099  1.00  0.00     0.062 A 
HETATM   11  C   UNL     1      -3.661  -1.997 -32.181  1.00  0.00     0.034 A 
HETATM   12  N   UNL     1      -5.744  -2.328 -34.987  1.00  0.00    -0.343 N 
HETATM   13  C   UNL     1      -4.254  -4.111 -33.987  1.00  0.00     0.032 A 
HETATM   14  H   UNL     1      -6.157  -2.821 -35.765  1.00  0.00     0.167 HD
HETATM   15  C   UNL     1      -3.350  -4.291 -32.933  1.00  0.00     0.002 A 
HETATM   16  C   UNL     1      -3.055  -3.254 -32.044  1.00  0.00     0.002 A 
ENDBRANCH   6   7
ENDBRANCH   5   6
ENDBRANCH   2   5
BRANCH   1  17
HETATM   17  C   UNL     1     -10.718   1.727 -33.289  1.00  0.00     0.035 A 
HETATM   18  C   UNL     1     -11.598   0.667 -33.533  1.00  0.00     0.044 A 
HETATM   19  C   UNL     1     -12.977   0.892 -33.507  1.00  0.00     0.070 A 
HETATM   20  C   UNL     1     -13.490   2.164 -33.214  1.00  0.00     0.111 A 
HETATM   21 CL   UNL     1     -14.024  -0.441 -33.844  1.00  0.00    -0.081 Cl
HETATM   22  C   UNL     1     -12.604   3.223 -32.980  1.00  0.00     0.070 A 
HETATM   23  C   UNL     1     -11.227   3.001 -33.002  1.00  0.00     0.044 A 
HETATM   24 CL   UNL     1     -13.165   4.828 -32.682  1.00  0.00    -0.081 Cl
BRANCH  20  25
HETATM   25  O   UNL     1     -14.845   2.379 -33.248  1.00  0.00    -0.352 OA
HETATM   26  C   UNL     1     -15.423   2.192 -31.954  1.00  0.00     0.210 C 
ENDBRANCH  20  25
ENDBRANCH   1  17
TORSDOF 5
ENDMDL
MODEL 10
REMARK VINA RESULT:      -7.6      3.817      9.644
REMARK  5 active torsions:
REMARK  status: ('A' for Active; 'I' for Inactive)
REMARK    1  A    between atoms: O_2  and  C_3 
REMARK    2  A    between atoms: C_7  and  C_8 
REMARK       I    between atoms: C_8  and  N_9 
REMARK    3  A    between atoms: N_9  and  C_10 
REMARK    4  A    between atoms: C_10  and  C_11 
REMARK    5  A    between atoms: C_11  and  C_12 
ROOT
HETATM    1  C   UNL     1      -4.306   2.744 -32.021  1.00  0.00     0.251 C 
HETATM    2  N   UNL     1      -5.668   2.780 -32.207  1.00  0.00    -0.356 N 
HETATM    3  O   UNL     1      -3.629   1.733 -32.174  1.00  0.00    -0.268 OA
HETATM    4  H   UNL     1      -6.214   3.594 -31.949  1.00  0.00     0.162 HD
ENDROOT
BRANCH   2   5
HETATM    5  C   UNL     1      -6.435   1.575 -32.467  1.00  0.00     0.130 C 
BRANCH   5   6
HETATM    6  C   UNL     1      -6.388   1.171 -33.941  1.00  0.00     0.098 C 
BRANCH   6   7
HETATM    7  C   UNL     1      -6.138  -0.294 -34.106  1.00  0.00     0.106 A 
HETATM    8  N   UNL     1      -6.965  -1.194 -34.603  1.00  0.00    -0.233 NA
HETATM    9  C   UNL     1      -6.284  -2.387 -34.558  1.00  0.00     0.085 A 
HETATM   10  C   UNL     1      -5.014  -2.214 -34.021  1.00  0.00     0.062 A 
HETATM   11  C   UNL     1      -6.686  -3.668 -34.963  1.00  0.00     0.034 A 
HETATM   12  N   UNL     1      -4.949  -0.877 -33.732  1.00  0.00    -0.343 N 
HETATM   13  C   UNL     1      -4.097  -3.255 -33.863  1.00  0.00     0.032 A 
HETATM   14  H   UNL     1      -4.160  -0.400 -33.321  1.00  0.00     0.167 HD
HETATM   15  C   UNL     1      -4.515  -4.526 -34.274  1.00  0.00     0.002 A 
HETATM   16  C   UNL     1      -5.786  -4.734 -34.814  1.00  0.00     0.002 A 
ENDBRANCH   6   7
ENDBRANCH   5   6
ENDBRANCH   2   5
BRANCH   1  17
HETATM   17  C   UNL     1      -3.640   4.019 -31.643  1.00  0.00     0.035 A 
HETATM   18  C   UNL     1      -4.355   5.159 -31.262  1.00  0.00     0.044 A 
HETATM   19  C   UNL     1      -3.667   6.329 -30.930  1.00  0.00     0.070 A 
HETATM   20  C   UNL     1      -2.266   6.366 -30.949  1.00  0.00     0.111 A 
HETATM   21 CL   UNL     1      -4.595   7.721 -30.494  1.00  0.00    -0.081 Cl
HETATM   22  C   UNL     1      -1.556   5.225 -31.340  1.00  0.00     0.070 A 
HETATM   23  C   UNL     1      -2.239   4.054 -31.669  1.00  0.00     0.044 A 
HETATM   24 CL   UNL     1       0.167   5.220 -31.452  1.00  0.00    -0.081 Cl
BRANCH  20  25
HETATM   25  O   UNL     1      -1.609   7.539 -30.673  1.00  0.00    -0.352 OA
HETATM   26  C   UNL     1      -1.273   7.621 -29.286  1.00  0.00     0.210 C 
ENDBRANCH  20  25
ENDBRANCH   1  17
TORSDOF 5
ENDMDL
