MODEL 1
REMARK VINA RESULT:      -7.9      0.000      0.000
REMARK  2 active torsions:
REMARK  status: ('A' for Active; 'I' for Inactive)
REMARK    1  A    between atoms: C_8  and  S_9 
REMARK    2  A    between atoms: S_9  and  C_10 
ROOT
HETATM    1  C   UNL     1      -6.199  -4.589 -34.979  1.00  0.00     0.002 A 
HETATM    2  C   UNL     1      -6.734  -3.312 -34.808  1.00  0.00     0.034 A 
HETATM    3  C   UNL     1      -5.980  -2.281 -34.259  1.00  0.00     0.087 A 
HETATM    4  C   UNL     1      -4.641  -2.543 -33.861  1.00  0.00     0.087 A 
HETATM    5  N   UNL     1      -3.871  -1.582 -33.315  1.00  0.00    -0.232 NA
HETATM    6  C   UNL     1      -4.453  -0.381 -33.117  1.00  0.00     0.164 A 
HETATM    7 CL   UNL     1      -3.413   0.795 -32.427  1.00  0.00    -0.059 Cl
HETATM    8  C   UNL     1      -5.755  -0.123 -33.510  1.00  0.00     0.165 A 
HETATM    9  N   UNL     1      -6.529  -1.055 -34.120  1.00  0.00    -0.234 NA
HETATM   10  C   UNL     1      -4.119  -3.817 -34.045  1.00  0.00     0.034 A 
HETATM   11  C   UNL     1      -4.886  -4.840 -34.600  1.00  0.00     0.002 A 
ENDROOT
BRANCH   8  12
HETATM   12  S   UNL     1      -6.571   1.451 -33.285  1.00  0.00     0.078 S 
HETATM   13  O   UNL     1      -6.557   1.738 -31.813  1.00  0.00    -0.251 OA
BRANCH  12  14
HETATM   14  C   UNL     1      -8.293   1.012 -33.677  1.00  0.00     0.112 C 
HETATM   15  C   UNL     1      -9.049   2.163 -34.344  1.00  0.00     0.250 C 
HETATM   16  N   UNL     1     -10.430   1.692 -34.731  1.00  0.00    -0.074 N 
HETATM   17  H   UNL     1     -10.360   0.982 -35.475  1.00  0.00     0.277 HD
HETATM   18  H   UNL     1     -10.931   2.483 -35.161  1.00  0.00     0.277 HD
HETATM   19  C   UNL     1     -11.233   1.166 -33.587  1.00  0.00     0.232 C 
HETATM   20  C   UNL     1     -10.479   0.021 -32.922  1.00  0.00     0.029 C 
HETATM   21  C   UNL     1      -9.066   0.432 -32.494  1.00  0.00     0.021 C 
ENDBRANCH  12  14
ENDBRANCH   8  12
TORSDOF 2
ENDMDL
MODEL 2
REMARK VINA RESULT:      -7.3      1.786      2.091
REMARK  2 active torsions:
REMARK  status: ('A' for Active; 'I' for Inactive)
REMARK    1  A    between atoms: C_8  and  S_9 
REMARK    2  A    between atoms: S_9  and  C_10 
ROOT
HETATM    1  C   UNL     1      -5.866  -4.768 -34.966  1.00  0.00     0.002 A 
HETATM    2  C   UNL     1      -6.524  -3.544 -35.096  1.00  0.00     0.034 A 
HETATM    3  C   UNL     1      -5.995  -2.380 -34.553  1.00  0.00     0.087 A 
HETATM    4  C   UNL     1      -4.763  -2.445 -33.848  1.00  0.00     0.087 A 
HETATM    5  N   UNL     1      -4.213  -1.348 -33.294  1.00  0.00    -0.232 NA
HETATM    6  C   UNL     1      -4.916  -0.201 -33.398  1.00  0.00     0.164 A 
HETATM    7 CL   UNL     1      -4.152   1.155 -32.679  1.00  0.00    -0.059 Cl
HETATM    8  C   UNL     1      -6.113  -0.135 -34.090  1.00  0.00     0.165 A 
HETATM    9  N   UNL     1      -6.655  -1.212 -34.710  1.00  0.00    -0.234 NA
HETATM   10  C   UNL     1      -4.116  -3.669 -33.734  1.00  0.00     0.034 A 
HETATM   11  C   UNL     1      -4.657  -4.829 -34.286  1.00  0.00     0.002 A 
ENDROOT
BRANCH   8  12
HETATM   12  S   UNL     1      -7.078   1.358 -34.270  1.00  0.00     0.078 S 
HETATM   13  O   UNL     1      -6.107   2.474 -34.519  1.00  0.00    -0.251 OA
BRANCH  12  14
HETATM   14  C   UNL     1      -7.668   1.602 -32.565  1.00  0.00     0.112 C 
HETATM   15  C   UNL     1      -9.182   1.418 -32.442  1.00  0.00     0.250 C 
HETATM   16  N   UNL     1      -9.579   1.533 -30.991  1.00  0.00    -0.074 N 
HETATM   17  H   UNL     1      -9.194   0.737 -30.461  1.00  0.00     0.277 HD
HETATM   18  H   UNL     1     -10.602   1.425 -30.928  1.00  0.00     0.277 HD
HETATM   19  C   UNL     1      -9.182   2.823 -30.353  1.00  0.00     0.232 C 
HETATM   20  C   UNL     1      -7.673   3.005 -30.477  1.00  0.00     0.029 C 
HETATM   21  C   UNL     1      -7.199   2.910 -31.931  1.00  0.00     0.021 C 
ENDBRANCH  12  14
ENDBRANCH   8  12
TORSDOF 2
ENDMDL
MODEL 3
REMARK VINA RESULT:      -7.2      3.491      5.213
REMARK  2 active torsions:
REMARK  status: ('A' for Active; 'I' for Inactive)
REMARK    1  A    between atoms: C_8  and  S_9 
REMARK    2  A    between atoms: S_9  and  C_10 
ROOT
HETATM    1  C   UNL     1      -4.497  -2.412 -34.059  1.00  0.00     0.002 A 
HETATM    2  C   UNL     1      -4.443  -1.079 -33.649  1.00  0.00     0.034 A 
HETATM    3  C   UNL     1      -5.545  -0.241 -33.773  1.00  0.00     0.087 A 
HETATM    4  C   UNL     1      -6.744  -0.757 -34.335  1.00  0.00     0.087 A 
HETATM    5  N   UNL     1      -7.837   0.016 -34.486  1.00  0.00    -0.232 NA
HETATM    6  C   UNL     1      -7.716   1.311 -34.129  1.00  0.00     0.164 A 
HETATM    7 CL   UNL     1      -9.146   2.232 -34.340  1.00  0.00    -0.059 Cl
HETATM    8  C   UNL     1      -6.550   1.813 -33.576  1.00  0.00     0.165 A 
HETATM    9  N   UNL     1      -5.458   1.040 -33.355  1.00  0.00    -0.234 NA
HETATM   10  C   UNL     1      -6.785  -2.088 -34.730  1.00  0.00     0.034 A 
HETATM   11  C   UNL     1      -5.673  -2.918 -34.597  1.00  0.00     0.002 A 
ENDROOT
BRANCH   8  12
HETATM   12  S   UNL     1      -6.338   3.515 -33.074  1.00  0.00     0.078 S 
HETATM   13  O   UNL     1      -6.570   4.358 -34.293  1.00  0.00    -0.251 OA
BRANCH  12  14
HETATM   14  C   UNL     1      -4.543   3.573 -32.779  1.00  0.00     0.112 C 
HETATM   15  C   UNL     1      -4.202   3.764 -31.300  1.00  0.00     0.250 C 
HETATM   16  N   UNL     1      -2.705   3.698 -31.124  1.00  0.00    -0.074 N 
HETATM   17  H   UNL     1      -2.372   2.744 -31.329  1.00  0.00     0.277 HD
HETATM   18  H   UNL     1      -2.491   3.847 -30.126  1.00  0.00     0.277 HD
HETATM   19  C   UNL     1      -1.953   4.697 -31.940  1.00  0.00     0.232 C 
HETATM   20  C   UNL     1      -2.295   4.506 -33.413  1.00  0.00     0.029 C 
HETATM   21  C   UNL     1      -3.804   4.571 -33.668  1.00  0.00     0.021 C 
ENDBRANCH  12  14
ENDBRANCH   8  12
TORSDOF 2
ENDMDL
MODEL 4
REMARK VINA RESULT:      -7.2      2.667      3.709
REMARK  2 active torsions:
REMARK  status: ('A' for Active; 'I' for Inactive)
REMARK    1  A    between atoms: C_8  and  S_9 
REMARK    2  A    between atoms: S_9  and  C_10 
ROOT
HETATM    1  C   UNL     1      -6.490  -3.848 -35.095  1.00  0.00     0.002 A 
HETATM    2  C   UNL     1      -6.787  -2.609 -34.525  1.00  0.00     0.034 A 
HETATM    3  C   UNL     1      -5.864  -1.940 -33.731  1.00  0.00     0.087 A 
HETATM    4  C   UNL     1      -4.596  -2.538 -33.494  1.00  0.00     0.087 A 
HETATM    5  N   UNL     1      -3.670  -1.936 -32.724  1.00  0.00    -0.232 NA
HETATM    6  C   UNL     1      -4.027  -0.768 -32.150  1.00  0.00     0.164 A 
HETATM    7 CL   UNL     1      -2.797  -0.054 -31.192  1.00  0.00    -0.059 Cl
HETATM    8  C   UNL     1      -5.258  -0.182 -32.385  1.00  0.00     0.165 A 
HETATM    9  N   UNL     1      -6.183  -0.737 -33.207  1.00  0.00    -0.234 NA
HETATM   10  C   UNL     1      -4.311  -3.767 -34.074  1.00  0.00     0.034 A 
HETATM   11  C   UNL     1      -5.246  -4.426 -34.871  1.00  0.00     0.002 A 
ENDROOT
BRANCH   8  12
HETATM   12  S   UNL     1      -5.779   1.367 -31.662  1.00  0.00     0.078 S 
HETATM   13  O   UNL     1      -7.249   1.498 -31.933  1.00  0.00    -0.251 OA
BRANCH  12  14
HETATM   14  C   UNL     1      -4.974   2.562 -32.775  1.00  0.00     0.112 C 
HETATM   15  C   UNL     1      -3.797   3.276 -32.108  1.00  0.00     0.250 C 
HETATM   16  N   UNL     1      -3.120   4.168 -33.119  1.00  0.00    -0.074 N 
HETATM   17  H   UNL     1      -2.674   3.592 -33.848  1.00  0.00     0.277 HD
HETATM   18  H   UNL     1      -2.343   4.655 -32.650  1.00  0.00     0.277 HD
HETATM   19  C   UNL     1      -4.028   5.179 -33.740  1.00  0.00     0.232 C 
HETATM   20  C   UNL     1      -5.201   4.466 -34.403  1.00  0.00     0.029 C 
HETATM   21  C   UNL     1      -5.943   3.546 -33.427  1.00  0.00     0.021 C 
ENDBRANCH  12  14
ENDBRANCH   8  12
TORSDOF 2
ENDMDL
MODEL 5
REMARK VINA RESULT:      -7.1      1.095      1.229
REMARK  2 active torsions:
REMARK  status: ('A' for Active; 'I' for Inactive)
REMARK    1  A    between atoms: C_8  and  S_9 
REMARK    2  A    between atoms: S_9  and  C_10 
ROOT
HETATM    1  C   UNL     1      -6.149  -3.425 -34.872  1.00  0.00     0.002 A 
HETATM    2  C   UNL     1      -6.846  -2.241 -34.625  1.00  0.00     0.034 A 
HETATM    3  C   UNL     1      -6.235  -1.160 -34.002  1.00  0.00     0.087 A 
HETATM    4  C   UNL     1      -4.874  -1.272 -33.605  1.00  0.00     0.087 A 
HETATM    5  N   UNL     1      -4.238  -0.257 -32.989  1.00  0.00    -0.232 NA
HETATM    6  C   UNL     1      -4.971   0.843 -32.721  1.00  0.00     0.164 A 
HETATM    7 CL   UNL     1      -4.096   2.096 -31.944  1.00  0.00    -0.059 Cl
HETATM    8  C   UNL     1      -6.295   0.955 -33.112  1.00  0.00     0.165 A 
HETATM    9  N   UNL     1      -6.939  -0.028 -33.790  1.00  0.00    -0.234 NA
HETATM   10  C   UNL     1      -4.191  -2.453 -33.865  1.00  0.00     0.034 A 
HETATM   11  C   UNL     1      -4.816  -3.528 -34.494  1.00  0.00     0.002 A 
ENDROOT
BRANCH   8  12
HETATM   12  S   UNL     1      -7.309   2.391 -32.795  1.00  0.00     0.078 S 
HETATM   13  O   UNL     1      -7.603   2.397 -31.324  1.00  0.00    -0.251 OA
BRANCH  12  14
HETATM   14  C   UNL     1      -8.868   1.904 -33.599  1.00  0.00     0.112 C 
HETATM   15  C   UNL     1      -9.531   3.069 -34.336  1.00  0.00     0.250 C 
HETATM   16  N   UNL     1     -10.756   2.566 -35.059  1.00  0.00    -0.074 N 
HETATM   17  H   UNL     1     -10.475   1.927 -35.817  1.00  0.00     0.277 HD
HETATM   18  H   UNL     1     -11.200   3.365 -35.534  1.00  0.00     0.277 HD
HETATM   19  C   UNL     1     -11.758   1.907 -34.168  1.00  0.00     0.232 C 
HETATM   20  C   UNL     1     -11.095   0.747 -33.434  1.00  0.00     0.029 C 
HETATM   21  C   UNL     1      -9.845   1.190 -32.667  1.00  0.00     0.021 C 
ENDBRANCH  12  14
ENDBRANCH   8  12
TORSDOF 2
ENDMDL
MODEL 6
REMARK VINA RESULT:      -7.1      3.816      5.620
REMARK  2 active torsions:
REMARK  status: ('A' for Active; 'I' for Inactive)
REMARK    1  A    between atoms: C_8  and  S_9 
REMARK    2  A    between atoms: S_9  and  C_10 
ROOT
HETATM    1  C   UNL     1      -7.708  -0.211 -35.276  1.00  0.00     0.002 A 
HETATM    2  C   UNL     1      -7.234   0.909 -34.591  1.00  0.00     0.034 A 
HETATM    3  C   UNL     1      -6.157   0.819 -33.719  1.00  0.00     0.087 A 
HETATM    4  C   UNL     1      -5.534  -0.443 -33.520  1.00  0.00     0.087 A 
HETATM    5  N   UNL     1      -4.492  -0.586 -32.678  1.00  0.00    -0.232 NA
HETATM    6  C   UNL     1      -4.110   0.514 -31.997  1.00  0.00     0.164 A 
HETATM    7 CL   UNL     1      -2.774   0.261 -30.952  1.00  0.00    -0.059 Cl
HETATM    8  C   UNL     1      -4.712   1.745 -32.194  1.00  0.00     0.165 A 
HETATM    9  N   UNL     1      -5.720   1.927 -33.083  1.00  0.00    -0.234 NA
HETATM   10  C   UNL     1      -6.010  -1.547 -34.215  1.00  0.00     0.034 A 
HETATM   11  C   UNL     1      -7.090  -1.442 -35.090  1.00  0.00     0.002 A 
ENDROOT
BRANCH   8  12
HETATM   12  S   UNL     1      -4.238   3.236 -31.331  1.00  0.00     0.078 S 
HETATM   13  O   UNL     1      -5.392   4.188 -31.448  1.00  0.00    -0.251 OA
BRANCH  12  14
HETATM   14  C   UNL     1      -2.954   3.892 -32.441  1.00  0.00     0.112 C 
HETATM   15  C   UNL     1      -1.908   4.721 -31.693  1.00  0.00     0.250 C 
HETATM   16  N   UNL     1      -0.826   5.141 -32.658  1.00  0.00    -0.074 N 
HETATM   17  H   UNL     1      -0.300   4.313 -32.973  1.00  0.00     0.277 HD
HETATM   18  H   UNL     1      -0.141   5.714 -32.143  1.00  0.00     0.277 HD
HETATM   19  C   UNL     1      -1.328   5.916 -33.832  1.00  0.00     0.232 C 
HETATM   20  C   UNL     1      -2.371   5.089 -34.575  1.00  0.00     0.029 C 
HETATM   21  C   UNL     1      -3.509   4.634 -33.655  1.00  0.00     0.021 C 
ENDBRANCH  12  14
ENDBRANCH   8  12
TORSDOF 2
ENDMDL
MODEL 7
REMARK VINA RESULT:      -7.0      4.073      5.402
REMARK  2 active torsions:
REMARK  status: ('A' for Active; 'I' for Inactive)
REMARK    1  A    between atoms: C_8  and  S_9 
REMARK    2  A    between atoms: S_9  and  C_10 
ROOT
HETATM    1  C   UNL     1      -6.775  -0.986 -34.985  1.00  0.00     0.002 A 
HETATM    2  C   UNL     1      -6.764   0.409 -34.986  1.00  0.00     0.034 A 
HETATM    3  C   UNL     1      -6.424   1.130 -33.848  1.00  0.00     0.087 A 
HETATM    4  C   UNL     1      -6.088   0.424 -32.661  1.00  0.00     0.087 A 
HETATM    5  N   UNL     1      -5.761   1.075 -31.527  1.00  0.00    -0.232 NA
HETATM    6  C   UNL     1      -5.820   2.422 -31.564  1.00  0.00     0.164 A 
HETATM    7 CL   UNL     1      -5.383   3.183 -30.092  1.00  0.00    -0.059 Cl
HETATM    8  C   UNL     1      -6.141   3.110 -32.722  1.00  0.00     0.165 A 
HETATM    9  N   UNL     1      -6.412   2.479 -33.892  1.00  0.00    -0.234 NA
HETATM   10  C   UNL     1      -6.095  -0.964 -32.676  1.00  0.00     0.034 A 
HETATM   11  C   UNL     1      -6.436  -1.674 -33.827  1.00  0.00     0.002 A 
ENDROOT
BRANCH   8  12
HETATM   12  S   UNL     1      -6.223   4.892 -32.832  1.00  0.00     0.078 S 
HETATM   13  O   UNL     1      -7.092   5.212 -34.012  1.00  0.00    -0.251 OA
BRANCH  12  14
HETATM   14  C   UNL     1      -4.526   5.289 -33.357  1.00  0.00     0.112 C 
HETATM   15  C   UNL     1      -4.337   5.144 -34.869  1.00  0.00     0.250 C 
HETATM   16  N   UNL     1      -2.943   5.588 -35.238  1.00  0.00    -0.074 N 
HETATM   17  H   UNL     1      -2.846   6.602 -35.077  1.00  0.00     0.277 HD
HETATM   18  H   UNL     1      -2.825   5.466 -36.255  1.00  0.00     0.277 HD
HETATM   19  C   UNL     1      -1.860   4.844 -34.527  1.00  0.00     0.232 C 
HETATM   20  C   UNL     1      -2.052   4.989 -33.022  1.00  0.00     0.029 C 
HETATM   21  C   UNL     1      -3.448   4.545 -32.573  1.00  0.00     0.021 C 
ENDBRANCH  12  14
ENDBRANCH   8  12
TORSDOF 2
ENDMDL
MODEL 8
REMARK VINA RESULT:      -6.9      2.279      2.810
REMARK  2 active torsions:
REMARK  status: ('A' for Active; 'I' for Inactive)
REMARK    1  A    between atoms: C_8  and  S_9 
REMARK    2  A    between atoms: S_9  and  C_10 
ROOT
HETATM    1  C   UNL     1      -5.470  -3.141 -34.990  1.00  0.00     0.002 A 
HETATM    2  C   UNL     1      -6.640  -2.420 -34.751  1.00  0.00     0.034 A 
HETATM    3  C   UNL     1      -6.695  -1.437 -33.771  1.00  0.00     0.087 A 
HETATM    4  C   UNL     1      -5.534  -1.171 -32.995  1.00  0.00     0.087 A 
HETATM    5  N   UNL     1      -5.536  -0.236 -32.026  1.00  0.00    -0.232 NA
HETATM    6  C   UNL     1      -6.707   0.393 -31.796  1.00  0.00     0.164 A 
HETATM    7 CL   UNL     1      -6.635   1.575 -30.556  1.00  0.00    -0.059 Cl
HETATM    8  C   UNL     1      -7.837   0.139 -32.554  1.00  0.00     0.165 A 
HETATM    9  N   UNL     1      -7.842  -0.752 -33.577  1.00  0.00    -0.234 NA
HETATM   10  C   UNL     1      -4.373  -1.891 -33.250  1.00  0.00     0.034 A 
HETATM   11  C   UNL     1      -4.332  -2.872 -34.239  1.00  0.00     0.002 A 
ENDROOT
BRANCH   8  12
HETATM   12  S   UNL     1      -9.410   0.949 -32.302  1.00  0.00     0.078 S 
HETATM   13  O   UNL     1     -10.460   0.041 -32.869  1.00  0.00    -0.251 OA
BRANCH  12  14
HETATM   14  C   UNL     1      -9.283   2.335 -33.476  1.00  0.00     0.112 C 
HETATM   15  C   UNL     1      -8.497   3.514 -32.900  1.00  0.00     0.250 C 
HETATM   16  N   UNL     1      -8.346   4.575 -33.962  1.00  0.00    -0.074 N 
HETATM   17  H   UNL     1      -7.741   4.226 -34.720  1.00  0.00     0.277 HD
HETATM   18  H   UNL     1      -7.832   5.369 -33.554  1.00  0.00     0.277 HD
HETATM   19  C   UNL     1      -9.643   5.066 -34.518  1.00  0.00     0.232 C 
HETATM   20  C   UNL     1     -10.425   3.890 -35.090  1.00  0.00     0.029 C 
HETATM   21  C   UNL     1     -10.625   2.774 -34.059  1.00  0.00     0.021 C 
ENDBRANCH  12  14
ENDBRANCH   8  12
TORSDOF 2
ENDMDL
MODEL 9
REMARK VINA RESULT:      -6.8      2.278      2.893
REMARK  2 active torsions:
REMARK  status: ('A' for Active; 'I' for Inactive)
REMARK    1  A    between atoms: C_8  and  S_9 
REMARK    2  A    between atoms: S_9  and  C_10 
ROOT
HETATM    1  C   UNL     1      -3.638  -4.356 -33.442  1.00  0.00     0.002 A 
HETATM    2  C   UNL     1      -3.702  -2.997 -33.135  1.00  0.00     0.034 A 
HETATM    3  C   UNL     1      -4.721  -2.193 -33.632  1.00  0.00     0.087 A 
HETATM    4  C   UNL     1      -5.708  -2.772 -34.474  1.00  0.00     0.087 A 
HETATM    5  N   UNL     1      -6.711  -2.035 -34.990  1.00  0.00    -0.232 NA
HETATM    6  C   UNL     1      -6.696  -0.715 -34.710  1.00  0.00     0.164 A 
HETATM    7 CL   UNL     1      -8.005   0.159 -35.391  1.00  0.00    -0.059 Cl
HETATM    8  C   UNL     1      -5.738  -0.151 -33.886  1.00  0.00     0.165 A 
HETATM    9  N   UNL     1      -4.756  -0.883 -33.303  1.00  0.00    -0.234 NA
HETATM   10  C   UNL     1      -5.636  -4.128 -34.764  1.00  0.00     0.034 A 
HETATM   11  C   UNL     1      -4.610  -4.924 -34.255  1.00  0.00     0.002 A 
ENDROOT
BRANCH   8  12
HETATM   12  S   UNL     1      -5.677   1.587 -33.472  1.00  0.00     0.078 S 
HETATM   13  O   UNL     1      -4.365   1.822 -32.784  1.00  0.00    -0.251 OA
BRANCH  12  14
HETATM   14  C   UNL     1      -6.935   1.679 -32.160  1.00  0.00     0.112 C 
HETATM   15  C   UNL     1      -8.356   1.764 -32.722  1.00  0.00     0.250 C 
HETATM   16  N   UNL     1      -9.343   1.733 -31.581  1.00  0.00    -0.074 N 
HETATM   17  H   UNL     1      -9.317   0.809 -31.123  1.00  0.00     0.277 HD
HETATM   18  H   UNL     1     -10.292   1.809 -31.974  1.00  0.00     0.277 HD
HETATM   19  C   UNL     1      -9.141   2.817 -30.574  1.00  0.00     0.232 C 
HETATM   20  C   UNL     1      -7.725   2.732 -30.016  1.00  0.00     0.029 C 
HETATM   21  C   UNL     1      -6.666   2.768 -31.123  1.00  0.00     0.021 C 
ENDBRANCH  12  14
ENDBRANCH   8  12
TORSDOF 2
ENDMDL
MODEL 10
REMARK VINA RESULT:      -6.8      1.929      2.484
REMARK  2 active torsions:
REMARK  status: ('A' for Active; 'I' for Inactive)
REMARK    1  A    between atoms: C_8  and  S_9 
REMARK    2  A    between atoms: S_9  and  C_10 
ROOT
HETATM    1  C   UNL     1      -6.190  -2.499 -34.689  1.00  0.00     0.002 A 
HETATM    2  C   UNL     1      -7.131  -1.509 -34.405  1.00  0.00     0.034 A 
HETATM    3  C   UNL     1      -6.775  -0.349 -33.728  1.00  0.00     0.087 A 
HETATM    4  C   UNL     1      -5.426  -0.178 -33.314  1.00  0.00     0.087 A 
HETATM    5  N   UNL     1      -5.031   0.923 -32.645  1.00  0.00    -0.232 NA
HETATM    6  C   UNL     1      -5.989   1.824 -32.345  1.00  0.00     0.164 A 
HETATM    7 CL   UNL     1      -5.415   3.202 -31.503  1.00  0.00    -0.059 Cl
HETATM    8  C   UNL     1      -7.302   1.662 -32.753  1.00  0.00     0.165 A 
HETATM    9  N   UNL     1      -7.711   0.593 -33.481  1.00  0.00    -0.234 NA
HETATM   10  C   UNL     1      -4.499  -1.169 -33.611  1.00  0.00     0.034 A 
HETATM   11  C   UNL     1      -4.870  -2.326 -34.294  1.00  0.00     0.002 A 
ENDROOT
BRANCH   8  12
HETATM   12  S   UNL     1      -8.609   2.827 -32.394  1.00  0.00     0.078 S 
HETATM   13  O   UNL     1      -9.312   2.324 -31.168  1.00  0.00    -0.251 OA
BRANCH  12  14
HETATM   14  C   UNL     1      -9.752   2.508 -33.774  1.00  0.00     0.112 C 
HETATM   15  C   UNL     1     -10.099   3.781 -34.548  1.00  0.00     0.250 C 
HETATM   16  N   UNL     1     -10.963   3.422 -35.732  1.00  0.00    -0.074 N 
HETATM   17  H   UNL     1     -10.415   2.868 -36.407  1.00  0.00     0.277 HD
HETATM   18  H   UNL     1     -11.202   4.292 -36.231  1.00  0.00     0.277 HD
HETATM   19  C   UNL     1     -12.221   2.703 -35.369  1.00  0.00     0.232 C 
HETATM   20  C   UNL     1     -11.873   1.435 -34.597  1.00  0.00     0.029 C 
HETATM   21  C   UNL     1     -11.002   1.727 -33.371  1.00  0.00     0.021 C 
ENDBRANCH  12  14
ENDBRANCH   8  12
TORSDOF 2
ENDMDL
