MODEL 1
REMARK VINA RESULT:      -8.8      0.000      0.000
REMARK  7 active torsions:
REMARK  status: ('A' for Active; 'I' for Inactive)
REMARK    1  A    between atoms: O_2  and  C_3 
REMARK    2  A    between atoms: C_7  and  C_8 
REMARK    3  A    between atoms: C_8  and  C_9 
REMARK       I    between atoms: C_9  and  N_10 
REMARK    4  A    between atoms: N_10  and  C_11 
REMARK    5  A    between atoms: C_11  and  C_12 
REMARK    6  A    between atoms: C_12  and  N_13 
REMARK    7  A    between atoms: C_12  and  C_19 
ROOT
HETATM    1  C   UNL     1      -3.781   1.602 -30.977  1.00  0.00     0.222 C 
HETATM    2  N   UNL     1      -3.905   2.977 -31.083  1.00  0.00    -0.358 N 
HETATM    3  O   UNL     1      -2.713   1.047 -31.208  1.00  0.00    -0.273 OA
HETATM    4  H   UNL     1      -4.836   3.379 -31.009  1.00  0.00     0.162 HD
ENDROOT
BRANCH   2   5
HETATM    5  C   UNL     1      -2.840   3.808 -31.634  1.00  0.00     0.160 C 
BRANCH   5   6
HETATM    6  C   UNL     1      -3.092   5.349 -31.560  1.00  0.00     0.240 C 
BRANCH   6   7
HETATM    7  N   UNL     1      -3.511   5.933 -32.909  1.00  0.00    -0.061 N 
HETATM    8  H   UNL     1      -3.242   6.926 -32.866  1.00  0.00     0.280 HD
HETATM    9  C   UNL     1      -5.002   5.861 -33.203  1.00  0.00     0.236 C 
HETATM   10  C   UNL     1      -5.123   4.855 -34.326  1.00  0.00     0.029 C 
HETATM   11  C   UNL     1      -3.893   5.134 -35.155  1.00  0.00     0.029 C 
HETATM   12  C   UNL     1      -2.804   5.326 -34.116  1.00  0.00     0.236 C 
ENDBRANCH   6   7
BRANCH   6  13
HETATM   13  C   UNL     1      -1.904   6.045 -30.900  1.00  0.00    -0.004 A 
HETATM   14  C   UNL     1      -1.997   7.099 -29.971  1.00  0.00     0.042 A 
HETATM   15 CL   UNL     1      -3.511   7.717 -29.411  1.00  0.00    -0.084 Cl
HETATM   16  C   UNL     1      -0.846   7.686 -29.435  1.00  0.00     0.024 A 
HETATM   17  C   UNL     1       0.416   7.237 -29.814  1.00  0.00     0.002 A 
HETATM   18  C   UNL     1       0.533   6.199 -30.731  1.00  0.00     0.001 A 
HETATM   19  C   UNL     1      -0.612   5.612 -31.272  1.00  0.00     0.011 A 
ENDBRANCH   6  13
ENDBRANCH   5   6
ENDBRANCH   2   5
BRANCH   1  20
HETATM   20  C   UNL     1      -5.051   0.914 -30.493  1.00  0.00     0.144 C 
BRANCH  20  21
HETATM   21  C   UNL     1      -5.919   0.360 -31.572  1.00  0.00    -0.014 A 
HETATM   22  C   UNL     1      -5.608  -0.649 -32.539  1.00  0.00     0.006 A 
HETATM   23  C   UNL     1      -6.773  -0.858 -33.268  1.00  0.00     0.088 A 
HETATM   24  C   UNL     1      -4.475  -1.410 -32.878  1.00  0.00     0.017 A 
HETATM   25  C   UNL     1      -6.909  -1.783 -34.303  1.00  0.00     0.074 A 
HETATM   26  O   UNL     1      -7.760  -0.038 -32.819  1.00  0.00    -0.321 OA
HETATM   27  C   UNL     1      -5.774  -2.537 -34.616  1.00  0.00     0.070 A 
HETATM   28  C   UNL     1      -4.574  -2.337 -33.926  1.00  0.00     0.038 A 
HETATM   29  C   UNL     1      -7.240   0.691 -31.802  1.00  0.00     0.151 A 
BRANCH  27  30
HETATM   30  O   UNL     1      -5.709  -3.492 -35.597  1.00  0.00    -0.356 OA
HETATM   31  C   UNL     1      -6.464  -4.678 -35.368  1.00  0.00     0.210 C 
ENDBRANCH  27  30
ENDBRANCH  20  21
ENDBRANCH   1  20
TORSDOF 7
ENDMDL
MODEL 2
REMARK VINA RESULT:      -8.6      1.806      3.555
REMARK  7 active torsions:
REMARK  status: ('A' for Active; 'I' for Inactive)
REMARK    1  A    between atoms: O_2  and  C_3 
REMARK    2  A    between atoms: C_7  and  C_8 
REMARK    3  A    between atoms: C_8  and  C_9 
REMARK       I    between atoms: C_9  and  N_10 
REMARK    4  A    between atoms: N_10  and  C_11 
REMARK    5  A    between atoms: C_11  and  C_12 
REMARK    6  A    between atoms: C_12  and  N_13 
REMARK    7  A    between atoms: C_12  and  C_19 
ROOT
HETATM    1  C   UNL     1      -5.230   2.473 -31.141  1.00  0.00     0.222 C 
HETATM    2  N   UNL     1      -4.856   3.495 -30.284  1.00  0.00    -0.358 N 
HETATM    3  O   UNL     1      -5.478   2.700 -32.320  1.00  0.00    -0.273 OA
HETATM    4  H   UNL     1      -4.788   3.284 -29.292  1.00  0.00     0.162 HD
ENDROOT
BRANCH   2   5
HETATM    5  C   UNL     1      -4.905   4.897 -30.686  1.00  0.00     0.160 C 
BRANCH   5   6
HETATM    6  C   UNL     1      -3.514   5.587 -30.865  1.00  0.00     0.240 C 
BRANCH   6   7
HETATM    7  N   UNL     1      -3.502   7.017 -30.325  1.00  0.00    -0.061 N 
HETATM    8  H   UNL     1      -4.357   7.096 -29.756  1.00  0.00     0.280 HD
HETATM    9  C   UNL     1      -3.542   8.104 -31.388  1.00  0.00     0.236 C 
HETATM   10  C   UNL     1      -2.177   8.752 -31.324  1.00  0.00     0.029 C 
HETATM   11  C   UNL     1      -1.867   8.728 -29.847  1.00  0.00     0.029 C 
HETATM   12  C   UNL     1      -2.323   7.347 -29.415  1.00  0.00     0.236 C 
ENDBRANCH   6   7
BRANCH   6  13
HETATM   13  C   UNL     1      -3.036   5.441 -32.308  1.00  0.00    -0.004 A 
HETATM   14  C   UNL     1      -1.691   5.333 -32.709  1.00  0.00     0.042 A 
HETATM   15 CL   UNL     1      -0.382   5.300 -31.581  1.00  0.00    -0.084 Cl
HETATM   16  C   UNL     1      -1.353   5.222 -34.062  1.00  0.00     0.024 A 
HETATM   17  C   UNL     1      -2.346   5.219 -35.039  1.00  0.00     0.002 A 
HETATM   18  C   UNL     1      -3.680   5.328 -34.667  1.00  0.00     0.001 A 
HETATM   19  C   UNL     1      -4.023   5.441 -33.319  1.00  0.00     0.011 A 
ENDBRANCH   6  13
ENDBRANCH   5   6
ENDBRANCH   2   5
BRANCH   1  20
HETATM   20  C   UNL     1      -5.224   1.099 -30.484  1.00  0.00     0.144 C 
BRANCH  20  21
HETATM   21  C   UNL     1      -4.576   0.020 -31.284  1.00  0.00    -0.014 A 
HETATM   22  C   UNL     1      -5.130  -0.759 -32.350  1.00  0.00     0.006 A 
HETATM   23  C   UNL     1      -4.102  -1.573 -32.810  1.00  0.00     0.088 A 
HETATM   24  C   UNL     1      -6.384  -0.864 -32.979  1.00  0.00     0.017 A 
HETATM   25  C   UNL     1      -4.216  -2.479 -33.865  1.00  0.00     0.074 A 
HETATM   26  O   UNL     1      -2.971  -1.351 -32.088  1.00  0.00    -0.321 OA
HETATM   27  C   UNL     1      -5.467  -2.559 -34.483  1.00  0.00     0.070 A 
HETATM   28  C   UNL     1      -6.536  -1.779 -34.032  1.00  0.00     0.038 A 
HETATM   29  C   UNL     1      -3.262  -0.395 -31.174  1.00  0.00     0.151 A 
BRANCH  27  30
HETATM   30  O   UNL     1      -5.774  -3.386 -35.532  1.00  0.00    -0.356 OA
HETATM   31  C   UNL     1      -6.519  -4.556 -35.209  1.00  0.00     0.210 C 
ENDBRANCH  27  30
ENDBRANCH  20  21
ENDBRANCH   1  20
TORSDOF 7
ENDMDL
MODEL 3
REMARK VINA RESULT:      -8.5      2.032      3.918
REMARK  7 active torsions:
REMARK  status: ('A' for Active; 'I' for Inactive)
REMARK    1  A    between atoms: O_2  and  C_3 
REMARK    2  A    between atoms: C_7  and  C_8 
REMARK    3  A    between atoms: C_8  and  C_9 
REMARK       I    between atoms: C_9  and  N_10 
REMARK    4  A    between atoms: N_10  and  C_11 
REMARK    5  A    between atoms: C_11  and  C_12 
REMARK    6  A    between atoms: C_12  and  N_13 
REMARK    7  A    between atoms: C_12  and  C_19 
ROOT
HETATM    1  C   UNL     1      -4.082   2.263 -31.059  1.00  0.00     0.222 C 
HETATM    2  N   UNL     1      -4.527   3.554 -30.828  1.00  0.00    -0.358 N 
HETATM    3  O   UNL     1      -3.019   2.057 -31.633  1.00  0.00    -0.273 OA
HETATM    4  H   UNL     1      -5.470   3.676 -30.468  1.00  0.00     0.162 HD
ENDROOT
BRANCH   2   5
HETATM    5  C   UNL     1      -3.853   4.716 -31.398  1.00  0.00     0.160 C 
BRANCH   5   6
HETATM    6  C   UNL     1      -4.266   5.074 -32.862  1.00  0.00     0.240 C 
BRANCH   6   7
HETATM    7  N   UNL     1      -3.435   6.222 -33.435  1.00  0.00    -0.061 N 
HETATM    8  H   UNL     1      -4.120   6.945 -33.695  1.00  0.00     0.280 HD
HETATM    9  C   UNL     1      -2.628   5.871 -34.677  1.00  0.00     0.236 C 
HETATM   10  C   UNL     1      -1.187   5.907 -34.219  1.00  0.00     0.029 C 
HETATM   11  C   UNL     1      -1.178   7.057 -33.241  1.00  0.00     0.029 C 
HETATM   12  C   UNL     1      -2.458   6.857 -32.451  1.00  0.00     0.236 C 
ENDBRANCH   6   7
BRANCH   6  13
HETATM   13  C   UNL     1      -5.778   5.270 -32.949  1.00  0.00    -0.004 A 
HETATM   14  C   UNL     1      -6.678   4.369 -33.549  1.00  0.00     0.042 A 
HETATM   15 CL   UNL     1      -6.173   2.866 -34.235  1.00  0.00    -0.084 Cl
HETATM   16  C   UNL     1      -8.048   4.649 -33.595  1.00  0.00     0.024 A 
HETATM   17  C   UNL     1      -8.546   5.828 -33.048  1.00  0.00     0.002 A 
HETATM   18  C   UNL     1      -7.676   6.734 -32.453  1.00  0.00     0.001 A 
HETATM   19  C   UNL     1      -6.308   6.462 -32.406  1.00  0.00     0.011 A 
ENDBRANCH   6  13
ENDBRANCH   5   6
ENDBRANCH   2   5
BRANCH   1  20
HETATM   20  C   UNL     1      -4.998   1.194 -30.478  1.00  0.00     0.144 C 
BRANCH  20  21
HETATM   21  C   UNL     1      -5.893   0.525 -31.465  1.00  0.00    -0.014 A 
HETATM   22  C   UNL     1      -5.564  -0.468 -32.442  1.00  0.00     0.006 A 
HETATM   23  C   UNL     1      -6.760  -0.817 -33.058  1.00  0.00     0.088 A 
HETATM   24  C   UNL     1      -4.390  -1.113 -32.872  1.00  0.00     0.017 A 
HETATM   25  C   UNL     1      -6.887  -1.776 -34.064  1.00  0.00     0.074 A 
HETATM   26  O   UNL     1      -7.786  -0.095 -32.532  1.00  0.00    -0.321 OA
HETATM   27  C   UNL     1      -5.711  -2.413 -34.468  1.00  0.00     0.070 A 
HETATM   28  C   UNL     1      -4.482  -2.070 -33.894  1.00  0.00     0.038 A 
HETATM   29  C   UNL     1      -7.259   0.709 -31.578  1.00  0.00     0.151 A 
BRANCH  27  30
HETATM   30  O   UNL     1      -5.631  -3.378 -35.438  1.00  0.00    -0.356 OA
HETATM   31  C   UNL     1      -6.473  -4.514 -35.261  1.00  0.00     0.210 C 
ENDBRANCH  27  30
ENDBRANCH  20  21
ENDBRANCH   1  20
TORSDOF 7
ENDMDL
MODEL 4
REMARK VINA RESULT:      -8.5      4.056      7.116
REMARK  7 active torsions:
REMARK  status: ('A' for Active; 'I' for Inactive)
REMARK    1  A    between atoms: O_2  and  C_3 
REMARK    2  A    between atoms: C_7  and  C_8 
REMARK    3  A    between atoms: C_8  and  C_9 
REMARK       I    between atoms: C_9  and  N_10 
REMARK    4  A    between atoms: N_10  and  C_11 
REMARK    5  A    between atoms: C_11  and  C_12 
REMARK    6  A    between atoms: C_12  and  N_13 
REMARK    7  A    between atoms: C_12  and  C_19 
ROOT
HETATM    1  C   UNL     1      -8.774   3.445 -30.614  1.00  0.00     0.222 C 
HETATM    2  N   UNL     1      -9.190   2.212 -31.085  1.00  0.00    -0.358 N 
HETATM    3  O   UNL     1      -9.306   4.479 -31.001  1.00  0.00    -0.273 OA
HETATM    4  H   UNL     1      -8.637   1.395 -30.838  1.00  0.00     0.162 HD
ENDROOT
BRANCH   2   5
HETATM    5  C   UNL     1     -10.149   2.087 -32.178  1.00  0.00     0.160 C 
BRANCH   5   6
HETATM    6  C   UNL     1      -9.554   2.273 -33.611  1.00  0.00     0.240 C 
BRANCH   6   7
HETATM    7  N   UNL     1     -10.615   2.134 -34.702  1.00  0.00    -0.061 N 
HETATM    8  H   UNL     1     -10.164   1.584 -35.447  1.00  0.00     0.280 HD
HETATM    9  C   UNL     1     -11.086   3.448 -35.309  1.00  0.00     0.236 C 
HETATM   10  C   UNL     1     -12.515   3.598 -34.834  1.00  0.00     0.029 C 
HETATM   11  C   UNL     1     -13.024   2.177 -34.862  1.00  0.00     0.029 C 
HETATM   12  C   UNL     1     -11.871   1.379 -34.281  1.00  0.00     0.236 C 
ENDBRANCH   6   7
BRANCH   6  13
HETATM   13  C   UNL     1      -8.327   1.380 -33.790  1.00  0.00    -0.004 A 
HETATM   14  C   UNL     1      -7.002   1.840 -33.911  1.00  0.00     0.042 A 
HETATM   15 CL   UNL     1      -6.585   3.515 -33.817  1.00  0.00    -0.084 Cl
HETATM   16  C   UNL     1      -5.945   0.942 -34.091  1.00  0.00     0.024 A 
HETATM   17  C   UNL     1      -6.188  -0.428 -34.158  1.00  0.00     0.002 A 
HETATM   18  C   UNL     1      -7.488  -0.905 -34.044  1.00  0.00     0.001 A 
HETATM   19  C   UNL     1      -8.547  -0.013 -33.866  1.00  0.00     0.011 A 
ENDBRANCH   6  13
ENDBRANCH   5   6
ENDBRANCH   2   5
BRANCH   1  20
HETATM   20  C   UNL     1      -7.679   3.352 -29.558  1.00  0.00     0.144 C 
BRANCH  20  21
HETATM   21  C   UNL     1      -6.292   3.260 -30.094  1.00  0.00    -0.014 A 
HETATM   22  C   UNL     1      -5.539   2.090 -30.434  1.00  0.00     0.006 A 
HETATM   23  C   UNL     1      -4.334   2.542 -30.958  1.00  0.00     0.088 A 
HETATM   24  C   UNL     1      -5.745   0.700 -30.360  1.00  0.00     0.017 A 
HETATM   25  C   UNL     1      -3.314   1.718 -31.434  1.00  0.00     0.074 A 
HETATM   26  O   UNL     1      -4.299   3.902 -30.945  1.00  0.00    -0.321 OA
HETATM   27  C   UNL     1      -3.543   0.341 -31.362  1.00  0.00     0.070 A 
HETATM   28  C   UNL     1      -4.730  -0.156 -30.815  1.00  0.00     0.038 A 
HETATM   29  C   UNL     1      -5.476   4.326 -30.425  1.00  0.00     0.151 A 
BRANCH  27  30
HETATM   30  O   UNL     1      -2.664  -0.625 -31.778  1.00  0.00    -0.356 OA
HETATM   31  C   UNL     1      -3.205  -1.932 -31.947  1.00  0.00     0.210 C 
ENDBRANCH  27  30
ENDBRANCH  20  21
ENDBRANCH   1  20
TORSDOF 7
ENDMDL
MODEL 5
REMARK VINA RESULT:      -8.4      2.188      4.196
REMARK  7 active torsions:
REMARK  status: ('A' for Active; 'I' for Inactive)
REMARK    1  A    between atoms: O_2  and  C_3 
REMARK    2  A    between atoms: C_7  and  C_8 
REMARK    3  A    between atoms: C_8  and  C_9 
REMARK       I    between atoms: C_9  and  N_10 
REMARK    4  A    between atoms: N_10  and  C_11 
REMARK    5  A    between atoms: C_11  and  C_12 
REMARK    6  A    between atoms: C_12  and  N_13 
REMARK    7  A    between atoms: C_12  and  C_19 
ROOT
HETATM    1  C   UNL     1      -6.407   4.535 -33.816  1.00  0.00     0.222 C 
HETATM    2  N   UNL     1      -5.969   4.994 -32.586  1.00  0.00    -0.358 N 
HETATM    3  O   UNL     1      -5.634   4.432 -34.761  1.00  0.00    -0.273 OA
HETATM    4  H   UNL     1      -6.667   5.186 -31.871  1.00  0.00     0.162 HD
ENDROOT
BRANCH   2   5
HETATM    5  C   UNL     1      -4.627   5.537 -32.398  1.00  0.00     0.160 C 
BRANCH   5   6
HETATM    6  C   UNL     1      -3.604   4.566 -31.725  1.00  0.00     0.240 C 
BRANCH   6   7
HETATM    7  N   UNL     1      -2.300   4.459 -32.514  1.00  0.00    -0.061 N 
HETATM    8  H   UNL     1      -2.045   3.462 -32.477  1.00  0.00     0.280 HD
HETATM    9  C   UNL     1      -1.140   5.263 -31.948  1.00  0.00     0.236 C 
HETATM   10  C   UNL     1      -0.910   6.367 -32.957  1.00  0.00     0.029 C 
HETATM   11  C   UNL     1      -1.176   5.674 -34.272  1.00  0.00     0.029 C 
HETATM   12  C   UNL     1      -2.411   4.841 -33.987  1.00  0.00     0.236 C 
ENDBRANCH   6   7
BRANCH   6  13
HETATM   13  C   UNL     1      -4.276   3.231 -31.409  1.00  0.00    -0.004 A 
HETATM   14  C   UNL     1      -5.157   3.003 -30.335  1.00  0.00     0.042 A 
HETATM   15 CL   UNL     1      -5.639   4.252 -29.242  1.00  0.00    -0.084 Cl
HETATM   16  C   UNL     1      -5.708   1.735 -30.117  1.00  0.00     0.024 A 
HETATM   17  C   UNL     1      -5.390   0.674 -30.962  1.00  0.00     0.002 A 
HETATM   18  C   UNL     1      -4.521   0.876 -32.027  1.00  0.00     0.001 A 
HETATM   19  C   UNL     1      -3.966   2.138 -32.247  1.00  0.00     0.011 A 
ENDBRANCH   6  13
ENDBRANCH   5   6
ENDBRANCH   2   5
BRANCH   1  20
HETATM   20  C   UNL     1      -7.875   4.127 -33.822  1.00  0.00     0.144 C 
BRANCH  20  21
HETATM   21  C   UNL     1      -8.152   2.757 -33.305  1.00  0.00    -0.014 A 
HETATM   22  C   UNL     1      -7.726   1.497 -33.836  1.00  0.00     0.006 A 
HETATM   23  C   UNL     1      -8.183   0.529 -32.950  1.00  0.00     0.088 A 
HETATM   24  C   UNL     1      -7.004   1.068 -34.964  1.00  0.00     0.017 A 
HETATM   25  C   UNL     1      -7.962  -0.842 -33.086  1.00  0.00     0.074 A 
HETATM   26  O   UNL     1      -8.866   1.113 -31.929  1.00  0.00    -0.321 OA
HETATM   27  C   UNL     1      -7.233  -1.246 -34.208  1.00  0.00     0.070 A 
HETATM   28  C   UNL     1      -6.780  -0.306 -35.140  1.00  0.00     0.038 A 
HETATM   29  C   UNL     1      -8.845   2.450 -32.149  1.00  0.00     0.151 A 
BRANCH  27  30
HETATM   30  O   UNL     1      -6.915  -2.543 -34.515  1.00  0.00    -0.356 OA
HETATM   31  C   UNL     1      -5.575  -2.777 -34.937  1.00  0.00     0.210 C 
ENDBRANCH  27  30
ENDBRANCH  20  21
ENDBRANCH   1  20
TORSDOF 7
ENDMDL
MODEL 6
REMARK VINA RESULT:      -8.3      2.532      4.503
REMARK  7 active torsions:
REMARK  status: ('A' for Active; 'I' for Inactive)
REMARK    1  A    between atoms: O_2  and  C_3 
REMARK    2  A    between atoms: C_7  and  C_8 
REMARK    3  A    between atoms: C_8  and  C_9 
REMARK       I    between atoms: C_9  and  N_10 
REMARK    4  A    between atoms: N_10  and  C_11 
REMARK    5  A    between atoms: C_11  and  C_12 
REMARK    6  A    between atoms: C_12  and  N_13 
REMARK    7  A    between atoms: C_12  and  C_19 
ROOT
HETATM    1  C   UNL     1      -3.470   0.178 -31.625  1.00  0.00     0.222 C 
HETATM    2  N   UNL     1      -4.035   1.299 -32.210  1.00  0.00    -0.358 N 
HETATM    3  O   UNL     1      -2.424   0.259 -30.991  1.00  0.00    -0.273 OA
HETATM    4  H   UNL     1      -4.828   1.163 -32.832  1.00  0.00     0.162 HD
ENDROOT
BRANCH   2   5
HETATM    5  C   UNL     1      -3.340   2.581 -32.253  1.00  0.00     0.160 C 
BRANCH   5   6
HETATM    6  C   UNL     1      -4.201   3.789 -32.748  1.00  0.00     0.240 C 
BRANCH   6   7
HETATM    7  N   UNL     1      -3.354   5.033 -33.016  1.00  0.00    -0.061 N 
HETATM    8  H   UNL     1      -3.819   5.790 -32.494  1.00  0.00     0.280 HD
HETATM    9  C   UNL     1      -3.272   5.449 -34.476  1.00  0.00     0.236 C 
HETATM   10  C   UNL     1      -1.838   5.175 -34.872  1.00  0.00     0.029 C 
HETATM   11  C   UNL     1      -1.073   5.540 -33.623  1.00  0.00     0.029 C 
HETATM   12  C   UNL     1      -1.918   4.951 -32.509  1.00  0.00     0.236 C 
ENDBRANCH   6   7
BRANCH   6  13
HETATM   13  C   UNL     1      -5.387   4.008 -31.811  1.00  0.00    -0.004 A 
HETATM   14  C   UNL     1      -6.741   3.902 -32.181  1.00  0.00     0.042 A 
HETATM   15 CL   UNL     1      -7.240   3.450 -33.773  1.00  0.00    -0.084 Cl
HETATM   16  C   UNL     1      -7.759   4.141 -31.251  1.00  0.00     0.024 A 
HETATM   17  C   UNL     1      -7.448   4.491 -29.940  1.00  0.00     0.002 A 
HETATM   18  C   UNL     1      -6.118   4.604 -29.552  1.00  0.00     0.001 A 
HETATM   19  C   UNL     1      -5.098   4.369 -30.476  1.00  0.00     0.011 A 
ENDBRANCH   6  13
ENDBRANCH   5   6
ENDBRANCH   2   5
BRANCH   1  20
HETATM   20  C   UNL     1      -4.306  -1.083 -31.799  1.00  0.00     0.144 C 
BRANCH  20  21
HETATM   21  C   UNL     1      -5.420  -0.971 -32.783  1.00  0.00    -0.014 A 
HETATM   22  C   UNL     1      -6.717  -0.390 -32.604  1.00  0.00     0.006 A 
HETATM   23  C   UNL     1      -7.351  -0.470 -33.838  1.00  0.00     0.088 A 
HETATM   24  C   UNL     1      -7.422   0.198 -31.538  1.00  0.00     0.017 A 
HETATM   25  C   UNL     1      -8.635   0.006 -34.105  1.00  0.00     0.074 A 
HETATM   26  O   UNL     1      -6.536  -1.070 -34.745  1.00  0.00    -0.321 OA
HETATM   27  C   UNL     1      -9.314   0.596 -33.035  1.00  0.00     0.070 A 
HETATM   28  C   UNL     1      -8.723   0.670 -31.770  1.00  0.00     0.038 A 
HETATM   29  C   UNL     1      -5.379  -1.370 -34.106  1.00  0.00     0.151 A 
BRANCH  27  30
HETATM   30  O   UNL     1     -10.579   1.121 -33.099  1.00  0.00    -0.356 OA
HETATM   31  C   UNL     1     -10.687   2.525 -32.886  1.00  0.00     0.210 C 
ENDBRANCH  27  30
ENDBRANCH  20  21
ENDBRANCH   1  20
TORSDOF 7
ENDMDL
MODEL 7
REMARK VINA RESULT:      -8.3      3.215      8.827
REMARK  7 active torsions:
REMARK  status: ('A' for Active; 'I' for Inactive)
REMARK    1  A    between atoms: O_2  and  C_3 
REMARK    2  A    between atoms: C_7  and  C_8 
REMARK    3  A    between atoms: C_8  and  C_9 
REMARK       I    between atoms: C_9  and  N_10 
REMARK    4  A    between atoms: N_10  and  C_11 
REMARK    5  A    between atoms: C_11  and  C_12 
REMARK    6  A    between atoms: C_12  and  N_13 
REMARK    7  A    between atoms: C_12  and  C_19 
ROOT
HETATM    1  C   UNL     1      -4.814   4.659 -32.515  1.00  0.00     0.222 C 
HETATM    2  N   UNL     1      -4.215   3.531 -33.050  1.00  0.00    -0.358 N 
HETATM    3  O   UNL     1      -5.506   4.584 -31.506  1.00  0.00    -0.273 OA
HETATM    4  H   UNL     1      -3.760   3.618 -33.956  1.00  0.00     0.162 HD
ENDROOT
BRANCH   2   5
HETATM    5  C   UNL     1      -4.509   2.191 -32.555  1.00  0.00     0.160 C 
BRANCH   5   6
HETATM    6  C   UNL     1      -5.857   1.577 -33.054  1.00  0.00     0.240 C 
BRANCH   6   7
HETATM    7  N   UNL     1      -6.992   1.776 -32.050  1.00  0.00    -0.061 N 
HETATM    8  H   UNL     1      -6.576   2.316 -31.278  1.00  0.00     0.280 HD
HETATM    9  C   UNL     1      -7.566   0.492 -31.469  1.00  0.00     0.236 C 
HETATM   10  C   UNL     1      -8.959   0.398 -32.051  1.00  0.00     0.029 C 
HETATM   11  C   UNL     1      -9.405   1.840 -32.078  1.00  0.00     0.029 C 
HETATM   12  C   UNL     1      -8.177   2.579 -32.575  1.00  0.00     0.236 C 
ENDBRANCH   6   7
BRANCH   6  13
HETATM   13  C   UNL     1      -5.643   0.134 -33.504  1.00  0.00    -0.004 A 
HETATM   14  C   UNL     1      -6.394  -0.525 -34.496  1.00  0.00     0.042 A 
HETATM   15 CL   UNL     1      -7.652   0.257 -35.385  1.00  0.00    -0.084 Cl
HETATM   16  C   UNL     1      -6.132  -1.859 -34.826  1.00  0.00     0.024 A 
HETATM   17  C   UNL     1      -5.122  -2.561 -34.173  1.00  0.00     0.002 A 
HETATM   18  C   UNL     1      -4.369  -1.933 -33.189  1.00  0.00     0.001 A 
HETATM   19  C   UNL     1      -4.627  -0.602 -32.855  1.00  0.00     0.011 A 
ENDBRANCH   6  13
ENDBRANCH   5   6
ENDBRANCH   2   5
BRANCH   1  20
HETATM   20  C   UNL     1      -4.465   5.942 -33.258  1.00  0.00     0.144 C 
BRANCH  20  21
HETATM   21  C   UNL     1      -3.043   6.374 -33.137  1.00  0.00    -0.014 A 
HETATM   22  C   UNL     1      -2.254   6.534 -31.952  1.00  0.00     0.006 A 
HETATM   23  C   UNL     1      -0.979   6.881 -32.380  1.00  0.00     0.088 A 
HETATM   24  C   UNL     1      -2.476   6.423 -30.568  1.00  0.00     0.017 A 
HETATM   25  C   UNL     1       0.109   7.110 -31.537  1.00  0.00     0.074 A 
HETATM   26  O   UNL     1      -0.944   6.954 -33.738  1.00  0.00    -0.321 OA
HETATM   27  C   UNL     1      -0.130   6.982 -30.165  1.00  0.00     0.070 A 
HETATM   28  C   UNL     1      -1.408   6.664 -29.691  1.00  0.00     0.038 A 
HETATM   29  C   UNL     1      -2.186   6.650 -34.185  1.00  0.00     0.151 A 
BRANCH  27  30
HETATM   30  O   UNL     1       0.807   7.168 -29.182  1.00  0.00    -0.356 OA
HETATM   31  C   UNL     1       0.571   6.483 -27.956  1.00  0.00     0.210 C 
ENDBRANCH  27  30
ENDBRANCH  20  21
ENDBRANCH   1  20
TORSDOF 7
ENDMDL
MODEL 8
REMARK VINA RESULT:      -8.2      3.447      8.032
REMARK  7 active torsions:
REMARK  status: ('A' for Active; 'I' for Inactive)
REMARK    1  A    between atoms: O_2  and  C_3 
REMARK    2  A    between atoms: C_7  and  C_8 
REMARK    3  A    between atoms: C_8  and  C_9 
REMARK       I    between atoms: C_9  and  N_10 
REMARK    4  A    between atoms: N_10  and  C_11 
REMARK    5  A    between atoms: C_11  and  C_12 
REMARK    6  A    between atoms: C_12  and  N_13 
REMARK    7  A    between atoms: C_12  and  C_19 
ROOT
HETATM    1  C   UNL     1      -6.777   2.080 -30.412  1.00  0.00     0.222 C 
HETATM    2  N   UNL     1      -6.425   0.788 -30.764  1.00  0.00    -0.358 N 
HETATM    3  O   UNL     1      -7.909   2.502 -30.622  1.00  0.00    -0.273 OA
HETATM    4  H   UNL     1      -5.445   0.524 -30.691  1.00  0.00     0.162 HD
ENDROOT
BRANCH   2   5
HETATM    5  C   UNL     1      -7.309  -0.067 -31.548  1.00  0.00     0.160 C 
BRANCH   5   6
HETATM    6  C   UNL     1      -7.149   0.052 -33.099  1.00  0.00     0.240 C 
BRANCH   6   7
HETATM    7  N   UNL     1      -8.477   0.335 -33.799  1.00  0.00    -0.061 N 
HETATM    8  H   UNL     1      -8.536  -0.363 -34.555  1.00  0.00     0.280 HD
HETATM    9  C   UNL     1      -8.590   1.717 -34.425  1.00  0.00     0.236 C 
HETATM   10  C   UNL     1      -9.618   2.437 -33.581  1.00  0.00     0.029 C 
HETATM   11  C   UNL     1     -10.602   1.341 -33.250  1.00  0.00     0.029 C 
HETATM   12  C   UNL     1      -9.713   0.156 -32.923  1.00  0.00     0.236 C 
ENDBRANCH   6   7
BRANCH   6  13
HETATM   13  C   UNL     1      -6.379  -1.150 -33.642  1.00  0.00    -0.004 A 
HETATM   14  C   UNL     1      -4.978  -1.289 -33.626  1.00  0.00     0.042 A 
HETATM   15 CL   UNL     1      -3.932  -0.104 -32.926  1.00  0.00    -0.084 Cl
HETATM   16  C   UNL     1      -4.364  -2.423 -34.167  1.00  0.00     0.024 A 
HETATM   17  C   UNL     1      -5.132  -3.437 -34.734  1.00  0.00     0.002 A 
HETATM   18  C   UNL     1      -6.516  -3.322 -34.763  1.00  0.00     0.001 A 
HETATM   19  C   UNL     1      -7.134  -2.190 -34.227  1.00  0.00     0.011 A 
ENDBRANCH   6  13
ENDBRANCH   5   6
ENDBRANCH   2   5
BRANCH   1  20
HETATM   20  C   UNL     1      -5.664   2.840 -29.704  1.00  0.00     0.144 C 
BRANCH  20  21
HETATM   21  C   UNL     1      -5.285   4.137 -30.334  1.00  0.00    -0.014 A 
HETATM   22  C   UNL     1      -4.198   4.416 -31.224  1.00  0.00     0.006 A 
HETATM   23  C   UNL     1      -4.324   5.752 -31.583  1.00  0.00     0.088 A 
HETATM   24  C   UNL     1      -3.125   3.687 -31.768  1.00  0.00     0.017 A 
HETATM   25  C   UNL     1      -3.473   6.424 -32.460  1.00  0.00     0.074 A 
HETATM   26  O   UNL     1      -5.402   6.304 -30.963  1.00  0.00    -0.321 OA
HETATM   27  C   UNL     1      -2.420   5.679 -32.998  1.00  0.00     0.070 A 
HETATM   28  C   UNL     1      -2.240   4.339 -32.639  1.00  0.00     0.038 A 
HETATM   29  C   UNL     1      -5.973   5.330 -30.214  1.00  0.00     0.151 A 
BRANCH  27  30
HETATM   30  O   UNL     1      -1.481   6.160 -33.874  1.00  0.00    -0.356 OA
HETATM   31  C   UNL     1      -1.194   5.335 -34.998  1.00  0.00     0.210 C 
ENDBRANCH  27  30
ENDBRANCH  20  21
ENDBRANCH   1  20
TORSDOF 7
ENDMDL
MODEL 9
REMARK VINA RESULT:      -8.2      4.468      7.063
REMARK  7 active torsions:
REMARK  status: ('A' for Active; 'I' for Inactive)
REMARK    1  A    between atoms: O_2  and  C_3 
REMARK    2  A    between atoms: C_7  and  C_8 
REMARK    3  A    between atoms: C_8  and  C_9 
REMARK       I    between atoms: C_9  and  N_10 
REMARK    4  A    between atoms: N_10  and  C_11 
REMARK    5  A    between atoms: C_11  and  C_12 
REMARK    6  A    between atoms: C_12  and  N_13 
REMARK    7  A    between atoms: C_12  and  C_19 
ROOT
HETATM    1  C   UNL     1      -6.867   2.035 -30.503  1.00  0.00     0.222 C 
HETATM    2  N   UNL     1      -8.041   1.504 -31.010  1.00  0.00    -0.358 N 
HETATM    3  O   UNL     1      -6.648   3.240 -30.553  1.00  0.00    -0.273 OA
HETATM    4  H   UNL     1      -8.121   0.492 -31.065  1.00  0.00     0.162 HD
ENDROOT
BRANCH   2   5
HETATM    5  C   UNL     1      -8.987   2.311 -31.774  1.00  0.00     0.160 C 
BRANCH   5   6
HETATM    6  C   UNL     1      -9.101   1.947 -33.290  1.00  0.00     0.240 C 
BRANCH   6   7
HETATM    7  N   UNL     1      -8.242   2.855 -34.170  1.00  0.00    -0.061 N 
HETATM    8  H   UNL     1      -8.794   2.996 -35.028  1.00  0.00     0.280 HD
HETATM    9  C   UNL     1      -6.894   2.272 -34.569  1.00  0.00     0.236 C 
HETATM   10  C   UNL     1      -5.879   3.112 -33.825  1.00  0.00     0.029 C 
HETATM   11  C   UNL     1      -6.492   4.491 -33.871  1.00  0.00     0.029 C 
HETATM   12  C   UNL     1      -7.959   4.234 -33.583  1.00  0.00     0.236 C 
ENDBRANCH   6   7
BRANCH   6  13
HETATM   13  C   UNL     1     -10.569   1.857 -33.700  1.00  0.00    -0.004 A 
HETATM   14  C   UNL     1     -11.388   0.723 -33.533  1.00  0.00     0.042 A 
HETATM   15 CL   UNL     1     -10.828  -0.727 -32.778  1.00  0.00    -0.084 Cl
HETATM   16  C   UNL     1     -12.720   0.733 -33.960  1.00  0.00     0.024 A 
HETATM   17  C   UNL     1     -13.260   1.867 -34.561  1.00  0.00     0.002 A 
HETATM   18  C   UNL     1     -12.470   2.996 -34.738  1.00  0.00     0.001 A 
HETATM   19  C   UNL     1     -11.139   2.992 -34.316  1.00  0.00     0.011 A 
ENDBRANCH   6  13
ENDBRANCH   5   6
ENDBRANCH   2   5
BRANCH   1  20
HETATM   20  C   UNL     1      -5.965   0.997 -29.848  1.00  0.00     0.144 C 
BRANCH  20  21
HETATM   21  C   UNL     1      -5.087   0.242 -30.786  1.00  0.00    -0.014 A 
HETATM   22  C   UNL     1      -5.457  -0.529 -31.936  1.00  0.00     0.006 A 
HETATM   23  C   UNL     1      -4.270  -0.966 -32.508  1.00  0.00     0.088 A 
HETATM   24  C   UNL     1      -6.664  -0.901 -32.556  1.00  0.00     0.017 A 
HETATM   25  C   UNL     1      -4.182  -1.736 -33.668  1.00  0.00     0.074 A 
HETATM   26  O   UNL     1      -3.208  -0.527 -31.779  1.00  0.00    -0.321 OA
HETATM   27  C   UNL     1      -5.391  -2.086 -34.275  1.00  0.00     0.070 A 
HETATM   28  C   UNL     1      -6.610  -1.690 -33.715  1.00  0.00     0.038 A 
HETATM   29  C   UNL     1      -3.706   0.196 -30.747  1.00  0.00     0.151 A 
BRANCH  27  30
HETATM   30  O   UNL     1      -5.511  -2.835 -35.417  1.00  0.00    -0.356 OA
HETATM   31  C   UNL     1      -6.166  -4.092 -35.274  1.00  0.00     0.210 C 
ENDBRANCH  27  30
ENDBRANCH  20  21
ENDBRANCH   1  20
TORSDOF 7
ENDMDL
MODEL 10
REMARK VINA RESULT:      -8.0      3.933      6.722
REMARK  7 active torsions:
REMARK  status: ('A' for Active; 'I' for Inactive)
REMARK    1  A    between atoms: O_2  and  C_3 
REMARK    2  A    between atoms: C_7  and  C_8 
REMARK    3  A    between atoms: C_8  and  C_9 
REMARK       I    between atoms: C_9  and  N_10 
REMARK    4  A    between atoms: N_10  and  C_11 
REMARK    5  A    between atoms: C_11  and  C_12 
REMARK    6  A    between atoms: C_12  and  N_13 
REMARK    7  A    between atoms: C_12  and  C_19 
ROOT
HETATM    1  C   UNL     1      -7.134   3.502 -30.342  1.00  0.00     0.222 C 
HETATM    2  N   UNL     1      -7.963   2.395 -30.410  1.00  0.00    -0.358 N 
HETATM    3  O   UNL     1      -7.554   4.621 -30.612  1.00  0.00    -0.273 OA
HETATM    4  H   UNL     1      -7.541   1.476 -30.305  1.00  0.00     0.162 HD
ENDROOT
BRANCH   2   5
HETATM    5  C   UNL     1      -9.311   2.473 -30.963  1.00  0.00     0.160 C 
BRANCH   5   6
HETATM    6  C   UNL     1      -9.385   2.767 -32.497  1.00  0.00     0.240 C 
BRANCH   6   7
HETATM    7  N   UNL     1     -10.825   2.897 -32.993  1.00  0.00    -0.061 N 
HETATM    8  H   UNL     1     -11.252   1.976 -32.821  1.00  0.00     0.280 HD
HETATM    9  C   UNL     1     -10.965   3.212 -34.475  1.00  0.00     0.236 C 
HETATM   10  C   UNL     1     -11.502   4.625 -34.517  1.00  0.00     0.029 C 
HETATM   11  C   UNL     1     -12.440   4.659 -33.335  1.00  0.00     0.029 C 
HETATM   12  C   UNL     1     -11.666   3.931 -32.252  1.00  0.00     0.236 C 
ENDBRANCH   6   7
BRANCH   6  13
HETATM   13  C   UNL     1      -8.528   1.765 -33.266  1.00  0.00    -0.004 A 
HETATM   14  C   UNL     1      -8.797   0.387 -33.377  1.00  0.00     0.042 A 
HETATM   15 CL   UNL     1     -10.196  -0.349 -32.678  1.00  0.00    -0.084 Cl
HETATM   16  C   UNL     1      -7.937  -0.455 -34.090  1.00  0.00     0.024 A 
HETATM   17  C   UNL     1      -6.796   0.056 -34.703  1.00  0.00     0.002 A 
HETATM   18  C   UNL     1      -6.509   1.412 -34.605  1.00  0.00     0.001 A 
HETATM   19  C   UNL     1      -7.362   2.257 -33.892  1.00  0.00     0.011 A 
ENDBRANCH   6  13
ENDBRANCH   5   6
ENDBRANCH   2   5
BRANCH   1  20
HETATM   20  C   UNL     1      -5.730   3.177 -29.848  1.00  0.00     0.144 C 
BRANCH  20  21
HETATM   21  C   UNL     1      -4.826   2.572 -30.867  1.00  0.00    -0.014 A 
HETATM   22  C   UNL     1      -4.746   1.207 -31.294  1.00  0.00     0.006 A 
HETATM   23  C   UNL     1      -3.801   1.174 -32.312  1.00  0.00     0.088 A 
HETATM   24  C   UNL     1      -5.370  -0.002 -30.936  1.00  0.00     0.017 A 
HETATM   25  C   UNL     1      -3.434   0.030 -33.021  1.00  0.00     0.074 A 
HETATM   26  O   UNL     1      -3.294   2.419 -32.520  1.00  0.00    -0.321 OA
HETATM   27  C   UNL     1      -4.074  -1.158 -32.657  1.00  0.00     0.070 A 
HETATM   28  C   UNL     1      -5.010  -1.174 -31.618  1.00  0.00     0.038 A 
HETATM   29  C   UNL     1      -3.912   3.252 -31.649  1.00  0.00     0.151 A 
BRANCH  27  30
HETATM   30  O   UNL     1      -3.850  -2.381 -33.234  1.00  0.00    -0.356 OA
HETATM   31  C   UNL     1      -4.602  -2.667 -34.409  1.00  0.00     0.210 C 
ENDBRANCH  27  30
ENDBRANCH  20  21
ENDBRANCH   1  20
TORSDOF 7
ENDMDL
