MODEL 1
REMARK VINA RESULT:      -7.8      0.000      0.000
REMARK  4 active torsions:
REMARK  status: ('A' for Active; 'I' for Inactive)
REMARK    1  A    between atoms: S_2  and  N_3 
REMARK    2  A    between atoms: N_3  and  N_4 
REMARK    3  A    between atoms: C_10  and  C_11 
REMARK    4  A    between atoms: C_13  and  O_14 
ROOT
HETATM    1  N   UNL     1      -4.981   3.162 -30.701  1.00  0.00    -0.224 N 
HETATM    2  C   UNL     1      -5.800   2.109 -31.078  1.00  0.00     0.276 C 
HETATM    3  O   UNL     1      -6.949   1.987 -30.652  1.00  0.00    -0.266 OA
HETATM    4  C   UNL     1      -5.188   1.089 -31.951  1.00  0.00     0.055 A 
HETATM    5  C   UNL     1      -3.787   1.058 -32.015  1.00  0.00     0.026 A 
HETATM    6  N   UNL     1      -3.020   2.007 -31.315  1.00  0.00    -0.265 NA
HETATM    7  C   UNL     1      -3.635   3.342 -31.261  1.00  0.00     0.222 C 
HETATM    8  C   UNL     1      -5.968   0.120 -32.584  1.00  0.00     0.019 A 
HETATM    9  C   UNL     1      -5.342  -0.907 -33.289  1.00  0.00     0.001 A 
HETATM   10  C   UNL     1      -3.948  -0.974 -33.329  1.00  0.00     0.002 A 
HETATM   11  C   UNL     1      -3.174  -0.007 -32.679  1.00  0.00     0.024 A 
HETATM   12  H   UNL     1      -2.045   2.031 -31.584  1.00  0.00     0.130 HD
ENDROOT
BRANCH   7  13
HETATM   13  C   UNL     1      -3.624   4.033 -32.637  1.00  0.00    -0.017 A 
HETATM   14  C   UNL     1      -2.416   4.305 -33.308  1.00  0.00     0.047 A 
HETATM   15  C   UNL     1      -2.417   4.908 -34.566  1.00  0.00     0.066 A 
HETATM   16  C   UNL     1      -3.603   5.259 -35.190  1.00  0.00     0.036 A 
HETATM   17  C   UNL     1      -4.811   4.980 -34.562  1.00  0.00     0.003 A 
HETATM   18  C   UNL     1      -4.822   4.361 -33.308  1.00  0.00     0.011 A 
BRANCH  15  19
HETATM   19  O   UNL     1      -1.253   5.167 -35.230  1.00  0.00    -0.361 OA
HETATM   20  H   UNL     1      -0.686   4.381 -35.184  1.00  0.00     0.217 HD
ENDBRANCH  15  19
ENDBRANCH   7  13
BRANCH   1  21
HETATM   21  N   UNL     1      -5.230   3.676 -29.329  1.00  0.00    -0.220 N 
HETATM   22  H   UNL     1      -5.530   2.936 -28.678  1.00  0.00     0.200 HD
BRANCH  21  23
HETATM   23  S   UNL     1      -6.074   5.120 -29.093  1.00  0.00     0.240 S 
HETATM   24  C   UNL     1      -5.389   5.651 -27.538  1.00  0.00     0.187 C 
HETATM   25  O   UNL     1      -7.475   4.823 -28.896  1.00  0.00    -0.205 OA
HETATM   26  O   UNL     1      -5.633   6.045 -30.112  1.00  0.00    -0.205 OA
ENDBRANCH  21  23
ENDBRANCH   1  21
TORSDOF 4
ENDMDL
MODEL 2
REMARK VINA RESULT:      -7.5      2.794      3.871
REMARK  4 active torsions:
REMARK  status: ('A' for Active; 'I' for Inactive)
REMARK    1  A    between atoms: S_2  and  N_3 
REMARK    2  A    between atoms: N_3  and  N_4 
REMARK    3  A    between atoms: C_10  and  C_11 
REMARK    4  A    between atoms: C_13  and  O_14 
ROOT
HETATM    1  N   UNL     1      -7.095   2.152 -33.748  1.00  0.00    -0.224 N 
HETATM    2  C   UNL     1      -6.774   0.935 -34.330  1.00  0.00     0.276 C 
HETATM    3  O   UNL     1      -7.350   0.517 -35.335  1.00  0.00    -0.266 OA
HETATM    4  C   UNL     1      -5.765   0.123 -33.624  1.00  0.00     0.055 A 
HETATM    5  C   UNL     1      -5.503   0.449 -32.285  1.00  0.00     0.026 A 
HETATM    6  N   UNL     1      -6.143   1.545 -31.679  1.00  0.00    -0.265 NA
HETATM    7  C   UNL     1      -6.363   2.680 -32.589  1.00  0.00     0.222 C 
HETATM    8  C   UNL     1      -5.191  -0.997 -34.228  1.00  0.00     0.019 A 
HETATM    9  C   UNL     1      -4.344  -1.815 -33.482  1.00  0.00     0.001 A 
HETATM   10  C   UNL     1      -4.105  -1.527 -32.137  1.00  0.00     0.002 A 
HETATM   11  C   UNL     1      -4.696  -0.411 -31.537  1.00  0.00     0.024 A 
HETATM   12  H   UNL     1      -5.742   1.820 -30.793  1.00  0.00     0.130 HD
ENDROOT
BRANCH   7  13
HETATM   13  C   UNL     1      -5.043   3.382 -32.957  1.00  0.00    -0.017 A 
HETATM   14  C   UNL     1      -4.964   4.254 -34.061  1.00  0.00     0.047 A 
HETATM   15  C   UNL     1      -3.772   4.906 -34.373  1.00  0.00     0.066 A 
HETATM   16  C   UNL     1      -2.631   4.714 -33.609  1.00  0.00     0.036 A 
HETATM   17  C   UNL     1      -2.687   3.879 -32.500  1.00  0.00     0.003 A 
HETATM   18  C   UNL     1      -3.882   3.233 -32.169  1.00  0.00     0.011 A 
BRANCH  15  19
HETATM   19  O   UNL     1      -3.684   5.760 -35.433  1.00  0.00    -0.361 OA
HETATM   20  H   UNL     1      -3.128   5.353 -36.116  1.00  0.00     0.217 HD
ENDBRANCH  15  19
ENDBRANCH   7  13
BRANCH   1  21
HETATM   21  N   UNL     1      -8.517   2.555 -33.906  1.00  0.00    -0.220 N 
HETATM   22  H   UNL     1      -8.620   3.541 -34.185  1.00  0.00     0.200 HD
BRANCH  21  23
HETATM   23  S   UNL     1      -9.674   2.085 -32.770  1.00  0.00     0.240 S 
HETATM   24  C   UNL     1     -11.006   1.588 -33.842  1.00  0.00     0.187 C 
HETATM   25  O   UNL     1     -10.101   3.245 -32.020  1.00  0.00    -0.205 OA
HETATM   26  O   UNL     1      -9.171   0.901 -32.111  1.00  0.00    -0.205 OA
ENDBRANCH  21  23
ENDBRANCH   1  21
TORSDOF 4
ENDMDL
MODEL 3
REMARK VINA RESULT:      -7.4     17.411     18.648
REMARK  4 active torsions:
REMARK  status: ('A' for Active; 'I' for Inactive)
REMARK    1  A    between atoms: S_2  and  N_3 
REMARK    2  A    between atoms: N_3  and  N_4 
REMARK    3  A    between atoms: C_10  and  C_11 
REMARK    4  A    between atoms: C_13  and  O_14 
ROOT
HETATM    1  N   UNL     1      -7.191 -14.568 -37.205  1.00  0.00    -0.224 N 
HETATM    2  C   UNL     1      -6.264 -15.287 -37.945  1.00  0.00     0.276 C 
HETATM    3  O   UNL     1      -5.877 -16.405 -37.605  1.00  0.00    -0.266 OA
HETATM    4  C   UNL     1      -5.697 -14.598 -39.121  1.00  0.00     0.055 A 
HETATM    5  C   UNL     1      -5.838 -13.203 -39.176  1.00  0.00     0.026 A 
HETATM    6  N   UNL     1      -6.547 -12.518 -38.172  1.00  0.00    -0.265 NA
HETATM    7  C   UNL     1      -7.701 -13.264 -37.647  1.00  0.00     0.222 C 
HETATM    8  C   UNL     1      -4.945 -15.293 -40.069  1.00  0.00     0.019 A 
HETATM    9  C   UNL     1      -4.313 -14.585 -41.090  1.00  0.00     0.001 A 
HETATM   10  C   UNL     1      -4.411 -13.194 -41.136  1.00  0.00     0.002 A 
HETATM   11  C   UNL     1      -5.155 -12.504 -40.174  1.00  0.00     0.024 A 
HETATM   12  H   UNL     1      -6.768 -11.559 -38.405  1.00  0.00     0.130 HD
ENDROOT
BRANCH   7  13
HETATM   13  C   UNL     1      -8.838 -13.362 -38.681  1.00  0.00    -0.017 A 
HETATM   14  C   UNL     1      -9.365 -12.210 -39.298  1.00  0.00     0.047 A 
HETATM   15  C   UNL     1     -10.377 -12.311 -40.252  1.00  0.00     0.066 A 
HETATM   16  C   UNL     1     -10.895 -13.543 -40.619  1.00  0.00     0.036 A 
HETATM   17  C   UNL     1     -10.377 -14.697 -40.045  1.00  0.00     0.003 A 
HETATM   18  C   UNL     1      -9.351 -14.609 -39.099  1.00  0.00     0.011 A 
BRANCH  15  19
HETATM   19  O   UNL     1     -10.889 -11.204 -40.864  1.00  0.00    -0.361 OA
HETATM   20  H   UNL     1     -11.215 -10.594 -40.183  1.00  0.00     0.217 HD
ENDBRANCH  15  19
ENDBRANCH   7  13
BRANCH   1  21
HETATM   21  N   UNL     1      -7.147 -14.831 -35.743  1.00  0.00    -0.220 N 
HETATM   22  H   UNL     1      -8.034 -15.210 -35.382  1.00  0.00     0.200 HD
BRANCH  21  23
HETATM   23  S   UNL     1      -6.453 -13.708 -34.689  1.00  0.00     0.240 S 
HETATM   24  C   UNL     1      -5.986 -14.769 -33.338  1.00  0.00     0.187 C 
HETATM   25  O   UNL     1      -7.477 -12.800 -34.222  1.00  0.00    -0.205 OA
HETATM   26  O   UNL     1      -5.242 -13.226 -35.314  1.00  0.00    -0.205 OA
ENDBRANCH  21  23
ENDBRANCH   1  21
TORSDOF 4
ENDMDL
MODEL 4
REMARK VINA RESULT:      -7.4      2.451      3.298
REMARK  4 active torsions:
REMARK  status: ('A' for Active; 'I' for Inactive)
REMARK    1  A    between atoms: S_2  and  N_3 
REMARK    2  A    between atoms: N_3  and  N_4 
REMARK    3  A    between atoms: C_10  and  C_11 
REMARK    4  A    between atoms: C_13  and  O_14 
ROOT
HETATM    1  N   UNL     1      -7.541   1.507 -31.784  1.00  0.00    -0.224 N 
HETATM    2  C   UNL     1      -7.833   0.691 -32.867  1.00  0.00     0.276 C 
HETATM    3  O   UNL     1      -8.942   0.687 -33.403  1.00  0.00    -0.266 OA
HETATM    4  C   UNL     1      -6.769  -0.241 -33.285  1.00  0.00     0.055 A 
HETATM    5  C   UNL     1      -5.740  -0.493 -32.366  1.00  0.00     0.026 A 
HETATM    6  N   UNL     1      -5.712   0.172 -31.127  1.00  0.00    -0.265 NA
HETATM    7  C   UNL     1      -6.199   1.559 -31.187  1.00  0.00     0.222 C 
HETATM    8  C   UNL     1      -6.853  -0.934 -34.494  1.00  0.00     0.019 A 
HETATM    9  C   UNL     1      -5.898  -1.905 -34.791  1.00  0.00     0.001 A 
HETATM   10  C   UNL     1      -4.891  -2.195 -33.870  1.00  0.00     0.002 A 
HETATM   11  C   UNL     1      -4.822  -1.505 -32.655  1.00  0.00     0.024 A 
HETATM   12  H   UNL     1      -4.836   0.082 -30.629  1.00  0.00     0.130 HD
ENDROOT
BRANCH   7  13
HETATM   13  C   UNL     1      -5.221   2.477 -31.943  1.00  0.00    -0.017 A 
HETATM   14  C   UNL     1      -5.668   3.332 -32.970  1.00  0.00     0.047 A 
HETATM   15  C   UNL     1      -4.780   4.179 -33.631  1.00  0.00     0.066 A 
HETATM   16  C   UNL     1      -3.434   4.204 -33.300  1.00  0.00     0.036 A 
HETATM   17  C   UNL     1      -2.970   3.390 -32.274  1.00  0.00     0.003 A 
HETATM   18  C   UNL     1      -3.855   2.549 -31.594  1.00  0.00     0.011 A 
BRANCH  15  19
HETATM   19  O   UNL     1      -5.201   5.018 -34.621  1.00  0.00    -0.361 OA
HETATM   20  H   UNL     1      -4.938   5.924 -34.395  1.00  0.00     0.217 HD
ENDBRANCH  15  19
ENDBRANCH   7  13
BRANCH   1  21
HETATM   21  N   UNL     1      -8.699   1.796 -30.900  1.00  0.00    -0.220 N 
HETATM   22  H   UNL     1      -9.506   1.186 -31.092  1.00  0.00     0.200 HD
BRANCH  21  23
HETATM   23  S   UNL     1      -9.160   3.390 -30.583  1.00  0.00     0.240 S 
HETATM   24  C   UNL     1      -9.150   4.070 -32.228  1.00  0.00     0.187 C 
HETATM   25  O   UNL     1      -8.121   4.040 -29.816  1.00  0.00    -0.205 OA
HETATM   26  O   UNL     1     -10.531   3.356 -30.125  1.00  0.00    -0.205 OA
ENDBRANCH  21  23
ENDBRANCH   1  21
TORSDOF 4
ENDMDL
MODEL 5
REMARK VINA RESULT:      -7.3      1.691      2.399
REMARK  4 active torsions:
REMARK  status: ('A' for Active; 'I' for Inactive)
REMARK    1  A    between atoms: S_2  and  N_3 
REMARK    2  A    between atoms: N_3  and  N_4 
REMARK    3  A    between atoms: C_10  and  C_11 
REMARK    4  A    between atoms: C_13  and  O_14 
ROOT
HETATM    1  N   UNL     1      -6.143   3.255 -32.213  1.00  0.00    -0.224 N 
HETATM    2  C   UNL     1      -6.238   2.029 -32.853  1.00  0.00     0.276 C 
HETATM    3  O   UNL     1      -7.228   1.708 -33.512  1.00  0.00    -0.266 OA
HETATM    4  C   UNL     1      -5.124   1.088 -32.625  1.00  0.00     0.055 A 
HETATM    5  C   UNL     1      -4.286   1.341 -31.529  1.00  0.00     0.026 A 
HETATM    6  N   UNL     1      -4.482   2.482 -30.730  1.00  0.00    -0.265 NA
HETATM    7  C   UNL     1      -4.935   3.662 -31.482  1.00  0.00     0.222 C 
HETATM    8  C   UNL     1      -4.990  -0.069 -33.394  1.00  0.00     0.019 A 
HETATM    9  C   UNL     1      -4.006  -0.999 -33.061  1.00  0.00     0.001 A 
HETATM   10  C   UNL     1      -3.191  -0.781 -31.950  1.00  0.00     0.002 A 
HETATM   11  C   UNL     1      -3.341   0.375 -31.177  1.00  0.00     0.024 A 
HETATM   12  H   UNL     1      -3.715   2.684 -30.102  1.00  0.00     0.130 HD
ENDROOT
BRANCH   7  13
HETATM   13  C   UNL     1      -3.824   4.225 -32.388  1.00  0.00    -0.017 A 
HETATM   14  C   UNL     1      -4.119   4.759 -33.658  1.00  0.00     0.047 A 
HETATM   15  C   UNL     1      -3.111   5.291 -34.461  1.00  0.00     0.066 A 
HETATM   16  C   UNL     1      -1.792   5.308 -34.035  1.00  0.00     0.036 A 
HETATM   17  C   UNL     1      -1.476   4.810 -32.777  1.00  0.00     0.003 A 
HETATM   18  C   UNL     1      -2.482   4.290 -31.957  1.00  0.00     0.011 A 
BRANCH  15  19
HETATM   19  O   UNL     1      -3.384   5.820 -35.689  1.00  0.00    -0.361 OA
HETATM   20  H   UNL     1      -4.139   6.424 -35.606  1.00  0.00     0.217 HD
ENDBRANCH  15  19
ENDBRANCH   7  13
BRANCH   1  21
HETATM   21  N   UNL     1      -7.443   3.817 -31.762  1.00  0.00    -0.220 N 
HETATM   22  H   UNL     1      -7.593   4.780 -32.092  1.00  0.00     0.200 HD
BRANCH  21  23
HETATM   23  S   UNL     1      -7.970   3.593 -30.173  1.00  0.00     0.240 S 
HETATM   24  C   UNL     1      -9.685   3.202 -30.447  1.00  0.00     0.187 C 
HETATM   25  O   UNL     1      -7.898   4.854 -29.468  1.00  0.00    -0.205 OA
HETATM   26  O   UNL     1      -7.319   2.405 -29.669  1.00  0.00    -0.205 OA
ENDBRANCH  21  23
ENDBRANCH   1  21
TORSDOF 4
ENDMDL
MODEL 6
REMARK VINA RESULT:      -7.2      2.965      3.739
REMARK  4 active torsions:
REMARK  status: ('A' for Active; 'I' for Inactive)
REMARK    1  A    between atoms: S_2  and  N_3 
REMARK    2  A    between atoms: N_3  and  N_4 
REMARK    3  A    between atoms: C_10  and  C_11 
REMARK    4  A    between atoms: C_13  and  O_14 
ROOT
HETATM    1  N   UNL     1      -7.971   1.355 -32.356  1.00  0.00    -0.224 N 
HETATM    2  C   UNL     1      -7.929   0.502 -33.448  1.00  0.00     0.276 C 
HETATM    3  O   UNL     1      -8.857   0.423 -34.254  1.00  0.00    -0.266 OA
HETATM    4  C   UNL     1      -6.747  -0.376 -33.543  1.00  0.00     0.055 A 
HETATM    5  C   UNL     1      -5.983  -0.549 -32.379  1.00  0.00     0.026 A 
HETATM    6  N   UNL     1      -6.314   0.142 -31.199  1.00  0.00    -0.265 NA
HETATM    7  C   UNL     1      -6.837   1.496 -31.433  1.00  0.00     0.222 C 
HETATM    8  C   UNL     1      -6.477  -1.098 -34.707  1.00  0.00     0.019 A 
HETATM    9  C   UNL     1      -5.430  -2.018 -34.711  1.00  0.00     0.001 A 
HETATM   10  C   UNL     1      -4.686  -2.231 -33.550  1.00  0.00     0.002 A 
HETATM   11  C   UNL     1      -4.972  -1.513 -32.384  1.00  0.00     0.024 A 
HETATM   12  H   UNL     1      -5.595   0.112 -30.488  1.00  0.00     0.130 HD
ENDROOT
BRANCH   7  13
HETATM   13  C   UNL     1      -5.743   2.454 -31.940  1.00  0.00    -0.017 A 
HETATM   14  C   UNL     1      -4.499   2.551 -31.286  1.00  0.00     0.047 A 
HETATM   15  C   UNL     1      -3.504   3.402 -31.767  1.00  0.00     0.066 A 
HETATM   16  C   UNL     1      -3.710   4.176 -32.898  1.00  0.00     0.036 A 
HETATM   17  C   UNL     1      -4.918   4.082 -33.577  1.00  0.00     0.003 A 
HETATM   18  C   UNL     1      -5.916   3.220 -33.112  1.00  0.00     0.011 A 
BRANCH  15  19
HETATM   19  O   UNL     1      -2.291   3.499 -31.148  1.00  0.00    -0.361 OA
HETATM   20  H   UNL     1      -1.593   3.358 -31.808  1.00  0.00     0.217 HD
ENDBRANCH  15  19
ENDBRANCH   7  13
BRANCH   1  21
HETATM   21  N   UNL     1      -9.334   1.595 -31.814  1.00  0.00    -0.220 N 
HETATM   22  H   UNL     1      -9.949   0.775 -31.911  1.00  0.00     0.200 HD
BRANCH  21  23
HETATM   23  S   UNL     1     -10.141   3.045 -32.133  1.00  0.00     0.240 S 
HETATM   24  C   UNL     1     -10.286   3.709 -30.487  1.00  0.00     0.187 C 
HETATM   25  O   UNL     1     -11.469   2.750 -32.623  1.00  0.00    -0.205 OA
HETATM   26  O   UNL     1      -9.230   3.888 -32.873  1.00  0.00    -0.205 OA
ENDBRANCH  21  23
ENDBRANCH   1  21
TORSDOF 4
ENDMDL
MODEL 7
REMARK VINA RESULT:      -7.2      3.540      6.168
REMARK  4 active torsions:
REMARK  status: ('A' for Active; 'I' for Inactive)
REMARK    1  A    between atoms: S_2  and  N_3 
REMARK    2  A    between atoms: N_3  and  N_4 
REMARK    3  A    between atoms: C_10  and  C_11 
REMARK    4  A    between atoms: C_13  and  O_14 
ROOT
HETATM    1  N   UNL     1      -4.590   0.644 -31.231  1.00  0.00    -0.224 N 
HETATM    2  C   UNL     1      -4.250   1.987 -31.159  1.00  0.00     0.276 C 
HETATM    3  O   UNL     1      -3.096   2.381 -31.323  1.00  0.00    -0.266 OA
HETATM    4  C   UNL     1      -5.337   2.912 -30.783  1.00  0.00     0.055 A 
HETATM    5  C   UNL     1      -6.474   2.355 -30.182  1.00  0.00     0.026 A 
HETATM    6  N   UNL     1      -6.579   0.963 -30.008  1.00  0.00    -0.265 NA
HETATM    7  C   UNL     1      -5.978   0.182 -31.100  1.00  0.00     0.222 C 
HETATM    8  C   UNL     1      -5.181   4.294 -30.908  1.00  0.00     0.019 A 
HETATM    9  C   UNL     1      -6.175   5.139 -30.417  1.00  0.00     0.001 A 
HETATM   10  C   UNL     1      -7.294   4.601 -29.781  1.00  0.00     0.002 A 
HETATM   11  C   UNL     1      -7.435   3.217 -29.647  1.00  0.00     0.024 A 
HETATM   12  H   UNL     1      -7.507   0.646 -29.760  1.00  0.00     0.130 HD
ENDROOT
BRANCH   7  13
HETATM   13  C   UNL     1      -6.793   0.296 -32.402  1.00  0.00    -0.017 A 
HETATM   14  C   UNL     1      -8.201   0.348 -32.379  1.00  0.00     0.047 A 
HETATM   15  C   UNL     1      -8.930   0.478 -33.561  1.00  0.00     0.066 A 
HETATM   16  C   UNL     1      -8.294   0.556 -34.789  1.00  0.00     0.036 A 
HETATM   17  C   UNL     1      -6.905   0.532 -34.839  1.00  0.00     0.003 A 
HETATM   18  C   UNL     1      -6.164   0.419 -33.659  1.00  0.00     0.011 A 
BRANCH  15  19
HETATM   19  O   UNL     1     -10.294   0.539 -33.551  1.00  0.00    -0.361 OA
HETATM   20  H   UNL     1     -10.580   1.197 -34.204  1.00  0.00     0.217 HD
ENDBRANCH  15  19
ENDBRANCH   7  13
BRANCH   1  21
HETATM   21  N   UNL     1      -3.512  -0.287 -30.808  1.00  0.00    -0.220 N 
HETATM   22  H   UNL     1      -2.971   0.071 -30.008  1.00  0.00     0.200 HD
BRANCH  21  23
HETATM   23  S   UNL     1      -2.533  -1.046 -31.957  1.00  0.00     0.240 S 
HETATM   24  C   UNL     1      -3.192  -2.700 -31.910  1.00  0.00     0.187 C 
HETATM   25  O   UNL     1      -1.173  -1.085 -31.469  1.00  0.00    -0.205 OA
HETATM   26  O   UNL     1      -2.861  -0.475 -33.243  1.00  0.00    -0.205 OA
ENDBRANCH  21  23
ENDBRANCH   1  21
TORSDOF 4
ENDMDL
MODEL 8
REMARK VINA RESULT:      -7.1      2.985      5.159
REMARK  4 active torsions:
REMARK  status: ('A' for Active; 'I' for Inactive)
REMARK    1  A    between atoms: S_2  and  N_3 
REMARK    2  A    between atoms: N_3  and  N_4 
REMARK    3  A    between atoms: C_10  and  C_11 
REMARK    4  A    between atoms: C_13  and  O_14 
ROOT
HETATM    1  N   UNL     1      -5.047   3.002 -32.872  1.00  0.00    -0.224 N 
HETATM    2  C   UNL     1      -4.653   1.677 -32.761  1.00  0.00     0.276 C 
HETATM    3  O   UNL     1      -3.580   1.353 -32.253  1.00  0.00    -0.266 OA
HETATM    4  C   UNL     1      -5.553   0.678 -33.371  1.00  0.00     0.055 A 
HETATM    5  C   UNL     1      -6.490   1.145 -34.304  1.00  0.00     0.026 A 
HETATM    6  N   UNL     1      -6.592   2.520 -34.586  1.00  0.00    -0.265 NA
HETATM    7  C   UNL     1      -6.356   3.384 -33.419  1.00  0.00     0.222 C 
HETATM    8  C   UNL     1      -5.389  -0.685 -33.121  1.00  0.00     0.019 A 
HETATM    9  C   UNL     1      -6.170  -1.605 -33.820  1.00  0.00     0.001 A 
HETATM   10  C   UNL     1      -7.079  -1.158 -34.779  1.00  0.00     0.002 A 
HETATM   11  C   UNL     1      -7.226   0.209 -35.033  1.00  0.00     0.024 A 
HETATM   12  H   UNL     1      -7.421   2.775 -35.106  1.00  0.00     0.130 HD
ENDROOT
BRANCH   7  13
HETATM   13  C   UNL     1      -7.505   3.291 -32.397  1.00  0.00    -0.017 A 
HETATM   14  C   UNL     1      -8.827   3.034 -32.807  1.00  0.00     0.047 A 
HETATM   15  C   UNL     1      -9.857   2.926 -31.873  1.00  0.00     0.066 A 
HETATM   16  C   UNL     1      -9.610   3.072 -30.517  1.00  0.00     0.036 A 
HETATM   17  C   UNL     1      -8.311   3.302 -30.082  1.00  0.00     0.003 A 
HETATM   18  C   UNL     1      -7.269   3.395 -31.010  1.00  0.00     0.011 A 
BRANCH  15  19
HETATM   19  O   UNL     1     -11.141   2.667 -32.256  1.00  0.00    -0.361 OA
HETATM   20  H   UNL     1     -11.135   1.930 -32.887  1.00  0.00     0.217 HD
ENDBRANCH  15  19
ENDBRANCH   7  13
BRANCH   1  21
HETATM   21  N   UNL     1      -3.928   3.966 -33.030  1.00  0.00    -0.220 N 
HETATM   22  H   UNL     1      -3.459   4.177 -32.138  1.00  0.00     0.200 HD
BRANCH  21  23
HETATM   23  S   UNL     1      -4.104   5.337 -34.002  1.00  0.00     0.240 S 
HETATM   24  C   UNL     1      -2.419   5.905 -34.080  1.00  0.00     0.187 C 
HETATM   25  O   UNL     1      -4.885   6.324 -33.291  1.00  0.00    -0.205 OA
HETATM   26  O   UNL     1      -4.480   4.880 -35.321  1.00  0.00    -0.205 OA
ENDBRANCH  21  23
ENDBRANCH   1  21
TORSDOF 4
ENDMDL
MODEL 9
REMARK VINA RESULT:      -7.1      3.260      5.019
REMARK  4 active torsions:
REMARK  status: ('A' for Active; 'I' for Inactive)
REMARK    1  A    between atoms: S_2  and  N_3 
REMARK    2  A    between atoms: N_3  and  N_4 
REMARK    3  A    between atoms: C_10  and  C_11 
REMARK    4  A    between atoms: C_13  and  O_14 
ROOT
HETATM    1  N   UNL     1      -6.116   2.855 -31.748  1.00  0.00    -0.224 N 
HETATM    2  C   UNL     1      -5.972   1.479 -31.643  1.00  0.00     0.276 C 
HETATM    3  O   UNL     1      -5.415   0.950 -30.681  1.00  0.00    -0.266 OA
HETATM    4  C   UNL     1      -6.445   0.686 -32.794  1.00  0.00     0.055 A 
HETATM    5  C   UNL     1      -6.637   1.367 -34.005  1.00  0.00     0.026 A 
HETATM    6  N   UNL     1      -6.440   2.758 -34.081  1.00  0.00    -0.265 NA
HETATM    7  C   UNL     1      -6.839   3.480 -32.863  1.00  0.00     0.222 C 
HETATM    8  C   UNL     1      -6.573  -0.701 -32.709  1.00  0.00     0.019 A 
HETATM    9  C   UNL     1      -6.891  -1.428 -33.855  1.00  0.00     0.001 A 
HETATM   10  C   UNL     1      -7.046  -0.769 -35.076  1.00  0.00     0.002 A 
HETATM   11  C   UNL     1      -6.902   0.619 -35.155  1.00  0.00     0.024 A 
HETATM   12  H   UNL     1      -6.797   3.181 -34.927  1.00  0.00     0.130 HD
ENDROOT
BRANCH   7  13
HETATM   13  C   UNL     1      -8.368   3.493 -32.680  1.00  0.00    -0.017 A 
HETATM   14  C   UNL     1      -8.949   3.481 -31.397  1.00  0.00     0.047 A 
HETATM   15  C   UNL     1     -10.334   3.519 -31.240  1.00  0.00     0.066 A 
HETATM   16  C   UNL     1     -11.178   3.566 -32.338  1.00  0.00     0.036 A 
HETATM   17  C   UNL     1     -10.631   3.604 -33.615  1.00  0.00     0.003 A 
HETATM   18  C   UNL     1      -9.243   3.584 -33.783  1.00  0.00     0.011 A 
BRANCH  15  19
HETATM   19  O   UNL     1     -10.909   3.517 -30.002  1.00  0.00    -0.361 OA
HETATM   20  H   UNL     1     -11.694   2.947 -30.024  1.00  0.00     0.217 HD
ENDBRANCH  15  19
ENDBRANCH   7  13
BRANCH   1  21
HETATM   21  N   UNL     1      -5.028   3.638 -31.106  1.00  0.00    -0.220 N 
HETATM   22  H   UNL     1      -5.357   4.540 -30.734  1.00  0.00     0.200 HD
BRANCH  21  23
HETATM   23  S   UNL     1      -3.511   3.760 -31.838  1.00  0.00     0.240 S 
HETATM   24  C   UNL     1      -2.977   5.345 -31.227  1.00  0.00     0.187 C 
HETATM   25  O   UNL     1      -3.682   3.858 -33.270  1.00  0.00    -0.205 OA
HETATM   26  O   UNL     1      -2.666   2.749 -31.243  1.00  0.00    -0.205 OA
ENDBRANCH  21  23
ENDBRANCH   1  21
TORSDOF 4
ENDMDL
MODEL 10
REMARK VINA RESULT:      -7.0      2.928      3.474
REMARK  4 active torsions:
REMARK  status: ('A' for Active; 'I' for Inactive)
REMARK    1  A    between atoms: S_2  and  N_3 
REMARK    2  A    between atoms: N_3  and  N_4 
REMARK    3  A    between atoms: C_10  and  C_11 
REMARK    4  A    between atoms: C_13  and  O_14 
ROOT
HETATM    1  N   UNL     1      -7.140   2.656 -32.912  1.00  0.00    -0.224 N 
HETATM    2  C   UNL     1      -7.007   1.529 -33.709  1.00  0.00     0.276 C 
HETATM    3  O   UNL     1      -7.733   1.325 -34.682  1.00  0.00    -0.266 OA
HETATM    4  C   UNL     1      -6.003   0.539 -33.273  1.00  0.00     0.055 A 
HETATM    5  C   UNL     1      -5.555   0.622 -31.946  1.00  0.00     0.026 A 
HETATM    6  N   UNL     1      -6.013   1.650 -31.102  1.00  0.00    -0.265 NA
HETATM    7  C   UNL     1      -6.229   2.931 -31.792  1.00  0.00     0.222 C 
HETATM    8  C   UNL     1      -5.613  -0.508 -34.111  1.00  0.00     0.019 A 
HETATM    9  C   UNL     1      -4.766  -1.498 -33.615  1.00  0.00     0.001 A 
HETATM   10  C   UNL     1      -4.344  -1.451 -32.286  1.00  0.00     0.002 A 
HETATM   11  C   UNL     1      -4.751  -0.407 -31.450  1.00  0.00     0.024 A 
HETATM   12  H   UNL     1      -5.485   1.746 -30.245  1.00  0.00     0.130 HD
ENDROOT
BRANCH   7  13
HETATM   13  C   UNL     1      -4.901   3.583 -32.219  1.00  0.00    -0.017 A 
HETATM   14  C   UNL     1      -3.773   3.561 -31.376  1.00  0.00     0.047 A 
HETATM   15  C   UNL     1      -2.567   4.131 -31.782  1.00  0.00     0.066 A 
HETATM   16  C   UNL     1      -2.443   4.737 -33.022  1.00  0.00     0.036 A 
HETATM   17  C   UNL     1      -3.533   4.751 -33.884  1.00  0.00     0.003 A 
HETATM   18  C   UNL     1      -4.742   4.168 -33.494  1.00  0.00     0.011 A 
BRANCH  15  19
HETATM   19  O   UNL     1      -1.464   4.108 -30.978  1.00  0.00    -0.361 OA
HETATM   20  H   UNL     1      -1.752   4.030 -30.055  1.00  0.00     0.217 HD
ENDBRANCH  15  19
ENDBRANCH   7  13
BRANCH   1  21
HETATM   21  N   UNL     1      -8.525   3.185 -32.819  1.00  0.00    -0.220 N 
HETATM   22  H   UNL     1      -9.229   2.438 -32.739  1.00  0.00     0.200 HD
BRANCH  21  23
HETATM   23  S   UNL     1      -9.034   4.442 -33.826  1.00  0.00     0.240 S 
HETATM   24  C   UNL     1      -9.876   5.484 -32.652  1.00  0.00     0.187 C 
HETATM   25  O   UNL     1     -10.009   3.932 -34.764  1.00  0.00    -0.205 OA
HETATM   26  O   UNL     1      -7.849   5.141 -34.269  1.00  0.00    -0.205 OA
ENDBRANCH  21  23
ENDBRANCH   1  21
TORSDOF 4
ENDMDL
