MODEL 1
REMARK VINA RESULT:      -7.8      0.000      0.000
REMARK  6 active torsions:
REMARK  status: ('A' for Active; 'I' for Inactive)
REMARK    1  A    between atoms: C_3  and  C_4 
REMARK    2  A    between atoms: C_4  and  O_5 
REMARK    3  A    between atoms: O_5  and  C_6 
REMARK    4  A    between atoms: C_9  and  C_10 
REMARK    5  A    between atoms: C_15  and  N_16 
REMARK       I    between atoms: N_16  and  C_17 
REMARK       I    between atoms: C_17  and  N_18 
REMARK    6  A    between atoms: N_18  and  C_19 
ROOT
HETATM    1  C   UNL     1      -5.614  -3.875 -34.984  1.00  0.00     0.147 C 
HETATM    2  C   UNL     1      -4.592  -4.645 -34.164  1.00  0.00    -0.016 C 
HETATM    3  N   UNL     1      -3.744  -5.284 -33.484  1.00  0.00    -0.101 N 
ENDROOT
BRANCH   1   4
HETATM    4  C   UNL     1      -5.674  -2.428 -34.554  1.00  0.00    -0.046 A 
HETATM    5  C   UNL     1      -4.600  -1.843 -33.865  1.00  0.00     0.011 A 
HETATM    6  C   UNL     1      -4.686  -0.528 -33.406  1.00  0.00     0.037 A 
HETATM    7  C   UNL     1      -5.838   0.214 -33.645  1.00  0.00     0.069 A 
HETATM    8  C   UNL     1      -6.924  -0.358 -34.305  1.00  0.00     0.037 A 
HETATM    9  C   UNL     1      -6.839  -1.674 -34.764  1.00  0.00     0.011 A 
BRANCH   7  10
HETATM   10  O   UNL     1      -5.909   1.478 -33.123  1.00  0.00    -0.347 OA
BRANCH  10  11
HETATM   11  C   UNL     1      -5.037   1.624 -31.997  1.00  0.00     0.216 C 
BRANCH  11  12
HETATM   12  C   UNL     1      -5.629   2.625 -31.025  1.00  0.00    -0.007 A 
HETATM   13  C   UNL     1      -4.879   3.768 -30.690  1.00  0.00     0.011 A 
HETATM   14  C   UNL     1      -5.414   4.757 -29.867  1.00  0.00     0.001 A 
HETATM   15  C   UNL     1      -6.705   4.621 -29.366  1.00  0.00     0.002 A 
HETATM   16  C   UNL     1      -7.467   3.499 -29.698  1.00  0.00     0.030 A 
HETATM   17  C   UNL     1      -6.946   2.506 -30.537  1.00  0.00     0.044 A 
BRANCH  17  18
HETATM   18  N   UNL     1      -7.682   1.348 -30.849  1.00  0.00    -0.308 N 
HETATM   19  C   UNL     1      -8.836   1.172 -31.565  1.00  0.00     0.325 C 
HETATM   20  N   UNL     1      -9.155   2.177 -32.442  1.00  0.00    -0.306 N 
HETATM   21  O   UNL     1      -9.440   0.106 -31.464  1.00  0.00    -0.247 OA
HETATM   22  H   UNL     1      -8.470   2.904 -32.584  1.00  0.00     0.171 HD
HETATM   23  H   UNL     1      -7.332   0.476 -30.457  1.00  0.00     0.170 HD
BRANCH  20  24
HETATM   24  C   UNL     1     -10.217   2.138 -33.321  1.00  0.00     0.072 A 
HETATM   25  C   UNL     1     -11.538   2.628 -33.220  1.00  0.00     0.169 A 
HETATM   26  N   UNL     1     -12.264   2.357 -34.311  1.00  0.00    -0.185 NA
HETATM   27  N   UNL     1     -11.408   1.694 -35.103  1.00  0.00    -0.287 N 
HETATM   28  H   UNL     1     -11.745   1.368 -36.003  1.00  0.00     0.188 HD
HETATM   29  C   UNL     1     -10.164   1.545 -34.560  1.00  0.00     0.140 A 
ENDBRANCH  20  24
ENDBRANCH  17  18
ENDBRANCH  11  12
ENDBRANCH  10  11
ENDBRANCH   7  10
ENDBRANCH   1   4
TORSDOF 6
ENDMDL
MODEL 2
REMARK VINA RESULT:      -7.7      3.132      4.858
REMARK  6 active torsions:
REMARK  status: ('A' for Active; 'I' for Inactive)
REMARK    1  A    between atoms: C_3  and  C_4 
REMARK    2  A    between atoms: C_4  and  O_5 
REMARK    3  A    between atoms: O_5  and  C_6 
REMARK    4  A    between atoms: C_9  and  C_10 
REMARK    5  A    between atoms: C_15  and  N_16 
REMARK       I    between atoms: N_16  and  C_17 
REMARK       I    between atoms: C_17  and  N_18 
REMARK    6  A    between atoms: N_18  and  C_19 
ROOT
HETATM    1  C   UNL     1      -5.467  -3.478 -34.957  1.00  0.00     0.147 C 
HETATM    2  C   UNL     1      -4.496  -4.346 -34.172  1.00  0.00    -0.016 C 
HETATM    3  N   UNL     1      -3.691  -5.065 -33.522  1.00  0.00    -0.101 N 
ENDROOT
BRANCH   1   4
HETATM    4  C   UNL     1      -5.735  -2.178 -34.237  1.00  0.00    -0.046 A 
HETATM    5  C   UNL     1      -7.040  -1.669 -34.145  1.00  0.00     0.011 A 
HETATM    6  C   UNL     1      -7.276  -0.433 -33.541  1.00  0.00     0.037 A 
HETATM    7  C   UNL     1      -6.214   0.294 -33.015  1.00  0.00     0.069 A 
HETATM    8  C   UNL     1      -4.909  -0.182 -33.120  1.00  0.00     0.037 A 
HETATM    9  C   UNL     1      -4.671  -1.419 -33.724  1.00  0.00     0.011 A 
BRANCH   7  10
HETATM   10  O   UNL     1      -6.478   1.530 -32.489  1.00  0.00    -0.347 OA
BRANCH  10  11
HETATM   11  C   UNL     1      -6.951   1.431 -31.141  1.00  0.00     0.216 C 
BRANCH  11  12
HETATM   12  C   UNL     1      -7.103   2.820 -30.554  1.00  0.00    -0.007 A 
HETATM   13  C   UNL     1      -8.398   3.333 -30.358  1.00  0.00     0.011 A 
HETATM   14  C   UNL     1      -8.591   4.571 -29.746  1.00  0.00     0.001 A 
HETATM   15  C   UNL     1      -7.494   5.314 -29.321  1.00  0.00     0.002 A 
HETATM   16  C   UNL     1      -6.203   4.814 -29.497  1.00  0.00     0.030 A 
HETATM   17  C   UNL     1      -5.997   3.565 -30.097  1.00  0.00     0.044 A 
BRANCH  17  18
HETATM   18  N   UNL     1      -4.702   3.062 -30.322  1.00  0.00    -0.308 N 
HETATM   19  C   UNL     1      -3.829   3.239 -31.363  1.00  0.00     0.325 C 
HETATM   20  N   UNL     1      -4.039   4.350 -32.137  1.00  0.00    -0.306 N 
HETATM   21  O   UNL     1      -2.872   2.475 -31.469  1.00  0.00    -0.247 OA
HETATM   22  H   UNL     1      -4.732   5.012 -31.822  1.00  0.00     0.171 HD
HETATM   23  H   UNL     1      -4.340   2.425 -29.615  1.00  0.00     0.170 HD
BRANCH  20  24
HETATM   24  C   UNL     1      -3.211   4.754 -33.164  1.00  0.00     0.072 A 
HETATM   25  C   UNL     1      -1.815   4.957 -33.221  1.00  0.00     0.169 A 
HETATM   26  N   UNL     1      -1.411   5.376 -34.426  1.00  0.00    -0.185 NA
HETATM   27  N   UNL     1      -2.549   5.442 -35.134  1.00  0.00    -0.287 N 
HETATM   28  H   UNL     1      -2.494   5.755 -36.097  1.00  0.00     0.188 HD
HETATM   29  C   UNL     1      -3.655   5.069 -34.426  1.00  0.00     0.140 A 
ENDBRANCH  20  24
ENDBRANCH  17  18
ENDBRANCH  11  12
ENDBRANCH  10  11
ENDBRANCH   7  10
ENDBRANCH   1   4
TORSDOF 6
ENDMDL
MODEL 3
REMARK VINA RESULT:      -7.7      1.975      2.451
REMARK  6 active torsions:
REMARK  status: ('A' for Active; 'I' for Inactive)
REMARK    1  A    between atoms: C_3  and  C_4 
REMARK    2  A    between atoms: C_4  and  O_5 
REMARK    3  A    between atoms: O_5  and  C_6 
REMARK    4  A    between atoms: C_9  and  C_10 
REMARK    5  A    between atoms: C_15  and  N_16 
REMARK       I    between atoms: N_16  and  C_17 
REMARK       I    between atoms: C_17  and  N_18 
REMARK    6  A    between atoms: N_18  and  C_19 
ROOT
HETATM    1  C   UNL     1      -4.170  -3.544 -34.295  1.00  0.00     0.147 C 
HETATM    2  C   UNL     1      -5.439  -4.153 -34.868  1.00  0.00    -0.016 C 
HETATM    3  N   UNL     1      -6.492  -4.658 -35.343  1.00  0.00    -0.101 N 
ENDROOT
BRANCH   1   4
HETATM    4  C   UNL     1      -4.472  -2.272 -33.540  1.00  0.00    -0.046 A 
HETATM    5  C   UNL     1      -3.692  -1.895 -32.435  1.00  0.00     0.011 A 
HETATM    6  C   UNL     1      -4.016  -0.756 -31.696  1.00  0.00     0.037 A 
HETATM    7  C   UNL     1      -5.110   0.020 -32.064  1.00  0.00     0.069 A 
HETATM    8  C   UNL     1      -5.911  -0.352 -33.142  1.00  0.00     0.037 A 
HETATM    9  C   UNL     1      -5.588  -1.492 -33.883  1.00  0.00     0.011 A 
BRANCH   7  10
HETATM   10  O   UNL     1      -5.433   1.092 -31.277  1.00  0.00    -0.347 OA
BRANCH  10  11
HETATM   11  C   UNL     1      -4.283   1.904 -31.009  1.00  0.00     0.216 C 
BRANCH  11  12
HETATM   12  C   UNL     1      -4.361   3.176 -31.831  1.00  0.00    -0.007 A 
HETATM   13  C   UNL     1      -3.298   3.485 -32.699  1.00  0.00     0.011 A 
HETATM   14  C   UNL     1      -3.360   4.598 -33.536  1.00  0.00     0.001 A 
HETATM   15  C   UNL     1      -4.483   5.418 -33.518  1.00  0.00     0.002 A 
HETATM   16  C   UNL     1      -5.552   5.120 -32.671  1.00  0.00     0.030 A 
HETATM   17  C   UNL     1      -5.508   3.994 -31.837  1.00  0.00     0.044 A 
BRANCH  17  18
HETATM   18  N   UNL     1      -6.556   3.699 -30.946  1.00  0.00    -0.308 N 
HETATM   19  C   UNL     1      -7.804   3.174 -31.155  1.00  0.00     0.325 C 
HETATM   20  N   UNL     1      -7.968   2.467 -32.318  1.00  0.00    -0.306 N 
HETATM   21  O   UNL     1      -8.645   3.271 -30.264  1.00  0.00    -0.247 OA
HETATM   22  H   UNL     1      -7.143   2.283 -32.870  1.00  0.00     0.171 HD
HETATM   23  H   UNL     1      -6.395   3.940 -29.971  1.00  0.00     0.170 HD
BRANCH  20  24
HETATM   24  C   UNL     1      -9.115   1.780 -32.660  1.00  0.00     0.072 A 
HETATM   25  C   UNL     1     -10.254   2.165 -33.400  1.00  0.00     0.169 A 
HETATM   26  N   UNL     1     -11.161   1.184 -33.481  1.00  0.00    -0.185 NA
HETATM   27  N   UNL     1     -10.600   0.179 -32.792  1.00  0.00    -0.287 N 
HETATM   28  H   UNL     1     -11.121  -0.688 -32.703  1.00  0.00     0.188 HD
HETATM   29  C   UNL     1      -9.368   0.482 -32.288  1.00  0.00     0.140 A 
ENDBRANCH  20  24
ENDBRANCH  17  18
ENDBRANCH  11  12
ENDBRANCH  10  11
ENDBRANCH   7  10
ENDBRANCH   1   4
TORSDOF 6
ENDMDL
MODEL 4
REMARK VINA RESULT:      -7.6      1.861      2.440
REMARK  6 active torsions:
REMARK  status: ('A' for Active; 'I' for Inactive)
REMARK    1  A    between atoms: C_3  and  C_4 
REMARK    2  A    between atoms: C_4  and  O_5 
REMARK    3  A    between atoms: O_5  and  C_6 
REMARK    4  A    between atoms: C_9  and  C_10 
REMARK    5  A    between atoms: C_15  and  N_16 
REMARK       I    between atoms: N_16  and  C_17 
REMARK       I    between atoms: C_17  and  N_18 
REMARK    6  A    between atoms: N_18  and  C_19 
ROOT
HETATM    1  C   UNL     1      -6.157  -3.717 -34.945  1.00  0.00     0.147 C 
HETATM    2  C   UNL     1      -5.070  -4.633 -34.406  1.00  0.00    -0.016 C 
HETATM    3  N   UNL     1      -4.169  -5.392 -33.959  1.00  0.00    -0.101 N 
ENDROOT
BRANCH   1   4
HETATM    4  C   UNL     1      -5.945  -2.295 -34.485  1.00  0.00    -0.046 A 
HETATM    5  C   UNL     1      -4.774  -1.934 -33.801  1.00  0.00     0.011 A 
HETATM    6  C   UNL     1      -4.610  -0.636 -33.315  1.00  0.00     0.037 A 
HETATM    7  C   UNL     1      -5.608   0.312 -33.521  1.00  0.00     0.069 A 
HETATM    8  C   UNL     1      -6.788  -0.035 -34.176  1.00  0.00     0.037 A 
HETATM    9  C   UNL     1      -6.953  -1.334 -34.663  1.00  0.00     0.011 A 
BRANCH   7  10
HETATM   10  O   UNL     1      -5.438   1.554 -32.973  1.00  0.00    -0.347 OA
BRANCH  10  11
HETATM   11  C   UNL     1      -4.209   1.637 -32.243  1.00  0.00     0.216 C 
BRANCH  11  12
HETATM   12  C   UNL     1      -3.821   3.092 -32.068  1.00  0.00    -0.007 A 
HETATM   13  C   UNL     1      -2.838   3.636 -32.915  1.00  0.00     0.011 A 
HETATM   14  C   UNL     1      -2.507   4.988 -32.849  1.00  0.00     0.001 A 
HETATM   15  C   UNL     1      -3.153   5.817 -31.936  1.00  0.00     0.002 A 
HETATM   16  C   UNL     1      -4.138   5.296 -31.096  1.00  0.00     0.030 A 
HETATM   17  C   UNL     1      -4.491   3.942 -31.165  1.00  0.00     0.044 A 
BRANCH  17  18
HETATM   18  N   UNL     1      -5.452   3.388 -30.299  1.00  0.00    -0.308 N 
HETATM   19  C   UNL     1      -6.815   3.303 -30.392  1.00  0.00     0.325 C 
HETATM   20  N   UNL     1      -7.336   3.415 -31.655  1.00  0.00    -0.306 N 
HETATM   21  O   UNL     1      -7.462   3.028 -29.383  1.00  0.00    -0.247 OA
HETATM   22  H   UNL     1      -6.686   3.431 -32.426  1.00  0.00     0.171 HD
HETATM   23  H   UNL     1      -5.098   3.004 -29.425  1.00  0.00     0.170 HD
BRANCH  20  24
HETATM   24  C   UNL     1      -8.671   3.257 -31.966  1.00  0.00     0.072 A 
HETATM   25  C   UNL     1      -9.729   4.186 -32.066  1.00  0.00     0.169 A 
HETATM   26  N   UNL     1     -10.891   3.601 -32.378  1.00  0.00    -0.185 NA
HETATM   27  N   UNL     1     -10.573   2.301 -32.474  1.00  0.00    -0.287 N 
HETATM   28  H   UNL     1     -11.314   1.644 -32.695  1.00  0.00     0.188 HD
HETATM   29  C   UNL     1      -9.252   2.043 -32.247  1.00  0.00     0.140 A 
ENDBRANCH  20  24
ENDBRANCH  17  18
ENDBRANCH  11  12
ENDBRANCH  10  11
ENDBRANCH   7  10
ENDBRANCH   1   4
TORSDOF 6
ENDMDL
MODEL 5
REMARK VINA RESULT:      -7.5      1.944      6.297
REMARK  6 active torsions:
REMARK  status: ('A' for Active; 'I' for Inactive)
REMARK    1  A    between atoms: C_3  and  C_4 
REMARK    2  A    between atoms: C_4  and  O_5 
REMARK    3  A    between atoms: O_5  and  C_6 
REMARK    4  A    between atoms: C_9  and  C_10 
REMARK    5  A    between atoms: C_15  and  N_16 
REMARK       I    between atoms: N_16  and  C_17 
REMARK       I    between atoms: C_17  and  N_18 
REMARK    6  A    between atoms: N_18  and  C_19 
ROOT
HETATM    1  C   UNL     1      -4.883   4.116 -30.431  1.00  0.00     0.147 C 
HETATM    2  C   UNL     1      -6.172   4.348 -29.660  1.00  0.00    -0.016 C 
HETATM    3  N   UNL     1      -7.241   4.541 -29.020  1.00  0.00    -0.101 N 
ENDROOT
BRANCH   1   4
HETATM    4  C   UNL     1      -4.683   2.648 -30.722  1.00  0.00    -0.046 A 
HETATM    5  C   UNL     1      -5.606   1.697 -30.259  1.00  0.00     0.011 A 
HETATM    6  C   UNL     1      -5.383   0.335 -30.469  1.00  0.00     0.037 A 
HETATM    7  C   UNL     1      -4.246  -0.084 -31.152  1.00  0.00     0.069 A 
HETATM    8  C   UNL     1      -3.306   0.844 -31.596  1.00  0.00     0.037 A 
HETATM    9  C   UNL     1      -3.528   2.207 -31.388  1.00  0.00     0.011 A 
BRANCH   7  10
HETATM   10  O   UNL     1      -4.031  -1.429 -31.280  1.00  0.00    -0.347 OA
BRANCH  10  11
HETATM   11  C   UNL     1      -3.277  -1.725 -32.462  1.00  0.00     0.216 C 
BRANCH  11  12
HETATM   12  C   UNL     1      -4.113  -2.576 -33.396  1.00  0.00    -0.007 A 
HETATM   13  C   UNL     1      -3.944  -3.972 -33.374  1.00  0.00     0.011 A 
HETATM   14  C   UNL     1      -4.747  -4.802 -34.154  1.00  0.00     0.001 A 
HETATM   15  C   UNL     1      -5.731  -4.250 -34.968  1.00  0.00     0.002 A 
HETATM   16  C   UNL     1      -5.921  -2.868 -34.994  1.00  0.00     0.030 A 
HETATM   17  C   UNL     1      -5.131  -2.024 -34.202  1.00  0.00     0.044 A 
BRANCH  17  18
HETATM   18  N   UNL     1      -5.278  -0.625 -34.245  1.00  0.00    -0.308 N 
HETATM   19  C   UNL     1      -6.380   0.175 -34.107  1.00  0.00     0.325 C 
HETATM   20  N   UNL     1      -7.448  -0.386 -33.457  1.00  0.00    -0.306 N 
HETATM   21  O   UNL     1      -6.308   1.350 -34.463  1.00  0.00    -0.247 OA
HETATM   22  H   UNL     1      -7.310  -1.288 -33.028  1.00  0.00     0.171 HD
HETATM   23  H   UNL     1      -4.434  -0.094 -34.446  1.00  0.00     0.170 HD
BRANCH  20  24
HETATM   24  C   UNL     1      -8.607   0.290 -33.131  1.00  0.00     0.072 A 
HETATM   25  C   UNL     1      -9.718   0.679 -33.911  1.00  0.00     0.169 A 
HETATM   26  N   UNL     1     -10.632   1.344 -33.195  1.00  0.00    -0.185 NA
HETATM   27  N   UNL     1     -10.102   1.380 -31.963  1.00  0.00    -0.287 N 
HETATM   28  H   UNL     1     -10.622   1.856 -31.234  1.00  0.00     0.188 HD
HETATM   29  C   UNL     1      -8.893   0.753 -31.869  1.00  0.00     0.140 A 
ENDBRANCH  20  24
ENDBRANCH  17  18
ENDBRANCH  11  12
ENDBRANCH  10  11
ENDBRANCH   7  10
ENDBRANCH   1   4
TORSDOF 6
ENDMDL
MODEL 6
REMARK VINA RESULT:      -7.4      6.087     10.061
REMARK  6 active torsions:
REMARK  status: ('A' for Active; 'I' for Inactive)
REMARK    1  A    between atoms: C_3  and  C_4 
REMARK    2  A    between atoms: C_4  and  O_5 
REMARK    3  A    between atoms: O_5  and  C_6 
REMARK    4  A    between atoms: C_9  and  C_10 
REMARK    5  A    between atoms: C_15  and  N_16 
REMARK       I    between atoms: N_16  and  C_17 
REMARK       I    between atoms: C_17  and  N_18 
REMARK    6  A    between atoms: N_18  and  C_19 
ROOT
HETATM    1  C   UNL     1       2.193   8.493 -25.819  1.00  0.00     0.147 C 
HETATM    2  C   UNL     1       1.449   9.512 -24.971  1.00  0.00    -0.016 C 
HETATM    3  N   UNL     1       0.832  10.356 -24.269  1.00  0.00    -0.101 N 
ENDROOT
BRANCH   1   4
HETATM    4  C   UNL     1       1.277   7.867 -26.843  1.00  0.00    -0.046 A 
HETATM    5  C   UNL     1       1.327   8.272 -28.186  1.00  0.00     0.011 A 
HETATM    6  C   UNL     1       0.432   7.744 -29.118  1.00  0.00     0.037 A 
HETATM    7  C   UNL     1      -0.507   6.800 -28.717  1.00  0.00     0.069 A 
HETATM    8  C   UNL     1      -0.589   6.405 -27.383  1.00  0.00     0.037 A 
HETATM    9  C   UNL     1       0.307   6.932 -26.450  1.00  0.00     0.011 A 
BRANCH   7  10
HETATM   10  O   UNL     1      -1.409   6.354 -29.646  1.00  0.00    -0.347 OA
BRANCH  10  11
HETATM   11  C   UNL     1      -0.802   5.430 -30.557  1.00  0.00     0.216 C 
BRANCH  11  12
HETATM   12  C   UNL     1      -1.445   5.570 -31.922  1.00  0.00    -0.007 A 
HETATM   13  C   UNL     1      -0.757   6.280 -32.924  1.00  0.00     0.011 A 
HETATM   14  C   UNL     1      -1.268   6.365 -34.218  1.00  0.00     0.001 A 
HETATM   15  C   UNL     1      -2.473   5.743 -34.531  1.00  0.00     0.002 A 
HETATM   16  C   UNL     1      -3.162   5.025 -33.553  1.00  0.00     0.030 A 
HETATM   17  C   UNL     1      -2.651   4.919 -32.253  1.00  0.00     0.044 A 
BRANCH  17  18
HETATM   18  N   UNL     1      -3.351   4.236 -31.241  1.00  0.00    -0.308 N 
HETATM   19  C   UNL     1      -3.851   2.962 -31.186  1.00  0.00     0.325 C 
HETATM   20  N   UNL     1      -3.291   2.062 -32.054  1.00  0.00    -0.306 N 
HETATM   21  O   UNL     1      -4.669   2.684 -30.311  1.00  0.00    -0.247 OA
HETATM   22  H   UNL     1      -2.483   2.362 -32.579  1.00  0.00     0.171 HD
HETATM   23  H   UNL     1      -3.564   4.773 -30.404  1.00  0.00     0.170 HD
BRANCH  20  24
HETATM   24  C   UNL     1      -3.586   0.714 -32.081  1.00  0.00     0.072 A 
HETATM   25  C   UNL     1      -2.939  -0.401 -31.505  1.00  0.00     0.169 A 
HETATM   26  N   UNL     1      -3.556  -1.552 -31.797  1.00  0.00    -0.185 NA
HETATM   27  N   UNL     1      -4.592  -1.170 -32.559  1.00  0.00    -0.287 N 
HETATM   28  H   UNL     1      -5.211  -1.889 -32.919  1.00  0.00     0.188 HD
HETATM   29  C   UNL     1      -4.661   0.180 -32.751  1.00  0.00     0.140 A 
ENDBRANCH  20  24
ENDBRANCH  17  18
ENDBRANCH  11  12
ENDBRANCH  10  11
ENDBRANCH   7  10
ENDBRANCH   1   4
TORSDOF 6
ENDMDL
MODEL 7
REMARK VINA RESULT:      -7.3      2.809      5.529
REMARK  6 active torsions:
REMARK  status: ('A' for Active; 'I' for Inactive)
REMARK    1  A    between atoms: C_3  and  C_4 
REMARK    2  A    between atoms: C_4  and  O_5 
REMARK    3  A    between atoms: O_5  and  C_6 
REMARK    4  A    between atoms: C_9  and  C_10 
REMARK    5  A    between atoms: C_15  and  N_16 
REMARK       I    between atoms: N_16  and  C_17 
REMARK       I    between atoms: C_17  and  N_18 
REMARK    6  A    between atoms: N_18  and  C_19 
ROOT
HETATM    1  C   UNL     1      -2.898   5.413 -34.788  1.00  0.00     0.147 C 
HETATM    2  C   UNL     1      -1.874   6.315 -34.117  1.00  0.00    -0.016 C 
HETATM    3  N   UNL     1      -1.026   7.062 -33.560  1.00  0.00    -0.101 N 
ENDROOT
BRANCH   1   4
HETATM    4  C   UNL     1      -3.630   4.572 -33.770  1.00  0.00    -0.046 A 
HETATM    5  C   UNL     1      -2.938   3.984 -32.700  1.00  0.00     0.011 A 
HETATM    6  C   UNL     1      -3.603   3.150 -31.800  1.00  0.00     0.037 A 
HETATM    7  C   UNL     1      -4.964   2.910 -31.955  1.00  0.00     0.069 A 
HETATM    8  C   UNL     1      -5.663   3.465 -33.026  1.00  0.00     0.037 A 
HETATM    9  C   UNL     1      -4.998   4.300 -33.927  1.00  0.00     0.011 A 
BRANCH   7  10
HETATM   10  O   UNL     1      -5.566   2.036 -31.091  1.00  0.00    -0.347 OA
BRANCH  10  11
HETATM   11  C   UNL     1      -4.828   0.813 -30.992  1.00  0.00     0.216 C 
BRANCH  11  12
HETATM   12  C   UNL     1      -5.175  -0.083 -32.165  1.00  0.00    -0.007 A 
HETATM   13  C   UNL     1      -4.128  -0.668 -32.902  1.00  0.00     0.011 A 
HETATM   14  C   UNL     1      -4.396  -1.564 -33.935  1.00  0.00     0.001 A 
HETATM   15  C   UNL     1      -5.712  -1.889 -34.248  1.00  0.00     0.002 A 
HETATM   16  C   UNL     1      -6.762  -1.328 -33.519  1.00  0.00     0.030 A 
HETATM   17  C   UNL     1      -6.505  -0.439 -32.468  1.00  0.00     0.044 A 
BRANCH  17  18
HETATM   18  N   UNL     1      -7.550   0.171 -31.749  1.00  0.00    -0.308 N 
HETATM   19  C   UNL     1      -8.476   1.111 -32.116  1.00  0.00     0.325 C 
HETATM   20  N   UNL     1      -8.705   1.230 -33.462  1.00  0.00    -0.306 N 
HETATM   21  O   UNL     1      -9.107   1.695 -31.238  1.00  0.00    -0.247 OA
HETATM   22  H   UNL     1      -8.274   0.549 -34.069  1.00  0.00     0.171 HD
HETATM   23  H   UNL     1      -7.632  -0.094 -30.770  1.00  0.00     0.170 HD
BRANCH  20  24
HETATM   24  C   UNL     1      -9.668   2.045 -34.021  1.00  0.00     0.072 A 
HETATM   25  C   UNL     1      -9.654   3.414 -34.367  1.00  0.00     0.169 A 
HETATM   26  N   UNL     1     -10.823   3.821 -34.874  1.00  0.00    -0.185 NA
HETATM   27  N   UNL     1     -11.580   2.714 -34.848  1.00  0.00    -0.287 N 
HETATM   28  H   UNL     1     -12.537   2.781 -35.180  1.00  0.00     0.188 HD
HETATM   29  C   UNL     1     -10.931   1.619 -34.355  1.00  0.00     0.140 A 
ENDBRANCH  20  24
ENDBRANCH  17  18
ENDBRANCH  11  12
ENDBRANCH  10  11
ENDBRANCH   7  10
ENDBRANCH   1   4
TORSDOF 6
ENDMDL
MODEL 8
REMARK VINA RESULT:      -7.3      2.598      6.947
REMARK  6 active torsions:
REMARK  status: ('A' for Active; 'I' for Inactive)
REMARK    1  A    between atoms: C_3  and  C_4 
REMARK    2  A    between atoms: C_4  and  O_5 
REMARK    3  A    between atoms: O_5  and  C_6 
REMARK    4  A    between atoms: C_9  and  C_10 
REMARK    5  A    between atoms: C_15  and  N_16 
REMARK       I    between atoms: N_16  and  C_17 
REMARK       I    between atoms: C_17  and  N_18 
REMARK    6  A    between atoms: N_18  and  C_19 
ROOT
HETATM    1  C   UNL     1     -13.201   3.549 -33.824  1.00  0.00     0.147 C 
HETATM    2  C   UNL     1     -14.130   2.799 -32.883  1.00  0.00    -0.016 C 
HETATM    3  N   UNL     1     -14.900   2.178 -32.103  1.00  0.00    -0.101 N 
ENDROOT
BRANCH   1   4
HETATM    4  C   UNL     1     -11.859   2.865 -33.919  1.00  0.00    -0.046 A 
HETATM    5  C   UNL     1     -11.724   1.509 -33.581  1.00  0.00     0.011 A 
HETATM    6  C   UNL     1     -10.470   0.896 -33.602  1.00  0.00     0.037 A 
HETATM    7  C   UNL     1      -9.348   1.628 -33.974  1.00  0.00     0.069 A 
HETATM    8  C   UNL     1      -9.459   2.981 -34.289  1.00  0.00     0.037 A 
HETATM    9  C   UNL     1     -10.713   3.596 -34.268  1.00  0.00     0.011 A 
BRANCH   7  10
HETATM   10  O   UNL     1      -8.129   1.009 -33.920  1.00  0.00    -0.347 OA
BRANCH  10  11
HETATM   11  C   UNL     1      -8.252  -0.343 -33.463  1.00  0.00     0.216 C 
BRANCH  11  12
HETATM   12  C   UNL     1      -6.908  -1.036 -33.563  1.00  0.00    -0.007 A 
HETATM   13  C   UNL     1      -6.737  -2.044 -34.529  1.00  0.00     0.011 A 
HETATM   14  C   UNL     1      -5.497  -2.652 -34.716  1.00  0.00     0.001 A 
HETATM   15  C   UNL     1      -4.409  -2.262 -33.940  1.00  0.00     0.002 A 
HETATM   16  C   UNL     1      -4.558  -1.255 -32.985  1.00  0.00     0.030 A 
HETATM   17  C   UNL     1      -5.796  -0.626 -32.800  1.00  0.00     0.044 A 
BRANCH  17  18
HETATM   18  N   UNL     1      -5.978   0.362 -31.814  1.00  0.00    -0.308 N 
HETATM   19  C   UNL     1      -5.731   1.709 -31.823  1.00  0.00     0.325 C 
HETATM   20  N   UNL     1      -5.656   2.294 -33.060  1.00  0.00    -0.306 N 
HETATM   21  O   UNL     1      -5.705   2.314 -30.753  1.00  0.00    -0.247 OA
HETATM   22  H   UNL     1      -5.901   1.728 -33.858  1.00  0.00     0.171 HD
HETATM   23  H   UNL     1      -6.322   0.036 -30.913  1.00  0.00     0.170 HD
BRANCH  20  24
HETATM   24  C   UNL     1      -5.516   3.650 -33.276  1.00  0.00     0.072 A 
HETATM   25  C   UNL     1      -4.377   4.484 -33.299  1.00  0.00     0.169 A 
HETATM   26  N   UNL     1      -4.691   5.765 -33.528  1.00  0.00    -0.185 NA
HETATM   27  N   UNL     1      -6.027   5.745 -33.647  1.00  0.00    -0.287 N 
HETATM   28  H   UNL     1      -6.505   6.625 -33.815  1.00  0.00     0.188 HD
HETATM   29  C   UNL     1      -6.570   4.499 -33.514  1.00  0.00     0.140 A 
ENDBRANCH  20  24
ENDBRANCH  17  18
ENDBRANCH  11  12
ENDBRANCH  10  11
ENDBRANCH   7  10
ENDBRANCH   1   4
TORSDOF 6
ENDMDL
MODEL 9
REMARK VINA RESULT:      -7.2      3.321      7.190
REMARK  6 active torsions:
REMARK  status: ('A' for Active; 'I' for Inactive)
REMARK    1  A    between atoms: C_3  and  C_4 
REMARK    2  A    between atoms: C_4  and  O_5 
REMARK    3  A    between atoms: O_5  and  C_6 
REMARK    4  A    between atoms: C_9  and  C_10 
REMARK    5  A    between atoms: C_15  and  N_16 
REMARK       I    between atoms: N_16  and  C_17 
REMARK       I    between atoms: C_17  and  N_18 
REMARK    6  A    between atoms: N_18  and  C_19 
ROOT
HETATM    1  C   UNL     1     -13.104   0.986 -34.454  1.00  0.00     0.147 C 
HETATM    2  C   UNL     1     -14.123   1.520 -33.460  1.00  0.00    -0.016 C 
HETATM    3  N   UNL     1     -14.968   1.963 -32.637  1.00  0.00    -0.101 N 
ENDROOT
BRANCH   1   4
HETATM    4  C   UNL     1     -11.695   1.210 -33.958  1.00  0.00    -0.046 A 
HETATM    5  C   UNL     1     -11.001   2.384 -34.290  1.00  0.00     0.011 A 
HETATM    6  C   UNL     1      -9.675   2.559 -33.890  1.00  0.00     0.037 A 
HETATM    7  C   UNL     1      -9.040   1.569 -33.147  1.00  0.00     0.069 A 
HETATM    8  C   UNL     1      -9.705   0.386 -32.830  1.00  0.00     0.037 A 
HETATM    9  C   UNL     1     -11.032   0.211 -33.229  1.00  0.00     0.011 A 
BRANCH   7  10
HETATM   10  O   UNL     1      -7.721   1.749 -32.830  1.00  0.00    -0.347 OA
BRANCH  10  11
HETATM   11  C   UNL     1      -6.868   1.348 -33.909  1.00  0.00     0.216 C 
BRANCH  11  12
HETATM   12  C   UNL     1      -5.755   0.470 -33.374  1.00  0.00    -0.007 A 
HETATM   13  C   UNL     1      -5.552  -0.795 -33.957  1.00  0.00     0.011 A 
HETATM   14  C   UNL     1      -4.490  -1.604 -33.556  1.00  0.00     0.001 A 
HETATM   15  C   UNL     1      -3.616  -1.162 -32.568  1.00  0.00     0.002 A 
HETATM   16  C   UNL     1      -3.795   0.094 -31.988  1.00  0.00     0.030 A 
HETATM   17  C   UNL     1      -4.849   0.923 -32.393  1.00  0.00     0.044 A 
BRANCH  17  18
HETATM   18  N   UNL     1      -5.073   2.175 -31.791  1.00  0.00    -0.308 N 
HETATM   19  C   UNL     1      -4.413   3.369 -31.909  1.00  0.00     0.325 C 
HETATM   20  N   UNL     1      -3.658   3.525 -33.042  1.00  0.00    -0.306 N 
HETATM   21  O   UNL     1      -4.619   4.245 -31.072  1.00  0.00    -0.247 OA
HETATM   22  H   UNL     1      -3.735   2.814 -33.754  1.00  0.00     0.171 HD
HETATM   23  H   UNL     1      -5.836   2.218 -31.119  1.00  0.00     0.170 HD
BRANCH  20  24
HETATM   24  C   UNL     1      -3.003   4.689 -33.390  1.00  0.00     0.072 A 
HETATM   25  C   UNL     1      -3.427   5.825 -34.114  1.00  0.00     0.169 A 
HETATM   26  N   UNL     1      -2.455   6.735 -34.244  1.00  0.00    -0.185 NA
HETATM   27  N   UNL     1      -1.414   6.178 -33.607  1.00  0.00    -0.287 N 
HETATM   28  H   UNL     1      -0.539   6.691 -33.583  1.00  0.00     0.188 HD
HETATM   29  C   UNL     1      -1.694   4.955 -33.068  1.00  0.00     0.140 A 
ENDBRANCH  20  24
ENDBRANCH  17  18
ENDBRANCH  11  12
ENDBRANCH  10  11
ENDBRANCH   7  10
ENDBRANCH   1   4
TORSDOF 6
ENDMDL
MODEL 10
REMARK VINA RESULT:      -7.2      2.154      5.220
REMARK  6 active torsions:
REMARK  status: ('A' for Active; 'I' for Inactive)
REMARK    1  A    between atoms: C_3  and  C_4 
REMARK    2  A    between atoms: C_4  and  O_5 
REMARK    3  A    between atoms: O_5  and  C_6 
REMARK    4  A    between atoms: C_9  and  C_10 
REMARK    5  A    between atoms: C_15  and  N_16 
REMARK       I    between atoms: N_16  and  C_17 
REMARK       I    between atoms: C_17  and  N_18 
REMARK    6  A    between atoms: N_18  and  C_19 
ROOT
HETATM    1  C   UNL     1      -3.527  -0.777 -32.689  1.00  0.00     0.147 C 
HETATM    2  C   UNL     1      -3.227  -2.166 -32.149  1.00  0.00    -0.016 C 
HETATM    3  N   UNL     1      -2.979  -3.318 -31.702  1.00  0.00    -0.101 N 
ENDROOT
BRANCH   1   4
HETATM    4  C   UNL     1      -4.999  -0.459 -32.580  1.00  0.00    -0.046 A 
HETATM    5  C   UNL     1      -5.778  -0.279 -33.734  1.00  0.00     0.011 A 
HETATM    6  C   UNL     1      -7.122   0.084 -33.631  1.00  0.00     0.037 A 
HETATM    7  C   UNL     1      -7.699   0.254 -32.377  1.00  0.00     0.069 A 
HETATM    8  C   UNL     1      -6.936   0.104 -31.221  1.00  0.00     0.037 A 
HETATM    9  C   UNL     1      -5.591  -0.259 -31.322  1.00  0.00     0.011 A 
BRANCH   7  10
HETATM   10  O   UNL     1      -9.001   0.672 -32.320  1.00  0.00    -0.347 OA
BRANCH  10  11
HETATM   11  C   UNL     1      -9.687   0.405 -33.549  1.00  0.00     0.216 C 
BRANCH  11  12
HETATM   12  C   UNL     1     -10.931   1.267 -33.631  1.00  0.00    -0.007 A 
HETATM   13  C   UNL     1     -12.191   0.642 -33.586  1.00  0.00     0.011 A 
HETATM   14  C   UNL     1     -13.363   1.396 -33.575  1.00  0.00     0.001 A 
HETATM   15  C   UNL     1     -13.294   2.786 -33.608  1.00  0.00     0.002 A 
HETATM   16  C   UNL     1     -12.053   3.423 -33.640  1.00  0.00     0.030 A 
HETATM   17  C   UNL     1     -10.868   2.675 -33.636  1.00  0.00     0.044 A 
BRANCH  17  18
HETATM   18  N   UNL     1      -9.607   3.297 -33.711  1.00  0.00    -0.308 N 
HETATM   19  C   UNL     1      -8.861   3.952 -32.767  1.00  0.00     0.325 C 
HETATM   20  N   UNL     1      -9.162   3.663 -31.462  1.00  0.00    -0.306 N 
HETATM   21  O   UNL     1      -7.922   4.654 -33.137  1.00  0.00    -0.247 OA
HETATM   22  H   UNL     1      -9.815   2.913 -31.290  1.00  0.00     0.171 HD
HETATM   23  H   UNL     1      -9.165   3.301 -34.627  1.00  0.00     0.170 HD
BRANCH  20  24
HETATM   24  C   UNL     1      -8.459   4.142 -30.374  1.00  0.00     0.072 A 
HETATM   25  C   UNL     1      -8.568   5.343 -29.641  1.00  0.00     0.169 A 
HETATM   26  N   UNL     1      -7.665   5.421 -28.657  1.00  0.00    -0.185 NA
HETATM   27  N   UNL     1      -6.982   4.272 -28.765  1.00  0.00    -0.287 N 
HETATM   28  H   UNL     1      -6.219   4.106 -28.117  1.00  0.00     0.188 HD
HETATM   29  C   UNL     1      -7.426   3.464 -29.773  1.00  0.00     0.140 A 
ENDBRANCH  20  24
ENDBRANCH  17  18
ENDBRANCH  11  12
ENDBRANCH  10  11
ENDBRANCH   7  10
ENDBRANCH   1   4
TORSDOF 6
ENDMDL
