MODEL 1
REMARK VINA RESULT:     -10.4      0.000      0.000
REMARK  5 active torsions:
REMARK  status: ('A' for Active; 'I' for Inactive)
REMARK    1  A    between atoms: C_8  and  C_9 
REMARK    2  A    between atoms: N_10  and  N_11 
REMARK    3  A    between atoms: C_22  and  C_23 
REMARK       I    between atoms: C_23  and  N_24 
REMARK    4  A    between atoms: N_24  and  C_25 
REMARK    5  A    between atoms: C_33  and  N_34 
ROOT
HETATM    1  N   UNL     1      -4.477   1.713 -31.005  1.00  0.00    -0.197 N 
HETATM    2  C   UNL     1      -3.984   2.919 -31.481  1.00  0.00     0.183 A 
HETATM    3  C   UNL     1      -4.952   3.883 -31.249  1.00  0.00     0.125 A 
HETATM    4  N   UNL     1      -4.797   5.170 -31.667  1.00  0.00    -0.242 NA
HETATM    5  C   UNL     1      -3.631   5.415 -32.290  1.00  0.00     0.086 A 
HETATM    6  C   UNL     1      -2.652   4.409 -32.514  1.00  0.00     0.088 A 
HETATM    7  N   UNL     1      -2.810   3.136 -32.119  1.00  0.00    -0.225 NA
HETATM    8  C   UNL     1      -3.386   6.705 -32.741  1.00  0.00     0.034 A 
HETATM    9  C   UNL     1      -2.206   7.033 -33.408  1.00  0.00     0.002 A 
HETATM   10  C   UNL     1      -1.250   6.051 -33.629  1.00  0.00     0.002 A 
HETATM   11  C   UNL     1      -1.482   4.751 -33.180  1.00  0.00     0.034 A 
HETATM   12  C   UNL     1      -6.064   3.269 -30.618  1.00  0.00     0.110 C 
HETATM   13  C   UNL     1      -5.696   1.955 -30.378  1.00  0.00     0.143 C 
ENDROOT
BRANCH   1  14
HETATM   14  N   UNL     1      -3.971   0.445 -31.165  1.00  0.00    -0.176 NA
HETATM   15  C   UNL     1      -4.401  -0.129 -32.241  1.00  0.00     0.153 C 
BRANCH  15  16
HETATM   16  C   UNL     1      -4.042  -1.503 -32.517  1.00  0.00     0.011 A 
HETATM   17  C   UNL     1      -4.691  -2.383 -33.443  1.00  0.00     0.004 A 
HETATM   18  C   UNL     1      -5.779  -2.250 -34.332  1.00  0.00     0.014 A 
HETATM   19  C   UNL     1      -4.057  -3.623 -33.353  1.00  0.00     0.043 A 
HETATM   20  C   UNL     1      -6.192  -3.351 -35.090  1.00  0.00     0.001 A 
HETATM   21  C   UNL     1      -5.538  -4.574 -34.976  1.00  0.00     0.002 A 
HETATM   22  C   UNL     1      -4.454  -4.734 -34.106  1.00  0.00     0.030 A 
HETATM   23  N   UNL     1      -3.050  -3.496 -32.422  1.00  0.00    -0.364 N 
HETATM   24  H   UNL     1      -2.425  -4.242 -32.150  1.00  0.00     0.165 HD
HETATM   25  C   UNL     1      -3.040  -2.230 -31.905  1.00  0.00     0.102 A 
ENDBRANCH  15  16
ENDBRANCH   1  14
BRANCH  13  26
HETATM   26  N   UNL     1      -6.384   0.947 -29.791  1.00  0.00    -0.383 N 
HETATM   27  H   UNL     1      -7.285   0.636 -30.159  1.00  0.00     0.157 HD
HETATM   28  H   UNL     1      -6.168   0.655 -28.839  1.00  0.00     0.157 HD
ENDBRANCH  13  26
BRANCH  12  29
HETATM   29  C   UNL     1      -7.388   3.833 -30.398  1.00  0.00     0.262 C 
HETATM   30  N   UNL     1      -7.949   4.351 -31.557  1.00  0.00    -0.323 N 
HETATM   31  H   UNL     1      -7.277   4.823 -32.160  1.00  0.00     0.169 HD
HETATM   32  O   UNL     1      -7.993   3.736 -29.334  1.00  0.00    -0.267 OA
BRANCH  30  33
HETATM   33  C   UNL     1      -8.860   3.559 -32.307  1.00  0.00     0.035 A 
HETATM   34  C   UNL     1      -8.455   2.738 -33.365  1.00  0.00     0.031 A 
HETATM   35  C   UNL     1      -9.409   2.109 -34.171  1.00  0.00     0.026 A 
HETATM   36  C   UNL     1     -10.765   2.286 -33.910  1.00  0.00     0.034 A 
HETATM   37 CL   UNL     1     -11.937   1.545 -34.927  1.00  0.00    -0.084 Cl
HETATM   38  C   UNL     1     -11.177   3.071 -32.836  1.00  0.00     0.026 A 
HETATM   39  C   UNL     1     -10.226   3.705 -32.033  1.00  0.00     0.031 A 
ENDBRANCH  30  33
ENDBRANCH  12  29
TORSDOF 5
ENDMDL
MODEL 2
REMARK VINA RESULT:     -10.0      3.090      7.999
REMARK  5 active torsions:
REMARK  status: ('A' for Active; 'I' for Inactive)
REMARK    1  A    between atoms: C_8  and  C_9 
REMARK    2  A    between atoms: N_10  and  N_11 
REMARK    3  A    between atoms: C_22  and  C_23 
REMARK       I    between atoms: C_23  and  N_24 
REMARK    4  A    between atoms: N_24  and  C_25 
REMARK    5  A    between atoms: C_33  and  N_34 
ROOT
HETATM    1  N   UNL     1      -8.571   1.294 -32.159  1.00  0.00    -0.197 N 
HETATM    2  C   UNL     1      -7.661   0.341 -32.589  1.00  0.00     0.183 A 
HETATM    3  C   UNL     1      -6.476   0.558 -31.903  1.00  0.00     0.125 A 
HETATM    4  N   UNL     1      -5.357  -0.177 -32.153  1.00  0.00    -0.242 NA
HETATM    5  C   UNL     1      -5.516  -1.127 -33.091  1.00  0.00     0.086 A 
HETATM    6  C   UNL     1      -6.743  -1.333 -33.779  1.00  0.00     0.088 A 
HETATM    7  N   UNL     1      -7.842  -0.598 -33.548  1.00  0.00    -0.225 NA
HETATM    8  C   UNL     1      -4.426  -1.930 -33.402  1.00  0.00     0.034 A 
HETATM    9  C   UNL     1      -4.510  -2.929 -34.373  1.00  0.00     0.002 A 
HETATM   10  C   UNL     1      -5.706  -3.129 -35.047  1.00  0.00     0.002 A 
HETATM   11  C   UNL     1      -6.809  -2.331 -34.743  1.00  0.00     0.034 A 
HETATM   12  C   UNL     1      -6.652   1.663 -31.032  1.00  0.00     0.110 C 
HETATM   13  C   UNL     1      -7.986   2.024 -31.128  1.00  0.00     0.143 C 
ENDROOT
BRANCH   1  14
HETATM   14  N   UNL     1      -9.811   1.602 -32.666  1.00  0.00    -0.176 NA
HETATM   15  C   UNL     1      -9.747   2.388 -33.691  1.00  0.00     0.153 C 
BRANCH  15  16
HETATM   16  C   UNL     1     -10.964   2.888 -34.293  1.00  0.00     0.011 A 
HETATM   17  C   UNL     1     -11.192   4.218 -34.773  1.00  0.00     0.004 A 
HETATM   18  C   UNL     1     -10.407   5.389 -34.842  1.00  0.00     0.014 A 
HETATM   19  C   UNL     1     -12.512   4.278 -35.223  1.00  0.00     0.043 A 
HETATM   20  C   UNL     1     -10.965   6.567 -35.350  1.00  0.00     0.001 A 
HETATM   21  C   UNL     1     -12.286   6.593 -35.791  1.00  0.00     0.002 A 
HETATM   22  C   UNL     1     -13.085   5.447 -35.738  1.00  0.00     0.030 A 
HETATM   23  N   UNL     1     -13.058   3.027 -35.041  1.00  0.00    -0.364 N 
HETATM   24  H   UNL     1     -14.010   2.778 -35.276  1.00  0.00     0.165 HD
HETATM   25  C   UNL     1     -12.141   2.188 -34.472  1.00  0.00     0.102 A 
ENDBRANCH  15  16
ENDBRANCH   1  14
BRANCH  13  26
HETATM   26  N   UNL     1      -8.675   3.007 -30.499  1.00  0.00    -0.383 N 
HETATM   27  H   UNL     1      -8.198   3.820 -30.108  1.00  0.00     0.157 HD
HETATM   28  H   UNL     1      -9.624   2.845 -30.165  1.00  0.00     0.157 HD
ENDBRANCH  13  26
BRANCH  12  29
HETATM   29  C   UNL     1      -5.628   2.390 -30.296  1.00  0.00     0.262 C 
HETATM   30  N   UNL     1      -4.360   2.226 -30.837  1.00  0.00    -0.323 N 
HETATM   31  H   UNL     1      -4.183   1.283 -31.182  1.00  0.00     0.169 HD
HETATM   32  O   UNL     1      -5.881   3.169 -29.381  1.00  0.00    -0.267 OA
BRANCH  30  33
HETATM   33  C   UNL     1      -3.845   3.213 -31.721  1.00  0.00     0.035 A 
HETATM   34  C   UNL     1      -4.532   3.637 -32.863  1.00  0.00     0.031 A 
HETATM   35  C   UNL     1      -3.908   4.488 -33.783  1.00  0.00     0.026 A 
HETATM   36  C   UNL     1      -2.608   4.927 -33.551  1.00  0.00     0.034 A 
HETATM   37 CL   UNL     1      -1.827   5.938 -34.702  1.00  0.00    -0.084 Cl
HETATM   38  C   UNL     1      -1.929   4.539 -32.397  1.00  0.00     0.026 A 
HETATM   39  C   UNL     1      -2.549   3.685 -31.481  1.00  0.00     0.031 A 
ENDBRANCH  30  33
ENDBRANCH  12  29
TORSDOF 5
ENDMDL
MODEL 3
REMARK VINA RESULT:     -10.0      2.977      3.910
REMARK  5 active torsions:
REMARK  status: ('A' for Active; 'I' for Inactive)
REMARK    1  A    between atoms: C_8  and  C_9 
REMARK    2  A    between atoms: N_10  and  N_11 
REMARK    3  A    between atoms: C_22  and  C_23 
REMARK       I    between atoms: C_23  and  N_24 
REMARK    4  A    between atoms: N_24  and  C_25 
REMARK    5  A    between atoms: C_33  and  N_34 
ROOT
HETATM    1  N   UNL     1      -4.362   1.797 -30.818  1.00  0.00    -0.197 N 
HETATM    2  C   UNL     1      -3.881   3.006 -31.298  1.00  0.00     0.183 A 
HETATM    3  C   UNL     1      -4.778   3.991 -30.916  1.00  0.00     0.125 A 
HETATM    4  N   UNL     1      -4.622   5.289 -31.295  1.00  0.00    -0.242 NA
HETATM    5  C   UNL     1      -3.527   5.522 -32.039  1.00  0.00     0.086 A 
HETATM    6  C   UNL     1      -2.619   4.495 -32.417  1.00  0.00     0.088 A 
HETATM    7  N   UNL     1      -2.780   3.212 -32.059  1.00  0.00    -0.225 NA
HETATM    8  C   UNL     1      -3.285   6.823 -32.462  1.00  0.00     0.034 A 
HETATM    9  C   UNL     1      -2.177   7.141 -33.248  1.00  0.00     0.002 A 
HETATM   10  C   UNL     1      -1.292   6.138 -33.619  1.00  0.00     0.002 A 
HETATM   11  C   UNL     1      -1.521   4.828 -33.199  1.00  0.00     0.034 A 
HETATM   12  C   UNL     1      -5.833   3.386 -30.186  1.00  0.00     0.110 C 
HETATM   13  C   UNL     1      -5.491   2.051 -30.045  1.00  0.00     0.143 C 
ENDROOT
BRANCH   1  14
HETATM   14  N   UNL     1      -3.927   0.521 -31.088  1.00  0.00    -0.176 NA
HETATM   15  C   UNL     1      -4.433   0.043 -32.178  1.00  0.00     0.153 C 
BRANCH  15  16
HETATM   16  C   UNL     1      -4.156  -1.323 -32.563  1.00  0.00     0.011 A 
HETATM   17  C   UNL     1      -4.901  -2.112 -33.498  1.00  0.00     0.004 A 
HETATM   18  C   UNL     1      -6.035  -1.875 -34.304  1.00  0.00     0.014 A 
HETATM   19  C   UNL     1      -4.320  -3.381 -33.529  1.00  0.00     0.043 A 
HETATM   20  C   UNL     1      -6.544  -2.905 -35.102  1.00  0.00     0.001 A 
HETATM   21  C   UNL     1      -5.941  -4.160 -35.109  1.00  0.00     0.002 A 
HETATM   22  C   UNL     1      -4.814  -4.422 -34.323  1.00  0.00     0.030 A 
HETATM   23  N   UNL     1      -3.252  -3.357 -32.660  1.00  0.00    -0.364 N 
HETATM   24  H   UNL     1      -2.646  -4.145 -32.476  1.00  0.00     0.165 HD
HETATM   25  C   UNL     1      -3.152  -2.130 -32.065  1.00  0.00     0.102 A 
ENDBRANCH  15  16
ENDBRANCH   1  14
BRANCH  13  26
HETATM   26  N   UNL     1      -6.146   1.041 -29.424  1.00  0.00    -0.383 N 
HETATM   27  H   UNL     1      -6.736   1.214 -28.609  1.00  0.00     0.157 HD
HETATM   28  H   UNL     1      -5.868   0.072 -29.573  1.00  0.00     0.157 HD
ENDBRANCH  13  26
BRANCH  12  29
HETATM   29  C   UNL     1      -7.101   3.983 -29.791  1.00  0.00     0.262 C 
HETATM   30  N   UNL     1      -7.077   4.484 -28.497  1.00  0.00    -0.323 N 
HETATM   31  H   UNL     1      -6.549   3.905 -27.845  1.00  0.00     0.169 HD
HETATM   32  O   UNL     1      -8.039   4.145 -30.565  1.00  0.00    -0.267 OA
BRANCH  30  33
HETATM   33  C   UNL     1      -6.830   5.868 -28.287  1.00  0.00     0.035 A 
HETATM   34  C   UNL     1      -5.575   6.364 -27.919  1.00  0.00     0.031 A 
HETATM   35  C   UNL     1      -5.427   7.710 -27.568  1.00  0.00     0.026 A 
HETATM   36  C   UNL     1      -6.528   8.562 -27.602  1.00  0.00     0.034 A 
HETATM   37 CL   UNL     1      -6.354  10.206 -27.130  1.00  0.00    -0.084 Cl
HETATM   38  C   UNL     1      -7.774   8.085 -28.004  1.00  0.00     0.026 A 
HETATM   39  C   UNL     1      -7.924   6.739 -28.349  1.00  0.00     0.031 A 
ENDBRANCH  30  33
ENDBRANCH  12  29
TORSDOF 5
ENDMDL
MODEL 4
REMARK VINA RESULT:     -10.0      2.925      7.455
REMARK  5 active torsions:
REMARK  status: ('A' for Active; 'I' for Inactive)
REMARK    1  A    between atoms: C_8  and  C_9 
REMARK    2  A    between atoms: N_10  and  N_11 
REMARK    3  A    between atoms: C_22  and  C_23 
REMARK       I    between atoms: C_23  and  N_24 
REMARK    4  A    between atoms: N_24  and  C_25 
REMARK    5  A    between atoms: C_33  and  N_34 
ROOT
HETATM    1  N   UNL     1      -8.299   1.468 -31.530  1.00  0.00    -0.197 N 
HETATM    2  C   UNL     1      -7.341   0.606 -32.043  1.00  0.00     0.183 A 
HETATM    3  C   UNL     1      -6.117   0.983 -31.514  1.00  0.00     0.125 A 
HETATM    4  N   UNL     1      -4.958   0.368 -31.879  1.00  0.00    -0.242 NA
HETATM    5  C   UNL     1      -5.116  -0.632 -32.763  1.00  0.00     0.086 A 
HETATM    6  C   UNL     1      -6.383  -1.002 -33.290  1.00  0.00     0.088 A 
HETATM    7  N   UNL     1      -7.525  -0.386 -32.946  1.00  0.00    -0.225 NA
HETATM    8  C   UNL     1      -3.984  -1.320 -33.184  1.00  0.00     0.034 A 
HETATM    9  C   UNL     1      -4.066  -2.361 -34.110  1.00  0.00     0.002 A 
HETATM   10  C   UNL     1      -5.302  -2.721 -34.627  1.00  0.00     0.002 A 
HETATM   11  C   UNL     1      -6.447  -2.040 -34.212  1.00  0.00     0.034 A 
HETATM   12  C   UNL     1      -6.315   2.096 -30.658  1.00  0.00     0.110 C 
HETATM   13  C   UNL     1      -7.684   2.301 -30.599  1.00  0.00     0.143 C 
ENDROOT
BRANCH   1  14
HETATM   14  N   UNL     1      -9.617   1.614 -31.890  1.00  0.00    -0.176 NA
HETATM   15  C   UNL     1      -9.757   2.102 -33.080  1.00  0.00     0.153 C 
BRANCH  15  16
HETATM   16  C   UNL     1     -11.078   2.408 -33.583  1.00  0.00     0.011 A 
HETATM   17  C   UNL     1     -12.179   1.499 -33.695  1.00  0.00     0.004 A 
HETATM   18  C   UNL     1     -12.367   0.135 -33.383  1.00  0.00     0.014 A 
HETATM   19  C   UNL     1     -13.239   2.197 -34.277  1.00  0.00     0.043 A 
HETATM   20  C   UNL     1     -13.594  -0.476 -33.662  1.00  0.00     0.001 A 
HETATM   21  C   UNL     1     -14.631   0.250 -34.242  1.00  0.00     0.002 A 
HETATM   22  C   UNL     1     -14.474   1.603 -34.559  1.00  0.00     0.030 A 
HETATM   23  N   UNL     1     -12.804   3.486 -34.491  1.00  0.00    -0.364 N 
HETATM   24  H   UNL     1     -13.364   4.217 -34.907  1.00  0.00     0.165 HD
HETATM   25  C   UNL     1     -11.503   3.620 -34.089  1.00  0.00     0.102 A 
ENDBRANCH  15  16
ENDBRANCH   1  14
BRANCH  13  26
HETATM   26  N   UNL     1      -8.403   3.225 -29.917  1.00  0.00    -0.383 N 
HETATM   27  H   UNL     1      -9.423   3.204 -29.912  1.00  0.00     0.157 HD
HETATM   28  H   UNL     1      -7.974   4.102 -29.622  1.00  0.00     0.157 HD
ENDBRANCH  13  26
BRANCH  12  29
HETATM   29  C   UNL     1      -5.302   2.963 -30.073  1.00  0.00     0.262 C 
HETATM   30  N   UNL     1      -4.032   2.717 -30.574  1.00  0.00    -0.323 N 
HETATM   31  H   UNL     1      -3.841   1.729 -30.735  1.00  0.00     0.169 HD
HETATM   32  O   UNL     1      -5.567   3.897 -29.321  1.00  0.00    -0.267 OA
BRANCH  30  33
HETATM   33  C   UNL     1      -3.529   3.526 -31.629  1.00  0.00     0.035 A 
HETATM   34  C   UNL     1      -4.220   3.720 -32.830  1.00  0.00     0.031 A 
HETATM   35  C   UNL     1      -3.607   4.390 -33.893  1.00  0.00     0.026 A 
HETATM   36  C   UNL     1      -2.312   4.881 -33.751  1.00  0.00     0.034 A 
HETATM   37 CL   UNL     1      -1.544   5.667 -35.073  1.00  0.00    -0.084 Cl
HETATM   38  C   UNL     1      -1.629   4.725 -32.546  1.00  0.00     0.026 A 
HETATM   39  C   UNL     1      -2.238   4.051 -31.485  1.00  0.00     0.031 A 
ENDBRANCH  30  33
ENDBRANCH  12  29
TORSDOF 5
ENDMDL
MODEL 5
REMARK VINA RESULT:      -9.8      3.629      6.674
REMARK  5 active torsions:
REMARK  status: ('A' for Active; 'I' for Inactive)
REMARK    1  A    between atoms: C_8  and  C_9 
REMARK    2  A    between atoms: N_10  and  N_11 
REMARK    3  A    between atoms: C_22  and  C_23 
REMARK       I    between atoms: C_23  and  N_24 
REMARK    4  A    between atoms: N_24  and  C_25 
REMARK    5  A    between atoms: C_33  and  N_34 
ROOT
HETATM    1  N   UNL     1      -8.523   2.475 -34.038  1.00  0.00    -0.197 N 
HETATM    2  C   UNL     1      -9.884   2.277 -33.862  1.00  0.00     0.183 A 
HETATM    3  C   UNL     1     -10.417   3.459 -33.374  1.00  0.00     0.125 A 
HETATM    4  N   UNL     1     -11.731   3.567 -33.032  1.00  0.00    -0.242 NA
HETATM    5  C   UNL     1     -12.449   2.448 -33.231  1.00  0.00     0.086 A 
HETATM    6  C   UNL     1     -11.880   1.247 -33.736  1.00  0.00     0.088 A 
HETATM    7  N   UNL     1     -10.582   1.133 -34.057  1.00  0.00    -0.225 NA
HETATM    8  C   UNL     1     -13.802   2.472 -32.918  1.00  0.00     0.034 A 
HETATM    9  C   UNL     1     -14.610   1.347 -33.084  1.00  0.00     0.002 A 
HETATM   10  C   UNL     1     -14.055   0.173 -33.574  1.00  0.00     0.002 A 
HETATM   11  C   UNL     1     -12.698   0.135 -33.896  1.00  0.00     0.034 A 
HETATM   12  C   UNL     1      -9.372   4.409 -33.245  1.00  0.00     0.110 C 
HETATM   13  C   UNL     1      -8.237   3.811 -33.768  1.00  0.00     0.143 C 
ENDROOT
BRANCH   1  14
HETATM   14  N   UNL     1      -7.542   1.557 -34.325  1.00  0.00    -0.176 NA
HETATM   15  C   UNL     1      -7.053   1.002 -33.264  1.00  0.00     0.153 C 
BRANCH  15  16
HETATM   16  C   UNL     1      -5.945   0.079 -33.378  1.00  0.00     0.011 A 
HETATM   17  C   UNL     1      -5.996  -1.251 -33.905  1.00  0.00     0.004 A 
HETATM   18  C   UNL     1      -7.017  -2.055 -34.456  1.00  0.00     0.014 A 
HETATM   19  C   UNL     1      -4.719  -1.800 -33.777  1.00  0.00     0.043 A 
HETATM   20  C   UNL     1      -6.729  -3.365 -34.852  1.00  0.00     0.001 A 
HETATM   21  C   UNL     1      -5.444  -3.881 -34.711  1.00  0.00     0.002 A 
HETATM   22  C   UNL     1      -4.412  -3.107 -34.172  1.00  0.00     0.030 A 
HETATM   23  N   UNL     1      -3.919  -0.832 -33.211  1.00  0.00    -0.364 N 
HETATM   24  H   UNL     1      -2.938  -0.953 -32.997  1.00  0.00     0.165 HD
HETATM   25  C   UNL     1      -4.648   0.296 -32.956  1.00  0.00     0.102 A 
ENDBRANCH  15  16
ENDBRANCH   1  14
BRANCH  13  26
HETATM   26  N   UNL     1      -6.976   4.288 -33.895  1.00  0.00    -0.383 N 
HETATM   27  H   UNL     1      -6.165   3.685 -33.748  1.00  0.00     0.157 HD
HETATM   28  H   UNL     1      -6.795   5.291 -33.874  1.00  0.00     0.157 HD
ENDBRANCH  13  26
BRANCH  12  29
HETATM   29  C   UNL     1      -9.415   5.695 -32.564  1.00  0.00     0.262 C 
HETATM   30  N   UNL     1      -9.855   5.593 -31.252  1.00  0.00    -0.323 N 
HETATM   31  H   UNL     1     -10.602   4.911 -31.124  1.00  0.00     0.169 HD
HETATM   32  O   UNL     1      -8.981   6.733 -33.056  1.00  0.00    -0.267 OA
BRANCH  30  33
HETATM   33  C   UNL     1      -8.903   5.529 -30.198  1.00  0.00     0.035 A 
HETATM   34  C   UNL     1      -8.888   6.440 -29.136  1.00  0.00     0.031 A 
HETATM   35  C   UNL     1      -7.833   6.431 -28.218  1.00  0.00     0.026 A 
HETATM   36  C   UNL     1      -6.805   5.502 -28.351  1.00  0.00     0.034 A 
HETATM   37 CL   UNL     1      -5.487   5.519 -27.245  1.00  0.00    -0.084 Cl
HETATM   38  C   UNL     1      -6.830   4.567 -29.383  1.00  0.00     0.026 A 
HETATM   39  C   UNL     1      -7.880   4.579 -30.305  1.00  0.00     0.031 A 
ENDBRANCH  30  33
ENDBRANCH  12  29
TORSDOF 5
ENDMDL
MODEL 6
REMARK VINA RESULT:      -9.8      1.596      2.330
REMARK  5 active torsions:
REMARK  status: ('A' for Active; 'I' for Inactive)
REMARK    1  A    between atoms: C_8  and  C_9 
REMARK    2  A    between atoms: N_10  and  N_11 
REMARK    3  A    between atoms: C_22  and  C_23 
REMARK       I    between atoms: C_23  and  N_24 
REMARK    4  A    between atoms: N_24  and  C_25 
REMARK    5  A    between atoms: C_33  and  N_34 
ROOT
HETATM    1  N   UNL     1      -6.484   1.507 -31.939  1.00  0.00    -0.197 N 
HETATM    2  C   UNL     1      -5.684   2.625 -32.121  1.00  0.00     0.183 A 
HETATM    3  C   UNL     1      -6.475   3.742 -31.898  1.00  0.00     0.125 A 
HETATM    4  N   UNL     1      -5.995   5.005 -32.066  1.00  0.00    -0.242 NA
HETATM    5  C   UNL     1      -4.704   5.063 -32.437  1.00  0.00     0.086 A 
HETATM    6  C   UNL     1      -3.912   3.903 -32.657  1.00  0.00     0.088 A 
HETATM    7  N   UNL     1      -4.388   2.657 -32.510  1.00  0.00    -0.225 NA
HETATM    8  C   UNL     1      -4.130   6.315 -32.622  1.00  0.00     0.034 A 
HETATM    9  C   UNL     1      -2.800   6.456 -33.019  1.00  0.00     0.002 A 
HETATM   10  C   UNL     1      -2.027   5.324 -33.236  1.00  0.00     0.002 A 
HETATM   11  C   UNL     1      -2.590   4.061 -33.052  1.00  0.00     0.034 A 
HETATM   12  C   UNL     1      -7.786   3.313 -31.572  1.00  0.00     0.110 C 
HETATM   13  C   UNL     1      -7.733   1.930 -31.494  1.00  0.00     0.143 C 
ENDROOT
BRANCH   1  14
HETATM   14  N   UNL     1      -6.212   0.190 -32.220  1.00  0.00    -0.176 NA
HETATM   15  C   UNL     1      -5.886   0.001 -33.457  1.00  0.00     0.153 C 
BRANCH  15  16
HETATM   16  C   UNL     1      -5.657  -1.341 -33.946  1.00  0.00     0.011 A 
HETATM   17  C   UNL     1      -4.733  -2.296 -33.412  1.00  0.00     0.004 A 
HETATM   18  C   UNL     1      -3.822  -2.290 -32.334  1.00  0.00     0.014 A 
HETATM   19  C   UNL     1      -4.798  -3.434 -34.217  1.00  0.00     0.043 A 
HETATM   20  C   UNL     1      -3.017  -3.410 -32.102  1.00  0.00     0.001 A 
HETATM   21  C   UNL     1      -3.108  -4.530 -32.924  1.00  0.00     0.002 A 
HETATM   22  C   UNL     1      -4.003  -4.565 -33.998  1.00  0.00     0.030 A 
HETATM   23  N   UNL     1      -5.741  -3.187 -35.191  1.00  0.00    -0.364 N 
HETATM   24  H   UNL     1      -5.996  -3.840 -35.919  1.00  0.00     0.165 HD
HETATM   25  C   UNL     1      -6.254  -1.928 -35.044  1.00  0.00     0.102 A 
ENDBRANCH  15  16
ENDBRANCH   1  14
BRANCH  13  26
HETATM   26  N   UNL     1      -8.706   1.032 -31.205  1.00  0.00    -0.383 N 
HETATM   27  H   UNL     1      -8.684   0.489 -30.341  1.00  0.00     0.157 HD
HETATM   28  H   UNL     1      -9.324   0.682 -31.935  1.00  0.00     0.157 HD
ENDBRANCH  13  26
BRANCH  12  29
HETATM   29  C   UNL     1      -8.994   4.121 -31.487  1.00  0.00     0.262 C 
HETATM   30  N   UNL     1      -9.556   4.379 -32.729  1.00  0.00    -0.323 N 
HETATM   31  H   UNL     1      -8.867   4.547 -33.462  1.00  0.00     0.169 HD
HETATM   32  O   UNL     1      -9.527   4.426 -30.423  1.00  0.00    -0.267 OA
BRANCH  30  33
HETATM   33  C   UNL     1     -10.626   3.566 -33.193  1.00  0.00     0.035 A 
HETATM   34  C   UNL     1     -11.929   3.675 -32.697  1.00  0.00     0.031 A 
HETATM   35  C   UNL     1     -12.904   2.744 -33.069  1.00  0.00     0.026 A 
HETATM   36  C   UNL     1     -12.580   1.715 -33.950  1.00  0.00     0.034 A 
HETATM   37 CL   UNL     1     -13.768   0.546 -34.375  1.00  0.00    -0.084 Cl
HETATM   38  C   UNL     1     -11.295   1.620 -34.479  1.00  0.00     0.026 A 
HETATM   39  C   UNL     1     -10.319   2.547 -34.103  1.00  0.00     0.031 A 
ENDBRANCH  30  33
ENDBRANCH  12  29
TORSDOF 5
ENDMDL
MODEL 7
REMARK VINA RESULT:      -9.7      1.363      2.087
REMARK  5 active torsions:
REMARK  status: ('A' for Active; 'I' for Inactive)
REMARK    1  A    between atoms: C_8  and  C_9 
REMARK    2  A    between atoms: N_10  and  N_11 
REMARK    3  A    between atoms: C_22  and  C_23 
REMARK       I    between atoms: C_23  and  N_24 
REMARK    4  A    between atoms: N_24  and  C_25 
REMARK    5  A    between atoms: C_33  and  N_34 
ROOT
HETATM    1  N   UNL     1      -4.886   2.249 -31.329  1.00  0.00    -0.197 N 
HETATM    2  C   UNL     1      -4.202   3.368 -31.781  1.00  0.00     0.183 A 
HETATM    3  C   UNL     1      -4.797   4.479 -31.205  1.00  0.00     0.125 A 
HETATM    4  N   UNL     1      -4.395   5.745 -31.505  1.00  0.00    -0.242 NA
HETATM    5  C   UNL     1      -3.373   5.810 -32.376  1.00  0.00     0.086 A 
HETATM    6  C   UNL     1      -2.777   4.655 -32.952  1.00  0.00     0.088 A 
HETATM    7  N   UNL     1      -3.183   3.407 -32.672  1.00  0.00    -0.225 NA
HETATM    8  C   UNL     1      -2.892   7.064 -32.731  1.00  0.00     0.034 A 
HETATM    9  C   UNL     1      -1.843   7.213 -33.639  1.00  0.00     0.002 A 
HETATM   10  C   UNL     1      -1.262   6.086 -34.204  1.00  0.00     0.002 A 
HETATM   11  C   UNL     1      -1.733   4.821 -33.855  1.00  0.00     0.034 A 
HETATM   12  C   UNL     1      -5.867   4.046 -30.381  1.00  0.00     0.110 C 
HETATM   13  C   UNL     1      -5.826   2.661 -30.388  1.00  0.00     0.143 C 
ENDROOT
BRANCH   1  14
HETATM   14  N   UNL     1      -4.791   0.945 -31.751  1.00  0.00    -0.176 NA
HETATM   15  C   UNL     1      -5.234   0.777 -32.955  1.00  0.00     0.153 C 
BRANCH  15  16
HETATM   16  C   UNL     1      -5.295  -0.552 -33.523  1.00  0.00     0.011 A 
HETATM   17  C   UNL     1      -4.539  -1.693 -33.102  1.00  0.00     0.004 A 
HETATM   18  C   UNL     1      -3.581  -1.923 -32.091  1.00  0.00     0.014 A 
HETATM   19  C   UNL     1      -4.869  -2.749 -33.953  1.00  0.00     0.043 A 
HETATM   20  C   UNL     1      -2.991  -3.185 -31.971  1.00  0.00     0.001 A 
HETATM   21  C   UNL     1      -3.343  -4.217 -32.837  1.00  0.00     0.002 A 
HETATM   22  C   UNL     1      -4.292  -4.019 -33.845  1.00  0.00     0.030 A 
HETATM   23  N   UNL     1      -5.804  -2.271 -34.845  1.00  0.00    -0.364 N 
HETATM   24  H   UNL     1      -6.222  -2.819 -35.585  1.00  0.00     0.165 HD
HETATM   25  C   UNL     1      -6.057  -0.949 -34.603  1.00  0.00     0.102 A 
ENDBRANCH  15  16
ENDBRANCH   1  14
BRANCH  13  26
HETATM   26  N   UNL     1      -6.615   1.758 -29.758  1.00  0.00    -0.383 N 
HETATM   27  H   UNL     1      -6.253   1.173 -29.004  1.00  0.00     0.157 HD
HETATM   28  H   UNL     1      -7.490   1.450 -30.179  1.00  0.00     0.157 HD
ENDBRANCH  13  26
BRANCH  12  29
HETATM   29  C   UNL     1      -6.907   4.860 -29.768  1.00  0.00     0.262 C 
HETATM   30  N   UNL     1      -7.617   5.609 -30.696  1.00  0.00    -0.323 N 
HETATM   31  H   UNL     1      -7.039   5.983 -31.447  1.00  0.00     0.169 HD
HETATM   32  O   UNL     1      -7.208   4.786 -28.580  1.00  0.00    -0.267 OA
BRANCH  30  33
HETATM   33  C   UNL     1      -8.860   5.120 -31.184  1.00  0.00     0.035 A 
HETATM   34  C   UNL     1     -10.010   5.049 -30.390  1.00  0.00     0.031 A 
HETATM   35  C   UNL     1     -11.157   4.410 -30.870  1.00  0.00     0.026 A 
HETATM   36  C   UNL     1     -11.161   3.858 -32.149  1.00  0.00     0.034 A 
HETATM   37 CL   UNL     1     -12.558   3.036 -32.723  1.00  0.00    -0.084 Cl
HETATM   38  C   UNL     1     -10.033   3.957 -32.961  1.00  0.00     0.026 A 
HETATM   39  C   UNL     1      -8.884   4.589 -32.479  1.00  0.00     0.031 A 
ENDBRANCH  30  33
ENDBRANCH  12  29
TORSDOF 5
ENDMDL
MODEL 8
REMARK VINA RESULT:      -9.7      2.956      7.769
REMARK  5 active torsions:
REMARK  status: ('A' for Active; 'I' for Inactive)
REMARK    1  A    between atoms: C_8  and  C_9 
REMARK    2  A    between atoms: N_10  and  N_11 
REMARK    3  A    between atoms: C_22  and  C_23 
REMARK       I    between atoms: C_23  and  N_24 
REMARK    4  A    between atoms: N_24  and  C_25 
REMARK    5  A    between atoms: C_33  and  N_34 
ROOT
HETATM    1  N   UNL     1      -7.039   0.896 -32.426  1.00  0.00    -0.197 N 
HETATM    2  C   UNL     1      -6.547  -0.296 -32.934  1.00  0.00     0.183 A 
HETATM    3  C   UNL     1      -5.176  -0.301 -32.728  1.00  0.00     0.125 A 
HETATM    4  N   UNL     1      -4.386  -1.314 -33.181  1.00  0.00    -0.242 NA
HETATM    5  C   UNL     1      -5.053  -2.298 -33.810  1.00  0.00     0.086 A 
HETATM    6  C   UNL     1      -6.460  -2.271 -34.008  1.00  0.00     0.088 A 
HETATM    7  N   UNL     1      -7.238  -1.265 -33.579  1.00  0.00    -0.225 NA
HETATM    8  C   UNL     1      -4.325  -3.377 -34.296  1.00  0.00     0.034 A 
HETATM    9  C   UNL     1      -4.943  -4.429 -34.972  1.00  0.00     0.002 A 
HETATM   10  C   UNL     1      -6.317  -4.403 -35.167  1.00  0.00     0.002 A 
HETATM   11  C   UNL     1      -7.061  -3.327 -34.683  1.00  0.00     0.034 A 
HETATM   12  C   UNL     1      -4.809   0.906 -32.081  1.00  0.00     0.110 C 
HETATM   13  C   UNL     1      -5.992   1.573 -31.806  1.00  0.00     0.143 C 
ENDROOT
BRANCH   1  14
HETATM   14  N   UNL     1      -8.294   1.442 -32.552  1.00  0.00    -0.176 NA
HETATM   15  C   UNL     1      -8.691   1.499 -33.781  1.00  0.00     0.153 C 
BRANCH  15  16
HETATM   16  C   UNL     1      -9.951   2.131 -34.104  1.00  0.00     0.011 A 
HETATM   17  C   UNL     1     -11.251   1.538 -34.003  1.00  0.00     0.004 A 
HETATM   18  C   UNL     1     -11.730   0.277 -33.588  1.00  0.00     0.014 A 
HETATM   19  C   UNL     1     -12.175   2.478 -34.463  1.00  0.00     0.043 A 
HETATM   20  C   UNL     1     -13.100   0.002 -33.650  1.00  0.00     0.001 A 
HETATM   21  C   UNL     1     -13.995   0.963 -34.114  1.00  0.00     0.002 A 
HETATM   22  C   UNL     1     -13.549   2.222 -34.529  1.00  0.00     0.030 A 
HETATM   23  N   UNL     1     -11.464   3.605 -34.813  1.00  0.00    -0.364 N 
HETATM   24  H   UNL     1     -11.877   4.449 -35.185  1.00  0.00     0.165 HD
HETATM   25  C   UNL     1     -10.126   3.402 -34.613  1.00  0.00     0.102 A 
ENDBRANCH  15  16
ENDBRANCH   1  14
BRANCH  13  26
HETATM   26  N   UNL     1      -6.204   2.762 -31.192  1.00  0.00    -0.383 N 
HETATM   27  H   UNL     1      -6.057   3.645 -31.682  1.00  0.00     0.157 HD
HETATM   28  H   UNL     1      -6.253   2.821 -30.175  1.00  0.00     0.157 HD
ENDBRANCH  13  26
BRANCH  12  29
HETATM   29  C   UNL     1      -3.469   1.437 -31.876  1.00  0.00     0.262 C 
HETATM   30  N   UNL     1      -3.118   2.388 -32.823  1.00  0.00    -0.323 N 
HETATM   31  H   UNL     1      -3.455   2.174 -33.761  1.00  0.00     0.169 HD
HETATM   32  O   UNL     1      -2.781   1.169 -30.895  1.00  0.00    -0.267 OA
BRANCH  30  33
HETATM   33  C   UNL     1      -3.268   3.768 -32.516  1.00  0.00     0.035 A 
HETATM   34  C   UNL     1      -4.121   4.614 -33.233  1.00  0.00     0.031 A 
HETATM   35  C   UNL     1      -4.106   5.992 -32.994  1.00  0.00     0.026 A 
HETATM   36  C   UNL     1      -3.254   6.521 -32.028  1.00  0.00     0.034 A 
HETATM   37 CL   UNL     1      -3.207   8.220 -31.765  1.00  0.00    -0.084 Cl
HETATM   38  C   UNL     1      -2.428   5.681 -31.283  1.00  0.00     0.026 A 
HETATM   39  C   UNL     1      -2.437   4.305 -31.525  1.00  0.00     0.031 A 
ENDBRANCH  30  33
ENDBRANCH  12  29
TORSDOF 5
ENDMDL
MODEL 9
REMARK VINA RESULT:      -9.5      4.230      6.272
REMARK  5 active torsions:
REMARK  status: ('A' for Active; 'I' for Inactive)
REMARK    1  A    between atoms: C_8  and  C_9 
REMARK    2  A    between atoms: N_10  and  N_11 
REMARK    3  A    between atoms: C_22  and  C_23 
REMARK       I    between atoms: C_23  and  N_24 
REMARK    4  A    between atoms: N_24  and  C_25 
REMARK    5  A    between atoms: C_33  and  N_34 
ROOT
HETATM    1  N   UNL     1      -5.531   4.121 -30.918  1.00  0.00    -0.197 N 
HETATM    2  C   UNL     1      -4.430   4.692 -31.538  1.00  0.00     0.183 A 
HETATM    3  C   UNL     1      -3.974   5.711 -30.717  1.00  0.00     0.125 A 
HETATM    4  N   UNL     1      -2.936   6.515 -31.080  1.00  0.00    -0.242 NA
HETATM    5  C   UNL     1      -2.395   6.215 -32.274  1.00  0.00     0.086 A 
HETATM    6  C   UNL     1      -2.879   5.163 -33.098  1.00  0.00     0.088 A 
HETATM    7  N   UNL     1      -3.913   4.381 -32.750  1.00  0.00    -0.225 NA
HETATM    8  C   UNL     1      -1.324   6.980 -32.719  1.00  0.00     0.034 A 
HETATM    9  C   UNL     1      -0.718   6.739 -33.952  1.00  0.00     0.002 A 
HETATM   10  C   UNL     1      -1.192   5.713 -34.758  1.00  0.00     0.002 A 
HETATM   11  C   UNL     1      -2.265   4.936 -34.323  1.00  0.00     0.034 A 
HETATM   12  C   UNL     1      -4.802   5.775 -29.568  1.00  0.00     0.110 C 
HETATM   13  C   UNL     1      -5.683   4.710 -29.666  1.00  0.00     0.143 C 
ENDROOT
BRANCH   1  14
HETATM   14  N   UNL     1      -6.429   3.206 -31.413  1.00  0.00    -0.176 NA
HETATM   15  C   UNL     1      -5.885   2.059 -31.663  1.00  0.00     0.153 C 
BRANCH  15  16
HETATM   16  C   UNL     1      -6.667   1.009 -32.277  1.00  0.00     0.011 A 
HETATM   17  C   UNL     1      -6.158  -0.143 -32.959  1.00  0.00     0.004 A 
HETATM   18  C   UNL     1      -4.863  -0.630 -33.240  1.00  0.00     0.014 A 
HETATM   19  C   UNL     1      -7.254  -0.862 -33.439  1.00  0.00     0.043 A 
HETATM   20  C   UNL     1      -4.712  -1.805 -33.984  1.00  0.00     0.001 A 
HETATM   21  C   UNL     1      -5.827  -2.498 -34.448  1.00  0.00     0.002 A 
HETATM   22  C   UNL     1      -7.121  -2.041 -34.183  1.00  0.00     0.030 A 
HETATM   23  N   UNL     1      -8.386  -0.182 -33.047  1.00  0.00    -0.364 N 
HETATM   24  H   UNL     1      -9.330  -0.473 -33.260  1.00  0.00     0.165 HD
HETATM   25  C   UNL     1      -8.044   0.949 -32.359  1.00  0.00     0.102 A 
ENDBRANCH  15  16
ENDBRANCH   1  14
BRANCH  13  26
HETATM   26  N   UNL     1      -6.672   4.312 -28.829  1.00  0.00    -0.383 N 
HETATM   27  H   UNL     1      -7.028   3.356 -28.848  1.00  0.00     0.157 HD
HETATM   28  H   UNL     1      -7.261   4.997 -28.357  1.00  0.00     0.157 HD
ENDBRANCH  13  26
BRANCH  12  29
HETATM   29  C   UNL     1      -4.847   6.822 -28.558  1.00  0.00     0.262 C 
HETATM   30  N   UNL     1      -3.977   6.588 -27.503  1.00  0.00    -0.323 N 
HETATM   31  H   UNL     1      -3.918   5.606 -27.233  1.00  0.00     0.169 HD
HETATM   32  O   UNL     1      -5.486   7.862 -28.694  1.00  0.00    -0.267 OA
BRANCH  30  33
HETATM   33  C   UNL     1      -2.698   7.209 -27.501  1.00  0.00     0.035 A 
HETATM   34  C   UNL     1      -2.372   8.269 -28.353  1.00  0.00     0.031 A 
HETATM   35  C   UNL     1      -1.054   8.733 -28.424  1.00  0.00     0.026 A 
HETATM   36  C   UNL     1      -0.069   8.150 -27.631  1.00  0.00     0.034 A 
HETATM   37 CL   UNL     1       1.559   8.693 -27.750  1.00  0.00    -0.084 Cl
HETATM   38  C   UNL     1      -0.392   7.118 -26.752  1.00  0.00     0.026 A 
HETATM   39  C   UNL     1      -1.707   6.650 -26.685  1.00  0.00     0.031 A 
ENDBRANCH  30  33
ENDBRANCH  12  29
TORSDOF 5
ENDMDL
MODEL 10
REMARK VINA RESULT:      -9.4      3.112      6.479
REMARK  5 active torsions:
REMARK  status: ('A' for Active; 'I' for Inactive)
REMARK    1  A    between atoms: C_8  and  C_9 
REMARK    2  A    between atoms: N_10  and  N_11 
REMARK    3  A    between atoms: C_22  and  C_23 
REMARK       I    between atoms: C_23  and  N_24 
REMARK    4  A    between atoms: N_24  and  C_25 
REMARK    5  A    between atoms: C_33  and  N_34 
ROOT
HETATM    1  N   UNL     1      -7.994   1.490 -33.310  1.00  0.00    -0.197 N 
HETATM    2  C   UNL     1      -9.373   1.437 -33.451  1.00  0.00     0.183 A 
HETATM    3  C   UNL     1      -9.828   2.740 -33.579  1.00  0.00     0.125 A 
HETATM    4  N   UNL     1     -11.155   3.031 -33.667  1.00  0.00    -0.242 NA
HETATM    5  C   UNL     1     -11.961   1.956 -33.642  1.00  0.00     0.086 A 
HETATM    6  C   UNL     1     -11.471   0.628 -33.512  1.00  0.00     0.088 A 
HETATM    7  N   UNL     1     -10.164   0.339 -33.407  1.00  0.00    -0.225 NA
HETATM    8  C   UNL     1     -13.332   2.161 -33.736  1.00  0.00     0.034 A 
HETATM    9  C   UNL     1     -14.233   1.096 -33.704  1.00  0.00     0.002 A 
HETATM   10  C   UNL     1     -13.755  -0.200 -33.575  1.00  0.00     0.002 A 
HETATM   11  C   UNL     1     -12.381  -0.421 -33.482  1.00  0.00     0.034 A 
HETATM   12  C   UNL     1      -8.716   3.618 -33.519  1.00  0.00     0.110 C 
HETATM   13  C   UNL     1      -7.589   2.813 -33.467  1.00  0.00     0.143 C 
ENDROOT
BRANCH   1  14
HETATM   14  N   UNL     1      -7.116   0.487 -32.976  1.00  0.00    -0.176 NA
HETATM   15  C   UNL     1      -6.327   0.170 -33.950  1.00  0.00     0.153 C 
BRANCH  15  16
HETATM   16  C   UNL     1      -5.402  -0.931 -33.800  1.00  0.00     0.011 A 
HETATM   17  C   UNL     1      -5.614  -2.284 -34.221  1.00  0.00     0.004 A 
HETATM   18  C   UNL     1      -6.668  -2.961 -34.871  1.00  0.00     0.014 A 
HETATM   19  C   UNL     1      -4.493  -3.021 -33.834  1.00  0.00     0.043 A 
HETATM   20  C   UNL     1      -6.566  -4.336 -35.107  1.00  0.00     0.001 A 
HETATM   21  C   UNL     1      -5.434  -5.041 -34.709  1.00  0.00     0.002 A 
HETATM   22  C   UNL     1      -4.373  -4.396 -34.065  1.00  0.00     0.030 A 
HETATM   23  N   UNL     1      -3.626  -2.145 -33.219  1.00  0.00    -0.364 N 
HETATM   24  H   UNL     1      -2.729  -2.404 -32.833  1.00  0.00     0.165 HD
HETATM   25  C   UNL     1      -4.168  -0.890 -33.183  1.00  0.00     0.102 A 
ENDBRANCH  15  16
ENDBRANCH   1  14
BRANCH  13  26
HETATM   26  N   UNL     1      -6.277   3.146 -33.408  1.00  0.00    -0.383 N 
HETATM   27  H   UNL     1      -5.700   2.887 -32.607  1.00  0.00     0.157 HD
HETATM   28  H   UNL     1      -5.898   3.874 -34.012  1.00  0.00     0.157 HD
ENDBRANCH  13  26
BRANCH  12  29
HETATM   29  C   UNL     1      -8.729   5.067 -33.378  1.00  0.00     0.262 C 
HETATM   30  N   UNL     1      -8.585   5.479 -32.061  1.00  0.00    -0.323 N 
HETATM   31  H   UNL     1      -9.075   4.887 -31.392  1.00  0.00     0.169 HD
HETATM   32  O   UNL     1      -8.733   5.836 -34.335  1.00  0.00    -0.267 OA
BRANCH  30  33
HETATM   33  C   UNL     1      -7.300   5.856 -31.584  1.00  0.00     0.035 A 
HETATM   34  C   UNL     1      -6.444   6.698 -32.302  1.00  0.00     0.031 A 
HETATM   35  C   UNL     1      -5.131   6.904 -31.865  1.00  0.00     0.026 A 
HETATM   36  C   UNL     1      -4.681   6.283 -30.703  1.00  0.00     0.034 A 
HETATM   37 CL   UNL     1      -3.055   6.503 -30.189  1.00  0.00    -0.084 Cl
HETATM   38  C   UNL     1      -5.538   5.473 -29.961  1.00  0.00     0.026 A 
HETATM   39  C   UNL     1      -6.847   5.262 -30.400  1.00  0.00     0.031 A 
ENDBRANCH  30  33
ENDBRANCH  12  29
TORSDOF 5
ENDMDL
