MODEL 1
REMARK VINA RESULT:      -8.0      0.000      0.000
REMARK  4 active torsions:
REMARK  status: ('A' for Active; 'I' for Inactive)
REMARK    1  A    between atoms: C_4  and  N_5 
REMARK       I    between atoms: N_5  and  C_6 
REMARK    2  A    between atoms: C_6  and  C_7 
REMARK    3  A    between atoms: C_7  and  O_8 
REMARK    4  A    between atoms: O_8  and  C_9 
ROOT
HETATM    1  N   UNL     1      -3.295   2.899 -32.147  1.00  0.00    -0.309 N 
HETATM    2  C   UNL     1      -4.434   2.723 -31.379  1.00  0.00     0.252 C 
HETATM    3  O   UNL     1      -4.864   3.472 -30.508  1.00  0.00    -0.270 OA
HETATM    4  H   UNL     1      -3.053   2.148 -32.776  1.00  0.00     0.170 HD
ENDROOT
BRANCH   2   5
HETATM    5  C   UNL     1      -5.226   1.481 -31.843  1.00  0.00     0.217 C 
HETATM    6  C   UNL     1      -5.626   0.598 -30.670  1.00  0.00     0.050 C 
BRANCH   5   7
HETATM    7  O   UNL     1      -4.404   0.708 -32.725  1.00  0.00    -0.335 OA
BRANCH   7   8
HETATM    8  C   UNL     1      -4.933  -0.379 -33.363  1.00  0.00     0.091 A 
HETATM    9  C   UNL     1      -4.305  -1.617 -33.128  1.00  0.00     0.069 A 
HETATM   10 CL   UNL     1      -2.910  -1.731 -32.112  1.00  0.00    -0.081 Cl
HETATM   11  C   UNL     1      -4.767  -2.784 -33.737  1.00  0.00     0.050 A 
HETATM   12  C   UNL     1      -5.868  -2.721 -34.582  1.00  0.00     0.035 A 
HETATM   13 CL   UNL     1      -6.435  -4.149 -35.354  1.00  0.00    -0.084 Cl
HETATM   14  C   UNL     1      -6.517  -1.507 -34.807  1.00  0.00     0.026 A 
HETATM   15  C   UNL     1      -6.059  -0.339 -34.188  1.00  0.00     0.040 A 
ENDBRANCH   7   8
ENDBRANCH   5   7
ENDBRANCH   2   5
BRANCH   1  16
HETATM   16  C   UNL     1      -2.414   3.983 -32.092  1.00  0.00     0.130 A 
HETATM   17  C   UNL     1      -2.566   4.968 -33.066  1.00  0.00     0.057 A 
HETATM   18  C   UNL     1      -1.737   6.090 -33.042  1.00  0.00    -0.057 A 
HETATM   19  C   UNL     1      -1.897   7.197 -34.041  1.00  0.00     0.048 C 
HETATM   20  C   UNL     1      -0.768   6.176 -32.044  1.00  0.00     0.033 A 
HETATM   21  C   UNL     1      -0.668   5.147 -31.114  1.00  0.00     0.033 A 
HETATM   22  N   UNL     1      -1.486   4.070 -31.127  1.00  0.00    -0.236 NA
HETATM   23  C   UNL     1       0.372   5.202 -30.036  1.00  0.00     0.070 C 
ENDBRANCH   1  16
TORSDOF 4
ENDMDL
MODEL 2
REMARK VINA RESULT:      -7.7      1.169      1.570
REMARK  4 active torsions:
REMARK  status: ('A' for Active; 'I' for Inactive)
REMARK    1  A    between atoms: C_4  and  N_5 
REMARK       I    between atoms: N_5  and  C_6 
REMARK    2  A    between atoms: C_6  and  C_7 
REMARK    3  A    between atoms: C_7  and  O_8 
REMARK    4  A    between atoms: O_8  and  C_9 
ROOT
HETATM    1  N   UNL     1      -3.246   2.856 -32.127  1.00  0.00    -0.309 N 
HETATM    2  C   UNL     1      -4.373   2.652 -31.347  1.00  0.00     0.252 C 
HETATM    3  O   UNL     1      -4.810   3.389 -30.469  1.00  0.00    -0.270 OA
HETATM    4  H   UNL     1      -2.994   2.113 -32.761  1.00  0.00     0.170 HD
ENDROOT
BRANCH   2   5
HETATM    5  C   UNL     1      -5.141   1.393 -31.807  1.00  0.00     0.217 C 
HETATM    6  C   UNL     1      -5.159   0.319 -30.728  1.00  0.00     0.050 C 
BRANCH   5   7
HETATM    7  O   UNL     1      -4.498   0.853 -32.966  1.00  0.00    -0.335 OA
BRANCH   7   8
HETATM    8  C   UNL     1      -4.924  -0.339 -33.481  1.00  0.00     0.091 A 
HETATM    9  C   UNL     1      -6.135  -0.323 -34.198  1.00  0.00     0.069 A 
HETATM   10 CL   UNL     1      -7.047   1.136 -34.373  1.00  0.00    -0.081 Cl
HETATM   11  C   UNL     1      -6.655  -1.490 -34.757  1.00  0.00     0.050 A 
HETATM   12  C   UNL     1      -5.960  -2.684 -34.609  1.00  0.00     0.035 A 
HETATM   13 CL   UNL     1      -6.600  -4.134 -35.277  1.00  0.00    -0.084 Cl
HETATM   14  C   UNL     1      -4.747  -2.715 -33.922  1.00  0.00     0.026 A 
HETATM   15  C   UNL     1      -4.221  -1.542 -33.370  1.00  0.00     0.040 A 
ENDBRANCH   7   8
ENDBRANCH   5   7
ENDBRANCH   2   5
BRANCH   1  16
HETATM   16  C   UNL     1      -2.389   3.959 -32.078  1.00  0.00     0.130 A 
HETATM   17  C   UNL     1      -2.552   4.927 -33.066  1.00  0.00     0.057 A 
HETATM   18  C   UNL     1      -1.748   6.068 -33.049  1.00  0.00    -0.057 A 
HETATM   19  C   UNL     1      -1.921   7.157 -34.064  1.00  0.00     0.048 C 
HETATM   20  C   UNL     1      -0.791   6.187 -32.042  1.00  0.00     0.033 A 
HETATM   21  C   UNL     1      -0.679   5.173 -31.098  1.00  0.00     0.033 A 
HETATM   22  N   UNL     1      -1.473   4.079 -31.105  1.00  0.00    -0.236 NA
HETATM   23  C   UNL     1       0.349   5.265 -30.011  1.00  0.00     0.070 C 
ENDBRANCH   1  16
TORSDOF 4
ENDMDL
MODEL 3
REMARK VINA RESULT:      -7.7      5.235      7.688
REMARK  4 active torsions:
REMARK  status: ('A' for Active; 'I' for Inactive)
REMARK    1  A    between atoms: C_4  and  N_5 
REMARK       I    between atoms: N_5  and  C_6 
REMARK    2  A    between atoms: C_6  and  C_7 
REMARK    3  A    between atoms: C_7  and  O_8 
REMARK    4  A    between atoms: O_8  and  C_9 
ROOT
HETATM    1  N   UNL     1      -9.693   0.982 -33.058  1.00  0.00    -0.309 N 
HETATM    2  C   UNL     1      -8.580   0.463 -33.700  1.00  0.00     0.252 C 
HETATM    3  O   UNL     1      -8.395   0.376 -34.909  1.00  0.00    -0.270 OA
HETATM    4  H   UNL     1      -9.707   0.916 -32.051  1.00  0.00     0.170 HD
ENDROOT
BRANCH   2   5
HETATM    5  C   UNL     1      -7.475   0.102 -32.682  1.00  0.00     0.217 C 
HETATM    6  C   UNL     1      -7.401   1.115 -31.549  1.00  0.00     0.050 C 
BRANCH   5   7
HETATM    7  O   UNL     1      -6.211   0.087 -33.353  1.00  0.00    -0.335 OA
BRANCH   7   8
HETATM    8  C   UNL     1      -5.552  -1.098 -33.529  1.00  0.00     0.091 A 
HETATM    9  C   UNL     1      -4.483  -1.363 -32.653  1.00  0.00     0.069 A 
HETATM   10 CL   UNL     1      -4.014  -0.216 -31.447  1.00  0.00    -0.081 Cl
HETATM   11  C   UNL     1      -3.746  -2.543 -32.756  1.00  0.00     0.050 A 
HETATM   12  C   UNL     1      -4.079  -3.471 -33.735  1.00  0.00     0.035 A 
HETATM   13 CL   UNL     1      -3.166  -4.920 -33.884  1.00  0.00    -0.084 Cl
HETATM   14  C   UNL     1      -5.151  -3.236 -34.595  1.00  0.00     0.026 A 
HETATM   15  C   UNL     1      -5.896  -2.057 -34.485  1.00  0.00     0.040 A 
ENDBRANCH   7   8
ENDBRANCH   5   7
ENDBRANCH   2   5
BRANCH   1  16
HETATM   16  C   UNL     1     -10.826   1.528 -33.668  1.00  0.00     0.130 A 
HETATM   17  C   UNL     1     -11.978   0.745 -33.672  1.00  0.00     0.057 A 
HETATM   18  C   UNL     1     -13.150   1.250 -34.237  1.00  0.00    -0.057 A 
HETATM   19  C   UNL     1     -14.425   0.462 -34.220  1.00  0.00     0.048 C 
HETATM   20  C   UNL     1     -13.117   2.526 -34.796  1.00  0.00     0.033 A 
HETATM   21  C   UNL     1     -11.926   3.243 -34.767  1.00  0.00     0.033 A 
HETATM   22  N   UNL     1     -10.798   2.758 -34.200  1.00  0.00    -0.236 NA
HETATM   23  C   UNL     1     -11.853   4.612 -35.372  1.00  0.00     0.070 C 
ENDBRANCH   1  16
TORSDOF 4
ENDMDL
MODEL 4
REMARK VINA RESULT:      -7.6      1.216      1.352
REMARK  4 active torsions:
REMARK  status: ('A' for Active; 'I' for Inactive)
REMARK    1  A    between atoms: C_4  and  N_5 
REMARK       I    between atoms: N_5  and  C_6 
REMARK    2  A    between atoms: C_6  and  C_7 
REMARK    3  A    between atoms: C_7  and  O_8 
REMARK    4  A    between atoms: O_8  and  C_9 
ROOT
HETATM    1  N   UNL     1      -3.279   4.025 -32.525  1.00  0.00    -0.309 N 
HETATM    2  C   UNL     1      -3.497   2.747 -32.035  1.00  0.00     0.252 C 
HETATM    3  O   UNL     1      -2.875   2.179 -31.143  1.00  0.00    -0.270 OA
HETATM    4  H   UNL     1      -3.846   4.311 -33.309  1.00  0.00     0.170 HD
ENDROOT
BRANCH   2   5
HETATM    5  C   UNL     1      -4.757   2.120 -32.671  1.00  0.00     0.217 C 
HETATM    6  C   UNL     1      -5.988   2.988 -32.455  1.00  0.00     0.050 C 
BRANCH   5   7
HETATM    7  O   UNL     1      -4.997   0.844 -32.067  1.00  0.00    -0.335 OA
BRANCH   7   8
HETATM    8  C   UNL     1      -5.273  -0.237 -32.857  1.00  0.00     0.091 A 
HETATM    9  C   UNL     1      -4.294  -1.247 -32.910  1.00  0.00     0.069 A 
HETATM   10 CL   UNL     1      -2.806  -1.093 -32.044  1.00  0.00    -0.081 Cl
HETATM   11  C   UNL     1      -4.481  -2.388 -33.693  1.00  0.00     0.050 A 
HETATM   12  C   UNL     1      -5.654  -2.527 -34.424  1.00  0.00     0.035 A 
HETATM   13 CL   UNL     1      -5.887  -3.919 -35.406  1.00  0.00    -0.084 Cl
HETATM   14  C   UNL     1      -6.644  -1.548 -34.364  1.00  0.00     0.026 A 
HETATM   15  C   UNL     1      -6.461  -0.409 -33.572  1.00  0.00     0.040 A 
ENDBRANCH   7   8
ENDBRANCH   5   7
ENDBRANCH   2   5
BRANCH   1  16
HETATM   16  C   UNL     1      -2.310   4.931 -32.084  1.00  0.00     0.130 A 
HETATM   17  C   UNL     1      -2.649   6.281 -32.120  1.00  0.00     0.057 A 
HETATM   18  C   UNL     1      -1.735   7.231 -31.662  1.00  0.00    -0.057 A 
HETATM   19  C   UNL     1      -2.075   8.690 -31.637  1.00  0.00     0.048 C 
HETATM   20  C   UNL     1      -0.499   6.787 -31.194  1.00  0.00     0.033 A 
HETATM   21  C   UNL     1      -0.228   5.423 -31.201  1.00  0.00     0.033 A 
HETATM   22  N   UNL     1      -1.123   4.504 -31.627  1.00  0.00    -0.236 NA
HETATM   23  C   UNL     1       1.096   4.915 -30.718  1.00  0.00     0.070 C 
ENDBRANCH   1  16
TORSDOF 4
ENDMDL
MODEL 5
REMARK VINA RESULT:      -7.6      5.238      7.670
REMARK  4 active torsions:
REMARK  status: ('A' for Active; 'I' for Inactive)
REMARK    1  A    between atoms: C_4  and  N_5 
REMARK       I    between atoms: N_5  and  C_6 
REMARK    2  A    between atoms: C_6  and  C_7 
REMARK    3  A    between atoms: C_7  and  O_8 
REMARK    4  A    between atoms: O_8  and  C_9 
ROOT
HETATM    1  N   UNL     1      -9.776   0.937 -33.020  1.00  0.00    -0.309 N 
HETATM    2  C   UNL     1      -8.665   0.443 -33.684  1.00  0.00     0.252 C 
HETATM    3  O   UNL     1      -8.511   0.338 -34.896  1.00  0.00    -0.270 OA
HETATM    4  H   UNL     1      -9.758   0.892 -32.012  1.00  0.00     0.170 HD
ENDROOT
BRANCH   2   5
HETATM    5  C   UNL     1      -7.520   0.139 -32.692  1.00  0.00     0.217 C 
HETATM    6  C   UNL     1      -7.424   1.196 -31.602  1.00  0.00     0.050 C 
BRANCH   5   7
HETATM    7  O   UNL     1      -6.279   0.118 -33.406  1.00  0.00    -0.335 OA
BRANCH   7   8
HETATM    8  C   UNL     1      -5.617  -1.066 -33.576  1.00  0.00     0.091 A 
HETATM    9  C   UNL     1      -4.552  -1.327 -32.694  1.00  0.00     0.069 A 
HETATM   10 CL   UNL     1      -4.092  -0.178 -31.487  1.00  0.00    -0.081 Cl
HETATM   11  C   UNL     1      -3.811  -2.506 -32.791  1.00  0.00     0.050 A 
HETATM   12  C   UNL     1      -4.137  -3.436 -33.770  1.00  0.00     0.035 A 
HETATM   13 CL   UNL     1      -3.220  -4.883 -33.913  1.00  0.00    -0.084 Cl
HETATM   14  C   UNL     1      -5.205  -3.204 -34.637  1.00  0.00     0.026 A 
HETATM   15  C   UNL     1      -5.953  -2.027 -34.533  1.00  0.00     0.040 A 
ENDBRANCH   7   8
ENDBRANCH   5   7
ENDBRANCH   2   5
BRANCH   1  16
HETATM   16  C   UNL     1     -10.943   1.433 -33.607  1.00  0.00     0.130 A 
HETATM   17  C   UNL     1     -10.865   2.692 -34.199  1.00  0.00     0.057 A 
HETATM   18  C   UNL     1     -11.989   3.226 -34.830  1.00  0.00    -0.057 A 
HETATM   19  C   UNL     1     -11.936   4.555 -35.521  1.00  0.00     0.048 C 
HETATM   20  C   UNL     1     -13.164   2.477 -34.831  1.00  0.00     0.033 A 
HETATM   21  C   UNL     1     -13.170   1.233 -34.209  1.00  0.00     0.033 A 
HETATM   22  N   UNL     1     -12.073   0.710 -33.616  1.00  0.00    -0.236 NA
HETATM   23  C   UNL     1     -14.421   0.409 -34.181  1.00  0.00     0.070 C 
ENDBRANCH   1  16
TORSDOF 4
ENDMDL
MODEL 6
REMARK VINA RESULT:      -7.5      4.612      7.533
REMARK  4 active torsions:
REMARK  status: ('A' for Active; 'I' for Inactive)
REMARK    1  A    between atoms: C_4  and  N_5 
REMARK       I    between atoms: N_5  and  C_6 
REMARK    2  A    between atoms: C_6  and  C_7 
REMARK    3  A    between atoms: C_7  and  O_8 
REMARK    4  A    between atoms: O_8  and  C_9 
ROOT
HETATM    1  N   UNL     1      -8.917   1.911 -33.369  1.00  0.00    -0.309 N 
HETATM    2  C   UNL     1      -8.478   2.024 -32.060  1.00  0.00     0.252 C 
HETATM    3  O   UNL     1      -9.163   2.222 -31.063  1.00  0.00    -0.270 OA
HETATM    4  H   UNL     1      -8.206   1.812 -34.078  1.00  0.00     0.170 HD
ENDROOT
BRANCH   2   5
HETATM    5  C   UNL     1      -6.964   1.732 -31.959  1.00  0.00     0.217 C 
HETATM    6  C   UNL     1      -6.183   2.960 -31.516  1.00  0.00     0.050 C 
BRANCH   5   7
HETATM    7  O   UNL     1      -6.480   1.334 -33.246  1.00  0.00    -0.335 OA
BRANCH   7   8
HETATM    8  C   UNL     1      -5.849   0.130 -33.388  1.00  0.00     0.091 A 
HETATM    9  C   UNL     1      -6.323  -0.716 -34.408  1.00  0.00     0.069 A 
HETATM   10 CL   UNL     1      -7.666  -0.255 -35.397  1.00  0.00    -0.081 Cl
HETATM   11  C   UNL     1      -5.748  -1.968 -34.629  1.00  0.00     0.050 A 
HETATM   12  C   UNL     1      -4.687  -2.380 -33.833  1.00  0.00     0.035 A 
HETATM   13 CL   UNL     1      -3.982  -3.928 -34.082  1.00  0.00    -0.084 Cl
HETATM   14  C   UNL     1      -4.188  -1.545 -32.833  1.00  0.00     0.026 A 
HETATM   15  C   UNL     1      -4.759  -0.285 -32.619  1.00  0.00     0.040 A 
ENDBRANCH   7   8
ENDBRANCH   5   7
ENDBRANCH   2   5
BRANCH   1  16
HETATM   16  C   UNL     1     -10.241   1.982 -33.812  1.00  0.00     0.130 A 
HETATM   17  C   UNL     1     -11.047   0.872 -33.570  1.00  0.00     0.057 A 
HETATM   18  C   UNL     1     -12.387   0.898 -33.959  1.00  0.00    -0.057 A 
HETATM   19  C   UNL     1     -13.302  -0.255 -33.675  1.00  0.00     0.048 C 
HETATM   20  C   UNL     1     -12.868   2.041 -34.595  1.00  0.00     0.033 A 
HETATM   21  C   UNL     1     -12.000   3.105 -34.814  1.00  0.00     0.033 A 
HETATM   22  N   UNL     1     -10.708   3.085 -34.417  1.00  0.00    -0.236 NA
HETATM   23  C   UNL     1     -12.483   4.343 -35.507  1.00  0.00     0.070 C 
ENDBRANCH   1  16
TORSDOF 4
ENDMDL
MODEL 7
REMARK VINA RESULT:      -7.2      4.401      7.248
REMARK  4 active torsions:
REMARK  status: ('A' for Active; 'I' for Inactive)
REMARK    1  A    between atoms: C_4  and  N_5 
REMARK       I    between atoms: N_5  and  C_6 
REMARK    2  A    between atoms: C_6  and  C_7 
REMARK    3  A    between atoms: C_7  and  O_8 
REMARK    4  A    between atoms: O_8  and  C_9 
ROOT
HETATM    1  N   UNL     1      -5.675  -0.128 -33.501  1.00  0.00    -0.309 N 
HETATM    2  C   UNL     1      -6.300   0.490 -32.430  1.00  0.00     0.252 C 
HETATM    3  O   UNL     1      -6.592  -0.014 -31.351  1.00  0.00    -0.270 OA
HETATM    4  H   UNL     1      -5.568   0.421 -34.341  1.00  0.00     0.170 HD
ENDROOT
BRANCH   2   5
HETATM    5  C   UNL     1      -6.489   2.000 -32.698  1.00  0.00     0.217 C 
HETATM    6  C   UNL     1      -5.394   2.828 -32.042  1.00  0.00     0.050 C 
BRANCH   5   7
HETATM    7  O   UNL     1      -7.748   2.414 -32.157  1.00  0.00    -0.335 OA
BRANCH   7   8
HETATM    8  C   UNL     1      -8.896   2.181 -32.862  1.00  0.00     0.091 A 
HETATM    9  C   UNL     1      -9.278   3.166 -33.792  1.00  0.00     0.069 A 
HETATM   10 CL   UNL     1      -8.351   4.611 -33.992  1.00  0.00    -0.081 Cl
HETATM   11  C   UNL     1     -10.437   3.022 -34.556  1.00  0.00     0.050 A 
HETATM   12  C   UNL     1     -11.220   1.885 -34.398  1.00  0.00     0.035 A 
HETATM   13 CL   UNL     1     -12.660   1.705 -35.320  1.00  0.00    -0.084 Cl
HETATM   14  C   UNL     1     -10.844   0.888 -33.499  1.00  0.00     0.026 A 
HETATM   15  C   UNL     1      -9.676   1.028 -32.741  1.00  0.00     0.040 A 
ENDBRANCH   7   8
ENDBRANCH   5   7
ENDBRANCH   2   5
BRANCH   1  16
HETATM   16  C   UNL     1      -5.234  -1.453 -33.556  1.00  0.00     0.130 A 
HETATM   17  C   UNL     1      -5.864  -2.289 -34.475  1.00  0.00     0.057 A 
HETATM   18  C   UNL     1      -5.445  -3.614 -34.599  1.00  0.00    -0.057 A 
HETATM   19  C   UNL     1      -6.062  -4.534 -35.608  1.00  0.00     0.048 C 
HETATM   20  C   UNL     1      -4.411  -4.059 -33.777  1.00  0.00     0.033 A 
HETATM   21  C   UNL     1      -3.839  -3.170 -32.874  1.00  0.00     0.033 A 
HETATM   22  N   UNL     1      -4.234  -1.881 -32.771  1.00  0.00    -0.236 NA
HETATM   23  C   UNL     1      -2.735  -3.621 -31.967  1.00  0.00     0.070 C 
ENDBRANCH   1  16
TORSDOF 4
ENDMDL
MODEL 8
REMARK VINA RESULT:      -7.1      3.605      8.360
REMARK  4 active torsions:
REMARK  status: ('A' for Active; 'I' for Inactive)
REMARK    1  A    between atoms: C_4  and  N_5 
REMARK       I    between atoms: N_5  and  C_6 
REMARK    2  A    between atoms: C_6  and  C_7 
REMARK    3  A    between atoms: C_7  and  O_8 
REMARK    4  A    between atoms: O_8  and  C_9 
ROOT
HETATM    1  N   UNL     1      -4.464   2.819 -32.655  1.00  0.00    -0.309 N 
HETATM    2  C   UNL     1      -3.314   3.008 -31.905  1.00  0.00     0.252 C 
HETATM    3  O   UNL     1      -2.800   2.214 -31.123  1.00  0.00    -0.270 OA
HETATM    4  H   UNL     1      -4.781   3.606 -33.201  1.00  0.00     0.170 HD
ENDROOT
BRANCH   2   5
HETATM    5  C   UNL     1      -2.631   4.345 -32.269  1.00  0.00     0.217 C 
HETATM    6  C   UNL     1      -2.289   4.417 -33.750  1.00  0.00     0.050 C 
BRANCH   5   7
HETATM    7  O   UNL     1      -1.415   4.464 -31.523  1.00  0.00    -0.335 OA
BRANCH   7   8
HETATM    8  C   UNL     1      -1.221   5.551 -30.716  1.00  0.00     0.091 A 
HETATM    9  C   UNL     1       0.098   5.793 -30.289  1.00  0.00     0.069 A 
HETATM   10 CL   UNL     1       1.390   4.734 -30.738  1.00  0.00    -0.081 Cl
HETATM   11  C   UNL     1       0.398   6.874 -29.459  1.00  0.00     0.050 A 
HETATM   12  C   UNL     1      -0.623   7.727 -29.057  1.00  0.00     0.035 A 
HETATM   13 CL   UNL     1      -0.270   9.051 -28.019  1.00  0.00    -0.084 Cl
HETATM   14  C   UNL     1      -1.931   7.516 -29.490  1.00  0.00     0.026 A 
HETATM   15  C   UNL     1      -2.229   6.437 -30.330  1.00  0.00     0.040 A 
ENDBRANCH   7   8
ENDBRANCH   5   7
ENDBRANCH   2   5
BRANCH   1  16
HETATM   16  C   UNL     1      -5.261   1.672 -32.681  1.00  0.00     0.130 A 
HETATM   17  C   UNL     1      -4.685   0.516 -33.201  1.00  0.00     0.057 A 
HETATM   18  C   UNL     1      -5.421  -0.670 -33.222  1.00  0.00    -0.057 A 
HETATM   19  C   UNL     1      -4.824  -1.948 -33.728  1.00  0.00     0.048 C 
HETATM   20  C   UNL     1      -6.725  -0.646 -32.730  1.00  0.00     0.033 A 
HETATM   21  C   UNL     1      -7.237   0.549 -32.238  1.00  0.00     0.033 A 
HETATM   22  N   UNL     1      -6.514   1.691 -32.201  1.00  0.00    -0.236 NA
HETATM   23  C   UNL     1      -8.640   0.611 -31.716  1.00  0.00     0.070 C 
ENDBRANCH   1  16
TORSDOF 4
ENDMDL
MODEL 9
REMARK VINA RESULT:      -7.0      5.209      7.761
REMARK  4 active torsions:
REMARK  status: ('A' for Active; 'I' for Inactive)
REMARK    1  A    between atoms: C_4  and  N_5 
REMARK       I    between atoms: N_5  and  C_6 
REMARK    2  A    between atoms: C_6  and  C_7 
REMARK    3  A    between atoms: C_7  and  O_8 
REMARK    4  A    between atoms: O_8  and  C_9 
ROOT
HETATM    1  N   UNL     1      -6.479  -0.079 -34.417  1.00  0.00    -0.309 N 
HETATM    2  C   UNL     1      -7.099   0.686 -33.443  1.00  0.00     0.252 C 
HETATM    3  O   UNL     1      -7.169   0.443 -32.243  1.00  0.00    -0.270 OA
HETATM    4  H   UNL     1      -6.573   0.239 -35.370  1.00  0.00     0.170 HD
ENDROOT
BRANCH   2   5
HETATM    5  C   UNL     1      -7.613   2.018 -34.032  1.00  0.00     0.217 C 
HETATM    6  C   UNL     1      -6.531   3.089 -34.030  1.00  0.00     0.050 C 
BRANCH   5   7
HETATM    7  O   UNL     1      -8.707   2.487 -33.237  1.00  0.00    -0.335 OA
BRANCH   7   8
HETATM    8  C   UNL     1      -9.980   2.087 -33.537  1.00  0.00     0.091 A 
HETATM    9  C   UNL     1     -10.758   2.976 -34.301  1.00  0.00     0.069 A 
HETATM   10 CL   UNL     1     -10.133   4.511 -34.794  1.00  0.00    -0.081 Cl
HETATM   11  C   UNL     1     -12.071   2.661 -34.654  1.00  0.00     0.050 A 
HETATM   12  C   UNL     1     -12.613   1.448 -34.247  1.00  0.00     0.035 A 
HETATM   13 CL   UNL     1     -14.236   1.057 -34.659  1.00  0.00    -0.084 Cl
HETATM   14  C   UNL     1     -11.848   0.545 -33.510  1.00  0.00     0.026 A 
HETATM   15  C   UNL     1     -10.529   0.857 -33.166  1.00  0.00     0.040 A 
ENDBRANCH   7   8
ENDBRANCH   5   7
ENDBRANCH   2   5
BRANCH   1  16
HETATM   16  C   UNL     1      -5.791  -1.280 -34.220  1.00  0.00     0.130 A 
HETATM   17  C   UNL     1      -4.750  -1.264 -33.294  1.00  0.00     0.057 A 
HETATM   18  C   UNL     1      -4.048  -2.441 -33.029  1.00  0.00    -0.057 A 
HETATM   19  C   UNL     1      -2.954  -2.481 -32.006  1.00  0.00     0.048 C 
HETATM   20  C   UNL     1      -4.410  -3.595 -33.721  1.00  0.00     0.033 A 
HETATM   21  C   UNL     1      -5.451  -3.531 -34.640  1.00  0.00     0.033 A 
HETATM   22  N   UNL     1      -6.143  -2.394 -34.879  1.00  0.00    -0.236 NA
HETATM   23  C   UNL     1      -5.855  -4.751 -35.411  1.00  0.00     0.070 C 
ENDBRANCH   1  16
TORSDOF 4
ENDMDL
MODEL 10
REMARK VINA RESULT:      -6.9     16.127     18.301
REMARK  4 active torsions:
REMARK  status: ('A' for Active; 'I' for Inactive)
REMARK    1  A    between atoms: C_4  and  N_5 
REMARK       I    between atoms: N_5  and  C_6 
REMARK    2  A    between atoms: C_6  and  C_7 
REMARK    3  A    between atoms: C_7  and  O_8 
REMARK    4  A    between atoms: O_8  and  C_9 
ROOT
HETATM    1  N   UNL     1      -6.875 -13.025 -39.356  1.00  0.00    -0.309 N 
HETATM    2  C   UNL     1      -6.286 -13.318 -38.137  1.00  0.00     0.252 C 
HETATM    3  O   UNL     1      -6.823 -13.823 -37.157  1.00  0.00    -0.270 OA
HETATM    4  H   UNL     1      -6.299 -12.548 -40.034  1.00  0.00     0.170 HD
ENDROOT
BRANCH   2   5
HETATM    5  C   UNL     1      -4.766 -13.046 -38.179  1.00  0.00     0.217 C 
HETATM    6  C   UNL     1      -4.436 -11.820 -39.018  1.00  0.00     0.050 C 
BRANCH   5   7
HETATM    7  O   UNL     1      -4.108 -14.177 -38.761  1.00  0.00    -0.335 OA
BRANCH   7   8
HETATM    8  C   UNL     1      -2.745 -14.270 -38.704  1.00  0.00     0.091 A 
HETATM    9  C   UNL     1      -2.057 -14.230 -39.931  1.00  0.00     0.069 A 
HETATM   10 CL   UNL     1      -2.911 -14.110 -41.429  1.00  0.00    -0.081 Cl
HETATM   11  C   UNL     1      -0.665 -14.323 -39.977  1.00  0.00     0.050 A 
HETATM   12  C   UNL     1       0.048 -14.449 -38.791  1.00  0.00     0.035 A 
HETATM   13 CL   UNL     1       1.762 -14.584 -38.836  1.00  0.00    -0.084 Cl
HETATM   14  C   UNL     1      -0.616 -14.466 -37.565  1.00  0.00     0.026 A 
HETATM   15  C   UNL     1      -2.010 -14.363 -37.520  1.00  0.00     0.040 A 
ENDBRANCH   7   8
ENDBRANCH   5   7
ENDBRANCH   2   5
BRANCH   1  16
HETATM   16  C   UNL     1      -8.204 -13.266 -39.718  1.00  0.00     0.130 A 
HETATM   17  C   UNL     1      -9.019 -12.152 -39.898  1.00  0.00     0.057 A 
HETATM   18  C   UNL     1     -10.347 -12.329 -40.292  1.00  0.00    -0.057 A 
HETATM   19  C   UNL     1     -11.246 -11.157 -40.545  1.00  0.00     0.048 C 
HETATM   20  C   UNL     1     -10.814 -13.629 -40.476  1.00  0.00     0.033 A 
HETATM   21  C   UNL     1      -9.943 -14.693 -40.264  1.00  0.00     0.033 A 
HETATM   22  N   UNL     1      -8.652 -14.517 -39.902  1.00  0.00    -0.236 NA
HETATM   23  C   UNL     1     -10.418 -16.103 -40.440  1.00  0.00     0.070 C 
ENDBRANCH   1  16
TORSDOF 4
ENDMDL
