MODEL 1
REMARK VINA RESULT:      -8.2      0.000      0.000
REMARK  2 active torsions:
REMARK  status: ('A' for Active; 'I' for Inactive)
REMARK    1  A    between atoms: C_12  and  C_13 
REMARK    2  A    between atoms: C_16  and  O_17 
ROOT
HETATM    1  C   UNL     1      -4.696  -3.734 -34.468  1.00  0.00     0.002 A 
HETATM    2  C   UNL     1      -4.371  -2.415 -34.153  1.00  0.00     0.026 A 
HETATM    3  C   UNL     1      -5.373  -1.445 -34.037  1.00  0.00     0.036 A 
HETATM    4  C   UNL     1      -6.729  -1.809 -34.202  1.00  0.00     0.053 A 
HETATM    5  N   UNL     1      -7.789  -0.884 -34.000  1.00  0.00    -0.356 N 
HETATM    6  C   UNL     1      -7.815  -0.045 -32.900  1.00  0.00     0.041 A 
HETATM    7  C   UNL     1      -6.779   0.474 -32.218  1.00  0.00     0.056 A 
HETATM    8  C   UNL     1      -7.344   1.113 -31.017  1.00  0.00     0.251 A 
HETATM    9  O   UNL     1      -6.728   1.571 -30.075  1.00  0.00    -0.268 OA
HETATM   10  N   UNL     1      -8.709   1.054 -31.124  1.00  0.00    -0.351 N 
HETATM   11  C   UNL     1      -9.131   0.322 -32.269  1.00  0.00     0.180 A 
HETATM   12  C   UNL     1      -5.308   0.425 -32.463  1.00  0.00     0.134 C 
HETATM   13  N   UNL     1      -4.985  -0.107 -33.806  1.00  0.00    -0.278 NA
HETATM   14  C   UNL     1      -7.037  -3.137 -34.540  1.00  0.00     0.031 A 
HETATM   15  C   UNL     1      -6.027  -4.093 -34.671  1.00  0.00     0.002 A 
HETATM   16  H   UNL     1      -8.695  -1.285 -34.231  1.00  0.00     0.166 HD
HETATM   17  H   UNL     1      -9.302   1.385 -30.375  1.00  0.00     0.163 HD
HETATM   18  H   UNL     1      -5.510   0.449 -34.482  1.00  0.00     0.128 HD
ENDROOT
BRANCH  12  19
HETATM   19  C   UNL     1      -4.650   1.805 -32.386  1.00  0.00    -0.035 A 
HETATM   20  C   UNL     1      -5.170   2.877 -33.133  1.00  0.00     0.012 A 
HETATM   21  C   UNL     1      -4.577   4.141 -33.079  1.00  0.00     0.037 A 
HETATM   22  C   UNL     1      -3.463   4.343 -32.271  1.00  0.00     0.065 A 
HETATM   23  C   UNL     1      -2.931   3.303 -31.522  1.00  0.00     0.037 A 
HETATM   24  C   UNL     1      -3.519   2.038 -31.579  1.00  0.00     0.012 A 
BRANCH  22  25
HETATM   25  O   UNL     1      -2.855   5.561 -32.191  1.00  0.00    -0.361 OA
HETATM   26  H   UNL     1      -2.859   5.842 -31.261  1.00  0.00     0.217 HD
ENDBRANCH  22  25
ENDBRANCH  12  19
TORSDOF 2
ENDMDL
MODEL 2
REMARK VINA RESULT:      -8.0      3.450      6.237
REMARK  2 active torsions:
REMARK  status: ('A' for Active; 'I' for Inactive)
REMARK    1  A    between atoms: C_12  and  C_13 
REMARK    2  A    between atoms: C_16  and  O_17 
ROOT
HETATM    1  C   UNL     1      -5.631  -1.348 -34.159  1.00  0.00     0.002 A 
HETATM    2  C   UNL     1      -6.984  -1.046 -34.312  1.00  0.00     0.026 A 
HETATM    3  C   UNL     1      -7.690  -0.410 -33.285  1.00  0.00     0.036 A 
HETATM    4  C   UNL     1      -7.021  -0.037 -32.096  1.00  0.00     0.053 A 
HETATM    5  N   UNL     1      -7.668   0.696 -31.064  1.00  0.00    -0.356 N 
HETATM    6  C   UNL     1      -8.458   1.796 -31.346  1.00  0.00     0.041 A 
HETATM    7  C   UNL     1      -9.193   2.041 -32.445  1.00  0.00     0.056 A 
HETATM    8  C   UNL     1      -9.660   3.433 -32.338  1.00  0.00     0.251 A 
HETATM    9  O   UNL     1     -10.233   4.079 -33.193  1.00  0.00    -0.268 OA
HETATM   10  N   UNL     1      -9.285   3.898 -31.104  1.00  0.00    -0.351 N 
HETATM   11  C   UNL     1      -8.496   2.956 -30.388  1.00  0.00     0.180 A 
HETATM   12  C   UNL     1      -9.494   1.201 -33.641  1.00  0.00     0.134 C 
HETATM   13  N   UNL     1      -9.078  -0.207 -33.453  1.00  0.00    -0.278 NA
HETATM   14  C   UNL     1      -5.665  -0.368 -31.951  1.00  0.00     0.031 A 
HETATM   15  C   UNL     1      -4.974  -1.019 -32.976  1.00  0.00     0.002 A 
HETATM   16  H   UNL     1      -7.071   0.818 -30.250  1.00  0.00     0.166 HD
HETATM   17  H   UNL     1      -9.454   4.860 -30.840  1.00  0.00     0.163 HD
HETATM   18  H   UNL     1      -9.507  -0.532 -32.586  1.00  0.00     0.128 HD
ENDROOT
BRANCH  12  19
HETATM   19  C   UNL     1     -10.988   1.157 -33.972  1.00  0.00    -0.035 A 
HETATM   20  C   UNL     1     -11.828   0.235 -33.322  1.00  0.00     0.012 A 
HETATM   21  C   UNL     1     -13.193   0.179 -33.616  1.00  0.00     0.037 A 
HETATM   22  C   UNL     1     -13.728   1.049 -34.559  1.00  0.00     0.065 A 
HETATM   23  C   UNL     1     -12.923   1.971 -35.213  1.00  0.00     0.037 A 
HETATM   24  C   UNL     1     -11.558   2.025 -34.924  1.00  0.00     0.012 A 
BRANCH  22  25
HETATM   25  O   UNL     1     -15.055   1.026 -34.876  1.00  0.00    -0.361 OA
HETATM   26  H   UNL     1     -15.479   1.797 -34.465  1.00  0.00     0.217 HD
ENDBRANCH  22  25
ENDBRANCH  12  19
TORSDOF 2
ENDMDL
MODEL 3
REMARK VINA RESULT:      -7.8      1.677      2.214
REMARK  2 active torsions:
REMARK  status: ('A' for Active; 'I' for Inactive)
REMARK    1  A    between atoms: C_12  and  C_13 
REMARK    2  A    between atoms: C_16  and  O_17 
ROOT
HETATM    1  C   UNL     1      -3.178  -4.168 -32.423  1.00  0.00     0.002 A 
HETATM    2  C   UNL     1      -3.320  -2.825 -32.074  1.00  0.00     0.026 A 
HETATM    3  C   UNL     1      -4.046  -1.952 -32.891  1.00  0.00     0.036 A 
HETATM    4  C   UNL     1      -4.672  -2.439 -34.062  1.00  0.00     0.053 A 
HETATM    5  N   UNL     1      -5.499  -1.615 -34.873  1.00  0.00    -0.356 N 
HETATM    6  C   UNL     1      -6.457  -0.785 -34.319  1.00  0.00     0.041 A 
HETATM    7  C   UNL     1      -6.445  -0.175 -33.121  1.00  0.00     0.056 A 
HETATM    8  C   UNL     1      -7.786   0.406 -32.932  1.00  0.00     0.251 A 
HETATM    9  O   UNL     1      -8.224   0.916 -31.919  1.00  0.00    -0.268 OA
HETATM   10  N   UNL     1      -8.481   0.222 -34.098  1.00  0.00    -0.351 N 
HETATM   11  C   UNL     1      -7.750  -0.541 -35.050  1.00  0.00     0.180 A 
HETATM   12  C   UNL     1      -5.395  -0.088 -32.065  1.00  0.00     0.134 C 
HETATM   13  N   UNL     1      -4.084  -0.584 -32.541  1.00  0.00    -0.278 NA
HETATM   14  C   UNL     1      -4.501  -3.788 -34.409  1.00  0.00     0.031 A 
HETATM   15  C   UNL     1      -3.759  -4.646 -33.595  1.00  0.00     0.002 A 
HETATM   16  H   UNL     1      -5.810  -2.097 -35.713  1.00  0.00     0.166 HD
HETATM   17  H   UNL     1      -9.452   0.496 -34.171  1.00  0.00     0.163 HD
HETATM   18  H   UNL     1      -3.866  -0.077 -33.399  1.00  0.00     0.128 HD
ENDROOT
BRANCH  12  19
HETATM   19  C   UNL     1      -5.155   1.346 -31.587  1.00  0.00    -0.035 A 
HETATM   20  C   UNL     1      -4.544   2.281 -32.441  1.00  0.00     0.012 A 
HETATM   21  C   UNL     1      -4.312   3.593 -32.018  1.00  0.00     0.037 A 
HETATM   22  C   UNL     1      -4.696   3.980 -30.738  1.00  0.00     0.065 A 
HETATM   23  C   UNL     1      -5.303   3.078 -29.875  1.00  0.00     0.037 A 
HETATM   24  C   UNL     1      -5.531   1.765 -30.295  1.00  0.00     0.012 A 
BRANCH  22  25
HETATM   25  O   UNL     1      -4.487   5.249 -30.286  1.00  0.00    -0.361 OA
HETATM   26  H   UNL     1      -5.252   5.792 -30.539  1.00  0.00     0.217 HD
ENDBRANCH  22  25
ENDBRANCH  12  19
TORSDOF 2
ENDMDL
MODEL 4
REMARK VINA RESULT:      -7.7      2.508      6.082
REMARK  2 active torsions:
REMARK  status: ('A' for Active; 'I' for Inactive)
REMARK    1  A    between atoms: C_12  and  C_13 
REMARK    2  A    between atoms: C_16  and  O_17 
ROOT
HETATM    1  C   UNL     1      -2.322   5.478 -33.220  1.00  0.00     0.002 A 
HETATM    2  C   UNL     1      -2.432   4.088 -33.229  1.00  0.00     0.026 A 
HETATM    3  C   UNL     1      -3.156   3.427 -32.232  1.00  0.00     0.036 A 
HETATM    4  C   UNL     1      -3.812   4.172 -31.225  1.00  0.00     0.053 A 
HETATM    5  N   UNL     1      -4.638   3.556 -30.246  1.00  0.00    -0.356 N 
HETATM    6  C   UNL     1      -5.570   2.593 -30.590  1.00  0.00     0.041 A 
HETATM    7  C   UNL     1      -5.526   1.707 -31.601  1.00  0.00     0.056 A 
HETATM    8  C   UNL     1      -6.851   1.067 -31.658  1.00  0.00     0.251 A 
HETATM    9  O   UNL     1      -7.262   0.314 -32.518  1.00  0.00    -0.268 OA
HETATM   10  N   UNL     1      -7.571   1.517 -30.582  1.00  0.00    -0.351 N 
HETATM   11  C   UNL     1      -6.871   2.508 -29.838  1.00  0.00     0.180 A 
HETATM   12  C   UNL     1      -4.455   1.387 -32.590  1.00  0.00     0.134 C 
HETATM   13  N   UNL     1      -3.162   2.014 -32.234  1.00  0.00    -0.278 NA
HETATM   14  C   UNL     1      -3.672   5.569 -31.218  1.00  0.00     0.031 A 
HETATM   15  C   UNL     1      -2.932   6.218 -32.210  1.00  0.00     0.002 A 
HETATM   16  H   UNL     1      -4.973   4.222 -29.554  1.00  0.00     0.166 HD
HETATM   17  H   UNL     1      -8.538   1.248 -30.456  1.00  0.00     0.163 HD
HETATM   18  H   UNL     1      -2.950   1.739 -31.275  1.00  0.00     0.128 HD
ENDROOT
BRANCH  12  19
HETATM   19  C   UNL     1      -4.180  -0.115 -32.696  1.00  0.00    -0.035 A 
HETATM   20  C   UNL     1      -3.442  -0.770 -31.694  1.00  0.00     0.012 A 
HETATM   21  C   UNL     1      -3.176  -2.139 -31.780  1.00  0.00     0.037 A 
HETATM   22  C   UNL     1      -3.653  -2.865 -32.866  1.00  0.00     0.065 A 
HETATM   23  C   UNL     1      -4.386  -2.244 -33.868  1.00  0.00     0.037 A 
HETATM   24  C   UNL     1      -4.648  -0.874 -33.786  1.00  0.00     0.012 A 
BRANCH  22  25
HETATM   25  O   UNL     1      -3.415  -4.202 -32.988  1.00  0.00    -0.361 OA
HETATM   26  H   UNL     1      -4.259  -4.645 -33.175  1.00  0.00     0.217 HD
ENDBRANCH  22  25
ENDBRANCH  12  19
TORSDOF 2
ENDMDL
MODEL 5
REMARK VINA RESULT:      -7.7      2.273      4.481
REMARK  2 active torsions:
REMARK  status: ('A' for Active; 'I' for Inactive)
REMARK    1  A    between atoms: C_12  and  C_13 
REMARK    2  A    between atoms: C_16  and  O_17 
ROOT
HETATM    1  C   UNL     1      -5.811  -3.417 -35.017  1.00  0.00     0.002 A 
HETATM    2  C   UNL     1      -6.730  -2.457 -34.595  1.00  0.00     0.026 A 
HETATM    3  C   UNL     1      -6.353  -1.465 -33.684  1.00  0.00     0.036 A 
HETATM    4  C   UNL     1      -5.021  -1.411 -33.213  1.00  0.00     0.053 A 
HETATM    5  N   UNL     1      -4.563  -0.368 -32.362  1.00  0.00    -0.356 N 
HETATM    6  C   UNL     1      -4.867   0.958 -32.617  1.00  0.00     0.041 A 
HETATM    7  C   UNL     1      -5.956   1.467 -33.219  1.00  0.00     0.056 A 
HETATM    8  C   UNL     1      -5.686   2.899 -33.435  1.00  0.00     0.251 A 
HETATM    9  O   UNL     1      -6.361   3.680 -34.076  1.00  0.00    -0.268 OA
HETATM   10  N   UNL     1      -4.496   3.189 -32.821  1.00  0.00    -0.351 N 
HETATM   11  C   UNL     1      -3.867   2.033 -32.282  1.00  0.00     0.180 A 
HETATM   12  C   UNL     1      -7.213   0.823 -33.698  1.00  0.00     0.134 C 
HETATM   13  N   UNL     1      -7.343  -0.571 -33.219  1.00  0.00    -0.278 NA
HETATM   14  C   UNL     1      -4.115  -2.398 -33.631  1.00  0.00     0.031 A 
HETATM   15  C   UNL     1      -4.507  -3.394 -34.527  1.00  0.00     0.002 A 
HETATM   16  H   UNL     1      -3.605  -0.518 -32.056  1.00  0.00     0.166 HD
HETATM   17  H   UNL     1      -4.087   4.112 -32.893  1.00  0.00     0.163 HD
HETATM   18  H   UNL     1      -7.237  -0.550 -32.205  1.00  0.00     0.128 HD
ENDROOT
BRANCH  12  19
HETATM   19  C   UNL     1      -8.471   1.553 -33.217  1.00  0.00    -0.035 A 
HETATM   20  C   UNL     1      -9.484   1.888 -34.132  1.00  0.00     0.012 A 
HETATM   21  C   UNL     1     -10.636   2.559 -33.711  1.00  0.00     0.037 A 
HETATM   22  C   UNL     1     -10.783   2.894 -32.369  1.00  0.00     0.065 A 
HETATM   23  C   UNL     1      -9.799   2.572 -31.444  1.00  0.00     0.037 A 
HETATM   24  C   UNL     1      -8.645   1.906 -31.865  1.00  0.00     0.012 A 
BRANCH  22  25
HETATM   25  O   UNL     1     -11.890   3.549 -31.917  1.00  0.00    -0.361 OA
HETATM   26  H   UNL     1     -12.508   2.892 -31.559  1.00  0.00     0.217 HD
ENDBRANCH  22  25
ENDBRANCH  12  19
TORSDOF 2
ENDMDL
MODEL 6
REMARK VINA RESULT:      -7.7      2.547      5.943
REMARK  2 active torsions:
REMARK  status: ('A' for Active; 'I' for Inactive)
REMARK    1  A    between atoms: C_12  and  C_13 
REMARK    2  A    between atoms: C_16  and  O_17 
ROOT
HETATM    1  C   UNL     1      -3.156   3.383 -31.716  1.00  0.00     0.002 A 
HETATM    2  C   UNL     1      -3.445   2.108 -32.200  1.00  0.00     0.026 A 
HETATM    3  C   UNL     1      -4.734   1.579 -32.080  1.00  0.00     0.036 A 
HETATM    4  C   UNL     1      -5.763   2.355 -31.497  1.00  0.00     0.053 A 
HETATM    5  N   UNL     1      -7.109   1.902 -31.439  1.00  0.00    -0.356 N 
HETATM    6  C   UNL     1      -7.725   1.324 -32.536  1.00  0.00     0.041 A 
HETATM    7  C   UNL     1      -7.169   0.605 -33.526  1.00  0.00     0.056 A 
HETATM    8  C   UNL     1      -8.215   0.416 -34.547  1.00  0.00     0.251 A 
HETATM    9  O   UNL     1      -8.074  -0.058 -35.657  1.00  0.00    -0.268 OA
HETATM   10  N   UNL     1      -9.382   0.924 -34.037  1.00  0.00    -0.351 N 
HETATM   11  C   UNL     1      -9.195   1.548 -32.773  1.00  0.00     0.180 A 
HETATM   12  C   UNL     1      -5.779   0.101 -33.723  1.00  0.00     0.134 C 
HETATM   13  N   UNL     1      -4.954   0.249 -32.503  1.00  0.00    -0.278 NA
HETATM   14  C   UNL     1      -5.449   3.628 -30.997  1.00  0.00     0.031 A 
HETATM   15  C   UNL     1      -4.154   4.139 -31.106  1.00  0.00     0.002 A 
HETATM   16  H   UNL     1      -7.706   2.544 -30.925  1.00  0.00     0.166 HD
HETATM   17  H   UNL     1     -10.223   0.951 -34.599  1.00  0.00     0.163 HD
HETATM   18  H   UNL     1      -5.465  -0.198 -31.741  1.00  0.00     0.128 HD
ENDROOT
BRANCH  12  19
HETATM   19  C   UNL     1      -5.735  -1.387 -34.083  1.00  0.00    -0.035 A 
HETATM   20  C   UNL     1      -4.500  -2.028 -34.282  1.00  0.00     0.012 A 
HETATM   21  C   UNL     1      -4.443  -3.384 -34.617  1.00  0.00     0.037 A 
HETATM   22  C   UNL     1      -5.622  -4.109 -34.748  1.00  0.00     0.065 A 
HETATM   23  C   UNL     1      -6.855  -3.502 -34.554  1.00  0.00     0.037 A 
HETATM   24  C   UNL     1      -6.914  -2.146 -34.224  1.00  0.00     0.012 A 
BRANCH  22  25
HETATM   25  O   UNL     1      -5.610  -5.433 -35.074  1.00  0.00    -0.361 OA
HETATM   26  H   UNL     1      -4.720  -5.781 -34.900  1.00  0.00     0.217 HD
ENDBRANCH  22  25
ENDBRANCH  12  19
TORSDOF 2
ENDMDL
MODEL 7
REMARK VINA RESULT:      -7.6      4.799      7.587
REMARK  2 active torsions:
REMARK  status: ('A' for Active; 'I' for Inactive)
REMARK    1  A    between atoms: C_12  and  C_13 
REMARK    2  A    between atoms: C_16  and  O_17 
ROOT
HETATM    1  C   UNL     1      -7.246  -0.763 -33.456  1.00  0.00     0.002 A 
HETATM    2  C   UNL     1      -8.600  -0.452 -33.338  1.00  0.00     0.026 A 
HETATM    3  C   UNL     1      -9.015   0.878 -33.215  1.00  0.00     0.036 A 
HETATM    4  C   UNL     1      -8.060   1.920 -33.246  1.00  0.00     0.053 A 
HETATM    5  N   UNL     1      -8.438   3.290 -33.221  1.00  0.00    -0.356 N 
HETATM    6  C   UNL     1      -9.463   3.772 -34.015  1.00  0.00     0.041 A 
HETATM    7  C   UNL     1     -10.561   3.127 -34.448  1.00  0.00     0.056 A 
HETATM    8  C   UNL     1     -11.209   4.013 -35.431  1.00  0.00     0.251 A 
HETATM    9  O   UNL     1     -12.147   3.739 -36.153  1.00  0.00    -0.268 OA
HETATM   10  N   UNL     1     -10.526   5.201 -35.426  1.00  0.00    -0.351 N 
HETATM   11  C   UNL     1      -9.382   5.164 -34.581  1.00  0.00     0.180 A 
HETATM   12  C   UNL     1     -11.094   1.767 -34.144  1.00  0.00     0.134 C 
HETATM   13  N   UNL     1     -10.389   1.133 -33.007  1.00  0.00    -0.278 NA
HETATM   14  C   UNL     1      -6.700   1.589 -33.343  1.00  0.00     0.031 A 
HETATM   15  C   UNL     1      -6.296   0.256 -33.448  1.00  0.00     0.002 A 
HETATM   16  H   UNL     1      -7.631   3.908 -33.174  1.00  0.00     0.166 HD
HETATM   17  H   UNL     1     -10.767   5.940 -36.073  1.00  0.00     0.163 HD
HETATM   18  H   UNL     1     -10.429   1.790 -32.227  1.00  0.00     0.128 HD
ENDROOT
BRANCH  12  19
HETATM   19  C   UNL     1     -12.577   1.786 -33.763  1.00  0.00    -0.035 A 
HETATM   20  C   UNL     1     -13.484   0.934 -34.418  1.00  0.00     0.012 A 
HETATM   21  C   UNL     1     -14.842   0.943 -34.086  1.00  0.00     0.037 A 
HETATM   22  C   UNL     1     -15.300   1.800 -33.091  1.00  0.00     0.065 A 
HETATM   23  C   UNL     1     -14.426   2.649 -32.427  1.00  0.00     0.037 A 
HETATM   24  C   UNL     1     -13.069   2.645 -32.761  1.00  0.00     0.012 A 
BRANCH  22  25
HETATM   25  O   UNL     1     -16.616   1.840 -32.738  1.00  0.00    -0.361 OA
HETATM   26  H   UNL     1     -17.037   1.018 -33.038  1.00  0.00     0.217 HD
ENDBRANCH  22  25
ENDBRANCH  12  19
TORSDOF 2
ENDMDL
MODEL 8
REMARK VINA RESULT:      -7.5      7.001      9.801
REMARK  2 active torsions:
REMARK  status: ('A' for Active; 'I' for Inactive)
REMARK    1  A    between atoms: C_12  and  C_13 
REMARK    2  A    between atoms: C_16  and  O_17 
ROOT
HETATM    1  C   UNL     1       1.561   8.758 -27.064  1.00  0.00     0.002 A 
HETATM    2  C   UNL     1       1.161   8.209 -28.282  1.00  0.00     0.026 A 
HETATM    3  C   UNL     1      -0.051   7.518 -28.385  1.00  0.00     0.036 A 
HETATM    4  C   UNL     1      -0.896   7.404 -27.257  1.00  0.00     0.053 A 
HETATM    5  N   UNL     1      -2.178   6.796 -27.333  1.00  0.00    -0.356 N 
HETATM    6  C   UNL     1      -3.056   7.088 -28.362  1.00  0.00     0.041 A 
HETATM    7  C   UNL     1      -2.775   7.442 -29.628  1.00  0.00     0.056 A 
HETATM    8  C   UNL     1      -4.049   7.850 -30.244  1.00  0.00     0.251 A 
HETATM    9  O   UNL     1      -4.200   8.370 -31.332  1.00  0.00    -0.268 OA
HETATM   10  N   UNL     1      -5.045   7.584 -29.341  1.00  0.00    -0.351 N 
HETATM   11  C   UNL     1      -4.538   7.117 -28.097  1.00  0.00     0.180 A 
HETATM   12  C   UNL     1      -1.481   7.527 -30.367  1.00  0.00     0.134 C 
HETATM   13  N   UNL     1      -0.368   6.904 -29.617  1.00  0.00    -0.278 NA
HETATM   14  C   UNL     1      -0.467   7.943 -26.034  1.00  0.00     0.031 A 
HETATM   15  C   UNL     1       0.753   8.616 -25.938  1.00  0.00     0.002 A 
HETATM   16  H   UNL     1      -2.624   6.729 -26.421  1.00  0.00     0.166 HD
HETATM   17  H   UNL     1      -6.003   7.843 -29.536  1.00  0.00     0.163 HD
HETATM   18  H   UNL     1      -0.661   5.955 -29.381  1.00  0.00     0.128 HD
ENDROOT
BRANCH  12  19
HETATM   19  C   UNL     1      -1.527   6.815 -31.722  1.00  0.00    -0.035 A 
HETATM   20  C   UNL     1      -1.751   5.428 -31.782  1.00  0.00     0.012 A 
HETATM   21  C   UNL     1      -1.790   4.762 -33.010  1.00  0.00     0.037 A 
HETATM   22  C   UNL     1      -1.610   5.481 -34.187  1.00  0.00     0.065 A 
HETATM   23  C   UNL     1      -1.390   6.851 -34.157  1.00  0.00     0.037 A 
HETATM   24  C   UNL     1      -1.346   7.517 -32.930  1.00  0.00     0.012 A 
BRANCH  22  25
HETATM   25  O   UNL     1      -1.640   4.869 -35.406  1.00  0.00    -0.361 OA
HETATM   26  H   UNL     1      -1.418   3.932 -35.281  1.00  0.00     0.217 HD
ENDBRANCH  22  25
ENDBRANCH  12  19
TORSDOF 2
ENDMDL
MODEL 9
REMARK VINA RESULT:      -7.4      2.544      6.073
REMARK  2 active torsions:
REMARK  status: ('A' for Active; 'I' for Inactive)
REMARK    1  A    between atoms: C_12  and  C_13 
REMARK    2  A    between atoms: C_16  and  O_17 
ROOT
HETATM    1  C   UNL     1      -2.572   5.695 -33.193  1.00  0.00     0.002 A 
HETATM    2  C   UNL     1      -3.150   4.459 -33.479  1.00  0.00     0.026 A 
HETATM    3  C   UNL     1      -3.885   3.776 -32.505  1.00  0.00     0.036 A 
HETATM    4  C   UNL     1      -4.076   4.357 -31.230  1.00  0.00     0.053 A 
HETATM    5  N   UNL     1      -4.893   3.749 -30.238  1.00  0.00    -0.356 N 
HETATM    6  C   UNL     1      -6.141   3.235 -30.545  1.00  0.00     0.041 A 
HETATM    7  C   UNL     1      -6.565   2.703 -31.705  1.00  0.00     0.056 A 
HETATM    8  C   UNL     1      -8.020   2.515 -31.574  1.00  0.00     0.251 A 
HETATM    9  O   UNL     1      -8.796   2.191 -32.451  1.00  0.00    -0.268 OA
HETATM   10  N   UNL     1      -8.359   2.823 -30.283  1.00  0.00    -0.351 N 
HETATM   11  C   UNL     1      -7.253   3.315 -29.535  1.00  0.00     0.180 A 
HETATM   12  C   UNL     1      -5.842   2.387 -32.971  1.00  0.00     0.134 C 
HETATM   13  N   UNL     1      -4.374   2.487 -32.815  1.00  0.00    -0.278 NA
HETATM   14  C   UNL     1      -3.469   5.592 -30.951  1.00  0.00     0.031 A 
HETATM   15  C   UNL     1      -2.722   6.256 -31.927  1.00  0.00     0.002 A 
HETATM   16  H   UNL     1      -4.864   4.256 -29.357  1.00  0.00     0.166 HD
HETATM   17  H   UNL     1      -9.326   2.819 -29.986  1.00  0.00     0.163 HD
HETATM   18  H   UNL     1      -4.116   1.900 -32.022  1.00  0.00     0.128 HD
ENDROOT
BRANCH  12  19
HETATM   19  C   UNL     1      -6.117   0.965 -33.469  1.00  0.00    -0.035 A 
HETATM   20  C   UNL     1      -6.845   0.762 -34.655  1.00  0.00     0.012 A 
HETATM   21  C   UNL     1      -7.109  -0.529 -35.120  1.00  0.00     0.037 A 
HETATM   22  C   UNL     1      -6.641  -1.626 -34.404  1.00  0.00     0.065 A 
HETATM   23  C   UNL     1      -5.918  -1.454 -33.232  1.00  0.00     0.037 A 
HETATM   24  C   UNL     1      -5.657  -0.164 -32.764  1.00  0.00     0.012 A 
BRANCH  22  25
HETATM   25  O   UNL     1      -6.879  -2.902 -34.823  1.00  0.00    -0.361 OA
HETATM   26  H   UNL     1      -6.798  -3.494 -34.057  1.00  0.00     0.217 HD
ENDBRANCH  22  25
ENDBRANCH  12  19
TORSDOF 2
ENDMDL
MODEL 10
REMARK VINA RESULT:      -7.4      1.582      1.666
REMARK  2 active torsions:
REMARK  status: ('A' for Active; 'I' for Inactive)
REMARK    1  A    between atoms: C_12  and  C_13 
REMARK    2  A    between atoms: C_16  and  O_17 
ROOT
HETATM    1  C   UNL     1      -4.507  -2.580 -33.950  1.00  0.00     0.002 A 
HETATM    2  C   UNL     1      -4.513  -1.215 -33.663  1.00  0.00     0.026 A 
HETATM    3  C   UNL     1      -5.647  -0.440 -33.925  1.00  0.00     0.036 A 
HETATM    4  C   UNL     1      -6.811  -1.047 -34.452  1.00  0.00     0.053 A 
HETATM    5  N   UNL     1      -8.018  -0.324 -34.646  1.00  0.00    -0.356 N 
HETATM    6  C   UNL     1      -8.514   0.529 -33.675  1.00  0.00     0.041 A 
HETATM    7  C   UNL     1      -7.834   1.245 -32.763  1.00  0.00     0.056 A 
HETATM    8  C   UNL     1      -8.833   1.806 -31.838  1.00  0.00     0.251 A 
HETATM    9  O   UNL     1      -8.615   2.394 -30.797  1.00  0.00    -0.268 OA
HETATM   10  N   UNL     1     -10.072   1.498 -32.336  1.00  0.00    -0.351 N 
HETATM   11  C   UNL     1     -10.001   0.670 -33.491  1.00  0.00     0.180 A 
HETATM   12  C   UNL     1      -6.370   1.455 -32.561  1.00  0.00     0.134 C 
HETATM   13  N   UNL     1      -5.572   0.953 -33.702  1.00  0.00    -0.278 NA
HETATM   14  C   UNL     1      -6.780  -2.417 -34.755  1.00  0.00     0.031 A 
HETATM   15  C   UNL     1      -5.635  -3.179 -34.505  1.00  0.00     0.002 A 
HETATM   16  H   UNL     1      -8.733  -0.888 -35.100  1.00  0.00     0.166 HD
HETATM   17  H   UNL     1     -10.911   1.738 -31.824  1.00  0.00     0.163 HD
HETATM   18  H   UNL     1      -5.951   1.385 -34.545  1.00  0.00     0.128 HD
ENDROOT
BRANCH  12  19
HETATM   19  C   UNL     1      -6.002   2.933 -32.407  1.00  0.00    -0.035 A 
HETATM   20  C   UNL     1      -6.286   3.843 -33.441  1.00  0.00     0.012 A 
HETATM   21  C   UNL     1      -5.950   5.194 -33.319  1.00  0.00     0.037 A 
HETATM   22  C   UNL     1      -5.333   5.646 -32.158  1.00  0.00     0.065 A 
HETATM   23  C   UNL     1      -5.043   4.770 -31.120  1.00  0.00     0.037 A 
HETATM   24  C   UNL     1      -5.374   3.419 -31.243  1.00  0.00     0.012 A 
BRANCH  22  25
HETATM   25  O   UNL     1      -4.989   6.956 -31.999  1.00  0.00    -0.361 OA
HETATM   26  H   UNL     1      -4.382   7.022 -31.244  1.00  0.00     0.217 HD
ENDBRANCH  22  25
ENDBRANCH  12  19
TORSDOF 2
ENDMDL
