MODEL 1
REMARK VINA RESULT:      -8.8      0.000      0.000
REMARK  9 active torsions:
REMARK  status: ('A' for Active; 'I' for Inactive)
REMARK    1  A    between atoms: O_2  and  C_3 
REMARK    2  A    between atoms: C_6  and  C_7 
REMARK    3  A    between atoms: C_13  and  C_14 
REMARK       I    between atoms: C_14  and  N_15 
REMARK    4  A    between atoms: N_15  and  N_16 
REMARK    5  A    between atoms: N_16  and  C_17 
REMARK    6  A    between atoms: C_17  and  N_18 
REMARK    7  A    between atoms: N_18  and  C_19 
REMARK    8  A    between atoms: C_19  and  C_20 
REMARK    9  A    between atoms: C_27  and  C_28 
ROOT
HETATM    1  C   UNL     1      -8.839   1.078 -33.443  1.00  0.00     0.118 C 
HETATM    2  N   UNL     1      -8.640   1.783 -32.186  1.00  0.00    -0.365 N 
HETATM    3  C   UNL     1      -7.550   1.565 -31.412  1.00  0.00     0.138 A 
HETATM    4  N   UNL     1      -6.702   0.523 -31.680  1.00  0.00    -0.240 N 
HETATM    5  N   UNL     1      -5.736   0.360 -30.761  1.00  0.00    -0.181 NA
HETATM    6  C   UNL     1      -5.962   1.367 -29.909  1.00  0.00     0.160 A 
HETATM    7  C   UNL     1      -7.047   2.198 -30.292  1.00  0.00     0.098 A 
HETATM    8  C   UNL     1      -6.842  -0.370 -32.815  1.00  0.00     0.221 C 
HETATM    9  C   UNL     1      -8.302  -0.363 -33.310  1.00  0.00     0.066 C 
HETATM   10  H   UNL     1      -9.255   2.580 -31.999  1.00  0.00     0.161 HD
ENDROOT
BRANCH   7  11
HETATM   11  C   UNL     1      -7.593   3.394 -29.673  1.00  0.00     0.275 C 
HETATM   12  N   UNL     1      -6.750   4.224 -28.959  1.00  0.00    -0.263 N 
HETATM   13  H   UNL     1      -7.180   5.070 -28.586  1.00  0.00     0.190 HD
HETATM   14  O   UNL     1      -8.779   3.706 -29.784  1.00  0.00    -0.266 OA
BRANCH  12  15
HETATM   15  N   UNL     1      -5.347   4.246 -29.078  1.00  0.00    -0.274 N 
HETATM   16  H   UNL     1      -4.875   3.359 -28.927  1.00  0.00     0.189 HD
BRANCH  15  17
HETATM   17  C   UNL     1      -4.764   5.073 -30.013  1.00  0.00     0.186 C 
HETATM   18  S   UNL     1      -5.077   6.704 -30.198  1.00  0.00    -0.040 SA
BRANCH  17  19
HETATM   19  N   UNL     1      -3.829   4.493 -30.819  1.00  0.00    -0.364 N 
HETATM   20  H   UNL     1      -4.225   3.771 -31.420  1.00  0.00     0.162 HD
BRANCH  19  21
HETATM   21  C   UNL     1      -2.649   5.144 -31.381  1.00  0.00     0.154 C 
BRANCH  21  22
HETATM   22  C   UNL     1      -2.363   4.630 -32.793  1.00  0.00     0.139 C 
HETATM   23  O   UNL     1      -3.538   4.793 -33.617  1.00  0.00    -0.384 OA
HETATM   24  C   UNL     1      -3.133   5.307 -34.894  1.00  0.00     0.168 C 
HETATM   25  C   UNL     1      -1.624   5.204 -34.948  1.00  0.00     0.029 C 
HETATM   26  C   UNL     1      -1.245   5.380 -33.498  1.00  0.00     0.035 C 
ENDBRANCH  21  22
ENDBRANCH  19  21
ENDBRANCH  17  19
ENDBRANCH  15  17
ENDBRANCH  12  15
ENDBRANCH   7  11
BRANCH   1  27
HETATM   27  C   UNL     1     -10.300   1.157 -33.847  1.00  0.00    -0.035 A 
HETATM   28  C   UNL     1     -10.709   2.140 -34.763  1.00  0.00     0.012 A 
HETATM   29  C   UNL     1     -12.043   2.236 -35.178  1.00  0.00     0.037 A 
HETATM   30  C   UNL     1     -12.997   1.351 -34.680  1.00  0.00     0.068 A 
HETATM   31  C   UNL     1     -12.609   0.398 -33.736  1.00  0.00     0.037 A 
HETATM   32  C   UNL     1     -11.278   0.305 -33.316  1.00  0.00     0.012 A 
BRANCH  30  33
HETATM   33  O   UNL     1     -14.321   1.321 -35.017  1.00  0.00    -0.356 OA
HETATM   34  C   UNL     1     -15.212   0.761 -34.059  1.00  0.00     0.210 C 
ENDBRANCH  30  33
ENDBRANCH   1  27
BRANCH   8  35
HETATM   35  C   UNL     1      -5.864   0.025 -33.898  1.00  0.00     0.409 C 
HETATM   36  F   UNL     1      -6.303  -0.261 -35.143  1.00  0.00    -0.169 F 
HETATM   37  F   UNL     1      -5.553   1.339 -33.868  1.00  0.00    -0.169 F 
HETATM   38  F   UNL     1      -4.696  -0.649 -33.736  1.00  0.00    -0.169 F 
ENDBRANCH   8  35
TORSDOF 9
ENDMDL
MODEL 2
REMARK VINA RESULT:      -8.8      3.421      5.629
REMARK  9 active torsions:
REMARK  status: ('A' for Active; 'I' for Inactive)
REMARK    1  A    between atoms: O_2  and  C_3 
REMARK    2  A    between atoms: C_6  and  C_7 
REMARK    3  A    between atoms: C_13  and  C_14 
REMARK       I    between atoms: C_14  and  N_15 
REMARK    4  A    between atoms: N_15  and  N_16 
REMARK    5  A    between atoms: N_16  and  C_17 
REMARK    6  A    between atoms: C_17  and  N_18 
REMARK    7  A    between atoms: N_18  and  C_19 
REMARK    8  A    between atoms: C_19  and  C_20 
REMARK    9  A    between atoms: C_27  and  C_28 
ROOT
HETATM    1  C   UNL     1      -7.142   0.309 -33.431  1.00  0.00     0.118 C 
HETATM    2  N   UNL     1      -6.311   1.313 -32.785  1.00  0.00    -0.365 N 
HETATM    3  C   UNL     1      -6.662   2.622 -32.763  1.00  0.00     0.138 A 
HETATM    4  N   UNL     1      -7.704   3.076 -33.527  1.00  0.00    -0.240 N 
HETATM    5  N   UNL     1      -7.859   4.410 -33.494  1.00  0.00    -0.181 NA
HETATM    6  C   UNL     1      -6.906   4.800 -32.640  1.00  0.00     0.160 A 
HETATM    7  C   UNL     1      -6.159   3.722 -32.096  1.00  0.00     0.098 A 
HETATM    8  C   UNL     1      -8.545   2.224 -34.348  1.00  0.00     0.221 C 
HETATM    9  C   UNL     1      -7.796   0.921 -34.688  1.00  0.00     0.066 C 
HETATM   10  H   UNL     1      -5.550   0.973 -32.190  1.00  0.00     0.161 HD
ENDROOT
BRANCH   7  11
HETATM   11  C   UNL     1      -5.076   3.708 -31.128  1.00  0.00     0.275 C 
HETATM   12  N   UNL     1      -3.811   3.336 -31.543  1.00  0.00    -0.263 N 
HETATM   13  H   UNL     1      -3.083   3.389 -30.832  1.00  0.00     0.190 HD
HETATM   14  O   UNL     1      -5.241   4.041 -29.955  1.00  0.00    -0.266 OA
BRANCH  12  15
HETATM   15  N   UNL     1      -3.367   3.332 -32.880  1.00  0.00    -0.274 N 
HETATM   16  H   UNL     1      -3.946   2.817 -33.537  1.00  0.00     0.189 HD
BRANCH  15  17
HETATM   17  C   UNL     1      -2.753   4.456 -33.388  1.00  0.00     0.186 C 
HETATM   18  S   UNL     1      -3.340   5.405 -34.632  1.00  0.00    -0.040 SA
BRANCH  17  19
HETATM   19  N   UNL     1      -1.587   4.821 -32.784  1.00  0.00    -0.364 N 
HETATM   20  H   UNL     1      -0.766   4.445 -33.257  1.00  0.00     0.162 HD
BRANCH  19  21
HETATM   21  C   UNL     1      -1.336   6.073 -32.076  1.00  0.00     0.154 C 
BRANCH  21  22
HETATM   22  C   UNL     1      -1.009   5.811 -30.604  1.00  0.00     0.139 C 
HETATM   23  O   UNL     1      -0.277   4.572 -30.481  1.00  0.00    -0.384 OA
HETATM   24  C   UNL     1       0.806   4.769 -29.562  1.00  0.00     0.168 C 
HETATM   25  C   UNL     1       0.573   6.106 -28.892  1.00  0.00     0.029 C 
HETATM   26  C   UNL     1      -0.133   6.883 -29.977  1.00  0.00     0.035 C 
ENDBRANCH  21  22
ENDBRANCH  19  21
ENDBRANCH  17  19
ENDBRANCH  15  17
ENDBRANCH  12  15
ENDBRANCH   7  11
BRANCH   1  27
HETATM   27  C   UNL     1      -6.316  -0.934 -33.709  1.00  0.00    -0.035 A 
HETATM   28  C   UNL     1      -6.878  -1.982 -34.456  1.00  0.00     0.012 A 
HETATM   29  C   UNL     1      -6.146  -3.138 -34.752  1.00  0.00     0.037 A 
HETATM   30  C   UNL     1      -4.834  -3.269 -34.301  1.00  0.00     0.068 A 
HETATM   31  C   UNL     1      -4.280  -2.253 -33.522  1.00  0.00     0.037 A 
HETATM   32  C   UNL     1      -5.013  -1.100 -33.220  1.00  0.00     0.012 A 
BRANCH  30  33
HETATM   33  O   UNL     1      -4.004  -4.330 -34.538  1.00  0.00    -0.356 OA
HETATM   34  C   UNL     1      -3.348  -4.893 -33.408  1.00  0.00     0.210 C 
ENDBRANCH  30  33
ENDBRANCH   1  27
BRANCH   8  35
HETATM   35  C   UNL     1      -9.856   1.968 -33.641  1.00  0.00     0.409 C 
HETATM   36  F   UNL     1     -10.409   0.777 -33.957  1.00  0.00    -0.169 F 
HETATM   37  F   UNL     1      -9.743   2.019 -32.295  1.00  0.00    -0.169 F 
HETATM   38  F   UNL     1     -10.763   2.919 -33.986  1.00  0.00    -0.169 F 
ENDBRANCH   8  35
TORSDOF 9
ENDMDL
MODEL 3
REMARK VINA RESULT:      -8.7      3.065      5.114
REMARK  9 active torsions:
REMARK  status: ('A' for Active; 'I' for Inactive)
REMARK    1  A    between atoms: O_2  and  C_3 
REMARK    2  A    between atoms: C_6  and  C_7 
REMARK    3  A    between atoms: C_13  and  C_14 
REMARK       I    between atoms: C_14  and  N_15 
REMARK    4  A    between atoms: N_15  and  N_16 
REMARK    5  A    between atoms: N_16  and  C_17 
REMARK    6  A    between atoms: C_17  and  N_18 
REMARK    7  A    between atoms: N_18  and  C_19 
REMARK    8  A    between atoms: C_19  and  C_20 
REMARK    9  A    between atoms: C_27  and  C_28 
ROOT
HETATM    1  C   UNL     1      -7.176   0.285 -33.350  1.00  0.00     0.118 C 
HETATM    2  N   UNL     1      -6.447   1.211 -32.498  1.00  0.00    -0.365 N 
HETATM    3  C   UNL     1      -6.819   2.508 -32.374  1.00  0.00     0.138 A 
HETATM    4  N   UNL     1      -7.766   3.044 -33.206  1.00  0.00    -0.240 N 
HETATM    5  N   UNL     1      -7.944   4.365 -33.045  1.00  0.00    -0.181 NA
HETATM    6  C   UNL     1      -7.109   4.659 -32.041  1.00  0.00     0.160 A 
HETATM    7  C   UNL     1      -6.418   3.528 -31.532  1.00  0.00     0.098 A 
HETATM    8  C   UNL     1      -8.486   2.289 -34.215  1.00  0.00     0.221 C 
HETATM    9  C   UNL     1      -7.681   1.033 -34.602  1.00  0.00     0.066 C 
HETATM   10  H   UNL     1      -5.760   0.808 -31.855  1.00  0.00     0.161 HD
ENDROOT
BRANCH   7  11
HETATM   11  C   UNL     1      -5.462   3.407 -30.445  1.00  0.00     0.275 C 
HETATM   12  N   UNL     1      -4.464   4.355 -30.323  1.00  0.00    -0.263 N 
HETATM   13  H   UNL     1      -3.851   4.245 -29.516  1.00  0.00     0.190 HD
HETATM   14  O   UNL     1      -5.526   2.502 -29.614  1.00  0.00    -0.266 OA
BRANCH  12  15
HETATM   15  N   UNL     1      -4.491   5.638 -30.905  1.00  0.00    -0.274 N 
HETATM   16  H   UNL     1      -5.413   6.034 -31.061  1.00  0.00     0.189 HD
BRANCH  15  17
HETATM   17  C   UNL     1      -3.506   6.545 -30.580  1.00  0.00     0.186 C 
HETATM   18  S   UNL     1      -3.672   8.208 -30.598  1.00  0.00    -0.040 SA
BRANCH  17  19
HETATM   19  N   UNL     1      -2.316   6.013 -30.180  1.00  0.00    -0.364 N 
HETATM   20  H   UNL     1      -2.421   5.091 -29.759  1.00  0.00     0.162 HD
BRANCH  19  21
HETATM   21  C   UNL     1      -1.018   6.226 -30.814  1.00  0.00     0.154 C 
BRANCH  21  22
HETATM   22  C   UNL     1      -0.891   5.392 -32.090  1.00  0.00     0.139 C 
HETATM   23  O   UNL     1      -1.794   4.266 -32.028  1.00  0.00    -0.384 OA
HETATM   24  C   UNL     1      -2.443   4.129 -33.300  1.00  0.00     0.168 C 
HETATM   25  C   UNL     1      -1.715   5.042 -34.263  1.00  0.00     0.029 C 
HETATM   26  C   UNL     1      -1.254   6.155 -33.353  1.00  0.00     0.035 C 
ENDBRANCH  21  22
ENDBRANCH  19  21
ENDBRANCH  17  19
ENDBRANCH  15  17
ENDBRANCH  12  15
ENDBRANCH   7  11
BRANCH   1  27
HETATM   27  C   UNL     1      -6.304  -0.918 -33.659  1.00  0.00    -0.035 A 
HETATM   28  C   UNL     1      -6.784  -1.913 -34.527  1.00  0.00     0.012 A 
HETATM   29  C   UNL     1      -6.005  -3.029 -34.855  1.00  0.00     0.037 A 
HETATM   30  C   UNL     1      -4.728  -3.173 -34.317  1.00  0.00     0.068 A 
HETATM   31  C   UNL     1      -4.257  -2.213 -33.420  1.00  0.00     0.037 A 
HETATM   32  C   UNL     1      -5.038  -1.101 -33.087  1.00  0.00     0.012 A 
BRANCH  30  33
HETATM   33  O   UNL     1      -3.859  -4.198 -34.571  1.00  0.00    -0.356 OA
HETATM   34  C   UNL     1      -3.411  -4.949 -33.449  1.00  0.00     0.210 C 
ENDBRANCH  30  33
ENDBRANCH   1  27
BRANCH   8  35
HETATM   35  C   UNL     1      -9.870   1.952 -33.708  1.00  0.00     0.409 C 
HETATM   36  F   UNL     1      -9.938   1.863 -32.362  1.00  0.00    -0.169 F 
HETATM   37  F   UNL     1     -10.803   2.845 -34.105  1.00  0.00    -0.169 F 
HETATM   38  F   UNL     1     -10.262   0.747 -34.196  1.00  0.00    -0.169 F 
ENDBRANCH   8  35
TORSDOF 9
ENDMDL
MODEL 4
REMARK VINA RESULT:      -8.7      3.253      5.485
REMARK  9 active torsions:
REMARK  status: ('A' for Active; 'I' for Inactive)
REMARK    1  A    between atoms: O_2  and  C_3 
REMARK    2  A    between atoms: C_6  and  C_7 
REMARK    3  A    between atoms: C_13  and  C_14 
REMARK       I    between atoms: C_14  and  N_15 
REMARK    4  A    between atoms: N_15  and  N_16 
REMARK    5  A    between atoms: N_16  and  C_17 
REMARK    6  A    between atoms: C_17  and  N_18 
REMARK    7  A    between atoms: N_18  and  C_19 
REMARK    8  A    between atoms: C_19  and  C_20 
REMARK    9  A    between atoms: C_27  and  C_28 
ROOT
HETATM    1  C   UNL     1      -7.641   0.416 -33.595  1.00  0.00     0.118 C 
HETATM    2  N   UNL     1      -7.067   1.750 -33.681  1.00  0.00    -0.365 N 
HETATM    3  C   UNL     1      -7.839   2.847 -33.866  1.00  0.00     0.138 A 
HETATM    4  N   UNL     1      -9.165   2.721 -34.188  1.00  0.00    -0.240 N 
HETATM    5  N   UNL     1      -9.771   3.888 -34.456  1.00  0.00    -0.181 NA
HETATM    6  C   UNL     1      -8.799   4.784 -34.250  1.00  0.00     0.160 A 
HETATM    7  C   UNL     1      -7.578   4.203 -33.817  1.00  0.00     0.098 A 
HETATM    8  C   UNL     1      -9.861   1.451 -34.289  1.00  0.00     0.221 C 
HETATM    9  C   UNL     1      -8.849   0.319 -34.552  1.00  0.00     0.066 C 
HETATM   10  H   UNL     1      -6.084   1.850 -33.412  1.00  0.00     0.161 HD
ENDROOT
BRANCH   7  11
HETATM   11  C   UNL     1      -6.309   4.813 -33.460  1.00  0.00     0.275 C 
HETATM   12  N   UNL     1      -5.942   4.866 -32.129  1.00  0.00    -0.263 N 
HETATM   13  H   UNL     1      -5.023   5.264 -31.943  1.00  0.00     0.190 HD
HETATM   14  O   UNL     1      -5.536   5.263 -34.307  1.00  0.00    -0.266 OA
BRANCH  12  15
HETATM   15  N   UNL     1      -6.482   4.058 -31.109  1.00  0.00    -0.274 N 
HETATM   16  H   UNL     1      -7.471   3.843 -31.191  1.00  0.00     0.189 HD
BRANCH  15  17
HETATM   17  C   UNL     1      -5.706   3.064 -30.556  1.00  0.00     0.186 C 
HETATM   18  S   UNL     1      -6.237   1.536 -30.137  1.00  0.00    -0.040 SA
BRANCH  17  19
HETATM   19  N   UNL     1      -4.388   3.366 -30.380  1.00  0.00    -0.364 N 
HETATM   20  H   UNL     1      -4.099   3.304 -29.405  1.00  0.00     0.162 HD
BRANCH  19  21
HETATM   21  C   UNL     1      -3.308   3.114 -31.330  1.00  0.00     0.154 C 
BRANCH  21  22
HETATM   22  C   UNL     1      -2.726   4.427 -31.856  1.00  0.00     0.139 C 
HETATM   23  O   UNL     1      -1.566   4.792 -31.076  1.00  0.00    -0.384 OA
HETATM   24  C   UNL     1      -0.536   5.238 -31.970  1.00  0.00     0.168 C 
HETATM   25  C   UNL     1      -1.179   5.405 -33.330  1.00  0.00     0.029 C 
HETATM   26  C   UNL     1      -2.257   4.349 -33.299  1.00  0.00     0.035 C 
ENDBRANCH  21  22
ENDBRANCH  19  21
ENDBRANCH  17  19
ENDBRANCH  15  17
ENDBRANCH  12  15
ENDBRANCH   7  11
BRANCH   1  27
HETATM   27  C   UNL     1      -6.564  -0.621 -33.854  1.00  0.00    -0.035 A 
HETATM   28  C   UNL     1      -5.260  -0.392 -33.384  1.00  0.00     0.012 A 
HETATM   29  C   UNL     1      -4.240  -1.330 -33.583  1.00  0.00     0.037 A 
HETATM   30  C   UNL     1      -4.505  -2.517 -34.263  1.00  0.00     0.068 A 
HETATM   31  C   UNL     1      -5.785  -2.736 -34.772  1.00  0.00     0.037 A 
HETATM   32  C   UNL     1      -6.804  -1.796 -34.579  1.00  0.00     0.012 A 
BRANCH  30  33
HETATM   33  O   UNL     1      -3.610  -3.523 -34.504  1.00  0.00    -0.356 OA
HETATM   34  C   UNL     1      -3.701  -4.673 -33.671  1.00  0.00     0.210 C 
ENDBRANCH  30  33
ENDBRANCH   1  27
BRANCH   8  35
HETATM   35  C   UNL     1     -10.677   1.216 -33.038  1.00  0.00     0.409 C 
HETATM   36  F   UNL     1     -10.822  -0.092 -32.734  1.00  0.00    -0.169 F 
HETATM   37  F   UNL     1     -10.159   1.832 -31.953  1.00  0.00    -0.169 F 
HETATM   38  F   UNL     1     -11.929   1.717 -33.202  1.00  0.00    -0.169 F 
ENDBRANCH   8  35
TORSDOF 9
ENDMDL
MODEL 5
REMARK VINA RESULT:      -8.6      3.809      5.624
REMARK  9 active torsions:
REMARK  status: ('A' for Active; 'I' for Inactive)
REMARK    1  A    between atoms: O_2  and  C_3 
REMARK    2  A    between atoms: C_6  and  C_7 
REMARK    3  A    between atoms: C_13  and  C_14 
REMARK       I    between atoms: C_14  and  N_15 
REMARK    4  A    between atoms: N_15  and  N_16 
REMARK    5  A    between atoms: N_16  and  C_17 
REMARK    6  A    between atoms: C_17  and  N_18 
REMARK    7  A    between atoms: N_18  and  C_19 
REMARK    8  A    between atoms: C_19  and  C_20 
REMARK    9  A    between atoms: C_27  and  C_28 
ROOT
HETATM    1  C   UNL     1      -6.620   0.882 -33.374  1.00  0.00     0.118 C 
HETATM    2  N   UNL     1      -5.495   1.791 -33.212  1.00  0.00    -0.365 N 
HETATM    3  C   UNL     1      -5.648   3.135 -33.299  1.00  0.00     0.138 A 
HETATM    4  N   UNL     1      -6.823   3.675 -33.748  1.00  0.00    -0.240 N 
HETATM    5  N   UNL     1      -6.786   5.010 -33.892  1.00  0.00    -0.181 NA
HETATM    6  C   UNL     1      -5.553   5.321 -33.474  1.00  0.00     0.160 A 
HETATM    7  C   UNL     1      -4.808   4.198 -33.028  1.00  0.00     0.098 A 
HETATM    8  C   UNL     1      -7.998   2.897 -34.095  1.00  0.00     0.221 C 
HETATM    9  C   UNL     1      -7.587   1.451 -34.435  1.00  0.00     0.066 C 
HETATM   10  H   UNL     1      -4.625   1.393 -32.848  1.00  0.00     0.161 HD
ENDROOT
BRANCH   7  11
HETATM   11  C   UNL     1      -3.467   4.105 -32.478  1.00  0.00     0.275 C 
HETATM   12  N   UNL     1      -3.198   4.705 -31.262  1.00  0.00    -0.263 N 
HETATM   13  H   UNL     1      -2.254   4.568 -30.904  1.00  0.00     0.190 HD
HETATM   14  O   UNL     1      -2.566   3.487 -33.046  1.00  0.00    -0.266 OA
BRANCH  12  15
HETATM   15  N   UNL     1      -4.170   5.075 -30.311  1.00  0.00    -0.274 N 
HETATM   16  H   UNL     1      -4.435   4.355 -29.645  1.00  0.00     0.189 HD
BRANCH  15  17
HETATM   17  C   UNL     1      -4.176   6.362 -29.822  1.00  0.00     0.186 C 
HETATM   18  S   UNL     1      -5.332   7.523 -30.154  1.00  0.00    -0.040 SA
BRANCH  17  19
HETATM   19  N   UNL     1      -3.161   6.679 -28.968  1.00  0.00    -0.364 N 
HETATM   20  H   UNL     1      -2.691   5.855 -28.595  1.00  0.00     0.162 HD
BRANCH  19  21
HETATM   21  C   UNL     1      -2.306   7.860 -29.042  1.00  0.00     0.154 C 
BRANCH  21  22
HETATM   22  C   UNL     1      -0.889   7.481 -29.478  1.00  0.00     0.139 C 
HETATM   23  O   UNL     1      -0.522   6.214 -28.889  1.00  0.00    -0.384 OA
HETATM   24  C   UNL     1       0.125   5.415 -29.889  1.00  0.00     0.168 C 
HETATM   25  C   UNL     1       0.404   6.328 -31.065  1.00  0.00     0.029 C 
HETATM   26  C   UNL     1      -0.741   7.307 -30.980  1.00  0.00     0.035 C 
ENDBRANCH  21  22
ENDBRANCH  19  21
ENDBRANCH  17  19
ENDBRANCH  15  17
ENDBRANCH  12  15
ENDBRANCH   7  11
BRANCH   1  27
HETATM   27  C   UNL     1      -6.108  -0.511 -33.690  1.00  0.00    -0.035 A 
HETATM   28  C   UNL     1      -6.969  -1.441 -34.295  1.00  0.00     0.012 A 
HETATM   29  C   UNL     1      -6.532  -2.730 -34.622  1.00  0.00     0.037 A 
HETATM   30  C   UNL     1      -5.222  -3.117 -34.346  1.00  0.00     0.068 A 
HETATM   31  C   UNL     1      -4.371  -2.215 -33.706  1.00  0.00     0.037 A 
HETATM   32  C   UNL     1      -4.808  -0.929 -33.373  1.00  0.00     0.012 A 
BRANCH  30  33
HETATM   33  O   UNL     1      -4.664  -4.332 -34.633  1.00  0.00    -0.356 OA
HETATM   34  C   UNL     1      -3.621  -4.774 -33.772  1.00  0.00     0.210 C 
ENDBRANCH  30  33
ENDBRANCH   1  27
BRANCH   8  35
HETATM   35  C   UNL     1      -9.003   2.961 -32.967  1.00  0.00     0.409 C 
HETATM   36  F   UNL     1      -9.762   1.849 -32.866  1.00  0.00    -0.169 F 
HETATM   37  F   UNL     1      -8.426   3.171 -31.764  1.00  0.00    -0.169 F 
HETATM   38  F   UNL     1      -9.859   3.996 -33.168  1.00  0.00    -0.169 F 
ENDBRANCH   8  35
TORSDOF 9
ENDMDL
MODEL 6
REMARK VINA RESULT:      -8.6      1.992      2.599
REMARK  9 active torsions:
REMARK  status: ('A' for Active; 'I' for Inactive)
REMARK    1  A    between atoms: O_2  and  C_3 
REMARK    2  A    between atoms: C_6  and  C_7 
REMARK    3  A    between atoms: C_13  and  C_14 
REMARK       I    between atoms: C_14  and  N_15 
REMARK    4  A    between atoms: N_15  and  N_16 
REMARK    5  A    between atoms: N_16  and  C_17 
REMARK    6  A    between atoms: C_17  and  N_18 
REMARK    7  A    between atoms: N_18  and  C_19 
REMARK    8  A    between atoms: C_19  and  C_20 
REMARK    9  A    between atoms: C_27  and  C_28 
ROOT
HETATM    1  C   UNL     1      -8.961   1.267 -33.246  1.00  0.00     0.118 C 
HETATM    2  N   UNL     1      -8.186   1.806 -32.139  1.00  0.00    -0.365 N 
HETATM    3  C   UNL     1      -7.029   1.230 -31.733  1.00  0.00     0.138 A 
HETATM    4  N   UNL     1      -6.655   0.003 -32.213  1.00  0.00    -0.240 N 
HETATM    5  N   UNL     1      -5.549  -0.492 -31.634  1.00  0.00    -0.181 NA
HETATM    6  C   UNL     1      -5.192   0.484 -30.791  1.00  0.00     0.160 A 
HETATM    7  C   UNL     1      -6.042   1.619 -30.848  1.00  0.00     0.098 A 
HETATM    8  C   UNL     1      -7.396  -0.740 -33.216  1.00  0.00     0.221 C 
HETATM    9  C   UNL     1      -8.865  -0.274 -33.234  1.00  0.00     0.066 C 
HETATM   10  H   UNL     1      -8.447   2.736 -31.799  1.00  0.00     0.161 HD
ENDROOT
BRANCH   7  11
HETATM   11  C   UNL     1      -5.990   2.883 -30.134  1.00  0.00     0.275 C 
HETATM   12  N   UNL     1      -4.797   3.579 -30.090  1.00  0.00    -0.263 N 
HETATM   13  H   UNL     1      -4.831   4.480 -29.615  1.00  0.00     0.190 HD
HETATM   14  O   UNL     1      -6.980   3.368 -29.587  1.00  0.00    -0.266 OA
BRANCH  12  15
HETATM   15  N   UNL     1      -3.718   3.392 -30.978  1.00  0.00    -0.274 N 
HETATM   16  H   UNL     1      -3.471   2.428 -31.177  1.00  0.00     0.189 HD
BRANCH  15  17
HETATM   17  C   UNL     1      -3.547   4.273 -32.023  1.00  0.00     0.186 C 
HETATM   18  S   UNL     1      -4.629   5.462 -32.479  1.00  0.00    -0.040 SA
BRANCH  17  19
HETATM   19  N   UNL     1      -2.370   4.167 -32.703  1.00  0.00    -0.364 N 
HETATM   20  H   UNL     1      -2.479   3.703 -33.604  1.00  0.00     0.162 HD
BRANCH  19  21
HETATM   21  C   UNL     1      -1.258   5.113 -32.660  1.00  0.00     0.154 C 
BRANCH  21  22
HETATM   22  C   UNL     1      -1.029   5.620 -31.234  1.00  0.00     0.139 C 
HETATM   23  O   UNL     1      -0.414   4.582 -30.441  1.00  0.00    -0.384 OA
HETATM   24  C   UNL     1       0.635   5.166 -29.656  1.00  0.00     0.168 C 
HETATM   25  C   UNL     1       0.484   6.667 -29.774  1.00  0.00     0.029 C 
HETATM   26  C   UNL     1      -0.096   6.818 -31.159  1.00  0.00     0.035 C 
ENDBRANCH  21  22
ENDBRANCH  19  21
ENDBRANCH  17  19
ENDBRANCH  15  17
ENDBRANCH  12  15
ENDBRANCH   7  11
BRANCH   1  27
HETATM   27  C   UNL     1     -10.382   1.797 -33.180  1.00  0.00    -0.035 A 
HETATM   28  C   UNL     1     -11.426   1.040 -33.736  1.00  0.00     0.012 A 
HETATM   29  C   UNL     1     -12.754   1.481 -33.679  1.00  0.00     0.037 A 
HETATM   30  C   UNL     1     -13.062   2.695 -33.067  1.00  0.00     0.068 A 
HETATM   31  C   UNL     1     -12.028   3.475 -32.550  1.00  0.00     0.037 A 
HETATM   32  C   UNL     1     -10.700   3.038 -32.611  1.00  0.00     0.012 A 
BRANCH  30  33
HETATM   33  O   UNL     1     -14.313   3.228 -32.924  1.00  0.00    -0.356 OA
HETATM   34  C   UNL     1     -15.090   2.750 -31.831  1.00  0.00     0.210 C 
ENDBRANCH  30  33
ENDBRANCH   1  27
BRANCH   8  35
HETATM   35  C   UNL     1      -6.726  -0.587 -34.563  1.00  0.00     0.409 C 
HETATM   36  F   UNL     1      -6.098   0.600 -34.714  1.00  0.00    -0.169 F 
HETATM   37  F   UNL     1      -5.822  -1.560 -34.811  1.00  0.00    -0.169 F 
HETATM   38  F   UNL     1      -7.653  -0.663 -35.553  1.00  0.00    -0.169 F 
ENDBRANCH   8  35
TORSDOF 9
ENDMDL
MODEL 7
REMARK VINA RESULT:      -8.5      4.340      9.544
REMARK  9 active torsions:
REMARK  status: ('A' for Active; 'I' for Inactive)
REMARK    1  A    between atoms: O_2  and  C_3 
REMARK    2  A    between atoms: C_6  and  C_7 
REMARK    3  A    between atoms: C_13  and  C_14 
REMARK       I    between atoms: C_14  and  N_15 
REMARK    4  A    between atoms: N_15  and  N_16 
REMARK    5  A    between atoms: N_16  and  C_17 
REMARK    6  A    between atoms: C_17  and  N_18 
REMARK    7  A    between atoms: N_18  and  C_19 
REMARK    8  A    between atoms: C_19  and  C_20 
REMARK    9  A    between atoms: C_27  and  C_28 
ROOT
HETATM    1  C   UNL     1      -1.616   5.711 -31.430  1.00  0.00     0.118 C 
HETATM    2  N   UNL     1      -2.870   5.175 -30.923  1.00  0.00    -0.365 N 
HETATM    3  C   UNL     1      -3.963   5.051 -31.713  1.00  0.00     0.138 A 
HETATM    4  N   UNL     1      -3.990   5.619 -32.960  1.00  0.00    -0.240 N 
HETATM    5  N   UNL     1      -5.178   5.515 -33.577  1.00  0.00    -0.181 NA
HETATM    6  C   UNL     1      -5.909   4.815 -32.702  1.00  0.00     0.160 A 
HETATM    7  C   UNL     1      -5.189   4.438 -31.538  1.00  0.00     0.098 A 
HETATM    8  C   UNL     1      -2.870   6.321 -33.560  1.00  0.00     0.221 C 
HETATM    9  C   UNL     1      -1.916   6.823 -32.458  1.00  0.00     0.066 C 
HETATM   10  H   UNL     1      -2.844   4.724 -30.004  1.00  0.00     0.161 HD
ENDROOT
BRANCH   7  11
HETATM   11  C   UNL     1      -5.594   3.662 -30.380  1.00  0.00     0.275 C 
HETATM   12  N   UNL     1      -5.864   2.315 -30.536  1.00  0.00    -0.263 N 
HETATM   13  H   UNL     1      -6.099   1.813 -29.682  1.00  0.00     0.190 HD
HETATM   14  O   UNL     1      -5.681   4.157 -29.256  1.00  0.00    -0.266 OA
BRANCH  12  15
HETATM   15  N   UNL     1      -5.427   1.523 -31.616  1.00  0.00    -0.274 N 
HETATM   16  H   UNL     1      -4.626   0.927 -31.432  1.00  0.00     0.189 HD
BRANCH  15  17
HETATM   17  C   UNL     1      -6.356   1.009 -32.493  1.00  0.00     0.186 C 
HETATM   18  S   UNL     1      -7.955   1.480 -32.602  1.00  0.00    -0.040 SA
BRANCH  17  19
HETATM   19  N   UNL     1      -5.896   0.061 -33.359  1.00  0.00    -0.364 N 
HETATM   20  H   UNL     1      -5.389   0.463 -34.146  1.00  0.00     0.162 HD
BRANCH  19  21
HETATM   21  C   UNL     1      -5.468  -1.291 -33.013  1.00  0.00     0.154 C 
BRANCH  21  22
HETATM   22  C   UNL     1      -5.486  -2.201 -34.243  1.00  0.00     0.139 C 
HETATM   23  O   UNL     1      -4.484  -3.232 -34.100  1.00  0.00    -0.384 OA
HETATM   24  C   UNL     1      -5.053  -4.483 -34.513  1.00  0.00     0.168 C 
HETATM   25  C   UNL     1      -6.371  -4.163 -35.185  1.00  0.00     0.029 C 
HETATM   26  C   UNL     1      -6.808  -2.922 -34.446  1.00  0.00     0.035 C 
ENDBRANCH  21  22
ENDBRANCH  19  21
ENDBRANCH  17  19
ENDBRANCH  15  17
ENDBRANCH  12  15
ENDBRANCH   7  11
BRANCH   1  27
HETATM   27  C   UNL     1      -0.749   6.162 -30.269  1.00  0.00    -0.035 A 
HETATM   28  C   UNL     1      -0.738   7.518 -29.902  1.00  0.00     0.012 A 
HETATM   29  C   UNL     1       0.032   7.974 -28.826  1.00  0.00     0.037 A 
HETATM   30  C   UNL     1       0.813   7.080 -28.096  1.00  0.00     0.068 A 
HETATM   31  C   UNL     1       0.843   5.739 -28.478  1.00  0.00     0.037 A 
HETATM   32  C   UNL     1       0.079   5.283 -29.557  1.00  0.00     0.012 A 
BRANCH  30  33
HETATM   33  O   UNL     1       1.589   7.388 -27.014  1.00  0.00    -0.356 OA
HETATM   34  C   UNL     1       0.908   7.810 -25.838  1.00  0.00     0.210 C 
ENDBRANCH  30  33
ENDBRANCH   1  27
BRANCH   8  35
HETATM   35  C   UNL     1      -2.177   5.418 -34.554  1.00  0.00     0.409 C 
HETATM   36  F   UNL     1      -0.994   5.907 -34.986  1.00  0.00    -0.169 F 
HETATM   37  F   UNL     1      -1.950   4.178 -34.067  1.00  0.00    -0.169 F 
HETATM   38  F   UNL     1      -2.955   5.259 -35.656  1.00  0.00    -0.169 F 
ENDBRANCH   8  35
TORSDOF 9
ENDMDL
MODEL 8
REMARK VINA RESULT:      -8.3      2.068      2.529
REMARK  9 active torsions:
REMARK  status: ('A' for Active; 'I' for Inactive)
REMARK    1  A    between atoms: O_2  and  C_3 
REMARK    2  A    between atoms: C_6  and  C_7 
REMARK    3  A    between atoms: C_13  and  C_14 
REMARK       I    between atoms: C_14  and  N_15 
REMARK    4  A    between atoms: N_15  and  N_16 
REMARK    5  A    between atoms: N_16  and  C_17 
REMARK    6  A    between atoms: C_17  and  N_18 
REMARK    7  A    between atoms: N_18  and  C_19 
REMARK    8  A    between atoms: C_19  and  C_20 
REMARK    9  A    between atoms: C_27  and  C_28 
ROOT
HETATM    1  C   UNL     1      -8.416   1.117 -33.242  1.00  0.00     0.118 C 
HETATM    2  N   UNL     1      -7.512   1.761 -32.302  1.00  0.00    -0.365 N 
HETATM    3  C   UNL     1      -6.349   1.180 -31.920  1.00  0.00     0.138 A 
HETATM    4  N   UNL     1      -6.082  -0.124 -32.243  1.00  0.00    -0.240 N 
HETATM    5  N   UNL     1      -4.949  -0.596 -31.698  1.00  0.00    -0.181 NA
HETATM    6  C   UNL     1      -4.466   0.467 -31.045  1.00  0.00     0.160 A 
HETATM    7  C   UNL     1      -5.263   1.632 -31.194  1.00  0.00     0.098 A 
HETATM    8  C   UNL     1      -6.951  -0.957 -33.054  1.00  0.00     0.221 C 
HETATM    9  C   UNL     1      -8.391  -0.409 -33.009  1.00  0.00     0.066 C 
HETATM   10  H   UNL     1      -7.694   2.744 -32.082  1.00  0.00     0.161 HD
ENDROOT
BRANCH   7  11
HETATM   11  C   UNL     1      -5.082   2.980 -30.685  1.00  0.00     0.275 C 
HETATM   12  N   UNL     1      -4.326   3.877 -31.415  1.00  0.00    -0.263 N 
HETATM   13  H   UNL     1      -4.271   4.819 -31.032  1.00  0.00     0.190 HD
HETATM   14  O   UNL     1      -5.601   3.359 -29.634  1.00  0.00    -0.266 OA
BRANCH  12  15
HETATM   15  N   UNL     1      -4.023   3.751 -32.785  1.00  0.00    -0.274 N 
HETATM   16  H   UNL     1      -3.863   2.805 -33.119  1.00  0.00     0.189 HD
BRANCH  15  17
HETATM   17  C   UNL     1      -4.624   4.600 -33.688  1.00  0.00     0.186 C 
HETATM   18  S   UNL     1      -6.270   4.837 -33.853  1.00  0.00    -0.040 SA
BRANCH  17  19
HETATM   19  N   UNL     1      -3.780   5.323 -34.478  1.00  0.00    -0.364 N 
HETATM   20  H   UNL     1      -3.923   6.329 -34.387  1.00  0.00     0.162 HD
BRANCH  19  21
HETATM   21  C   UNL     1      -2.418   4.955 -34.851  1.00  0.00     0.154 C 
BRANCH  21  22
HETATM   22  C   UNL     1      -1.403   5.917 -34.231  1.00  0.00     0.139 C 
HETATM   23  O   UNL     1      -1.950   7.254 -34.208  1.00  0.00    -0.384 OA
HETATM   24  C   UNL     1      -1.660   7.846 -32.934  1.00  0.00     0.168 C 
HETATM   25  C   UNL     1      -0.666   6.935 -32.246  1.00  0.00     0.029 C 
HETATM   26  C   UNL     1      -1.049   5.582 -32.791  1.00  0.00     0.035 C 
ENDBRANCH  21  22
ENDBRANCH  19  21
ENDBRANCH  17  19
ENDBRANCH  15  17
ENDBRANCH  12  15
ENDBRANCH   7  11
BRANCH   1  27
HETATM   27  C   UNL     1      -9.796   1.736 -33.129  1.00  0.00    -0.035 A 
HETATM   28  C   UNL     1      -9.950   2.959 -32.454  1.00  0.00     0.012 A 
HETATM   29  C   UNL     1     -11.201   3.576 -32.343  1.00  0.00     0.037 A 
HETATM   30  C   UNL     1     -12.329   2.977 -32.903  1.00  0.00     0.068 A 
HETATM   31  C   UNL     1     -12.195   1.742 -33.537  1.00  0.00     0.037 A 
HETATM   32  C   UNL     1     -10.946   1.121 -33.643  1.00  0.00     0.012 A 
BRANCH  30  33
HETATM   33  O   UNL     1     -13.599   3.482 -32.886  1.00  0.00    -0.356 OA
HETATM   34  C   UNL     1     -14.355   3.270 -31.699  1.00  0.00     0.210 C 
ENDBRANCH  30  33
ENDBRANCH   1  27
BRANCH   8  35
HETATM   35  C   UNL     1      -6.409  -1.040 -34.462  1.00  0.00     0.409 C 
HETATM   36  F   UNL     1      -7.374  -1.162 -35.399  1.00  0.00    -0.169 F 
HETATM   37  F   UNL     1      -5.652   0.029 -34.796  1.00  0.00    -0.169 F 
HETATM   38  F   UNL     1      -5.609  -2.130 -34.587  1.00  0.00    -0.169 F 
ENDBRANCH   8  35
TORSDOF 9
ENDMDL
MODEL 9
REMARK VINA RESULT:      -8.3      3.352      5.456
REMARK  9 active torsions:
REMARK  status: ('A' for Active; 'I' for Inactive)
REMARK    1  A    between atoms: O_2  and  C_3 
REMARK    2  A    between atoms: C_6  and  C_7 
REMARK    3  A    between atoms: C_13  and  C_14 
REMARK       I    between atoms: C_14  and  N_15 
REMARK    4  A    between atoms: N_15  and  N_16 
REMARK    5  A    between atoms: N_16  and  C_17 
REMARK    6  A    between atoms: C_17  and  N_18 
REMARK    7  A    between atoms: N_18  and  C_19 
REMARK    8  A    between atoms: C_19  and  C_20 
REMARK    9  A    between atoms: C_27  and  C_28 
ROOT
HETATM    1  C   UNL     1      -7.359   0.444 -33.344  1.00  0.00     0.118 C 
HETATM    2  N   UNL     1      -6.608   1.516 -32.709  1.00  0.00    -0.365 N 
HETATM    3  C   UNL     1      -7.073   2.788 -32.676  1.00  0.00     0.138 A 
HETATM    4  N   UNL     1      -8.165   3.150 -33.420  1.00  0.00    -0.240 N 
HETATM    5  N   UNL     1      -8.437   4.465 -33.379  1.00  0.00    -0.181 NA
HETATM    6  C   UNL     1      -7.506   4.936 -32.541  1.00  0.00     0.160 A 
HETATM    7  C   UNL     1      -6.657   3.928 -32.015  1.00  0.00     0.098 A 
HETATM    8  C   UNL     1      -8.943   2.229 -34.229  1.00  0.00     0.221 C 
HETATM    9  C   UNL     1      -8.088   0.998 -34.586  1.00  0.00     0.066 C 
HETATM   10  H   UNL     1      -5.810   1.244 -32.129  1.00  0.00     0.161 HD
ENDROOT
BRANCH   7  11
HETATM   11  C   UNL     1      -5.559   4.008 -31.067  1.00  0.00     0.275 C 
HETATM   12  N   UNL     1      -4.261   3.993 -31.542  1.00  0.00    -0.263 N 
HETATM   13  H   UNL     1      -3.535   4.098 -30.836  1.00  0.00     0.190 HD
HETATM   14  O   UNL     1      -5.746   4.114 -29.855  1.00  0.00    -0.266 OA
BRANCH  12  15
HETATM   15  N   UNL     1      -3.881   4.291 -32.866  1.00  0.00    -0.274 N 
HETATM   16  H   UNL     1      -4.584   4.753 -33.435  1.00  0.00     0.189 HD
BRANCH  15  17
HETATM   17  C   UNL     1      -2.578   4.654 -33.126  1.00  0.00     0.186 C 
HETATM   18  S   UNL     1      -1.970   5.087 -34.621  1.00  0.00    -0.040 SA
BRANCH  17  19
HETATM   19  N   UNL     1      -1.744   4.688 -32.048  1.00  0.00    -0.364 N 
HETATM   20  H   UNL     1      -1.812   3.850 -31.473  1.00  0.00     0.162 HD
BRANCH  19  21
HETATM   21  C   UNL     1      -0.438   5.339 -31.986  1.00  0.00     0.154 C 
BRANCH  21  22
HETATM   22  C   UNL     1      -0.546   6.719 -31.336  1.00  0.00     0.139 C 
HETATM   23  O   UNL     1      -1.061   7.669 -32.294  1.00  0.00    -0.384 OA
HETATM   24  C   UNL     1      -2.047   8.485 -31.645  1.00  0.00     0.168 C 
HETATM   25  C   UNL     1      -1.941   8.200 -30.162  1.00  0.00     0.029 C 
HETATM   26  C   UNL     1      -1.495   6.759 -30.150  1.00  0.00     0.035 C 
ENDBRANCH  21  22
ENDBRANCH  19  21
ENDBRANCH  17  19
ENDBRANCH  15  17
ENDBRANCH  12  15
ENDBRANCH   7  11
BRANCH   1  27
HETATM   27  C   UNL     1      -6.432  -0.721 -33.640  1.00  0.00    -0.035 A 
HETATM   28  C   UNL     1      -5.118  -0.700 -33.143  1.00  0.00     0.012 A 
HETATM   29  C   UNL     1      -4.235  -1.761 -33.376  1.00  0.00     0.037 A 
HETATM   30  C   UNL     1      -4.650  -2.867 -34.116  1.00  0.00     0.068 A 
HETATM   31  C   UNL     1      -5.939  -2.879 -34.651  1.00  0.00     0.037 A 
HETATM   32  C   UNL     1      -6.820  -1.815 -34.425  1.00  0.00     0.012 A 
BRANCH  30  33
HETATM   33  O   UNL     1      -3.900  -3.975 -34.396  1.00  0.00    -0.356 OA
HETATM   34  C   UNL     1      -4.527  -5.237 -34.196  1.00  0.00     0.210 C 
ENDBRANCH  30  33
ENDBRANCH   1  27
BRANCH   8  35
HETATM   35  C   UNL     1     -10.213   1.856 -33.498  1.00  0.00     0.409 C 
HETATM   36  F   UNL     1     -10.080   1.874 -32.154  1.00  0.00    -0.169 F 
HETATM   37  F   UNL     1     -11.253   2.659 -33.814  1.00  0.00    -0.169 F 
HETATM   38  F   UNL     1     -10.587   0.594 -33.833  1.00  0.00    -0.169 F 
ENDBRANCH   8  35
TORSDOF 9
ENDMDL
MODEL 10
REMARK VINA RESULT:      -8.2      1.998      2.268
REMARK  9 active torsions:
REMARK  status: ('A' for Active; 'I' for Inactive)
REMARK    1  A    between atoms: O_2  and  C_3 
REMARK    2  A    between atoms: C_6  and  C_7 
REMARK    3  A    between atoms: C_13  and  C_14 
REMARK       I    between atoms: C_14  and  N_15 
REMARK    4  A    between atoms: N_15  and  N_16 
REMARK    5  A    between atoms: N_16  and  C_17 
REMARK    6  A    between atoms: C_17  and  N_18 
REMARK    7  A    between atoms: N_18  and  C_19 
REMARK    8  A    between atoms: C_19  and  C_20 
REMARK    9  A    between atoms: C_27  and  C_28 
ROOT
HETATM    1  C   UNL     1      -8.776   1.178 -33.437  1.00  0.00     0.118 C 
HETATM    2  N   UNL     1      -7.944   2.367 -33.342  1.00  0.00    -0.365 N 
HETATM    3  C   UNL     1      -6.631   2.293 -33.014  1.00  0.00     0.138 A 
HETATM    4  N   UNL     1      -6.092   1.119 -32.558  1.00  0.00    -0.240 N 
HETATM    5  N   UNL     1      -4.813   1.228 -32.162  1.00  0.00    -0.181 NA
HETATM    6  C   UNL     1      -4.528   2.509 -32.423  1.00  0.00     0.160 A 
HETATM    7  C   UNL     1      -5.605   3.218 -33.016  1.00  0.00     0.098 A 
HETATM    8  C   UNL     1      -6.827  -0.128 -32.452  1.00  0.00     0.221 C 
HETATM    9  C   UNL     1      -8.338   0.161 -32.363  1.00  0.00     0.066 C 
HETATM   10  H   UNL     1      -8.335   3.239 -33.709  1.00  0.00     0.161 HD
ENDROOT
BRANCH   7  11
HETATM   11  C   UNL     1      -5.700   4.593 -33.475  1.00  0.00     0.275 C 
HETATM   12  N   UNL     1      -6.079   5.574 -32.578  1.00  0.00    -0.263 N 
HETATM   13  H   UNL     1      -6.085   6.525 -32.944  1.00  0.00     0.190 HD
HETATM   14  O   UNL     1      -5.430   4.919 -34.631  1.00  0.00    -0.266 OA
BRANCH  12  15
HETATM   15  N   UNL     1      -6.018   5.454 -31.175  1.00  0.00    -0.274 N 
HETATM   16  H   UNL     1      -6.237   4.536 -30.799  1.00  0.00     0.189 HD
BRANCH  15  17
HETATM   17  C   UNL     1      -5.065   6.165 -30.480  1.00  0.00     0.186 C 
HETATM   18  S   UNL     1      -5.255   7.710 -29.873  1.00  0.00    -0.040 SA
BRANCH  17  19
HETATM   19  N   UNL     1      -3.888   5.515 -30.252  1.00  0.00    -0.364 N 
HETATM   20  H   UNL     1      -4.014   4.513 -30.118  1.00  0.00     0.162 HD
BRANCH  19  21
HETATM   21  C   UNL     1      -2.582   5.876 -30.796  1.00  0.00     0.154 C 
BRANCH  21  22
HETATM   22  C   UNL     1      -2.513   5.575 -32.295  1.00  0.00     0.139 C 
HETATM   23  O   UNL     1      -2.989   6.715 -33.043  1.00  0.00    -0.384 OA
HETATM   24  C   UNL     1      -2.106   6.937 -34.151  1.00  0.00     0.168 C 
HETATM   25  C   UNL     1      -1.204   5.725 -34.240  1.00  0.00     0.029 C 
HETATM   26  C   UNL     1      -1.104   5.301 -32.795  1.00  0.00     0.035 C 
ENDBRANCH  21  22
ENDBRANCH  19  21
ENDBRANCH  17  19
ENDBRANCH  15  17
ENDBRANCH  12  15
ENDBRANCH   7  11
BRANCH   1  27
HETATM   27  C   UNL     1     -10.240   1.572 -33.353  1.00  0.00    -0.035 A 
HETATM   28  C   UNL     1     -10.582   2.860 -32.908  1.00  0.00     0.012 A 
HETATM   29  C   UNL     1     -11.918   3.272 -32.835  1.00  0.00     0.037 A 
HETATM   30  C   UNL     1     -12.941   2.400 -33.202  1.00  0.00     0.068 A 
HETATM   31  C   UNL     1     -12.614   1.105 -33.604  1.00  0.00     0.037 A 
HETATM   32  C   UNL     1     -11.280   0.689 -33.672  1.00  0.00     0.012 A 
BRANCH  30  33
HETATM   33  O   UNL     1     -14.278   2.682 -33.198  1.00  0.00    -0.356 OA
HETATM   34  C   UNL     1     -15.000   2.342 -32.020  1.00  0.00     0.210 C 
ENDBRANCH  30  33
ENDBRANCH   1  27
BRANCH   8  35
HETATM   35  C   UNL     1      -6.479  -1.025 -33.618  1.00  0.00     0.409 C 
HETATM   36  F   UNL     1      -6.170  -0.343 -34.742  1.00  0.00    -0.169 F 
HETATM   37  F   UNL     1      -5.448  -1.857 -33.350  1.00  0.00    -0.169 F 
HETATM   38  F   UNL     1      -7.539  -1.817 -33.926  1.00  0.00    -0.169 F 
ENDBRANCH   8  35
TORSDOF 9
ENDMDL
