MODEL 1
REMARK VINA RESULT:      -8.0      0.000      0.000
REMARK  2 active torsions:
REMARK  status: ('A' for Active; 'I' for Inactive)
REMARK    1  A    between atoms: N_10  and  S_11 
REMARK    2  A    between atoms: S_11  and  C_14 
ROOT
HETATM    1  S   UNL     1      -6.287   0.055 -33.468  1.00  0.00     0.245 S 
HETATM    2  O   UNL     1      -7.477  -0.424 -32.795  1.00  0.00    -0.206 OA
HETATM    3  O   UNL     1      -6.384   0.566 -34.814  1.00  0.00    -0.206 OA
ENDROOT
BRANCH   1   4
HETATM    4  N   UNL     1      -5.660   1.349 -32.469  1.00  0.00    -0.201 NA
HETATM    5  C   UNL     1      -6.229   1.379 -31.041  1.00  0.00     0.096 C 
HETATM    6  C   UNL     1      -6.623   0.020 -30.455  1.00  0.00     0.029 C 
HETATM    7  C   UNL     1      -5.148   1.966 -30.099  1.00  0.00     0.252 C 
HETATM    8  N   UNL     1      -5.183   3.465 -29.994  1.00  0.00    -0.074 N 
HETATM    9  H   UNL     1      -5.859   3.724 -29.260  1.00  0.00     0.277 HD
HETATM   10  H   UNL     1      -4.270   3.759 -29.617  1.00  0.00     0.277 HD
HETATM   11  C   UNL     1      -5.480   4.288 -31.197  1.00  0.00     0.233 C 
HETATM   12  C   UNL     1      -4.853   3.728 -32.456  1.00  0.00     0.043 C 
HETATM   13  C   UNL     1      -5.744   2.688 -33.130  1.00  0.00     0.109 C 
ENDBRANCH   1   4
BRANCH   1  14
HETATM   14  C   UNL     1      -5.093  -1.280 -33.375  1.00  0.00     0.088 A 
HETATM   15  C   UNL     1      -3.989  -1.027 -32.536  1.00  0.00     0.026 A 
HETATM   16  C   UNL     1      -3.091  -2.038 -32.219  1.00  0.00     0.002 A 
HETATM   17  C   UNL     1      -3.297  -3.317 -32.717  1.00  0.00     0.014 A 
HETATM   18  C   UNL     1      -4.382  -3.596 -33.562  1.00  0.00    -0.004 A 
HETATM   19  C   UNL     1      -4.560  -4.895 -34.051  1.00  0.00     0.128 A 
HETATM   20  C   UNL     1      -5.304  -2.582 -33.937  1.00  0.00     0.038 A 
HETATM   21  N   UNL     1      -5.542  -5.275 -34.894  1.00  0.00    -0.269 NA
HETATM   22  C   UNL     1      -6.393  -4.308 -35.280  1.00  0.00     0.159 A 
HETATM   23  C   UNL     1      -6.306  -2.991 -34.853  1.00  0.00     0.146 A 
HETATM   24  F   UNL     1      -7.126  -2.110 -35.438  1.00  0.00    -0.204 F 
ENDBRANCH   1  14
TORSDOF 2
ENDMDL
MODEL 2
REMARK VINA RESULT:      -7.6      2.584      3.705
REMARK  2 active torsions:
REMARK  status: ('A' for Active; 'I' for Inactive)
REMARK    1  A    between atoms: N_10  and  S_11 
REMARK    2  A    between atoms: S_11  and  C_14 
ROOT
HETATM    1  S   UNL     1      -8.295   0.595 -32.896  1.00  0.00     0.245 S 
HETATM    2  O   UNL     1      -8.792   0.315 -31.563  1.00  0.00    -0.206 OA
HETATM    3  O   UNL     1      -9.214   0.630 -34.008  1.00  0.00    -0.206 OA
ENDROOT
BRANCH   1   4
HETATM    4  N   UNL     1      -7.538   2.171 -32.802  1.00  0.00    -0.201 NA
HETATM    5  C   UNL     1      -8.514   3.327 -32.530  1.00  0.00     0.096 C 
HETATM    6  C   UNL     1      -9.750   2.970 -31.700  1.00  0.00     0.029 C 
HETATM    7  C   UNL     1      -7.759   4.426 -31.742  1.00  0.00     0.252 C 
HETATM    8  N   UNL     1      -7.046   5.420 -32.617  1.00  0.00    -0.074 N 
HETATM    9  H   UNL     1      -7.712   6.164 -32.874  1.00  0.00     0.277 HD
HETATM   10  H   UNL     1      -6.349   5.893 -32.024  1.00  0.00     0.277 HD
HETATM   11  C   UNL     1      -6.370   4.964 -33.862  1.00  0.00     0.233 C 
HETATM   12  C   UNL     1      -5.693   3.621 -33.698  1.00  0.00     0.043 C 
HETATM   13  C   UNL     1      -6.646   2.458 -33.967  1.00  0.00     0.109 C 
ENDBRANCH   1   4
BRANCH   1  14
HETATM   14  C   UNL     1      -6.976  -0.583 -33.192  1.00  0.00     0.088 A 
HETATM   15  C   UNL     1      -7.184  -1.438 -34.293  1.00  0.00     0.026 A 
HETATM   16  C   UNL     1      -6.167  -2.263 -34.754  1.00  0.00     0.002 A 
HETATM   17  C   UNL     1      -4.924  -2.229 -34.136  1.00  0.00     0.014 A 
HETATM   18  C   UNL     1      -4.691  -1.396 -33.031  1.00  0.00    -0.004 A 
HETATM   19  C   UNL     1      -3.429  -1.388 -32.425  1.00  0.00     0.128 A 
HETATM   20  C   UNL     1      -5.716  -0.562 -32.508  1.00  0.00     0.038 A 
HETATM   21  N   UNL     1      -3.098  -0.658 -31.341  1.00  0.00    -0.269 NA
HETATM   22  C   UNL     1      -4.076   0.104 -30.822  1.00  0.00     0.159 A 
HETATM   23  C   UNL     1      -5.360   0.170 -31.346  1.00  0.00     0.146 A 
HETATM   24  F   UNL     1      -6.268   0.849 -30.636  1.00  0.00    -0.204 F 
ENDBRANCH   1  14
TORSDOF 2
ENDMDL
MODEL 3
REMARK VINA RESULT:      -7.6      2.382      3.543
REMARK  2 active torsions:
REMARK  status: ('A' for Active; 'I' for Inactive)
REMARK    1  A    between atoms: N_10  and  S_11 
REMARK    2  A    between atoms: S_11  and  C_14 
ROOT
HETATM    1  S   UNL     1      -4.697   1.060 -32.323  1.00  0.00     0.245 S 
HETATM    2  O   UNL     1      -3.302   1.260 -32.662  1.00  0.00    -0.206 OA
HETATM    3  O   UNL     1      -5.092   0.987 -30.937  1.00  0.00    -0.206 OA
ENDROOT
BRANCH   1   4
HETATM    4  N   UNL     1      -5.560   2.406 -33.035  1.00  0.00    -0.201 NA
HETATM    5  C   UNL     1      -4.893   3.773 -32.816  1.00  0.00     0.096 C 
HETATM    6  C   UNL     1      -3.366   3.757 -32.705  1.00  0.00     0.029 C 
HETATM    7  C   UNL     1      -5.235   4.681 -34.023  1.00  0.00     0.252 C 
HETATM    8  N   UNL     1      -6.522   5.442 -33.866  1.00  0.00    -0.074 N 
HETATM    9  H   UNL     1      -6.324   6.316 -33.358  1.00  0.00     0.277 HD
HETATM   10  H   UNL     1      -6.803   5.750 -34.809  1.00  0.00     0.277 HD
HETATM   11  C   UNL     1      -7.694   4.794 -33.217  1.00  0.00     0.233 C 
HETATM   12  C   UNL     1      -7.829   3.332 -33.585  1.00  0.00     0.043 C 
HETATM   13  C   UNL     1      -7.009   2.429 -32.667  1.00  0.00     0.109 C 
ENDBRANCH   1   4
BRANCH   1  14
HETATM   14  C   UNL     1      -5.219  -0.406 -33.215  1.00  0.00     0.088 A 
HETATM   15  C   UNL     1      -6.219  -0.182 -34.183  1.00  0.00     0.026 A 
HETATM   16  C   UNL     1      -6.579  -1.182 -35.077  1.00  0.00     0.002 A 
HETATM   17  C   UNL     1      -5.930  -2.408 -35.030  1.00  0.00     0.014 A 
HETATM   18  C   UNL     1      -4.937  -2.662 -34.071  1.00  0.00    -0.004 A 
HETATM   19  C   UNL     1      -4.304  -3.910 -34.047  1.00  0.00     0.128 A 
HETATM   20  C   UNL     1      -4.564  -1.677 -33.118  1.00  0.00     0.038 A 
HETATM   21  N   UNL     1      -3.363  -4.281 -33.154  1.00  0.00    -0.269 NA
HETATM   22  C   UNL     1      -3.035  -3.363 -32.228  1.00  0.00     0.159 A 
HETATM   23  C   UNL     1      -3.601  -2.098 -32.165  1.00  0.00     0.146 A 
HETATM   24  F   UNL     1      -3.291  -1.350 -31.100  1.00  0.00    -0.204 F 
ENDBRANCH   1  14
TORSDOF 2
ENDMDL
MODEL 4
REMARK VINA RESULT:      -7.2      3.610      4.931
REMARK  2 active torsions:
REMARK  status: ('A' for Active; 'I' for Inactive)
REMARK    1  A    between atoms: N_10  and  S_11 
REMARK    2  A    between atoms: S_11  and  C_14 
ROOT
HETATM    1  S   UNL     1      -7.263   1.866 -32.753  1.00  0.00     0.245 S 
HETATM    2  O   UNL     1      -6.424   2.777 -33.506  1.00  0.00    -0.206 OA
HETATM    3  O   UNL     1      -7.406   2.039 -31.327  1.00  0.00    -0.206 OA
ENDROOT
BRANCH   1   4
HETATM    4  N   UNL     1      -8.862   2.000 -33.451  1.00  0.00    -0.201 NA
HETATM    5  C   UNL     1      -9.388   3.441 -33.558  1.00  0.00     0.096 C 
HETATM    6  C   UNL     1      -8.323   4.522 -33.757  1.00  0.00     0.029 C 
HETATM    7  C   UNL     1     -10.332   3.525 -34.783  1.00  0.00     0.252 C 
HETATM    8  N   UNL     1     -11.762   3.177 -34.474  1.00  0.00    -0.074 N 
HETATM    9  H   UNL     1     -12.239   4.027 -34.139  1.00  0.00     0.277 HD
HETATM   10  H   UNL     1     -12.218   2.963 -35.372  1.00  0.00     0.277 HD
HETATM   11  C   UNL     1     -12.069   2.077 -33.520  1.00  0.00     0.233 C 
HETATM   12  C   UNL     1     -11.116   0.908 -33.651  1.00  0.00     0.043 C 
HETATM   13  C   UNL     1      -9.859   1.091 -32.805  1.00  0.00     0.109 C 
ENDBRANCH   1   4
BRANCH   1  14
HETATM   14  C   UNL     1      -6.678   0.215 -33.142  1.00  0.00     0.088 A 
HETATM   15  C   UNL     1      -7.435  -0.464 -34.118  1.00  0.00     0.026 A 
HETATM   16  C   UNL     1      -6.988  -1.665 -34.654  1.00  0.00     0.002 A 
HETATM   17  C   UNL     1      -5.772  -2.189 -34.239  1.00  0.00     0.014 A 
HETATM   18  C   UNL     1      -5.002  -1.539 -33.262  1.00  0.00    -0.004 A 
HETATM   19  C   UNL     1      -3.782  -2.097 -32.861  1.00  0.00     0.128 A 
HETATM   20  C   UNL     1      -5.440  -0.327 -32.665  1.00  0.00     0.038 A 
HETATM   21  N   UNL     1      -2.975  -1.583 -31.910  1.00  0.00    -0.269 NA
HETATM   22  C   UNL     1      -3.405  -0.456 -31.318  1.00  0.00     0.159 A 
HETATM   23  C   UNL     1      -4.597   0.177 -31.641  1.00  0.00     0.146 A 
HETATM   24  F   UNL     1      -4.968   1.200 -30.864  1.00  0.00    -0.204 F 
ENDBRANCH   1  14
TORSDOF 2
ENDMDL
MODEL 5
REMARK VINA RESULT:      -7.1      2.806      4.029
REMARK  2 active torsions:
REMARK  status: ('A' for Active; 'I' for Inactive)
REMARK    1  A    between atoms: N_10  and  S_11 
REMARK    2  A    between atoms: S_11  and  C_14 
ROOT
HETATM    1  S   UNL     1      -5.808   2.002 -31.857  1.00  0.00     0.245 S 
HETATM    2  O   UNL     1      -4.509   2.451 -32.317  1.00  0.00    -0.206 OA
HETATM    3  O   UNL     1      -5.981   1.609 -30.479  1.00  0.00    -0.206 OA
ENDROOT
BRANCH   1   4
HETATM    4  N   UNL     1      -6.907   3.332 -32.155  1.00  0.00    -0.201 NA
HETATM    5  C   UNL     1      -6.347   4.420 -33.086  1.00  0.00     0.096 C 
HETATM    6  C   UNL     1      -5.350   3.939 -34.144  1.00  0.00     0.029 C 
HETATM    7  C   UNL     1      -7.530   5.057 -33.857  1.00  0.00     0.252 C 
HETATM    8  N   UNL     1      -8.177   6.206 -33.134  1.00  0.00    -0.074 N 
HETATM    9  H   UNL     1      -7.659   7.067 -33.363  1.00  0.00     0.277 HD
HETATM   10  H   UNL     1      -9.104   6.343 -33.562  1.00  0.00     0.277 HD
HETATM   11  C   UNL     1      -8.345   6.155 -31.657  1.00  0.00     0.233 C 
HETATM   12  C   UNL     1      -8.707   4.773 -31.159  1.00  0.00     0.043 C 
HETATM   13  C   UNL     1      -7.473   3.912 -30.899  1.00  0.00     0.109 C 
ENDBRANCH   1   4
BRANCH   1  14
HETATM   14  C   UNL     1      -6.299   0.681 -32.966  1.00  0.00     0.088 A 
HETATM   15  C   UNL     1      -7.394   0.987 -33.799  1.00  0.00     0.026 A 
HETATM   16  C   UNL     1      -7.758   0.136 -34.835  1.00  0.00     0.002 A 
HETATM   17  C   UNL     1      -7.019  -1.017 -35.065  1.00  0.00     0.014 A 
HETATM   18  C   UNL     1      -5.930  -1.351 -34.245  1.00  0.00    -0.004 A 
HETATM   19  C   UNL     1      -5.209  -2.524 -34.500  1.00  0.00     0.128 A 
HETATM   20  C   UNL     1      -5.547  -0.525 -33.155  1.00  0.00     0.038 A 
HETATM   21  N   UNL     1      -4.169  -2.965 -33.764  1.00  0.00    -0.269 NA
HETATM   22  C   UNL     1      -3.828  -2.204 -32.709  1.00  0.00     0.159 A 
HETATM   23  C   UNL     1      -4.477  -1.024 -32.370  1.00  0.00     0.146 A 
HETATM   24  F   UNL     1      -4.129  -0.455 -31.210  1.00  0.00    -0.204 F 
ENDBRANCH   1  14
TORSDOF 2
ENDMDL
MODEL 6
REMARK VINA RESULT:      -7.0      2.068      2.577
REMARK  2 active torsions:
REMARK  status: ('A' for Active; 'I' for Inactive)
REMARK    1  A    between atoms: N_10  and  S_11 
REMARK    2  A    between atoms: S_11  and  C_14 
ROOT
HETATM    1  S   UNL     1      -6.453   1.002 -30.975  1.00  0.00     0.245 S 
HETATM    2  O   UNL     1      -6.051   1.128 -29.588  1.00  0.00    -0.206 OA
HETATM    3  O   UNL     1      -7.779   0.531 -31.294  1.00  0.00    -0.206 OA
ENDROOT
BRANCH   1   4
HETATM    4  N   UNL     1      -6.294   2.603 -31.666  1.00  0.00    -0.201 NA
HETATM    5  C   UNL     1      -7.515   3.511 -31.449  1.00  0.00     0.096 C 
HETATM    6  C   UNL     1      -8.311   3.257 -30.166  1.00  0.00     0.029 C 
HETATM    7  C   UNL     1      -7.024   4.978 -31.378  1.00  0.00     0.252 C 
HETATM    8  N   UNL     1      -6.936   5.655 -32.717  1.00  0.00    -0.074 N 
HETATM    9  H   UNL     1      -7.860   6.051 -32.944  1.00  0.00     0.277 HD
HETATM   10  H   UNL     1      -6.326   6.476 -32.596  1.00  0.00     0.277 HD
HETATM   11  C   UNL     1      -6.465   4.893 -33.905  1.00  0.00     0.233 C 
HETATM   12  C   UNL     1      -5.343   3.932 -33.574  1.00  0.00     0.043 C 
HETATM   13  C   UNL     1      -5.866   2.578 -33.099  1.00  0.00     0.109 C 
ENDBRANCH   1   4
BRANCH   1  14
HETATM   14  C   UNL     1      -5.204  -0.016 -31.763  1.00  0.00     0.088 A 
HETATM   15  C   UNL     1      -3.942   0.007 -31.136  1.00  0.00     0.026 A 
HETATM   16  C   UNL     1      -2.942  -0.877 -31.520  1.00  0.00     0.002 A 
HETATM   17  C   UNL     1      -3.197  -1.807 -32.518  1.00  0.00     0.014 A 
HETATM   18  C   UNL     1      -4.442  -1.846 -33.167  1.00  0.00    -0.004 A 
HETATM   19  C   UNL     1      -4.666  -2.793 -34.173  1.00  0.00     0.128 A 
HETATM   20  C   UNL     1      -5.479  -0.938 -32.826  1.00  0.00     0.038 A 
HETATM   21  N   UNL     1      -5.804  -2.904 -34.888  1.00  0.00    -0.269 NA
HETATM   22  C   UNL     1      -6.774  -2.021 -34.593  1.00  0.00     0.159 A 
HETATM   23  C   UNL     1      -6.653  -1.044 -33.614  1.00  0.00     0.146 A 
HETATM   24  F   UNL     1      -7.637  -0.141 -33.537  1.00  0.00    -0.204 F 
ENDBRANCH   1  14
TORSDOF 2
ENDMDL
MODEL 7
REMARK VINA RESULT:      -7.0      2.483      3.540
REMARK  2 active torsions:
REMARK  status: ('A' for Active; 'I' for Inactive)
REMARK    1  A    between atoms: N_10  and  S_11 
REMARK    2  A    between atoms: S_11  and  C_14 
ROOT
HETATM    1  S   UNL     1      -7.484   2.039 -32.083  1.00  0.00     0.245 S 
HETATM    2  O   UNL     1      -7.917   1.520 -30.801  1.00  0.00    -0.206 OA
HETATM    3  O   UNL     1      -8.339   2.946 -32.811  1.00  0.00    -0.206 OA
ENDROOT
BRANCH   1   4
HETATM    4  N   UNL     1      -5.982   2.882 -31.775  1.00  0.00    -0.201 NA
HETATM    5  C   UNL     1      -6.133   4.160 -30.933  1.00  0.00     0.096 C 
HETATM    6  C   UNL     1      -7.282   4.156 -29.922  1.00  0.00     0.029 C 
HETATM    7  C   UNL     1      -4.832   4.362 -30.118  1.00  0.00     0.252 C 
HETATM    8  N   UNL     1      -3.771   5.138 -30.848  1.00  0.00    -0.074 N 
HETATM    9  H   UNL     1      -3.938   6.143 -30.693  1.00  0.00     0.277 HD
HETATM   10  H   UNL     1      -2.879   4.949 -30.368  1.00  0.00     0.277 HD
HETATM   11  C   UNL     1      -3.570   4.930 -32.307  1.00  0.00     0.233 C 
HETATM   12  C   UNL     1      -3.731   3.481 -32.717  1.00  0.00     0.043 C 
HETATM   13  C   UNL     1      -5.185   3.126 -33.017  1.00  0.00     0.109 C 
ENDBRANCH   1   4
BRANCH   1  14
HETATM   14  C   UNL     1      -7.067   0.610 -33.082  1.00  0.00     0.088 A 
HETATM   15  C   UNL     1      -7.813   0.483 -34.271  1.00  0.00     0.026 A 
HETATM   16  C   UNL     1      -7.468  -0.460 -35.230  1.00  0.00     0.002 A 
HETATM   17  C   UNL     1      -6.361  -1.272 -35.023  1.00  0.00     0.014 A 
HETATM   18  C   UNL     1      -5.605  -1.175 -33.845  1.00  0.00    -0.004 A 
HETATM   19  C   UNL     1      -4.497  -2.011 -33.664  1.00  0.00     0.128 A 
HETATM   20  C   UNL     1      -5.946  -0.246 -32.826  1.00  0.00     0.038 A 
HETATM   21  N   UNL     1      -3.718  -2.033 -32.563  1.00  0.00    -0.269 NA
HETATM   22  C   UNL     1      -4.062  -1.181 -31.582  1.00  0.00     0.159 A 
HETATM   23  C   UNL     1      -5.139  -0.310 -31.661  1.00  0.00     0.146 A 
HETATM   24  F   UNL     1      -5.451   0.367 -30.550  1.00  0.00    -0.204 F 
ENDBRANCH   1  14
TORSDOF 2
ENDMDL
MODEL 8
REMARK VINA RESULT:      -6.8      2.833      4.064
REMARK  2 active torsions:
REMARK  status: ('A' for Active; 'I' for Inactive)
REMARK    1  A    between atoms: N_10  and  S_11 
REMARK    2  A    between atoms: S_11  and  C_14 
ROOT
HETATM    1  S   UNL     1      -6.855   2.180 -30.631  1.00  0.00     0.245 S 
HETATM    2  O   UNL     1      -6.089   1.656 -29.519  1.00  0.00    -0.206 OA
HETATM    3  O   UNL     1      -8.103   2.863 -30.381  1.00  0.00    -0.206 OA
ENDROOT
BRANCH   1   4
HETATM    4  N   UNL     1      -5.801   3.315 -31.446  1.00  0.00    -0.201 NA
HETATM    5  C   UNL     1      -5.662   4.672 -30.737  1.00  0.00     0.096 C 
HETATM    6  C   UNL     1      -5.795   4.640 -29.212  1.00  0.00     0.029 C 
HETATM    7  C   UNL     1      -4.253   5.238 -31.042  1.00  0.00     0.252 C 
HETATM    8  N   UNL     1      -4.184   6.051 -32.306  1.00  0.00    -0.074 N 
HETATM    9  H   UNL     1      -4.447   7.022 -32.083  1.00  0.00     0.277 HD
HETATM   10  H   UNL     1      -3.190   6.107 -32.571  1.00  0.00     0.277 HD
HETATM   11  C   UNL     1      -4.964   5.632 -33.502  1.00  0.00     0.233 C 
HETATM   12  C   UNL     1      -4.993   4.129 -33.682  1.00  0.00     0.043 C 
HETATM   13  C   UNL     1      -6.128   3.477 -32.897  1.00  0.00     0.109 C 
ENDBRANCH   1   4
BRANCH   1  14
HETATM   14  C   UNL     1      -7.092   0.808 -31.761  1.00  0.00     0.088 A 
HETATM   15  C   UNL     1      -8.419   0.628 -32.202  1.00  0.00     0.026 A 
HETATM   16  C   UNL     1      -8.714  -0.267 -33.222  1.00  0.00     0.002 A 
HETATM   17  C   UNL     1      -7.686  -0.977 -33.828  1.00  0.00     0.014 A 
HETATM   18  C   UNL     1      -6.357  -0.826 -33.403  1.00  0.00    -0.004 A 
HETATM   19  C   UNL     1      -5.344  -1.560 -34.031  1.00  0.00     0.128 A 
HETATM   20  C   UNL     1      -6.018   0.055 -32.341  1.00  0.00     0.038 A 
HETATM   21  N   UNL     1      -4.040  -1.524 -33.688  1.00  0.00    -0.269 NA
HETATM   22  C   UNL     1      -3.723  -0.719 -32.659  1.00  0.00     0.159 A 
HETATM   23  C   UNL     1      -4.649   0.050 -31.970  1.00  0.00     0.146 A 
HETATM   24  F   UNL     1      -4.215   0.682 -30.874  1.00  0.00    -0.204 F 
ENDBRANCH   1  14
TORSDOF 2
ENDMDL
MODEL 9
REMARK VINA RESULT:      -6.8      2.129      2.812
REMARK  2 active torsions:
REMARK  status: ('A' for Active; 'I' for Inactive)
REMARK    1  A    between atoms: N_10  and  S_11 
REMARK    2  A    between atoms: S_11  and  C_14 
ROOT
HETATM    1  S   UNL     1      -4.005   0.245 -32.040  1.00  0.00     0.245 S 
HETATM    2  O   UNL     1      -2.932   0.558 -32.963  1.00  0.00    -0.206 OA
HETATM    3  O   UNL     1      -3.695  -0.325 -30.750  1.00  0.00    -0.206 OA
ENDROOT
BRANCH   1   4
HETATM    4  N   UNL     1      -4.841   1.755 -31.749  1.00  0.00    -0.201 NA
HETATM    5  C   UNL     1      -6.052   1.637 -30.810  1.00  0.00     0.096 C 
HETATM    6  C   UNL     1      -5.962   0.542 -29.744  1.00  0.00     0.029 C 
HETATM    7  C   UNL     1      -6.210   2.977 -30.049  1.00  0.00     0.252 C 
HETATM    8  N   UNL     1      -7.049   3.993 -30.774  1.00  0.00    -0.074 N 
HETATM    9  H   UNL     1      -8.038   3.826 -30.539  1.00  0.00     0.277 HD
HETATM   10  H   UNL     1      -6.835   4.910 -30.355  1.00  0.00     0.277 HD
HETATM   11  C   UNL     1      -6.949   4.119 -32.253  1.00  0.00     0.233 C 
HETATM   12  C   UNL     1      -5.532   3.949 -32.758  1.00  0.00     0.043 C 
HETATM   13  C   UNL     1      -5.182   2.484 -33.009  1.00  0.00     0.109 C 
ENDBRANCH   1   4
BRANCH   1  14
HETATM   14  C   UNL     1      -5.148  -0.801 -32.944  1.00  0.00     0.088 A 
HETATM   15  C   UNL     1      -6.321  -0.153 -33.380  1.00  0.00     0.026 A 
HETATM   16  C   UNL     1      -7.199  -0.784 -34.252  1.00  0.00     0.002 A 
HETATM   17  C   UNL     1      -6.905  -2.060 -34.715  1.00  0.00     0.014 A 
HETATM   18  C   UNL     1      -5.749  -2.733 -34.289  1.00  0.00    -0.004 A 
HETATM   19  C   UNL     1      -5.483  -4.020 -34.770  1.00  0.00     0.128 A 
HETATM   20  C   UNL     1      -4.844  -2.135 -33.372  1.00  0.00     0.038 A 
HETATM   21  N   UNL     1      -4.427  -4.776 -34.408  1.00  0.00    -0.269 NA
HETATM   22  C   UNL     1      -3.589  -4.227 -33.512  1.00  0.00     0.159 A 
HETATM   23  C   UNL     1      -3.760  -2.959 -32.974  1.00  0.00     0.146 A 
HETATM   24  F   UNL     1      -2.935  -2.606 -31.982  1.00  0.00    -0.204 F 
ENDBRANCH   1  14
TORSDOF 2
ENDMDL
MODEL 10
REMARK VINA RESULT:      -6.8      6.375      8.716
REMARK  2 active torsions:
REMARK  status: ('A' for Active; 'I' for Inactive)
REMARK    1  A    between atoms: N_10  and  S_11 
REMARK    2  A    between atoms: S_11  and  C_14 
ROOT
HETATM    1  S   UNL     1      -2.600   8.269 -31.440  1.00  0.00     0.245 S 
HETATM    2  O   UNL     1      -3.989   8.459 -31.073  1.00  0.00    -0.206 OA
HETATM    3  O   UNL     1      -1.854   9.368 -32.007  1.00  0.00    -0.206 OA
ENDROOT
BRANCH   1   4
HETATM    4  N   UNL     1      -1.777   7.791 -29.972  1.00  0.00    -0.201 NA
HETATM    5  C   UNL     1      -1.504   8.946 -28.994  1.00  0.00     0.096 C 
HETATM    6  C   UNL     1      -2.521  10.090 -29.018  1.00  0.00     0.029 C 
HETATM    7  C   UNL     1      -1.518   8.377 -27.553  1.00  0.00     0.252 C 
HETATM    8  N   UNL     1      -0.184   7.858 -27.092  1.00  0.00    -0.074 N 
HETATM    9  H   UNL     1       0.353   8.645 -26.698  1.00  0.00     0.277 HD
HETATM   10  H   UNL     1      -0.366   7.242 -26.286  1.00  0.00     0.277 HD
HETATM   11  C   UNL     1       0.701   7.134 -28.043  1.00  0.00     0.233 C 
HETATM   12  C   UNL     1      -0.068   6.235 -28.986  1.00  0.00     0.043 C 
HETATM   13  C   UNL     1      -0.548   6.979 -30.230  1.00  0.00     0.109 C 
ENDBRANCH   1   4
BRANCH   1  14
HETATM   14  C   UNL     1      -2.564   6.843 -32.528  1.00  0.00     0.088 A 
HETATM   15  C   UNL     1      -1.813   7.020 -33.707  1.00  0.00     0.026 A 
HETATM   16  C   UNL     1      -1.540   5.945 -34.543  1.00  0.00     0.002 A 
HETATM   17  C   UNL     1      -1.993   4.678 -34.199  1.00  0.00     0.014 A 
HETATM   18  C   UNL     1      -2.751   4.475 -33.035  1.00  0.00    -0.004 A 
HETATM   19  C   UNL     1      -3.198   3.187 -32.719  1.00  0.00     0.128 A 
HETATM   20  C   UNL     1      -3.081   5.554 -32.173  1.00  0.00     0.038 A 
HETATM   21  N   UNL     1      -3.960   2.875 -31.650  1.00  0.00    -0.269 NA
HETATM   22  C   UNL     1      -4.304   3.901 -30.853  1.00  0.00     0.159 A 
HETATM   23  C   UNL     1      -3.913   5.214 -31.076  1.00  0.00     0.146 A 
HETATM   24  F   UNL     1      -4.457   6.148 -30.288  1.00  0.00    -0.204 F 
ENDBRANCH   1  14
TORSDOF 2
ENDMDL
