MODEL 1
REMARK VINA RESULT:      -8.9      0.000      0.000
REMARK  4 active torsions:
REMARK  status: ('A' for Active; 'I' for Inactive)
REMARK    1  A    between atoms: C_4  and  C_5 
REMARK    2  A    between atoms: C_8  and  C_9 
REMARK    3  A    between atoms: C_9  and  N_10 
REMARK       I    between atoms: N_10  and  C_11 
REMARK       I    between atoms: C_11  and  N_12 
REMARK    4  A    between atoms: N_12  and  C_13 
ROOT
HETATM    1  C   UNL     1      -6.233   2.555 -32.541  1.00  0.00     0.213 C 
ENDROOT
BRANCH   1   2
HETATM    2  C   UNL     1      -6.219   1.351 -33.403  1.00  0.00     0.190 A 
HETATM    3  O   UNL     1      -6.781   1.473 -34.638  1.00  0.00    -0.194 OA
HETATM    4  N   UNL     1      -6.724   0.212 -35.226  1.00  0.00    -0.106 NA
HETATM    5  C   UNL     1      -6.139  -0.556 -34.289  1.00  0.00     0.189 A 
HETATM    6  N   UNL     1      -5.784   0.137 -33.148  1.00  0.00    -0.202 NA
BRANCH   5   7
HETATM    7  C   UNL     1      -5.925  -1.993 -34.430  1.00  0.00     0.015 A 
HETATM    8  C   UNL     1      -4.720  -2.576 -34.003  1.00  0.00     0.022 A 
HETATM    9  C   UNL     1      -4.506  -3.959 -34.111  1.00  0.00    -0.061 A 
HETATM   10  C   UNL     1      -3.227  -4.579 -33.633  1.00  0.00     0.048 C 
HETATM   11  C   UNL     1      -5.520  -4.765 -34.639  1.00  0.00     0.007 A 
HETATM   12  C   UNL     1      -6.720  -4.201 -35.067  1.00  0.00     0.002 A 
HETATM   13  C   UNL     1      -6.921  -2.822 -34.965  1.00  0.00     0.015 A 
ENDBRANCH   5   7
ENDBRANCH   1   2
BRANCH   1  14
HETATM   14  N   UNL     1      -4.934   3.199 -32.529  1.00  0.00    -0.335 N 
HETATM   15  C   UNL     1      -4.128   2.996 -31.452  1.00  0.00     0.321 C 
HETATM   16  N   UNL     1      -2.877   3.524 -31.481  1.00  0.00    -0.309 N 
HETATM   17  O   UNL     1      -4.473   2.316 -30.488  1.00  0.00    -0.247 OA
HETATM   18  H   UNL     1      -2.313   3.148 -30.728  1.00  0.00     0.170 HD
HETATM   19  H   UNL     1      -4.436   3.226 -33.409  1.00  0.00     0.164 HD
BRANCH  16  20
HETATM   20  C   UNL     1      -2.271   4.519 -32.269  1.00  0.00     0.036 A 
HETATM   21  C   UNL     1      -2.049   4.417 -33.643  1.00  0.00     0.029 A 
HETATM   22  C   UNL     1      -1.462   5.476 -34.346  1.00  0.00     0.002 A 
HETATM   23  C   UNL     1      -1.106   6.648 -33.684  1.00  0.00     0.000 A 
HETATM   24  C   UNL     1      -1.344   6.770 -32.319  1.00  0.00     0.002 A 
HETATM   25  C   UNL     1      -1.930   5.713 -31.617  1.00  0.00     0.029 A 
ENDBRANCH  16  20
ENDBRANCH   1  14
TORSDOF 4
ENDMDL
MODEL 2
REMARK VINA RESULT:      -8.9      0.935      8.415
REMARK  4 active torsions:
REMARK  status: ('A' for Active; 'I' for Inactive)
REMARK    1  A    between atoms: C_4  and  C_5 
REMARK    2  A    between atoms: C_8  and  C_9 
REMARK    3  A    between atoms: C_9  and  N_10 
REMARK       I    between atoms: N_10  and  C_11 
REMARK       I    between atoms: C_11  and  N_12 
REMARK    4  A    between atoms: N_12  and  C_13 
ROOT
HETATM    1  C   UNL     1      -5.955   1.235 -32.069  1.00  0.00     0.213 C 
ENDROOT
BRANCH   1   2
HETATM    2  C   UNL     1      -4.683   1.992 -32.051  1.00  0.00     0.190 A 
HETATM    3  O   UNL     1      -3.743   1.590 -31.151  1.00  0.00    -0.194 OA
HETATM    4  N   UNL     1      -2.681   2.485 -31.260  1.00  0.00    -0.106 NA
HETATM    5  C   UNL     1      -3.082   3.347 -32.212  1.00  0.00     0.189 A 
HETATM    6  N   UNL     1      -4.319   3.046 -32.747  1.00  0.00    -0.202 NA
BRANCH   5   7
HETATM    7  C   UNL     1      -2.314   4.517 -32.627  1.00  0.00     0.015 A 
HETATM    8  C   UNL     1      -1.387   5.105 -31.750  1.00  0.00     0.022 A 
HETATM    9  C   UNL     1      -0.625   6.217 -32.140  1.00  0.00    -0.061 A 
HETATM   10  C   UNL     1       0.379   6.827 -31.208  1.00  0.00     0.048 C 
HETATM   11  C   UNL     1      -0.786   6.734 -33.430  1.00  0.00     0.007 A 
HETATM   12  C   UNL     1      -1.701   6.161 -34.311  1.00  0.00     0.002 A 
HETATM   13  C   UNL     1      -2.463   5.061 -33.911  1.00  0.00     0.015 A 
ENDBRANCH   5   7
ENDBRANCH   1   2
BRANCH   1  14
HETATM   14  N   UNL     1      -5.851   0.065 -32.918  1.00  0.00    -0.335 N 
HETATM   15  C   UNL     1      -6.532   0.064 -34.096  1.00  0.00     0.321 C 
HETATM   16  N   UNL     1      -6.362  -0.992 -34.933  1.00  0.00    -0.309 N 
HETATM   17  O   UNL     1      -7.248   1.001 -34.445  1.00  0.00    -0.247 OA
HETATM   18  H   UNL     1      -6.757  -0.792 -35.844  1.00  0.00     0.170 HD
HETATM   19  H   UNL     1      -4.940  -0.370 -32.977  1.00  0.00     0.164 HD
BRANCH  16  20
HETATM   20  C   UNL     1      -5.848  -2.288 -34.753  1.00  0.00     0.036 A 
HETATM   21  C   UNL     1      -4.540  -2.574 -34.358  1.00  0.00     0.029 A 
HETATM   22  C   UNL     1      -4.129  -3.901 -34.178  1.00  0.00     0.002 A 
HETATM   23  C   UNL     1      -5.025  -4.948 -34.380  1.00  0.00     0.000 A 
HETATM   24  C   UNL     1      -6.337  -4.673 -34.752  1.00  0.00     0.002 A 
HETATM   25  C   UNL     1      -6.747  -3.349 -34.930  1.00  0.00     0.029 A 
ENDBRANCH  16  20
ENDBRANCH   1  14
TORSDOF 4
ENDMDL
MODEL 3
REMARK VINA RESULT:      -8.8      2.416      3.743
REMARK  4 active torsions:
REMARK  status: ('A' for Active; 'I' for Inactive)
REMARK    1  A    between atoms: C_4  and  C_5 
REMARK    2  A    between atoms: C_8  and  C_9 
REMARK    3  A    between atoms: C_9  and  N_10 
REMARK       I    between atoms: N_10  and  C_11 
REMARK       I    between atoms: C_11  and  N_12 
REMARK    4  A    between atoms: N_12  and  C_13 
ROOT
HETATM    1  C   UNL     1      -4.033   3.550 -32.076  1.00  0.00     0.213 C 
ENDROOT
BRANCH   1   2
HETATM    2  C   UNL     1      -3.755   2.105 -31.906  1.00  0.00     0.190 A 
HETATM    3  O   UNL     1      -2.810   1.766 -30.987  1.00  0.00    -0.194 OA
HETATM    4  N   UNL     1      -2.665   0.383 -31.059  1.00  0.00    -0.106 NA
HETATM    5  C   UNL     1      -3.532   0.016 -32.019  1.00  0.00     0.189 A 
HETATM    6  N   UNL     1      -4.251   1.070 -32.548  1.00  0.00    -0.202 NA
BRANCH   5   7
HETATM    7  C   UNL     1      -3.686  -1.354 -32.499  1.00  0.00     0.015 A 
HETATM    8  C   UNL     1      -4.484  -1.627 -33.622  1.00  0.00     0.022 A 
HETATM    9  C   UNL     1      -4.626  -2.935 -34.110  1.00  0.00    -0.061 A 
HETATM   10  C   UNL     1      -5.461  -3.217 -35.324  1.00  0.00     0.048 C 
HETATM   11  C   UNL     1      -3.946  -3.977 -33.472  1.00  0.00     0.007 A 
HETATM   12  C   UNL     1      -3.150  -3.722 -32.356  1.00  0.00     0.002 A 
HETATM   13  C   UNL     1      -3.023  -2.418 -31.871  1.00  0.00     0.015 A 
ENDBRANCH   5   7
ENDBRANCH   1   2
BRANCH   1  14
HETATM   14  N   UNL     1      -2.892   4.348 -31.674  1.00  0.00    -0.335 N 
HETATM   15  C   UNL     1      -1.962   4.658 -32.617  1.00  0.00     0.321 C 
HETATM   16  N   UNL     1      -0.941   5.481 -32.264  1.00  0.00    -0.309 N 
HETATM   17  O   UNL     1      -2.043   4.263 -33.779  1.00  0.00    -0.247 OA
HETATM   18  H   UNL     1      -0.433   5.792 -33.083  1.00  0.00     0.170 HD
HETATM   19  H   UNL     1      -3.075   5.099 -31.022  1.00  0.00     0.164 HD
BRANCH  16  20
HETATM   20  C   UNL     1      -0.422   5.890 -31.022  1.00  0.00     0.036 A 
HETATM   21  C   UNL     1      -0.599   7.159 -30.469  1.00  0.00     0.029 A 
HETATM   22  C   UNL     1      -0.065   7.463 -29.210  1.00  0.00     0.002 A 
HETATM   23  C   UNL     1       0.636   6.498 -28.492  1.00  0.00     0.000 A 
HETATM   24  C   UNL     1       0.798   5.223 -29.024  1.00  0.00     0.002 A 
HETATM   25  C   UNL     1       0.265   4.920 -30.279  1.00  0.00     0.029 A 
ENDBRANCH  16  20
ENDBRANCH   1  14
TORSDOF 4
ENDMDL
MODEL 4
REMARK VINA RESULT:      -8.7      1.581      2.547
REMARK  4 active torsions:
REMARK  status: ('A' for Active; 'I' for Inactive)
REMARK    1  A    between atoms: C_4  and  C_5 
REMARK    2  A    between atoms: C_8  and  C_9 
REMARK    3  A    between atoms: C_9  and  N_10 
REMARK       I    between atoms: N_10  and  C_11 
REMARK       I    between atoms: C_11  and  N_12 
REMARK    4  A    between atoms: N_12  and  C_13 
ROOT
HETATM    1  C   UNL     1      -5.599   2.235 -32.095  1.00  0.00     0.213 C 
ENDROOT
BRANCH   1   2
HETATM    2  C   UNL     1      -4.932   0.950 -32.411  1.00  0.00     0.190 A 
HETATM    3  O   UNL     1      -3.575   0.975 -32.522  1.00  0.00    -0.194 OA
HETATM    4  N   UNL     1      -3.185  -0.309 -32.896  1.00  0.00    -0.106 NA
HETATM    5  C   UNL     1      -4.344  -0.987 -32.982  1.00  0.00     0.189 A 
HETATM    6  N   UNL     1      -5.453  -0.232 -32.654  1.00  0.00    -0.202 NA
BRANCH   5   7
HETATM    7  C   UNL     1      -4.444  -2.378 -33.414  1.00  0.00     0.015 A 
HETATM    8  C   UNL     1      -5.482  -2.781 -34.271  1.00  0.00     0.022 A 
HETATM    9  C   UNL     1      -5.582  -4.108 -34.714  1.00  0.00    -0.061 A 
HETATM   10  C   UNL     1      -6.679  -4.528 -35.646  1.00  0.00     0.048 C 
HETATM   11  C   UNL     1      -4.619  -5.037 -34.305  1.00  0.00     0.007 A 
HETATM   12  C   UNL     1      -3.583  -4.652 -33.455  1.00  0.00     0.002 A 
HETATM   13  C   UNL     1      -3.497  -3.330 -33.010  1.00  0.00     0.015 A 
ENDBRANCH   5   7
ENDBRANCH   1   2
BRANCH   1  14
HETATM   14  N   UNL     1      -4.876   3.350 -32.674  1.00  0.00    -0.335 N 
HETATM   15  C   UNL     1      -5.441   4.005 -33.723  1.00  0.00     0.321 C 
HETATM   16  N   UNL     1      -4.808   5.106 -34.207  1.00  0.00    -0.309 N 
HETATM   17  O   UNL     1      -6.519   3.668 -34.209  1.00  0.00    -0.247 OA
HETATM   18  H   UNL     1      -5.411   5.613 -34.843  1.00  0.00     0.170 HD
HETATM   19  H   UNL     1      -4.395   3.959 -32.026  1.00  0.00     0.164 HD
BRANCH  16  20
HETATM   20  C   UNL     1      -3.499   5.601 -34.067  1.00  0.00     0.036 A 
HETATM   21  C   UNL     1      -2.411   5.192 -34.839  1.00  0.00     0.029 A 
HETATM   22  C   UNL     1      -1.149   5.766 -34.644  1.00  0.00     0.002 A 
HETATM   23  C   UNL     1      -0.970   6.761 -33.686  1.00  0.00     0.000 A 
HETATM   24  C   UNL     1      -2.053   7.193 -32.927  1.00  0.00     0.002 A 
HETATM   25  C   UNL     1      -3.312   6.620 -33.123  1.00  0.00     0.029 A 
ENDBRANCH  16  20
ENDBRANCH   1  14
TORSDOF 4
ENDMDL
MODEL 5
REMARK VINA RESULT:      -8.7      1.608      2.210
REMARK  4 active torsions:
REMARK  status: ('A' for Active; 'I' for Inactive)
REMARK    1  A    between atoms: C_4  and  C_5 
REMARK    2  A    between atoms: C_8  and  C_9 
REMARK    3  A    between atoms: C_9  and  N_10 
REMARK       I    between atoms: N_10  and  C_11 
REMARK       I    between atoms: C_11  and  N_12 
REMARK    4  A    between atoms: N_12  and  C_13 
ROOT
HETATM    1  C   UNL     1      -5.859   3.439 -32.860  1.00  0.00     0.213 C 
ENDROOT
BRANCH   1   2
HETATM    2  C   UNL     1      -5.433   2.022 -32.918  1.00  0.00     0.190 A 
HETATM    3  O   UNL     1      -4.195   1.732 -32.430  1.00  0.00    -0.194 OA
HETATM    4  N   UNL     1      -3.985   0.375 -32.661  1.00  0.00    -0.106 NA
HETATM    5  C   UNL     1      -5.113  -0.027 -33.273  1.00  0.00     0.189 A 
HETATM    6  N   UNL     1      -6.051   0.976 -33.421  1.00  0.00    -0.202 NA
BRANCH   5   7
HETATM    7  C   UNL     1      -5.330  -1.381 -33.775  1.00  0.00     0.015 A 
HETATM    8  C   UNL     1      -4.325  -2.354 -33.648  1.00  0.00     0.022 A 
HETATM    9  C   UNL     1      -4.524  -3.665 -34.105  1.00  0.00    -0.061 A 
HETATM   10  C   UNL     1      -3.455  -4.706 -33.947  1.00  0.00     0.048 C 
HETATM   11  C   UNL     1      -5.752  -4.006 -34.682  1.00  0.00     0.007 A 
HETATM   12  C   UNL     1      -6.758  -3.051 -34.815  1.00  0.00     0.002 A 
HETATM   13  C   UNL     1      -6.548  -1.745 -34.366  1.00  0.00     0.015 A 
ENDBRANCH   5   7
ENDBRANCH   1   2
BRANCH   1  14
HETATM   14  N   UNL     1      -4.713   4.326 -32.886  1.00  0.00    -0.335 N 
HETATM   15  C   UNL     1      -4.383   4.914 -34.067  1.00  0.00     0.321 C 
HETATM   16  N   UNL     1      -3.367   5.815 -34.072  1.00  0.00    -0.309 N 
HETATM   17  O   UNL     1      -5.001   4.697 -35.108  1.00  0.00    -0.247 OA
HETATM   18  H   UNL     1      -3.343   6.322 -34.949  1.00  0.00     0.170 HD
HETATM   19  H   UNL     1      -4.593   4.931 -32.084  1.00  0.00     0.164 HD
BRANCH  16  20
HETATM   20  C   UNL     1      -2.329   6.099 -33.166  1.00  0.00     0.036 A 
HETATM   21  C   UNL     1      -1.379   5.174 -32.733  1.00  0.00     0.029 A 
HETATM   22  C   UNL     1      -0.365   5.561 -31.848  1.00  0.00     0.002 A 
HETATM   23  C   UNL     1      -0.286   6.879 -31.403  1.00  0.00     0.000 A 
HETATM   24  C   UNL     1      -1.214   7.814 -31.847  1.00  0.00     0.002 A 
HETATM   25  C   UNL     1      -2.225   7.428 -32.729  1.00  0.00     0.029 A 
ENDBRANCH  16  20
ENDBRANCH   1  14
TORSDOF 4
ENDMDL
MODEL 6
REMARK VINA RESULT:      -8.5      1.926      2.769
REMARK  4 active torsions:
REMARK  status: ('A' for Active; 'I' for Inactive)
REMARK    1  A    between atoms: C_4  and  C_5 
REMARK    2  A    between atoms: C_8  and  C_9 
REMARK    3  A    between atoms: C_9  and  N_10 
REMARK       I    between atoms: N_10  and  C_11 
REMARK       I    between atoms: C_11  and  N_12 
REMARK    4  A    between atoms: N_12  and  C_13 
ROOT
HETATM    1  C   UNL     1      -7.471   3.272 -32.111  1.00  0.00     0.213 C 
ENDROOT
BRANCH   1   2
HETATM    2  C   UNL     1      -7.428   1.881 -32.617  1.00  0.00     0.190 A 
HETATM    3  O   UNL     1      -8.613   1.211 -32.673  1.00  0.00    -0.194 OA
HETATM    4  N   UNL     1      -8.318  -0.082 -33.097  1.00  0.00    -0.106 NA
HETATM    5  C   UNL     1      -6.982  -0.075 -33.252  1.00  0.00     0.189 A 
HETATM    6  N   UNL     1      -6.400   1.150 -32.988  1.00  0.00    -0.202 NA
BRANCH   5   7
HETATM    7  C   UNL     1      -6.198  -1.248 -33.626  1.00  0.00     0.015 A 
HETATM    8  C   UNL     1      -6.795  -2.302 -34.338  1.00  0.00     0.022 A 
HETATM    9  C   UNL     1      -6.052  -3.428 -34.724  1.00  0.00    -0.061 A 
HETATM   10  C   UNL     1      -6.688  -4.540 -35.504  1.00  0.00     0.048 C 
HETATM   11  C   UNL     1      -4.691  -3.488 -34.405  1.00  0.00     0.007 A 
HETATM   12  C   UNL     1      -4.085  -2.450 -33.699  1.00  0.00     0.002 A 
HETATM   13  C   UNL     1      -4.835  -1.338 -33.309  1.00  0.00     0.015 A 
ENDBRANCH   5   7
ENDBRANCH   1   2
BRANCH   1  14
HETATM   14  N   UNL     1      -6.337   4.034 -32.595  1.00  0.00    -0.335 N 
HETATM   15  C   UNL     1      -6.547   4.931 -33.596  1.00  0.00     0.321 C 
HETATM   16  N   UNL     1      -5.505   5.710 -33.986  1.00  0.00    -0.309 N 
HETATM   17  O   UNL     1      -7.649   5.093 -34.117  1.00  0.00    -0.247 OA
HETATM   18  H   UNL     1      -5.825   6.459 -34.588  1.00  0.00     0.170 HD
HETATM   19  H   UNL     1      -5.677   4.352 -31.898  1.00  0.00     0.164 HD
BRANCH  16  20
HETATM   20  C   UNL     1      -4.114   5.622 -33.796  1.00  0.00     0.036 A 
HETATM   21  C   UNL     1      -3.466   5.825 -32.578  1.00  0.00     0.029 A 
HETATM   22  C   UNL     1      -2.076   5.687 -32.483  1.00  0.00     0.002 A 
HETATM   23  C   UNL     1      -1.327   5.331 -33.602  1.00  0.00     0.000 A 
HETATM   24  C   UNL     1      -1.966   5.103 -34.816  1.00  0.00     0.002 A 
HETATM   25  C   UNL     1      -3.353   5.241 -34.910  1.00  0.00     0.029 A 
ENDBRANCH  16  20
ENDBRANCH   1  14
TORSDOF 4
ENDMDL
MODEL 7
REMARK VINA RESULT:      -8.4      4.700      7.497
REMARK  4 active torsions:
REMARK  status: ('A' for Active; 'I' for Inactive)
REMARK    1  A    between atoms: C_4  and  C_5 
REMARK    2  A    between atoms: C_8  and  C_9 
REMARK    3  A    between atoms: C_9  and  N_10 
REMARK       I    between atoms: N_10  and  C_11 
REMARK       I    between atoms: C_11  and  N_12 
REMARK    4  A    between atoms: N_12  and  C_13 
ROOT
HETATM    1  C   UNL     1      -8.941   2.103 -31.313  1.00  0.00     0.213 C 
ENDROOT
BRANCH   1   2
HETATM    2  C   UNL     1      -7.959   1.413 -32.182  1.00  0.00     0.190 A 
HETATM    3  O   UNL     1      -7.504   2.105 -33.263  1.00  0.00    -0.194 OA
HETATM    4  N   UNL     1      -6.667   1.240 -33.963  1.00  0.00    -0.106 NA
HETATM    5  C   UNL     1      -6.700   0.104 -33.243  1.00  0.00     0.189 A 
HETATM    6  N   UNL     1      -7.477   0.192 -32.105  1.00  0.00    -0.202 NA
BRANCH   5   7
HETATM    7  C   UNL     1      -6.017  -1.127 -33.630  1.00  0.00     0.015 A 
HETATM    8  C   UNL     1      -6.724  -2.161 -34.265  1.00  0.00     0.022 A 
HETATM    9  C   UNL     1      -6.080  -3.342 -34.664  1.00  0.00    -0.061 A 
HETATM   10  C   UNL     1      -6.835  -4.433 -35.363  1.00  0.00     0.048 C 
HETATM   11  C   UNL     1      -4.707  -3.478 -34.435  1.00  0.00     0.007 A 
HETATM   12  C   UNL     1      -3.991  -2.461 -33.805  1.00  0.00     0.002 A 
HETATM   13  C   UNL     1      -4.643  -1.293 -33.402  1.00  0.00     0.015 A 
ENDBRANCH   5   7
ENDBRANCH   1   2
BRANCH   1  14
HETATM   14  N   UNL     1     -10.223   2.228 -31.978  1.00  0.00    -0.335 N 
HETATM   15  C   UNL     1     -10.618   3.466 -32.381  1.00  0.00     0.321 C 
HETATM   16  N   UNL     1     -11.776   3.570 -33.084  1.00  0.00    -0.309 N 
HETATM   17  O   UNL     1      -9.944   4.473 -32.177  1.00  0.00    -0.247 OA
HETATM   18  H   UNL     1     -11.864   4.493 -33.492  1.00  0.00     0.170 HD
HETATM   19  H   UNL     1     -10.468   1.492 -32.627  1.00  0.00     0.164 HD
BRANCH  16  20
HETATM   20  C   UNL     1     -12.871   2.707 -33.267  1.00  0.00     0.036 A 
HETATM   21  C   UNL     1     -14.021   2.707 -32.477  1.00  0.00     0.029 A 
HETATM   22  C   UNL     1     -15.072   1.826 -32.757  1.00  0.00     0.002 A 
HETATM   23  C   UNL     1     -14.987   0.949 -33.836  1.00  0.00     0.000 A 
HETATM   24  C   UNL     1     -13.855   0.958 -34.644  1.00  0.00     0.002 A 
HETATM   25  C   UNL     1     -12.807   1.837 -34.365  1.00  0.00     0.029 A 
ENDBRANCH  16  20
ENDBRANCH   1  14
TORSDOF 4
ENDMDL
MODEL 8
REMARK VINA RESULT:      -8.4      3.990      7.497
REMARK  4 active torsions:
REMARK  status: ('A' for Active; 'I' for Inactive)
REMARK    1  A    between atoms: C_4  and  C_5 
REMARK    2  A    between atoms: C_8  and  C_9 
REMARK    3  A    between atoms: C_9  and  N_10 
REMARK       I    between atoms: N_10  and  C_11 
REMARK       I    between atoms: C_11  and  N_12 
REMARK    4  A    between atoms: N_12  and  C_13 
ROOT
HETATM    1  C   UNL     1      -6.455   0.432 -31.331  1.00  0.00     0.213 C 
ENDROOT
BRANCH   1   2
HETATM    2  C   UNL     1      -7.487   1.124 -32.136  1.00  0.00     0.190 A 
HETATM    3  O   UNL     1      -7.280   2.445 -32.394  1.00  0.00    -0.194 OA
HETATM    4  N   UNL     1      -8.403   2.894 -33.086  1.00  0.00    -0.106 NA
HETATM    5  C   UNL     1      -9.185   1.804 -33.176  1.00  0.00     0.189 A 
HETATM    6  N   UNL     1      -8.625   0.672 -32.616  1.00  0.00    -0.202 NA
BRANCH   5   7
HETATM    7  C   UNL     1     -10.519   1.804 -33.770  1.00  0.00     0.015 A 
HETATM    8  C   UNL     1     -11.431   0.781 -33.465  1.00  0.00     0.022 A 
HETATM    9  C   UNL     1     -12.724   0.776 -34.010  1.00  0.00    -0.061 A 
HETATM   10  C   UNL     1     -13.702  -0.307 -33.663  1.00  0.00     0.048 C 
HETATM   11  C   UNL     1     -13.109   1.820 -34.858  1.00  0.00     0.007 A 
HETATM   12  C   UNL     1     -12.214   2.842 -35.170  1.00  0.00     0.002 A 
HETATM   13  C   UNL     1     -10.925   2.833 -34.631  1.00  0.00     0.015 A 
ENDBRANCH   5   7
ENDBRANCH   1   2
BRANCH   1  14
HETATM   14  N   UNL     1      -5.805  -0.608 -32.104  1.00  0.00    -0.335 N 
HETATM   15  C   UNL     1      -4.642  -0.302 -32.740  1.00  0.00     0.321 C 
HETATM   16  N   UNL     1      -3.986  -1.299 -33.389  1.00  0.00    -0.309 N 
HETATM   17  O   UNL     1      -4.145   0.822 -32.704  1.00  0.00    -0.247 OA
HETATM   18  H   UNL     1      -3.054  -1.002 -33.651  1.00  0.00     0.170 HD
HETATM   19  H   UNL     1      -5.819  -1.539 -31.710  1.00  0.00     0.164 HD
BRANCH  16  20
HETATM   20  C   UNL     1      -4.373  -2.578 -33.829  1.00  0.00     0.036 A 
HETATM   21  C   UNL     1      -3.768  -3.770 -33.430  1.00  0.00     0.029 A 
HETATM   22  C   UNL     1      -4.245  -4.999 -33.902  1.00  0.00     0.002 A 
HETATM   23  C   UNL     1      -5.337  -5.045 -34.766  1.00  0.00     0.000 A 
HETATM   24  C   UNL     1      -5.962  -3.864 -35.151  1.00  0.00     0.002 A 
HETATM   25  C   UNL     1      -5.487  -2.638 -34.679  1.00  0.00     0.029 A 
ENDBRANCH  16  20
ENDBRANCH   1  14
TORSDOF 4
ENDMDL
MODEL 9
REMARK VINA RESULT:      -8.1      3.933      6.564
REMARK  4 active torsions:
REMARK  status: ('A' for Active; 'I' for Inactive)
REMARK    1  A    between atoms: C_4  and  C_5 
REMARK    2  A    between atoms: C_8  and  C_9 
REMARK    3  A    between atoms: C_9  and  N_10 
REMARK       I    between atoms: N_10  and  C_11 
REMARK       I    between atoms: C_11  and  N_12 
REMARK    4  A    between atoms: N_12  and  C_13 
ROOT
HETATM    1  C   UNL     1      -7.597   2.122 -31.678  1.00  0.00     0.213 C 
ENDROOT
BRANCH   1   2
HETATM    2  C   UNL     1      -6.756   1.057 -32.271  1.00  0.00     0.190 A 
HETATM    3  O   UNL     1      -5.484   1.401 -32.617  1.00  0.00    -0.194 OA
HETATM    4  N   UNL     1      -4.919   0.279 -33.218  1.00  0.00    -0.106 NA
HETATM    5  C   UNL     1      -5.905  -0.636 -33.184  1.00  0.00     0.189 A 
HETATM    6  N   UNL     1      -7.057  -0.187 -32.570  1.00  0.00    -0.202 NA
BRANCH   5   7
HETATM    7  C   UNL     1      -5.799  -1.969 -33.770  1.00  0.00     0.015 A 
HETATM    8  C   UNL     1      -4.622  -2.721 -33.616  1.00  0.00     0.022 A 
HETATM    9  C   UNL     1      -4.511  -4.012 -34.154  1.00  0.00    -0.061 A 
HETATM   10  C   UNL     1      -3.260  -4.819 -33.968  1.00  0.00     0.048 C 
HETATM   11  C   UNL     1      -5.600  -4.560 -34.840  1.00  0.00     0.007 A 
HETATM   12  C   UNL     1      -6.774  -3.826 -35.001  1.00  0.00     0.002 A 
HETATM   13  C   UNL     1      -6.873  -2.537 -34.471  1.00  0.00     0.015 A 
ENDBRANCH   5   7
ENDBRANCH   1   2
BRANCH   1  14
HETATM   14  N   UNL     1      -8.886   2.191 -32.336  1.00  0.00    -0.335 N 
HETATM   15  C   UNL     1      -9.100   3.198 -33.225  1.00  0.00     0.321 C 
HETATM   16  N   UNL     1     -10.273   3.210 -33.909  1.00  0.00    -0.309 N 
HETATM   17  O   UNL     1      -8.255   4.059 -33.463  1.00  0.00    -0.247 OA
HETATM   18  H   UNL     1     -10.237   3.880 -34.668  1.00  0.00     0.170 HD
HETATM   19  H   UNL     1      -9.298   1.310 -32.615  1.00  0.00     0.164 HD
BRANCH  16  20
HETATM   20  C   UNL     1     -11.507   2.564 -33.713  1.00  0.00     0.036 A 
HETATM   21  C   UNL     1     -11.792   1.260 -34.121  1.00  0.00     0.029 A 
HETATM   22  C   UNL     1     -13.045   0.693 -33.855  1.00  0.00     0.002 A 
HETATM   23  C   UNL     1     -14.015   1.421 -33.169  1.00  0.00     0.000 A 
HETATM   24  C   UNL     1     -13.732   2.712 -32.738  1.00  0.00     0.002 A 
HETATM   25  C   UNL     1     -12.483   3.278 -33.003  1.00  0.00     0.029 A 
ENDBRANCH  16  20
ENDBRANCH   1  14
TORSDOF 4
ENDMDL
MODEL 10
REMARK VINA RESULT:      -8.1      1.993      8.001
REMARK  4 active torsions:
REMARK  status: ('A' for Active; 'I' for Inactive)
REMARK    1  A    between atoms: C_4  and  C_5 
REMARK    2  A    between atoms: C_8  and  C_9 
REMARK    3  A    between atoms: C_9  and  N_10 
REMARK       I    between atoms: N_10  and  C_11 
REMARK       I    between atoms: C_11  and  N_12 
REMARK    4  A    between atoms: N_12  and  C_13 
ROOT
HETATM    1  C   UNL     1      -7.059   3.710 -33.588  1.00  0.00     0.213 C 
ENDROOT
BRANCH   1   2
HETATM    2  C   UNL     1      -5.777   4.442 -33.703  1.00  0.00     0.190 A 
HETATM    3  O   UNL     1      -5.291   4.637 -34.960  1.00  0.00    -0.194 OA
HETATM    4  N   UNL     1      -4.057   5.265 -34.815  1.00  0.00    -0.106 NA
HETATM    5  C   UNL     1      -3.910   5.386 -33.484  1.00  0.00     0.189 A 
HETATM    6  N   UNL     1      -4.985   4.906 -32.762  1.00  0.00    -0.202 NA
BRANCH   5   7
HETATM    7  C   UNL     1      -2.718   5.934 -32.842  1.00  0.00     0.015 A 
HETATM    8  C   UNL     1      -1.969   5.149 -31.950  1.00  0.00     0.022 A 
HETATM    9  C   UNL     1      -0.809   5.652 -31.340  1.00  0.00    -0.061 A 
HETATM   10  C   UNL     1       0.000   4.802 -30.406  1.00  0.00     0.048 C 
HETATM   11  C   UNL     1      -0.390   6.952 -31.643  1.00  0.00     0.007 A 
HETATM   12  C   UNL     1      -1.124   7.742 -32.526  1.00  0.00     0.002 A 
HETATM   13  C   UNL     1      -2.282   7.237 -33.120  1.00  0.00     0.015 A 
ENDBRANCH   5   7
ENDBRANCH   1   2
BRANCH   1  14
HETATM   14  N   UNL     1      -6.833   2.282 -33.477  1.00  0.00    -0.335 N 
HETATM   15  C   UNL     1      -7.216   1.660 -32.331  1.00  0.00     0.321 C 
HETATM   16  N   UNL     1      -7.089   0.309 -32.262  1.00  0.00    -0.309 N 
HETATM   17  O   UNL     1      -7.716   2.266 -31.385  1.00  0.00    -0.247 OA
HETATM   18  H   UNL     1      -7.580  -0.056 -31.455  1.00  0.00     0.170 HD
HETATM   19  H   UNL     1      -6.997   1.734 -34.311  1.00  0.00     0.164 HD
BRANCH  16  20
HETATM   20  C   UNL     1      -6.359  -0.627 -33.016  1.00  0.00     0.036 A 
HETATM   21  C   UNL     1      -4.981  -0.823 -32.917  1.00  0.00     0.029 A 
HETATM   22  C   UNL     1      -4.347  -1.802 -33.692  1.00  0.00     0.002 A 
HETATM   23  C   UNL     1      -5.088  -2.600 -34.560  1.00  0.00     0.000 A 
HETATM   24  C   UNL     1      -6.466  -2.429 -34.649  1.00  0.00     0.002 A 
HETATM   25  C   UNL     1      -7.098  -1.453 -33.876  1.00  0.00     0.029 A 
ENDBRANCH  16  20
ENDBRANCH   1  14
TORSDOF 4
ENDMDL
