MODEL 1
REMARK VINA RESULT:     -10.5      0.000      0.000
REMARK  5 active torsions:
REMARK  status: ('A' for Active; 'I' for Inactive)
REMARK    1  A    between atoms: C_6  and  N_7 
REMARK       I    between atoms: N_7  and  C_8 
REMARK    2  A    between atoms: C_8  and  C_9 
REMARK    3  A    between atoms: C_10  and  N_11 
REMARK    4  A    between atoms: N_12  and  N_13 
REMARK    5  A    between atoms: C_14  and  C_15 
ROOT
HETATM    1  C   UNL     1      -4.285   3.963 -32.266  1.00  0.00     0.099 C 
HETATM    2  C   UNL     1      -4.796   2.926 -31.427  1.00  0.00     0.101 C 
HETATM    3  N   UNL     1      -5.785   2.467 -32.225  1.00  0.00    -0.107 NA
HETATM    4  C   UNL     1      -6.267   3.747 -32.401  1.00  0.00     0.162 C 
HETATM    5  C   UNL     1      -5.349   4.364 -33.293  1.00  0.00     0.118 C 
HETATM    6  N   UNL     1      -6.346   4.715 -34.221  1.00  0.00    -0.242 NA
HETATM    7  C   UNL     1      -7.597   5.205 -33.671  1.00  0.00     0.086 C 
HETATM    8  C   UNL     1      -7.503   5.541 -32.353  1.00  0.00     0.087 C 
HETATM    9  N   UNL     1      -6.963   4.597 -31.584  1.00  0.00    -0.230 NA
HETATM   10  C   UNL     1      -8.996   5.190 -34.015  1.00  0.00     0.034 C 
HETATM   11  C   UNL     1      -9.981   5.844 -33.221  1.00  0.00     0.002 C 
HETATM   12  C   UNL     1      -9.563   6.676 -32.194  1.00  0.00     0.002 C 
HETATM   13  C   UNL     1      -8.250   6.561 -31.795  1.00  0.00     0.034 C 
ENDROOT
BRANCH   1  14
HETATM   14  C   UNL     1      -3.015   4.537 -31.732  1.00  0.00     0.261 C 
HETATM   15  N   UNL     1      -2.656   5.889 -31.744  1.00  0.00    -0.323 N 
HETATM   16  H   UNL     1      -2.964   6.467 -32.513  1.00  0.00     0.169 HD
HETATM   17  O   UNL     1      -2.225   3.726 -31.226  1.00  0.00    -0.267 OA
BRANCH  15  18
HETATM   18  C   UNL     1      -1.599   6.370 -30.872  1.00  0.00     0.035 C 
HETATM   19  C   UNL     1      -1.881   6.735 -29.546  1.00  0.00     0.037 C 
HETATM   20  C   UNL     1      -0.896   7.039 -28.598  1.00  0.00    -0.054 C 
HETATM   21  C   UNL     1       0.370   7.389 -29.054  1.00  0.00    -0.056 C 
HETATM   22  C   UNL     1      -1.202   6.711 -27.159  1.00  0.00     0.049 C 
HETATM   23  C   UNL     1       1.291   8.218 -28.198  1.00  0.00     0.049 C 
HETATM   24  C   UNL     1       0.687   7.080 -30.392  1.00  0.00     0.009 C 
HETATM   25  C   UNL     1      -0.268   6.502 -31.274  1.00  0.00     0.030 C 
ENDBRANCH  15  18
ENDBRANCH   1  14
BRANCH   2  26
HETATM   26  N   UNL     1      -4.593   2.420 -30.182  1.00  0.00    -0.291 NA
HETATM   27  H   UNL     1      -3.602   2.334 -29.932  1.00  0.00     0.125 HD
HETATM   28  H   UNL     1      -5.065   2.954 -29.446  1.00  0.00     0.125 HD
ENDBRANCH   2  26
BRANCH   3  29
HETATM   29  N   UNL     1      -5.577   1.456 -33.187  1.00  0.00    -0.198 NA
HETATM   30  C   UNL     1      -6.005   0.293 -32.783  1.00  0.00     0.147 C 
BRANCH  30  31
HETATM   31  C   UNL     1      -5.722  -0.953 -33.481  1.00  0.00     0.010 A 
HETATM   32  C   UNL     1      -4.739  -1.945 -33.107  1.00  0.00     0.004 A 
HETATM   33  C   UNL     1      -4.815  -2.985 -34.037  1.00  0.00     0.043 A 
HETATM   34  C   UNL     1      -3.791  -2.067 -32.063  1.00  0.00     0.014 A 
HETATM   35  C   UNL     1      -4.031  -4.146 -33.954  1.00  0.00     0.030 A 
HETATM   36  N   UNL     1      -5.756  -2.618 -34.971  1.00  0.00    -0.364 N 
HETATM   37  C   UNL     1      -3.120  -4.246 -32.899  1.00  0.00     0.002 A 
HETATM   38  C   UNL     1      -2.991  -3.217 -31.971  1.00  0.00     0.001 A 
HETATM   39  H   UNL     1      -6.002  -3.173 -35.779  1.00  0.00     0.165 HD
HETATM   40  C   UNL     1      -6.294  -1.397 -34.658  1.00  0.00     0.102 A 
ENDBRANCH  30  31
ENDBRANCH   3  29
TORSDOF 5
ENDMDL
MODEL 2
REMARK VINA RESULT:     -10.4      0.932      1.559
REMARK  5 active torsions:
REMARK  status: ('A' for Active; 'I' for Inactive)
REMARK    1  A    between atoms: C_6  and  N_7 
REMARK       I    between atoms: N_7  and  C_8 
REMARK    2  A    between atoms: C_8  and  C_9 
REMARK    3  A    between atoms: C_10  and  N_11 
REMARK    4  A    between atoms: N_12  and  N_13 
REMARK    5  A    between atoms: C_14  and  C_15 
ROOT
HETATM    1  C   UNL     1      -4.423   4.088 -31.988  1.00  0.00     0.099 C 
HETATM    2  C   UNL     1      -5.031   3.291 -30.972  1.00  0.00     0.101 C 
HETATM    3  N   UNL     1      -6.007   2.711 -31.704  1.00  0.00    -0.107 NA
HETATM    4  C   UNL     1      -6.405   3.940 -32.186  1.00  0.00     0.162 C 
HETATM    5  C   UNL     1      -5.413   4.299 -33.138  1.00  0.00     0.118 C 
HETATM    6  N   UNL     1      -6.344   4.480 -34.177  1.00  0.00    -0.242 NA
HETATM    7  C   UNL     1      -7.588   5.138 -33.822  1.00  0.00     0.086 C 
HETATM    8  C   UNL     1      -7.536   5.756 -32.607  1.00  0.00     0.087 C 
HETATM    9  N   UNL     1      -7.087   4.984 -31.619  1.00  0.00    -0.230 NA
HETATM   10  C   UNL     1      -8.968   5.112 -34.234  1.00  0.00     0.034 C 
HETATM   11  C   UNL     1      -9.948   5.973 -33.663  1.00  0.00     0.002 C 
HETATM   12  C   UNL     1      -9.530   6.993 -32.823  1.00  0.00     0.002 C 
HETATM   13  C   UNL     1      -8.247   6.909 -32.333  1.00  0.00     0.034 C 
ENDROOT
BRANCH   1  14
HETATM   14  C   UNL     1      -3.147   4.707 -31.521  1.00  0.00     0.261 C 
HETATM   15  N   UNL     1      -2.902   6.078 -31.385  1.00  0.00    -0.323 N 
HETATM   16  H   UNL     1      -3.346   6.718 -32.027  1.00  0.00     0.169 HD
HETATM   17  O   UNL     1      -2.239   3.917 -31.223  1.00  0.00    -0.267 OA
BRANCH  15  18
HETATM   18  C   UNL     1      -1.788   6.541 -30.575  1.00  0.00     0.035 C 
HETATM   19  C   UNL     1      -1.992   6.934 -29.242  1.00  0.00     0.037 C 
HETATM   20  C   UNL     1      -0.951   7.223 -28.351  1.00  0.00    -0.054 C 
HETATM   21  C   UNL     1       0.299   7.530 -28.876  1.00  0.00    -0.056 C 
HETATM   22  C   UNL     1      -1.193   6.925 -26.892  1.00  0.00     0.049 C 
HETATM   23  C   UNL     1       1.285   8.345 -28.081  1.00  0.00     0.049 C 
HETATM   24  C   UNL     1       0.538   7.192 -30.223  1.00  0.00     0.009 C 
HETATM   25  C   UNL     1      -0.476   6.629 -31.045  1.00  0.00     0.030 C 
ENDBRANCH  15  18
ENDBRANCH   1  14
BRANCH   2  26
HETATM   26  N   UNL     1      -4.915   3.067 -29.636  1.00  0.00    -0.291 NA
HETATM   27  H   UNL     1      -3.952   2.889 -29.333  1.00  0.00     0.125 HD
HETATM   28  H   UNL     1      -5.296   3.828 -29.063  1.00  0.00     0.125 HD
ENDBRANCH   2  26
BRANCH   3  29
HETATM   29  N   UNL     1      -5.815   1.503 -32.405  1.00  0.00    -0.198 NA
HETATM   30  C   UNL     1      -5.195   0.608 -31.688  1.00  0.00     0.147 C 
BRANCH  30  31
HETATM   31  C   UNL     1      -4.679  -0.640 -32.232  1.00  0.00     0.010 A 
HETATM   32  C   UNL     1      -5.331  -1.493 -33.200  1.00  0.00     0.004 A 
HETATM   33  C   UNL     1      -4.479  -2.570 -33.454  1.00  0.00     0.043 A 
HETATM   34  C   UNL     1      -6.564  -1.454 -33.894  1.00  0.00     0.014 A 
HETATM   35  C   UNL     1      -4.774  -3.577 -34.386  1.00  0.00     0.030 A 
HETATM   36  N   UNL     1      -3.386  -2.418 -32.634  1.00  0.00    -0.364 N 
HETATM   37  C   UNL     1      -5.989  -3.498 -35.072  1.00  0.00     0.002 A 
HETATM   38  C   UNL     1      -6.880  -2.458 -34.823  1.00  0.00     0.001 A 
HETATM   39  H   UNL     1      -2.614  -3.069 -32.588  1.00  0.00     0.165 HD
HETATM   40  C   UNL     1      -3.501  -1.275 -31.886  1.00  0.00     0.102 A 
ENDBRANCH  30  31
ENDBRANCH   3  29
TORSDOF 5
ENDMDL
MODEL 3
REMARK VINA RESULT:     -10.3      3.263      7.540
REMARK  5 active torsions:
REMARK  status: ('A' for Active; 'I' for Inactive)
REMARK    1  A    between atoms: C_6  and  N_7 
REMARK       I    between atoms: N_7  and  C_8 
REMARK    2  A    between atoms: C_8  and  C_9 
REMARK    3  A    between atoms: C_10  and  N_11 
REMARK    4  A    between atoms: N_12  and  N_13 
REMARK    5  A    between atoms: C_14  and  C_15 
ROOT
HETATM    1  C   UNL     1      -7.679   2.499 -32.219  1.00  0.00     0.099 C 
HETATM    2  C   UNL     1      -7.703   1.910 -33.520  1.00  0.00     0.101 C 
HETATM    3  N   UNL     1      -6.449   1.409 -33.556  1.00  0.00    -0.107 NA
HETATM    4  C   UNL     1      -5.928   2.626 -33.172  1.00  0.00     0.162 C 
HETATM    5  C   UNL     1      -6.228   2.733 -31.787  1.00  0.00     0.118 C 
HETATM    6  N   UNL     1      -4.886   2.941 -31.419  1.00  0.00    -0.242 NA
HETATM    7  C   UNL     1      -4.106   3.810 -32.282  1.00  0.00     0.086 C 
HETATM    8  C   UNL     1      -4.877   4.536 -33.142  1.00  0.00     0.087 C 
HETATM    9  N   UNL     1      -5.755   3.813 -33.835  1.00  0.00    -0.230 NA
HETATM   10  C   UNL     1      -2.737   3.946 -32.709  1.00  0.00     0.034 C 
HETATM   11  C   UNL     1      -2.310   4.997 -33.569  1.00  0.00     0.002 C 
HETATM   12  C   UNL     1      -3.195   6.026 -33.854  1.00  0.00     0.002 C 
HETATM   13  C   UNL     1      -4.522   5.804 -33.563  1.00  0.00     0.034 C 
ENDROOT
BRANCH   1  14
HETATM   14  C   UNL     1      -9.031   2.967 -31.794  1.00  0.00     0.261 C 
HETATM   15  N   UNL     1      -9.889   3.782 -32.540  1.00  0.00    -0.323 N 
HETATM   16  H   UNL     1      -9.489   4.484 -33.146  1.00  0.00     0.169 HD
HETATM   17  O   UNL     1      -9.414   2.577 -30.681  1.00  0.00    -0.267 OA
BRANCH  15  18
HETATM   18  C   UNL     1     -11.300   3.854 -32.205  1.00  0.00     0.035 C 
HETATM   19  C   UNL     1     -12.248   3.141 -32.956  1.00  0.00     0.037 C 
HETATM   20  C   UNL     1     -13.595   3.020 -32.592  1.00  0.00    -0.054 C 
HETATM   21  C   UNL     1     -14.121   3.945 -31.696  1.00  0.00    -0.056 C 
HETATM   22  C   UNL     1     -14.303   1.750 -32.990  1.00  0.00     0.049 C 
HETATM   23  C   UNL     1     -15.601   4.225 -31.664  1.00  0.00     0.049 C 
HETATM   24  C   UNL     1     -13.208   4.714 -30.947  1.00  0.00     0.009 C 
HETATM   25  C   UNL     1     -11.803   4.613 -31.145  1.00  0.00     0.030 C 
ENDBRANCH  15  18
ENDBRANCH   1  14
BRANCH   2  26
HETATM   26  N   UNL     1      -8.540   1.812 -34.587  1.00  0.00    -0.291 NA
HETATM   27  H   UNL     1      -9.366   1.232 -34.406  1.00  0.00     0.125 HD
HETATM   28  H   UNL     1      -8.857   2.721 -34.938  1.00  0.00     0.125 HD
ENDBRANCH   2  26
BRANCH   3  29
HETATM   29  N   UNL     1      -6.133   0.119 -33.082  1.00  0.00    -0.198 NA
HETATM   30  C   UNL     1      -4.875  -0.178 -33.253  1.00  0.00     0.147 C 
BRANCH  30  31
HETATM   31  C   UNL     1      -4.331  -1.514 -33.056  1.00  0.00     0.010 A 
HETATM   32  C   UNL     1      -4.740  -2.720 -33.739  1.00  0.00     0.004 A 
HETATM   33  C   UNL     1      -3.947  -3.765 -33.260  1.00  0.00     0.043 A 
HETATM   34  C   UNL     1      -5.707  -3.030 -34.725  1.00  0.00     0.014 A 
HETATM   35  C   UNL     1      -4.040  -5.081 -33.741  1.00  0.00     0.030 A 
HETATM   36  N   UNL     1      -3.133  -3.236 -32.286  1.00  0.00    -0.364 N 
HETATM   37  C   UNL     1      -4.989  -5.350 -34.731  1.00  0.00     0.002 A 
HETATM   38  C   UNL     1      -5.822  -4.342 -35.210  1.00  0.00     0.001 A 
HETATM   39  H   UNL     1      -2.467  -3.773 -31.748  1.00  0.00     0.165 HD
HETATM   40  C   UNL     1      -3.365  -1.892 -32.143  1.00  0.00     0.102 A 
ENDBRANCH  30  31
ENDBRANCH   3  29
TORSDOF 5
ENDMDL
MODEL 4
REMARK VINA RESULT:     -10.2      3.079      6.404
REMARK  5 active torsions:
REMARK  status: ('A' for Active; 'I' for Inactive)
REMARK    1  A    between atoms: C_6  and  N_7 
REMARK       I    between atoms: N_7  and  C_8 
REMARK    2  A    between atoms: C_8  and  C_9 
REMARK    3  A    between atoms: C_10  and  N_11 
REMARK    4  A    between atoms: N_12  and  N_13 
REMARK    5  A    between atoms: C_14  and  C_15 
ROOT
HETATM    1  C   UNL     1      -5.860   2.808 -32.363  1.00  0.00     0.099 C 
HETATM    2  C   UNL     1      -6.157   3.350 -33.650  1.00  0.00     0.101 C 
HETATM    3  N   UNL     1      -7.280   2.651 -33.927  1.00  0.00    -0.107 NA
HETATM    4  C   UNL     1      -6.645   1.467 -33.619  1.00  0.00     0.162 C 
HETATM    5  C   UNL     1      -6.561   1.455 -32.200  1.00  0.00     0.118 C 
HETATM    6  N   UNL     1      -7.212   0.214 -32.081  1.00  0.00    -0.242 NA
HETATM    7  C   UNL     1      -6.850  -0.802 -33.053  1.00  0.00     0.086 C 
HETATM    8  C   UNL     1      -5.711  -0.499 -33.740  1.00  0.00     0.087 C 
HETATM    9  N   UNL     1      -5.702   0.720 -34.275  1.00  0.00    -0.230 NA
HETATM   10  C   UNL     1      -7.475  -1.915 -33.721  1.00  0.00     0.034 C 
HETATM   11  C   UNL     1      -6.763  -2.758 -34.621  1.00  0.00     0.002 C 
HETATM   12  C   UNL     1      -5.387  -2.621 -34.715  1.00  0.00     0.002 C 
HETATM   13  C   UNL     1      -4.839  -1.472 -34.190  1.00  0.00     0.034 C 
ENDROOT
BRANCH   1  14
HETATM   14  C   UNL     1      -4.756   3.552 -31.686  1.00  0.00     0.261 C 
HETATM   15  N   UNL     1      -3.642   4.118 -32.316  1.00  0.00    -0.323 N 
HETATM   16  H   UNL     1      -3.261   3.661 -33.131  1.00  0.00     0.169 HD
HETATM   17  O   UNL     1      -4.862   3.677 -30.457  1.00  0.00    -0.267 OA
BRANCH  15  18
HETATM   18  C   UNL     1      -2.852   5.125 -31.630  1.00  0.00     0.035 C 
HETATM   19  C   UNL     1      -1.555   4.830 -31.181  1.00  0.00     0.037 C 
HETATM   20  C   UNL     1      -0.672   5.791 -30.673  1.00  0.00    -0.054 C 
HETATM   21  C   UNL     1      -1.201   6.992 -30.213  1.00  0.00    -0.056 C 
HETATM   22  C   UNL     1       0.800   5.561 -30.901  1.00  0.00     0.049 C 
HETATM   23  C   UNL     1      -0.453   7.821 -29.201  1.00  0.00     0.049 C 
HETATM   24  C   UNL     1      -2.515   7.315 -30.604  1.00  0.00     0.009 C 
HETATM   25  C   UNL     1      -3.309   6.420 -31.373  1.00  0.00     0.030 C 
ENDBRANCH  15  18
ENDBRANCH   1  14
BRANCH   2  26
HETATM   26  N   UNL     1      -5.620   4.219 -34.547  1.00  0.00    -0.291 NA
HETATM   27  H   UNL     1      -4.610   4.351 -34.432  1.00  0.00     0.125 HD
HETATM   28  H   UNL     1      -5.802   3.960 -35.522  1.00  0.00     0.125 HD
ENDBRANCH   2  26
BRANCH   3  29
HETATM   29  N   UNL     1      -8.563   3.095 -33.549  1.00  0.00    -0.198 NA
HETATM   30  C   UNL     1      -9.507   2.304 -33.976  1.00  0.00     0.147 C 
BRANCH  30  31
HETATM   31  C   UNL     1     -10.923   2.638 -33.916  1.00  0.00     0.010 A 
HETATM   32  C   UNL     1     -12.024   1.707 -33.810  1.00  0.00     0.004 A 
HETATM   33  C   UNL     1     -13.204   2.452 -33.764  1.00  0.00     0.043 A 
HETATM   34  C   UNL     1     -12.135   0.297 -33.743  1.00  0.00     0.014 A 
HETATM   35  C   UNL     1     -14.472   1.871 -33.613  1.00  0.00     0.030 A 
HETATM   36  N   UNL     1     -12.847   3.774 -33.897  1.00  0.00    -0.364 N 
HETATM   37  C   UNL     1     -14.548   0.477 -33.527  1.00  0.00     0.002 A 
HETATM   38  C   UNL     1     -13.397  -0.302 -33.604  1.00  0.00     0.001 A 
HETATM   39  H   UNL     1     -13.506   4.541 -33.922  1.00  0.00     0.165 HD
HETATM   40  C   UNL     1     -11.486   3.896 -34.005  1.00  0.00     0.102 A 
ENDBRANCH  30  31
ENDBRANCH   3  29
TORSDOF 5
ENDMDL
MODEL 5
REMARK VINA RESULT:     -10.1      2.272      8.259
REMARK  5 active torsions:
REMARK  status: ('A' for Active; 'I' for Inactive)
REMARK    1  A    between atoms: C_6  and  N_7 
REMARK       I    between atoms: N_7  and  C_8 
REMARK    2  A    between atoms: C_8  and  C_9 
REMARK    3  A    between atoms: C_10  and  N_11 
REMARK    4  A    between atoms: N_12  and  N_13 
REMARK    5  A    between atoms: C_14  and  C_15 
ROOT
HETATM    1  C   UNL     1      -7.444   1.904 -31.994  1.00  0.00     0.099 C 
HETATM    2  C   UNL     1      -6.889   2.862 -32.896  1.00  0.00     0.101 C 
HETATM    3  N   UNL     1      -7.247   3.997 -32.257  1.00  0.00    -0.107 NA
HETATM    4  C   UNL     1      -8.551   3.559 -32.163  1.00  0.00     0.162 C 
HETATM    5  C   UNL     1      -8.531   2.569 -31.144  1.00  0.00     0.118 C 
HETATM    6  N   UNL     1      -9.528   3.204 -30.382  1.00  0.00    -0.242 NA
HETATM    7  C   UNL     1     -10.642   3.774 -31.119  1.00  0.00     0.086 C 
HETATM    8  C   UNL     1     -10.705   3.336 -32.409  1.00  0.00     0.087 C 
HETATM    9  N   UNL     1      -9.561   3.446 -33.082  1.00  0.00    -0.230 NA
HETATM   10  C   UNL     1     -11.553   4.882 -30.994  1.00  0.00     0.034 C 
HETATM   11  C   UNL     1     -12.599   5.116 -31.932  1.00  0.00     0.002 C 
HETATM   12  C   UNL     1     -12.866   4.147 -32.887  1.00  0.00     0.002 C 
HETATM   13  C   UNL     1     -11.904   3.182 -33.080  1.00  0.00     0.034 C 
ENDROOT
BRANCH   1  14
HETATM   14  C   UNL     1      -7.022   0.512 -32.330  1.00  0.00     0.261 C 
HETATM   15  N   UNL     1      -6.874  -0.011 -33.619  1.00  0.00    -0.323 N 
HETATM   16  H   UNL     1      -7.486   0.318 -34.351  1.00  0.00     0.169 HD
HETATM   17  O   UNL     1      -6.777  -0.227 -31.366  1.00  0.00    -0.267 OA
BRANCH  15  18
HETATM   18  C   UNL     1      -6.105  -1.226 -33.828  1.00  0.00     0.035 C 
HETATM   19  C   UNL     1      -6.742  -2.412 -34.226  1.00  0.00     0.037 C 
HETATM   20  C   UNL     1      -6.055  -3.570 -34.614  1.00  0.00    -0.054 C 
HETATM   21  C   UNL     1      -4.729  -3.710 -34.221  1.00  0.00    -0.056 C 
HETATM   22  C   UNL     1      -6.718  -4.449 -35.643  1.00  0.00     0.049 C 
HETATM   23  C   UNL     1      -4.102  -5.076 -34.117  1.00  0.00     0.049 C 
HETATM   24  C   UNL     1      -4.058  -2.555 -33.775  1.00  0.00     0.009 C 
HETATM   25  C   UNL     1      -4.722  -1.303 -33.653  1.00  0.00     0.030 C 
ENDBRANCH  15  18
ENDBRANCH   1  14
BRANCH   2  26
HETATM   26  N   UNL     1      -6.245   2.891 -34.094  1.00  0.00    -0.291 NA
HETATM   27  H   UNL     1      -5.959   3.833 -34.381  1.00  0.00     0.125 HD
HETATM   28  H   UNL     1      -5.421   2.282 -34.126  1.00  0.00     0.125 HD
ENDBRANCH   2  26
BRANCH   3  29
HETATM   29  N   UNL     1      -6.439   4.600 -31.271  1.00  0.00    -0.198 NA
HETATM   30  C   UNL     1      -5.441   5.262 -31.784  1.00  0.00     0.147 C 
BRANCH  30  31
HETATM   31  C   UNL     1      -4.338   5.794 -30.995  1.00  0.00     0.010 A 
HETATM   32  C   UNL     1      -2.937   5.768 -31.347  1.00  0.00     0.004 A 
HETATM   33  C   UNL     1      -2.233   6.400 -30.320  1.00  0.00     0.043 A 
HETATM   34  C   UNL     1      -2.192   5.274 -32.445  1.00  0.00     0.014 A 
HETATM   35  C   UNL     1      -0.844   6.599 -30.352  1.00  0.00     0.030 A 
HETATM   36  N   UNL     1      -3.153   6.741 -29.356  1.00  0.00    -0.364 N 
HETATM   37  C   UNL     1      -0.139   6.119 -31.459  1.00  0.00     0.002 A 
HETATM   38  C   UNL     1      -0.800   5.454 -32.488  1.00  0.00     0.001 A 
HETATM   39  H   UNL     1      -2.920   7.193 -28.482  1.00  0.00     0.165 HD
HETATM   40  C   UNL     1      -4.414   6.368 -29.742  1.00  0.00     0.102 A 
ENDBRANCH  30  31
ENDBRANCH   3  29
TORSDOF 5
ENDMDL
MODEL 6
REMARK VINA RESULT:     -10.1      1.950      8.837
REMARK  5 active torsions:
REMARK  status: ('A' for Active; 'I' for Inactive)
REMARK    1  A    between atoms: C_6  and  N_7 
REMARK       I    between atoms: N_7  and  C_8 
REMARK    2  A    between atoms: C_8  and  C_9 
REMARK    3  A    between atoms: C_10  and  N_11 
REMARK    4  A    between atoms: N_12  and  N_13 
REMARK    5  A    between atoms: C_14  and  C_15 
ROOT
HETATM    1  C   UNL     1      -5.061   2.807 -32.257  1.00  0.00     0.099 C 
HETATM    2  C   UNL     1      -4.766   3.929 -33.089  1.00  0.00     0.101 C 
HETATM    3  N   UNL     1      -4.379   4.809 -32.140  1.00  0.00    -0.107 NA
HETATM    4  C   UNL     1      -5.521   4.556 -31.409  1.00  0.00     0.162 C 
HETATM    5  C   UNL     1      -5.304   3.281 -30.821  1.00  0.00     0.118 C 
HETATM    6  N   UNL     1      -5.528   3.746 -29.512  1.00  0.00    -0.242 NA
HETATM    7  C   UNL     1      -6.619   4.688 -29.338  1.00  0.00     0.086 C 
HETATM    8  C   UNL     1      -7.453   4.742 -30.416  1.00  0.00     0.087 C 
HETATM    9  N   UNL     1      -6.833   4.915 -31.582  1.00  0.00    -0.230 NA
HETATM   10  C   UNL     1      -6.945   5.801 -28.484  1.00  0.00     0.034 C 
HETATM   11  C   UNL     1      -8.185   6.494 -28.579  1.00  0.00     0.002 C 
HETATM   12  C   UNL     1      -9.182   5.967 -29.385  1.00  0.00     0.002 C 
HETATM   13  C   UNL     1      -8.804   5.003 -30.292  1.00  0.00     0.034 C 
ENDROOT
BRANCH   1  14
HETATM   14  C   UNL     1      -5.324   1.574 -33.058  1.00  0.00     0.261 C 
HETATM   15  N   UNL     1      -4.596   0.381 -32.990  1.00  0.00    -0.323 N 
HETATM   16  H   UNL     1      -3.606   0.426 -32.797  1.00  0.00     0.169 HD
HETATM   17  O   UNL     1      -6.285   1.631 -33.838  1.00  0.00    -0.267 OA
BRANCH  15  18
HETATM   18  C   UNL     1      -5.163  -0.848 -33.515  1.00  0.00     0.035 C 
HETATM   19  C   UNL     1      -4.327  -1.901 -33.922  1.00  0.00     0.037 C 
HETATM   20  C   UNL     1      -4.797  -3.174 -34.271  1.00  0.00    -0.054 C 
HETATM   21  C   UNL     1      -6.135  -3.308 -34.623  1.00  0.00    -0.056 C 
HETATM   22  C   UNL     1      -3.888  -4.343 -33.989  1.00  0.00     0.049 C 
HETATM   23  C   UNL     1      -6.588  -4.451 -35.494  1.00  0.00     0.049 C 
HETATM   24  C   UNL     1      -7.007  -2.258 -34.273  1.00  0.00     0.009 C 
HETATM   25  C   UNL     1      -6.535  -1.068 -33.652  1.00  0.00     0.030 C 
ENDBRANCH  15  18
ENDBRANCH   1  14
BRANCH   2  26
HETATM   26  N   UNL     1      -4.837   4.282 -34.400  1.00  0.00    -0.291 NA
HETATM   27  H   UNL     1      -5.249   3.557 -34.996  1.00  0.00     0.125 HD
HETATM   28  H   UNL     1      -5.350   5.156 -34.557  1.00  0.00     0.125 HD
ENDBRANCH   2  26
BRANCH   3  29
HETATM   29  N   UNL     1      -3.045   4.909 -31.695  1.00  0.00    -0.198 NA
HETATM   30  C   UNL     1      -2.822   6.014 -31.040  1.00  0.00     0.147 C 
BRANCH  30  31
HETATM   31  C   UNL     1      -1.491   6.469 -30.662  1.00  0.00     0.010 A 
HETATM   32  C   UNL     1      -1.128   7.144 -29.437  1.00  0.00     0.004 A 
HETATM   33  C   UNL     1       0.248   7.381 -29.479  1.00  0.00     0.043 A 
HETATM   34  C   UNL     1      -1.833   7.576 -28.288  1.00  0.00     0.014 A 
HETATM   35  C   UNL     1       0.954   7.982 -28.425  1.00  0.00     0.030 A 
HETATM   36  N   UNL     1       0.695   6.928 -30.698  1.00  0.00    -0.364 N 
HETATM   37  C   UNL     1       0.233   8.376 -27.295  1.00  0.00     0.002 A 
HETATM   38  C   UNL     1      -1.144   8.188 -27.229  1.00  0.00     0.001 A 
HETATM   39  H   UNL     1       1.654   6.994 -31.013  1.00  0.00     0.165 HD
HETATM   40  C   UNL     1      -0.340   6.395 -31.422  1.00  0.00     0.102 A 
ENDBRANCH  30  31
ENDBRANCH   3  29
TORSDOF 5
ENDMDL
MODEL 7
REMARK VINA RESULT:      -9.9      2.179      7.685
REMARK  5 active torsions:
REMARK  status: ('A' for Active; 'I' for Inactive)
REMARK    1  A    between atoms: C_6  and  N_7 
REMARK       I    between atoms: N_7  and  C_8 
REMARK    2  A    between atoms: C_8  and  C_9 
REMARK    3  A    between atoms: C_10  and  N_11 
REMARK    4  A    between atoms: N_12  and  N_13 
REMARK    5  A    between atoms: C_14  and  C_15 
ROOT
HETATM    1  C   UNL     1      -4.353   2.740 -32.185  1.00  0.00     0.099 C 
HETATM    2  C   UNL     1      -4.989   3.096 -30.956  1.00  0.00     0.101 C 
HETATM    3  N   UNL     1      -5.384   4.349 -31.270  1.00  0.00    -0.107 NA
HETATM    4  C   UNL     1      -4.114   4.664 -31.704  1.00  0.00     0.162 C 
HETATM    5  C   UNL     1      -3.983   4.009 -32.958  1.00  0.00     0.118 C 
HETATM    6  N   UNL     1      -3.649   5.192 -33.643  1.00  0.00    -0.242 NA
HETATM    7  C   UNL     1      -2.750   6.104 -32.960  1.00  0.00     0.086 C 
HETATM    8  C   UNL     1      -2.123   5.532 -31.892  1.00  0.00     0.087 C 
HETATM    9  N   UNL     1      -2.942   4.917 -31.040  1.00  0.00    -0.230 NA
HETATM   10  C   UNL     1      -2.515   7.523 -32.890  1.00  0.00     0.034 C 
HETATM   11  C   UNL     1      -1.464   8.082 -32.108  1.00  0.00     0.002 C 
HETATM   12  C   UNL     1      -0.524   7.230 -31.550  1.00  0.00     0.002 C 
HETATM   13  C   UNL     1      -0.846   5.892 -31.505  1.00  0.00     0.034 C 
ENDROOT
BRANCH   1  14
HETATM   14  C   UNL     1      -3.985   1.293 -32.223  1.00  0.00     0.261 C 
HETATM   15  N   UNL     1      -4.847   0.221 -31.969  1.00  0.00    -0.323 N 
HETATM   16  H   UNL     1      -5.586   0.340 -31.292  1.00  0.00     0.169 HD
HETATM   17  O   UNL     1      -2.808   1.042 -32.518  1.00  0.00    -0.267 OA
BRANCH  15  18
HETATM   18  C   UNL     1      -4.490  -1.119 -32.403  1.00  0.00     0.035 C 
HETATM   19  C   UNL     1      -5.207  -1.749 -33.432  1.00  0.00     0.037 C 
HETATM   20  C   UNL     1      -4.818  -2.958 -34.022  1.00  0.00    -0.054 C 
HETATM   21  C   UNL     1      -3.936  -3.776 -33.324  1.00  0.00    -0.056 C 
HETATM   22  C   UNL     1      -5.172  -3.161 -35.473  1.00  0.00     0.049 C 
HETATM   23  C   UNL     1      -3.886  -5.257 -33.598  1.00  0.00     0.049 C 
HETATM   24  C   UNL     1      -3.222  -3.200 -32.256  1.00  0.00     0.009 C 
HETATM   25  C   UNL     1      -3.441  -1.855 -31.848  1.00  0.00     0.030 C 
ENDBRANCH  15  18
ENDBRANCH   1  14
BRANCH   2  26
HETATM   26  N   UNL     1      -5.196   2.572 -29.718  1.00  0.00    -0.291 NA
HETATM   27  H   UNL     1      -4.346   2.196 -29.287  1.00  0.00     0.125 HD
HETATM   28  H   UNL     1      -5.621   3.237 -29.064  1.00  0.00     0.125 HD
ENDBRANCH   2  26
BRANCH   3  29
HETATM   29  N   UNL     1      -6.625   4.623 -31.881  1.00  0.00    -0.198 NA
HETATM   30  C   UNL     1      -7.581   3.864 -31.425  1.00  0.00     0.147 C 
BRANCH  30  31
HETATM   31  C   UNL     1      -8.903   3.786 -32.030  1.00  0.00     0.010 A 
HETATM   32  C   UNL     1      -9.565   2.591 -32.503  1.00  0.00     0.004 A 
HETATM   33  C   UNL     1     -10.819   2.968 -32.989  1.00  0.00     0.043 A 
HETATM   34  C   UNL     1      -9.223   1.218 -32.563  1.00  0.00     0.014 A 
HETATM   35  C   UNL     1     -11.755   2.048 -33.487  1.00  0.00     0.030 A 
HETATM   36  N   UNL     1     -10.897   4.336 -32.876  1.00  0.00    -0.364 N 
HETATM   37  C   UNL     1     -11.397   0.698 -33.512  1.00  0.00     0.002 A 
HETATM   38  C   UNL     1     -10.143   0.286 -33.068  1.00  0.00     0.001 A 
HETATM   39  H   UNL     1     -11.690   4.887 -33.175  1.00  0.00     0.165 HD
HETATM   40  C   UNL     1      -9.750   4.838 -32.318  1.00  0.00     0.102 A 
ENDBRANCH  30  31
ENDBRANCH   3  29
TORSDOF 5
ENDMDL
MODEL 8
REMARK VINA RESULT:      -9.8      2.585      8.409
REMARK  5 active torsions:
REMARK  status: ('A' for Active; 'I' for Inactive)
REMARK    1  A    between atoms: C_6  and  N_7 
REMARK       I    between atoms: N_7  and  C_8 
REMARK    2  A    between atoms: C_8  and  C_9 
REMARK    3  A    between atoms: C_10  and  N_11 
REMARK    4  A    between atoms: N_12  and  N_13 
REMARK    5  A    between atoms: C_14  and  C_15 
ROOT
HETATM    1  C   UNL     1      -6.180   2.573 -32.722  1.00  0.00     0.099 C 
HETATM    2  C   UNL     1      -6.587   2.400 -31.364  1.00  0.00     0.101 C 
HETATM    3  N   UNL     1      -6.859   3.687 -31.053  1.00  0.00    -0.107 NA
HETATM    4  C   UNL     1      -5.632   4.086 -31.539  1.00  0.00     0.162 C 
HETATM    5  C   UNL     1      -5.762   4.028 -32.953  1.00  0.00     0.118 C 
HETATM    6  N   UNL     1      -5.379   5.369 -33.135  1.00  0.00    -0.242 NA
HETATM    7  C   UNL     1      -4.283   5.846 -32.311  1.00  0.00     0.086 C 
HETATM    8  C   UNL     1      -3.592   4.837 -31.708  1.00  0.00     0.087 C 
HETATM    9  N   UNL     1      -4.356   3.963 -31.055  1.00  0.00    -0.230 NA
HETATM   10  C   UNL     1      -3.862   7.082 -31.702  1.00  0.00     0.034 C 
HETATM   11  C   UNL     1      -2.649   7.191 -30.964  1.00  0.00     0.002 C 
HETATM   12  C   UNL     1      -1.757   6.130 -30.989  1.00  0.00     0.002 C 
HETATM   13  C   UNL     1      -2.238   4.923 -31.445  1.00  0.00     0.034 C 
ENDROOT
BRANCH   1  14
HETATM   14  C   UNL     1      -6.009   1.265 -33.422  1.00  0.00     0.261 C 
HETATM   15  N   UNL     1      -5.460   0.103 -32.868  1.00  0.00    -0.323 N 
HETATM   16  H   UNL     1      -4.724   0.192 -32.183  1.00  0.00     0.169 HD
HETATM   17  O   UNL     1      -6.406   1.223 -34.596  1.00  0.00    -0.267 OA
BRANCH  15  18
HETATM   18  C   UNL     1      -5.693  -1.185 -33.498  1.00  0.00     0.035 C 
HETATM   19  C   UNL     1      -4.614  -2.018 -33.834  1.00  0.00     0.037 C 
HETATM   20  C   UNL     1      -4.762  -3.338 -34.279  1.00  0.00    -0.054 C 
HETATM   21  C   UNL     1      -5.995  -3.723 -34.795  1.00  0.00    -0.056 C 
HETATM   22  C   UNL     1      -3.665  -4.310 -33.926  1.00  0.00     0.049 C 
HETATM   23  C   UNL     1      -6.095  -4.883 -35.752  1.00  0.00     0.049 C 
HETATM   24  C   UNL     1      -7.102  -2.897 -34.520  1.00  0.00     0.009 C 
HETATM   25  C   UNL     1      -6.964  -1.673 -33.808  1.00  0.00     0.030 C 
ENDBRANCH  15  18
ENDBRANCH   1  14
BRANCH   2  26
HETATM   26  N   UNL     1      -6.685   1.409 -30.439  1.00  0.00    -0.291 NA
HETATM   27  H   UNL     1      -6.269   1.652 -29.534  1.00  0.00     0.125 HD
HETATM   28  H   UNL     1      -7.648   1.098 -30.278  1.00  0.00     0.125 HD
ENDBRANCH   2  26
BRANCH   3  29
HETATM   29  N   UNL     1      -8.127   4.267 -31.261  1.00  0.00    -0.198 NA
HETATM   30  C   UNL     1      -9.077   3.376 -31.314  1.00  0.00     0.147 C 
BRANCH  30  31
HETATM   31  C   UNL     1     -10.439   3.676 -31.733  1.00  0.00     0.010 A 
HETATM   32  C   UNL     1     -11.175   3.032 -32.796  1.00  0.00     0.004 A 
HETATM   33  C   UNL     1     -12.444   3.615 -32.843  1.00  0.00     0.043 A 
HETATM   34  C   UNL     1     -10.891   2.002 -33.725  1.00  0.00     0.014 A 
HETATM   35  C   UNL     1     -13.446   3.197 -33.732  1.00  0.00     0.030 A 
HETATM   36  N   UNL     1     -12.462   4.611 -31.895  1.00  0.00    -0.364 N 
HETATM   37  C   UNL     1     -13.143   2.163 -34.622  1.00  0.00     0.002 A 
HETATM   38  C   UNL     1     -11.879   1.580 -34.629  1.00  0.00     0.001 A 
HETATM   39  H   UNL     1     -13.251   5.218 -31.723  1.00  0.00     0.165 HD
HETATM   40  C   UNL     1     -11.261   4.668 -31.235  1.00  0.00     0.102 A 
ENDBRANCH  30  31
ENDBRANCH   3  29
TORSDOF 5
ENDMDL
MODEL 9
REMARK VINA RESULT:      -9.7      2.851      4.008
REMARK  5 active torsions:
REMARK  status: ('A' for Active; 'I' for Inactive)
REMARK    1  A    between atoms: C_6  and  N_7 
REMARK       I    between atoms: N_7  and  C_8 
REMARK    2  A    between atoms: C_8  and  C_9 
REMARK    3  A    between atoms: C_10  and  N_11 
REMARK    4  A    between atoms: N_12  and  N_13 
REMARK    5  A    between atoms: C_14  and  C_15 
ROOT
HETATM    1  C   UNL     1      -7.617   3.056 -32.247  1.00  0.00     0.099 C 
HETATM    2  C   UNL     1      -7.776   2.461 -30.958  1.00  0.00     0.101 C 
HETATM    3  N   UNL     1      -8.388   1.313 -31.322  1.00  0.00    -0.107 NA
HETATM    4  C   UNL     1      -9.313   2.016 -32.065  1.00  0.00     0.162 C 
HETATM    5  C   UNL     1      -8.611   2.427 -33.229  1.00  0.00     0.118 C 
HETATM    6  N   UNL     1      -9.537   1.836 -34.108  1.00  0.00    -0.242 NA
HETATM    7  C   UNL     1     -10.939   1.974 -33.757  1.00  0.00     0.086 C 
HETATM    8  C   UNL     1     -11.157   2.917 -32.797  1.00  0.00     0.087 C 
HETATM    9  N   UNL     1     -10.390   2.788 -31.717  1.00  0.00    -0.230 NA
HETATM   10  C   UNL     1     -12.159   1.223 -33.911  1.00  0.00     0.034 C 
HETATM   11  C   UNL     1     -13.416   1.715 -33.458  1.00  0.00     0.002 C 
HETATM   12  C   UNL     1     -13.500   3.030 -33.028  1.00  0.00     0.002 C 
HETATM   13  C   UNL     1     -12.314   3.673 -32.753  1.00  0.00     0.034 C 
ENDROOT
BRANCH   1  14
HETATM   14  C   UNL     1      -6.761   4.278 -32.195  1.00  0.00     0.261 C 
HETATM   15  N   UNL     1      -5.659   4.472 -31.354  1.00  0.00    -0.323 N 
HETATM   16  H   UNL     1      -5.669   4.055 -30.435  1.00  0.00     0.169 HD
HETATM   17  O   UNL     1      -7.065   5.185 -32.982  1.00  0.00    -0.267 OA
BRANCH  15  18
HETATM   18  C   UNL     1      -4.691   5.513 -31.652  1.00  0.00     0.035 C 
HETATM   19  C   UNL     1      -3.589   5.245 -32.481  1.00  0.00     0.037 C 
HETATM   20  C   UNL     1      -2.715   6.232 -32.954  1.00  0.00    -0.054 C 
HETATM   21  C   UNL     1      -2.671   7.448 -32.281  1.00  0.00    -0.056 C 
HETATM   22  C   UNL     1      -2.084   6.001 -34.303  1.00  0.00     0.049 C 
HETATM   23  C   UNL     1      -1.447   8.323 -32.361  1.00  0.00     0.049 C 
HETATM   24  C   UNL     1      -3.735   7.746 -31.407  1.00  0.00     0.009 C 
HETATM   25  C   UNL     1      -4.779   6.814 -31.153  1.00  0.00     0.030 C 
ENDBRANCH  15  18
ENDBRANCH   1  14
BRANCH   2  26
HETATM   26  N   UNL     1      -7.550   2.765 -29.652  1.00  0.00    -0.291 NA
HETATM   27  H   UNL     1      -7.802   3.728 -29.408  1.00  0.00     0.125 HD
HETATM   28  H   UNL     1      -8.026   2.133 -29.001  1.00  0.00     0.125 HD
ENDBRANCH   2  26
BRANCH   3  29
HETATM   29  N   UNL     1      -7.673   0.147 -31.667  1.00  0.00    -0.198 NA
HETATM   30  C   UNL     1      -6.383   0.338 -31.664  1.00  0.00     0.147 C 
BRANCH  30  31
HETATM   31  C   UNL     1      -5.428  -0.626 -32.189  1.00  0.00     0.010 A 
HETATM   32  C   UNL     1      -5.662  -1.583 -33.248  1.00  0.00     0.004 A 
HETATM   33  C   UNL     1      -4.476  -2.293 -33.444  1.00  0.00     0.043 A 
HETATM   34  C   UNL     1      -6.768  -1.914 -34.067  1.00  0.00     0.014 A 
HETATM   35  C   UNL     1      -4.327  -3.277 -34.433  1.00  0.00     0.030 A 
HETATM   36  N   UNL     1      -3.577  -1.837 -32.508  1.00  0.00    -0.364 N 
HETATM   37  C   UNL     1      -5.430  -3.566 -35.241  1.00  0.00     0.002 A 
HETATM   38  C   UNL     1      -6.640  -2.903 -35.054  1.00  0.00     0.001 A 
HETATM   39  H   UNL     1      -2.637  -2.193 -32.402  1.00  0.00     0.165 HD
HETATM   40  C   UNL     1      -4.140  -0.851 -31.741  1.00  0.00     0.102 A 
ENDBRANCH  30  31
ENDBRANCH   3  29
TORSDOF 5
ENDMDL
MODEL 10
REMARK VINA RESULT:      -9.3      5.706     10.356
REMARK  5 active torsions:
REMARK  status: ('A' for Active; 'I' for Inactive)
REMARK    1  A    between atoms: C_6  and  N_7 
REMARK       I    between atoms: N_7  and  C_8 
REMARK    2  A    between atoms: C_8  and  C_9 
REMARK    3  A    between atoms: C_10  and  N_11 
REMARK    4  A    between atoms: N_12  and  N_13 
REMARK    5  A    between atoms: C_14  and  C_15 
ROOT
HETATM    1  C   UNL     1     -11.210   2.344 -33.751  1.00  0.00     0.099 C 
HETATM    2  C   UNL     1     -11.306   2.887 -32.433  1.00  0.00     0.101 C 
HETATM    3  N   UNL     1     -12.433   3.617 -32.580  1.00  0.00    -0.107 NA
HETATM    4  C   UNL     1     -11.929   4.208 -33.719  1.00  0.00     0.162 C 
HETATM    5  C   UNL     1     -12.022   3.206 -34.722  1.00  0.00     0.118 C 
HETATM    6  N   UNL     1     -12.771   4.018 -35.593  1.00  0.00    -0.242 NA
HETATM    7  C   UNL     1     -12.366   5.410 -35.687  1.00  0.00     0.086 C 
HETATM    8  C   UNL     1     -11.132   5.642 -35.154  1.00  0.00     0.087 C 
HETATM    9  N   UNL     1     -10.968   5.164 -33.922  1.00  0.00    -0.230 NA
HETATM   10  C   UNL     1     -12.983   6.690 -35.924  1.00  0.00     0.034 C 
HETATM   11  C   UNL     1     -12.228   7.895 -35.994  1.00  0.00     0.002 C 
HETATM   12  C   UNL     1     -10.844   7.814 -36.023  1.00  0.00     0.002 C 
HETATM   13  C   UNL     1     -10.284   6.613 -35.651  1.00  0.00     0.034 C 
ENDROOT
BRANCH   1  14
HETATM   14  C   UNL     1     -10.148   1.299 -33.846  1.00  0.00     0.261 C 
HETATM   15  N   UNL     1      -8.968   1.394 -34.593  1.00  0.00    -0.323 N 
HETATM   16  H   UNL     1      -8.983   1.909 -35.461  1.00  0.00     0.169 HD
HETATM   17  O   UNL     1     -10.344   0.266 -33.189  1.00  0.00    -0.267 OA
BRANCH  15  18
HETATM   18  C   UNL     1      -7.855   0.504 -34.312  1.00  0.00     0.035 C 
HETATM   19  C   UNL     1      -7.043   0.713 -33.186  1.00  0.00     0.037 C 
HETATM   20  C   UNL     1      -6.067  -0.194 -32.754  1.00  0.00    -0.054 C 
HETATM   21  C   UNL     1      -5.593  -1.133 -33.663  1.00  0.00    -0.056 C 
HETATM   22  C   UNL     1      -5.796  -0.257 -31.272  1.00  0.00     0.049 C 
HETATM   23  C   UNL     1      -4.234  -1.758 -33.481  1.00  0.00     0.049 C 
HETATM   24  C   UNL     1      -6.353  -1.349 -34.830  1.00  0.00     0.009 C 
HETATM   25  C   UNL     1      -7.521  -0.589 -35.115  1.00  0.00     0.030 C 
ENDBRANCH  15  18
ENDBRANCH   1  14
BRANCH   2  26
HETATM   26  N   UNL     1     -10.600   2.892 -31.271  1.00  0.00    -0.291 NA
HETATM   27  H   UNL     1      -9.586   2.951 -31.409  1.00  0.00     0.125 HD
HETATM   28  H   UNL     1     -10.881   3.640 -30.630  1.00  0.00     0.125 HD
ENDBRANCH   2  26
BRANCH   3  29
HETATM   29  N   UNL     1     -13.718   3.084 -32.351  1.00  0.00    -0.198 NA
HETATM   30  C   UNL     1     -14.657   3.980 -32.477  1.00  0.00     0.147 C 
BRANCH  30  31
HETATM   31  C   UNL     1     -16.041   3.755 -32.086  1.00  0.00     0.010 A 
HETATM   32  C   UNL     1     -16.965   4.744 -31.579  1.00  0.00     0.004 A 
HETATM   33  C   UNL     1     -18.185   4.103 -31.350  1.00  0.00     0.043 A 
HETATM   34  C   UNL     1     -16.888   6.129 -31.297  1.00  0.00     0.014 A 
HETATM   35  C   UNL     1     -19.330   4.776 -30.898  1.00  0.00     0.030 A 
HETATM   36  N   UNL     1     -17.998   2.772 -31.643  1.00  0.00    -0.364 N 
HETATM   37  C   UNL     1     -19.229   6.148 -30.649  1.00  0.00     0.002 A 
HETATM   38  C   UNL     1     -18.022   6.815 -30.834  1.00  0.00     0.001 A 
HETATM   39  H   UNL     1     -18.712   2.063 -31.544  1.00  0.00     0.165 HD
HETATM   40  C   UNL     1     -16.715   2.549 -32.068  1.00  0.00     0.102 A 
ENDBRANCH  30  31
ENDBRANCH   3  29
TORSDOF 5
ENDMDL
