MODEL 1
REMARK VINA RESULT:      -9.3      0.000      0.000
REMARK  9 active torsions:
REMARK  status: ('A' for Active; 'I' for Inactive)
REMARK    1  A    between atoms: C_2  and  N_3 
REMARK    2  A    between atoms: N_3  and  C_4 
REMARK    3  A    between atoms: N_3  and  C_34 
REMARK    4  A    between atoms: C_6  and  O_7 
REMARK    5  A    between atoms: C_8  and  C_9 
REMARK    6  A    between atoms: N_10  and  N_11 
REMARK       I    between atoms: N_11  and  C_12 
REMARK    7  A    between atoms: C_12  and  C_13 
REMARK    8  A    between atoms: C_16  and  N_17 
REMARK    9  A    between atoms: C_21  and  C_22 
ROOT
HETATM    1  C   UNL     1      -2.771   4.372 -31.854  1.00  0.00     0.033 A 
HETATM    2  C   UNL     1      -3.533   3.384 -31.220  1.00  0.00     0.019 A 
HETATM    3  C   UNL     1      -4.655   2.842 -31.863  1.00  0.00     0.030 A 
HETATM    4  C   UNL     1      -5.049   3.275 -33.141  1.00  0.00     0.034 A 
HETATM    5  C   UNL     1      -4.289   4.282 -33.747  1.00  0.00     0.030 A 
HETATM    6  C   UNL     1      -3.162   4.823 -33.117  1.00  0.00     0.019 A 
ENDROOT
BRANCH   1   7
HETATM    7  C   UNL     1      -1.576   4.996 -31.216  1.00  0.00     0.271 C 
HETATM    8  N   UNL     1      -1.851   5.860 -30.160  1.00  0.00    -0.243 N 
HETATM    9  H   UNL     1      -2.749   5.766 -29.699  1.00  0.00     0.192 HD
HETATM   10  O   UNL     1      -0.461   4.688 -31.626  1.00  0.00    -0.266 OA
BRANCH   8  11
HETATM   11  N   UNL     1      -0.904   6.450 -29.362  1.00  0.00    -0.183 NA
HETATM   12  C   UNL     1      -1.314   7.130 -28.335  1.00  0.00     0.153 C 
BRANCH  12  13
HETATM   13  C   UNL     1      -0.367   7.851 -27.458  1.00  0.00     0.016 A 
HETATM   14  C   UNL     1      -0.740   8.238 -26.174  1.00  0.00     0.079 A 
HETATM   15  C   UNL     1       0.160   8.934 -25.353  1.00  0.00     0.066 A 
HETATM   16  C   UNL     1       1.459   9.278 -25.778  1.00  0.00     0.032 A 
HETATM   17  C   UNL     1       1.799   8.867 -27.081  1.00  0.00     0.030 A 
HETATM   18  C   UNL     1       0.911   8.167 -27.910  1.00  0.00     0.018 A 
BRANCH  14  19
HETATM   19  O   UNL     1      -1.989   7.938 -25.704  1.00  0.00    -0.360 OA
HETATM   20  H   UNL     1      -2.331   8.693 -25.198  1.00  0.00     0.217 HD
ENDBRANCH  14  19
BRANCH  16  21
HETATM   21  N   UNL     1       2.348   9.975 -24.964  1.00  0.00    -0.382 N 
BRANCH  21  22
HETATM   22  C   UNL     1       2.135  11.385 -24.602  1.00  0.00     0.118 C 
HETATM   23  C   UNL     1       1.372  11.497 -23.290  1.00  0.00     0.026 C 
ENDBRANCH  21  22
BRANCH  21  24
HETATM   24  C   UNL     1       3.526   9.338 -24.358  1.00  0.00     0.118 C 
HETATM   25  C   UNL     1       3.132   8.540 -23.123  1.00  0.00     0.026 C 
ENDBRANCH  21  24
ENDBRANCH  16  21
ENDBRANCH  12  13
ENDBRANCH   8  11
ENDBRANCH   1   7
BRANCH   4  26
HETATM   26  N   UNL     1      -6.217   2.732 -33.704  1.00  0.00    -0.335 N 
HETATM   27  C   UNL     1      -6.513   1.432 -33.943  1.00  0.00     0.171 A 
HETATM   28  S   UNL     1      -8.088   1.027 -34.528  1.00  0.00    -0.061 SA
HETATM   29  N   UNL     1      -5.713   0.399 -33.813  1.00  0.00    -0.223 NA
HETATM   30  C   UNL     1      -7.641  -0.626 -34.599  1.00  0.00     0.085 A 
HETATM   31  C   UNL     1      -6.333  -0.784 -34.188  1.00  0.00     0.076 A 
HETATM   32  H   UNL     1      -6.924   3.412 -33.951  1.00  0.00     0.168 HD
BRANCH  31  33
HETATM   33  C   UNL     1      -5.605  -2.053 -34.144  1.00  0.00    -0.007 A 
HETATM   34  C   UNL     1      -4.366  -2.196 -33.501  1.00  0.00     0.014 A 
HETATM   35  C   UNL     1      -3.711  -3.432 -33.477  1.00  0.00     0.001 A 
HETATM   36  C   UNL     1      -4.283  -4.541 -34.096  1.00  0.00     0.000 A 
HETATM   37  C   UNL     1      -5.510  -4.418 -34.740  1.00  0.00     0.001 A 
HETATM   38  C   UNL     1      -6.164  -3.184 -34.763  1.00  0.00     0.014 A 
ENDBRANCH  31  33
ENDBRANCH   4  26
TORSDOF 9
ENDMDL
MODEL 2
REMARK VINA RESULT:      -9.0      0.832      1.657
REMARK  9 active torsions:
REMARK  status: ('A' for Active; 'I' for Inactive)
REMARK    1  A    between atoms: C_2  and  N_3 
REMARK    2  A    between atoms: N_3  and  C_4 
REMARK    3  A    between atoms: N_3  and  C_34 
REMARK    4  A    between atoms: C_6  and  O_7 
REMARK    5  A    between atoms: C_8  and  C_9 
REMARK    6  A    between atoms: N_10  and  N_11 
REMARK       I    between atoms: N_11  and  C_12 
REMARK    7  A    between atoms: C_12  and  C_13 
REMARK    8  A    between atoms: C_16  and  N_17 
REMARK    9  A    between atoms: C_21  and  C_22 
ROOT
HETATM    1  C   UNL     1      -2.928   4.326 -31.855  1.00  0.00     0.033 A 
HETATM    2  C   UNL     1      -3.572   3.191 -31.349  1.00  0.00     0.019 A 
HETATM    3  C   UNL     1      -4.712   2.687 -31.989  1.00  0.00     0.030 A 
HETATM    4  C   UNL     1      -5.242   3.301 -33.137  1.00  0.00     0.034 A 
HETATM    5  C   UNL     1      -4.599   4.449 -33.613  1.00  0.00     0.030 A 
HETATM    6  C   UNL     1      -3.455   4.956 -32.986  1.00  0.00     0.019 A 
ENDROOT
BRANCH   1   7
HETATM    7  C   UNL     1      -1.720   4.917 -31.211  1.00  0.00     0.271 C 
HETATM    8  N   UNL     1      -1.971   5.964 -30.329  1.00  0.00    -0.243 N 
HETATM    9  H   UNL     1      -2.907   6.039 -29.945  1.00  0.00     0.192 HD
HETATM   10  O   UNL     1      -0.621   4.434 -31.463  1.00  0.00    -0.266 OA
BRANCH   8  11
HETATM   11  N   UNL     1      -1.025   6.574 -29.545  1.00  0.00    -0.183 NA
HETATM   12  C   UNL     1      -1.414   7.101 -28.424  1.00  0.00     0.153 C 
BRANCH  12  13
HETATM   13  C   UNL     1      -0.474   7.832 -27.547  1.00  0.00     0.016 A 
HETATM   14  C   UNL     1       0.781   7.308 -27.256  1.00  0.00     0.079 A 
HETATM   15  C   UNL     1       1.662   8.001 -26.411  1.00  0.00     0.066 A 
HETATM   16  C   UNL     1       1.325   9.235 -25.819  1.00  0.00     0.032 A 
HETATM   17  C   UNL     1       0.049   9.733 -26.140  1.00  0.00     0.030 A 
HETATM   18  C   UNL     1      -0.839   9.053 -26.986  1.00  0.00     0.018 A 
BRANCH  14  19
HETATM   19  O   UNL     1       1.165   6.111 -27.795  1.00  0.00    -0.360 OA
HETATM   20  H   UNL     1       1.825   6.269 -28.489  1.00  0.00     0.217 HD
ENDBRANCH  14  19
BRANCH  16  21
HETATM   21  N   UNL     1       2.197   9.918 -24.975  1.00  0.00    -0.382 N 
BRANCH  21  22
HETATM   22  C   UNL     1       3.450   9.315 -24.494  1.00  0.00     0.118 C 
HETATM   23  C   UNL     1       3.239   8.626 -23.154  1.00  0.00     0.026 C 
ENDBRANCH  21  22
BRANCH  21  24
HETATM   24  C   UNL     1       1.964  11.308 -24.558  1.00  0.00     0.118 C 
HETATM   25  C   UNL     1       1.194  11.355 -23.246  1.00  0.00     0.026 C 
ENDBRANCH  21  24
ENDBRANCH  16  21
ENDBRANCH  12  13
ENDBRANCH   8  11
ENDBRANCH   1   7
BRANCH   4  26
HETATM   26  N   UNL     1      -6.421   2.778 -33.696  1.00  0.00    -0.335 N 
HETATM   27  C   UNL     1      -6.729   1.486 -33.961  1.00  0.00     0.171 A 
HETATM   28  S   UNL     1      -8.314   1.104 -34.532  1.00  0.00    -0.061 SA
HETATM   29  N   UNL     1      -5.933   0.445 -33.866  1.00  0.00    -0.223 NA
HETATM   30  C   UNL     1      -7.879  -0.550 -34.647  1.00  0.00     0.085 A 
HETATM   31  C   UNL     1      -6.567  -0.724 -34.259  1.00  0.00     0.076 A 
HETATM   32  H   UNL     1      -7.127   3.468 -33.917  1.00  0.00     0.168 HD
BRANCH  31  33
HETATM   33  C   UNL     1      -5.846  -2.000 -34.254  1.00  0.00    -0.007 A 
HETATM   34  C   UNL     1      -6.369  -3.169 -34.825  1.00  0.00     0.014 A 
HETATM   35  C   UNL     1      -5.640  -4.363 -34.804  1.00  0.00     0.001 A 
HETATM   36  C   UNL     1      -4.379  -4.405 -34.213  1.00  0.00     0.000 A 
HETATM   37  C   UNL     1      -3.846  -3.255 -33.641  1.00  0.00     0.001 A 
HETATM   38  C   UNL     1      -4.574  -2.063 -33.662  1.00  0.00     0.014 A 
ENDBRANCH  31  33
ENDBRANCH   4  26
TORSDOF 9
ENDMDL
MODEL 3
REMARK VINA RESULT:      -8.6      1.108      1.438
REMARK  9 active torsions:
REMARK  status: ('A' for Active; 'I' for Inactive)
REMARK    1  A    between atoms: C_2  and  N_3 
REMARK    2  A    between atoms: N_3  and  C_4 
REMARK    3  A    between atoms: N_3  and  C_34 
REMARK    4  A    between atoms: C_6  and  O_7 
REMARK    5  A    between atoms: C_8  and  C_9 
REMARK    6  A    between atoms: N_10  and  N_11 
REMARK       I    between atoms: N_11  and  C_12 
REMARK    7  A    between atoms: C_12  and  C_13 
REMARK    8  A    between atoms: C_16  and  N_17 
REMARK    9  A    between atoms: C_21  and  C_22 
ROOT
HETATM    1  C   UNL     1      -3.449   5.304 -31.481  1.00  0.00     0.033 A 
HETATM    2  C   UNL     1      -4.566   5.041 -30.679  1.00  0.00     0.019 A 
HETATM    3  C   UNL     1      -5.709   4.453 -31.239  1.00  0.00     0.030 A 
HETATM    4  C   UNL     1      -5.771   4.122 -32.603  1.00  0.00     0.034 A 
HETATM    5  C   UNL     1      -4.653   4.415 -33.393  1.00  0.00     0.030 A 
HETATM    6  C   UNL     1      -3.504   4.996 -32.842  1.00  0.00     0.019 A 
ENDROOT
BRANCH   1   7
HETATM    7  C   UNL     1      -2.211   5.940 -30.947  1.00  0.00     0.271 C 
HETATM    8  N   UNL     1      -2.346   6.550 -29.703  1.00  0.00    -0.243 N 
HETATM    9  H   UNL     1      -3.126   6.261 -29.121  1.00  0.00     0.192 HD
HETATM   10  O   UNL     1      -1.175   5.856 -31.600  1.00  0.00    -0.266 OA
BRANCH   8  11
HETATM   11  N   UNL     1      -1.316   7.093 -28.979  1.00  0.00    -0.183 NA
HETATM   12  C   UNL     1      -1.434   7.124 -27.685  1.00  0.00     0.153 C 
BRANCH  12  13
HETATM   13  C   UNL     1      -0.400   7.746 -26.831  1.00  0.00     0.016 A 
HETATM   14  C   UNL     1      -0.711   8.825 -26.009  1.00  0.00     0.079 A 
HETATM   15  C   UNL     1       0.278   9.420 -25.211  1.00  0.00     0.066 A 
HETATM   16  C   UNL     1       1.614   8.971 -25.207  1.00  0.00     0.032 A 
HETATM   17  C   UNL     1       1.889   7.876 -26.049  1.00  0.00     0.030 A 
HETATM   18  C   UNL     1       0.908   7.270 -26.847  1.00  0.00     0.018 A 
BRANCH  14  19
HETATM   19  O   UNL     1      -1.989   9.312 -25.973  1.00  0.00    -0.360 OA
HETATM   20  H   UNL     1      -2.052  10.093 -26.546  1.00  0.00     0.217 HD
ENDBRANCH  14  19
BRANCH  16  21
HETATM   21  N   UNL     1       2.597   9.566 -24.420  1.00  0.00    -0.382 N 
BRANCH  21  22
HETATM   22  C   UNL     1       2.560  10.995 -24.075  1.00  0.00     0.118 C 
HETATM   23  C   UNL     1       1.947  11.204 -22.698  1.00  0.00     0.026 C 
ENDBRANCH  21  22
BRANCH  21  24
HETATM   24  C   UNL     1       3.702   8.800 -23.827  1.00  0.00     0.118 C 
HETATM   25  C   UNL     1       4.973   9.638 -23.777  1.00  0.00     0.026 C 
ENDBRANCH  21  24
ENDBRANCH  16  21
ENDBRANCH  12  13
ENDBRANCH   8  11
ENDBRANCH   1   7
BRANCH   4  26
HETATM   26  N   UNL     1      -6.967   3.588 -33.112  1.00  0.00    -0.335 N 
HETATM   27  C   UNL     1      -7.242   2.305 -33.452  1.00  0.00     0.171 A 
HETATM   28  S   UNL     1      -8.850   1.894 -33.933  1.00  0.00    -0.061 SA
HETATM   29  N   UNL     1      -6.400   1.299 -33.497  1.00  0.00    -0.223 NA
HETATM   30  C   UNL     1      -8.358   0.275 -34.207  1.00  0.00     0.085 A 
HETATM   31  C   UNL     1      -7.014   0.133 -33.931  1.00  0.00     0.076 A 
HETATM   32  H   UNL     1      -7.716   4.258 -33.227  1.00  0.00     0.168 HD
BRANCH  31  33
HETATM   33  C   UNL     1      -6.243  -1.104 -34.078  1.00  0.00    -0.007 A 
HETATM   34  C   UNL     1      -6.750  -2.241 -34.725  1.00  0.00     0.014 A 
HETATM   35  C   UNL     1      -5.973  -3.398 -34.849  1.00  0.00     0.001 A 
HETATM   36  C   UNL     1      -4.682  -3.436 -34.329  1.00  0.00     0.000 A 
HETATM   37  C   UNL     1      -4.164  -2.318 -33.682  1.00  0.00     0.001 A 
HETATM   38  C   UNL     1      -4.939  -1.163 -33.559  1.00  0.00     0.014 A 
ENDBRANCH  31  33
ENDBRANCH   4  26
TORSDOF 9
ENDMDL
MODEL 4
REMARK VINA RESULT:      -8.3      9.564     13.846
REMARK  9 active torsions:
REMARK  status: ('A' for Active; 'I' for Inactive)
REMARK    1  A    between atoms: C_2  and  N_3 
REMARK    2  A    between atoms: N_3  and  C_4 
REMARK    3  A    between atoms: N_3  and  C_34 
REMARK    4  A    between atoms: C_6  and  O_7 
REMARK    5  A    between atoms: C_8  and  C_9 
REMARK    6  A    between atoms: N_10  and  N_11 
REMARK       I    between atoms: N_11  and  C_12 
REMARK    7  A    between atoms: C_12  and  C_13 
REMARK    8  A    between atoms: C_16  and  N_17 
REMARK    9  A    between atoms: C_21  and  C_22 
ROOT
HETATM    1  C   UNL     1     -13.717   2.654 -32.982  1.00  0.00     0.033 A 
HETATM    2  C   UNL     1     -14.947   2.300 -32.417  1.00  0.00     0.019 A 
HETATM    3  C   UNL     1     -15.840   3.296 -31.999  1.00  0.00     0.030 A 
HETATM    4  C   UNL     1     -15.529   4.661 -32.124  1.00  0.00     0.034 A 
HETATM    5  C   UNL     1     -14.283   4.994 -32.668  1.00  0.00     0.030 A 
HETATM    6  C   UNL     1     -13.388   4.007 -33.096  1.00  0.00     0.019 A 
ENDROOT
BRANCH   1   7
HETATM    7  C   UNL     1     -12.720   1.641 -33.433  1.00  0.00     0.271 C 
HETATM    8  N   UNL     1     -11.435   1.807 -32.926  1.00  0.00    -0.243 N 
HETATM    9  H   UNL     1     -11.332   2.360 -32.082  1.00  0.00     0.192 HD
HETATM   10  O   UNL     1     -13.094   0.732 -34.169  1.00  0.00    -0.266 OA
BRANCH   8  11
HETATM   11  N   UNL     1     -10.396   0.931 -33.117  1.00  0.00    -0.183 NA
HETATM   12  C   UNL     1      -9.205   1.319 -32.775  1.00  0.00     0.153 C 
BRANCH  12  13
HETATM   13  C   UNL     1      -8.020   0.465 -33.003  1.00  0.00     0.016 A 
HETATM   14  C   UNL     1      -7.706   0.009 -34.279  1.00  0.00     0.079 A 
HETATM   15  C   UNL     1      -6.587  -0.814 -34.484  1.00  0.00     0.066 A 
HETATM   16  C   UNL     1      -5.746  -1.220 -33.430  1.00  0.00     0.032 A 
HETATM   17  C   UNL     1      -6.094  -0.736 -32.155  1.00  0.00     0.030 A 
HETATM   18  C   UNL     1      -7.206   0.091 -31.937  1.00  0.00     0.018 A 
BRANCH  14  19
HETATM   19  O   UNL     1      -8.487   0.363 -35.344  1.00  0.00    -0.360 OA
HETATM   20  H   UNL     1      -9.409   0.120 -35.161  1.00  0.00     0.217 HD
ENDBRANCH  14  19
BRANCH  16  21
HETATM   21  N   UNL     1      -4.640  -2.041 -33.634  1.00  0.00    -0.382 N 
BRANCH  21  22
HETATM   22  C   UNL     1      -4.562  -2.978 -34.766  1.00  0.00     0.118 C 
HETATM   23  C   UNL     1      -5.535  -4.134 -34.579  1.00  0.00     0.026 C 
ENDBRANCH  21  22
BRANCH  21  24
HETATM   24  C   UNL     1      -3.448  -1.987 -32.776  1.00  0.00     0.118 C 
HETATM   25  C   UNL     1      -3.252  -3.305 -32.041  1.00  0.00     0.026 C 
ENDBRANCH  21  24
ENDBRANCH  16  21
ENDBRANCH  12  13
ENDBRANCH   8  11
ENDBRANCH   1   7
BRANCH   4  26
HETATM   26  N   UNL     1     -16.444   5.607 -31.632  1.00  0.00    -0.335 N 
HETATM   27  C   UNL     1     -16.418   6.272 -30.451  1.00  0.00     0.171 A 
HETATM   28  S   UNL     1     -17.608   7.489 -30.150  1.00  0.00    -0.061 SA
HETATM   29  N   UNL     1     -15.591   6.079 -29.450  1.00  0.00    -0.223 NA
HETATM   30  C   UNL     1     -16.950   7.752 -28.590  1.00  0.00     0.085 A 
HETATM   31  C   UNL     1     -15.880   6.907 -28.376  1.00  0.00     0.076 A 
HETATM   32  H   UNL     1     -17.214   5.817 -32.254  1.00  0.00     0.168 HD
BRANCH  31  33
HETATM   33  C   UNL     1     -15.090   6.833 -27.144  1.00  0.00    -0.007 A 
HETATM   34  C   UNL     1     -14.065   7.741 -26.845  1.00  0.00     0.014 A 
HETATM   35  C   UNL     1     -13.343   7.636 -25.651  1.00  0.00     0.001 A 
HETATM   36  C   UNL     1     -13.634   6.622 -24.741  1.00  0.00     0.000 A 
HETATM   37  C   UNL     1     -14.647   5.711 -25.023  1.00  0.00     0.001 A 
HETATM   38  C   UNL     1     -15.368   5.817 -26.215  1.00  0.00     0.014 A 
ENDBRANCH  31  33
ENDBRANCH   4  26
TORSDOF 9
ENDMDL
MODEL 5
REMARK VINA RESULT:      -8.2      9.699     14.158
REMARK  9 active torsions:
REMARK  status: ('A' for Active; 'I' for Inactive)
REMARK    1  A    between atoms: C_2  and  N_3 
REMARK    2  A    between atoms: N_3  and  C_4 
REMARK    3  A    between atoms: N_3  and  C_34 
REMARK    4  A    between atoms: C_6  and  O_7 
REMARK    5  A    between atoms: C_8  and  C_9 
REMARK    6  A    between atoms: N_10  and  N_11 
REMARK       I    between atoms: N_11  and  C_12 
REMARK    7  A    between atoms: C_12  and  C_13 
REMARK    8  A    between atoms: C_16  and  N_17 
REMARK    9  A    between atoms: C_21  and  C_22 
ROOT
HETATM    1  C   UNL     1     -14.261   2.608 -32.772  1.00  0.00     0.033 A 
HETATM    2  C   UNL     1     -15.574   2.360 -32.357  1.00  0.00     0.019 A 
HETATM    3  C   UNL     1     -16.399   3.424 -31.966  1.00  0.00     0.030 A 
HETATM    4  C   UNL     1     -15.937   4.751 -31.970  1.00  0.00     0.034 A 
HETATM    5  C   UNL     1     -14.613   4.976 -32.364  1.00  0.00     0.030 A 
HETATM    6  C   UNL     1     -13.784   3.921 -32.763  1.00  0.00     0.019 A 
ENDROOT
BRANCH   1   7
HETATM    7  C   UNL     1     -13.331   1.518 -33.186  1.00  0.00     0.271 C 
HETATM    8  N   UNL     1     -11.981   1.854 -33.177  1.00  0.00    -0.243 N 
HETATM    9  H   UNL     1     -11.700   2.649 -32.613  1.00  0.00     0.192 HD
HETATM   10  O   UNL     1     -13.799   0.417 -33.463  1.00  0.00    -0.266 OA
BRANCH   8  11
HETATM   11  N   UNL     1     -10.952   0.978 -33.411  1.00  0.00    -0.183 NA
HETATM   12  C   UNL     1      -9.746   1.371 -33.133  1.00  0.00     0.153 C 
BRANCH  12  13
HETATM   13  C   UNL     1      -8.572   0.516 -33.411  1.00  0.00     0.016 A 
HETATM   14  C   UNL     1      -7.760   0.064 -32.376  1.00  0.00     0.079 A 
HETATM   15  C   UNL     1      -6.640  -0.736 -32.649  1.00  0.00     0.066 A 
HETATM   16  C   UNL     1      -6.280  -1.108 -33.959  1.00  0.00     0.032 A 
HETATM   17  C   UNL     1      -7.127  -0.634 -34.979  1.00  0.00     0.030 A 
HETATM   18  C   UNL     1      -8.253   0.162 -34.719  1.00  0.00     0.018 A 
BRANCH  14  19
HETATM   19  O   UNL     1      -8.052   0.396 -31.081  1.00  0.00    -0.360 OA
HETATM   20  H   UNL     1      -8.224  -0.413 -30.573  1.00  0.00     0.217 HD
ENDBRANCH  14  19
BRANCH  16  21
HETATM   21  N   UNL     1      -5.164  -1.896 -34.229  1.00  0.00    -0.382 N 
BRANCH  21  22
HETATM   22  C   UNL     1      -5.205  -3.002 -35.197  1.00  0.00     0.118 C 
HETATM   23  C   UNL     1      -6.237  -4.042 -34.788  1.00  0.00     0.026 C 
ENDBRANCH  21  22
BRANCH  21  24
HETATM   24  C   UNL     1      -3.852  -1.640 -33.617  1.00  0.00     0.118 C 
HETATM   25  C   UNL     1      -3.545  -2.678 -32.546  1.00  0.00     0.026 C 
ENDBRANCH  21  24
ENDBRANCH  16  21
ENDBRANCH  12  13
ENDBRANCH   8  11
ENDBRANCH   1   7
BRANCH   4  26
HETATM   26  N   UNL     1     -16.797   5.764 -31.511  1.00  0.00    -0.335 N 
HETATM   27  C   UNL     1     -16.724   6.477 -30.361  1.00  0.00     0.171 A 
HETATM   28  S   UNL     1     -17.846   7.765 -30.103  1.00  0.00    -0.061 SA
HETATM   29  N   UNL     1     -15.896   6.285 -29.361  1.00  0.00    -0.223 NA
HETATM   30  C   UNL     1     -17.158   8.061 -28.562  1.00  0.00     0.085 A 
HETATM   31  C   UNL     1     -16.130   7.173 -28.321  1.00  0.00     0.076 A 
HETATM   32  H   UNL     1     -17.562   5.986 -32.135  1.00  0.00     0.168 HD
BRANCH  31  33
HETATM   33  C   UNL     1     -15.331   7.111 -27.095  1.00  0.00    -0.007 A 
HETATM   34  C   UNL     1     -14.602   8.206 -26.609  1.00  0.00     0.014 A 
HETATM   35  C   UNL     1     -13.860   8.103 -25.427  1.00  0.00     0.001 A 
HETATM   36  C   UNL     1     -13.835   6.906 -24.716  1.00  0.00     0.000 A 
HETATM   37  C   UNL     1     -14.551   5.809 -25.185  1.00  0.00     0.001 A 
HETATM   38  C   UNL     1     -15.292   5.912 -26.364  1.00  0.00     0.014 A 
ENDBRANCH  31  33
ENDBRANCH   4  26
TORSDOF 9
ENDMDL
MODEL 6
REMARK VINA RESULT:      -8.2      4.113     12.850
REMARK  9 active torsions:
REMARK  status: ('A' for Active; 'I' for Inactive)
REMARK    1  A    between atoms: C_2  and  N_3 
REMARK    2  A    between atoms: N_3  and  C_4 
REMARK    3  A    between atoms: N_3  and  C_34 
REMARK    4  A    between atoms: C_6  and  O_7 
REMARK    5  A    between atoms: C_8  and  C_9 
REMARK    6  A    between atoms: N_10  and  N_11 
REMARK       I    between atoms: N_11  and  C_12 
REMARK    7  A    between atoms: C_12  and  C_13 
REMARK    8  A    between atoms: C_16  and  N_17 
REMARK    9  A    between atoms: C_21  and  C_22 
ROOT
HETATM    1  C   UNL     1      -5.968   5.726 -28.938  1.00  0.00     0.033 A 
HETATM    2  C   UNL     1      -5.506   5.659 -27.619  1.00  0.00     0.019 A 
HETATM    3  C   UNL     1      -5.287   6.836 -26.891  1.00  0.00     0.030 A 
HETATM    4  C   UNL     1      -5.514   8.103 -27.457  1.00  0.00     0.034 A 
HETATM    5  C   UNL     1      -5.953   8.150 -28.786  1.00  0.00     0.030 A 
HETATM    6  C   UNL     1      -6.181   6.979 -29.519  1.00  0.00     0.019 A 
ENDROOT
BRANCH   1   7
HETATM    7  C   UNL     1      -6.206   4.510 -29.768  1.00  0.00     0.271 C 
HETATM    8  N   UNL     1      -5.258   3.501 -29.628  1.00  0.00    -0.243 N 
HETATM    9  H   UNL     1      -4.688   3.507 -28.788  1.00  0.00     0.192 HD
HETATM   10  O   UNL     1      -7.212   4.462 -30.470  1.00  0.00    -0.266 OA
BRANCH   8  11
HETATM   11  N   UNL     1      -5.340   2.260 -30.205  1.00  0.00    -0.183 NA
HETATM   12  C   UNL     1      -4.936   2.134 -31.433  1.00  0.00     0.153 C 
BRANCH  12  13
HETATM   13  C   UNL     1      -5.047   0.848 -32.154  1.00  0.00     0.016 A 
HETATM   14  C   UNL     1      -6.288   0.264 -32.381  1.00  0.00     0.079 A 
HETATM   15  C   UNL     1      -6.384  -0.964 -33.053  1.00  0.00     0.066 A 
HETATM   16  C   UNL     1      -5.250  -1.661 -33.517  1.00  0.00     0.032 A 
HETATM   17  C   UNL     1      -4.013  -1.037 -33.271  1.00  0.00     0.030 A 
HETATM   18  C   UNL     1      -3.904   0.193 -32.604  1.00  0.00     0.018 A 
BRANCH  14  19
HETATM   19  O   UNL     1      -7.428   0.887 -31.950  1.00  0.00    -0.360 OA
HETATM   20  H   UNL     1      -7.781   1.440 -32.665  1.00  0.00     0.217 HD
ENDBRANCH  14  19
BRANCH  16  21
HETATM   21  N   UNL     1      -5.346  -2.882 -34.178  1.00  0.00    -0.382 N 
BRANCH  21  22
HETATM   22  C   UNL     1      -6.639  -3.440 -34.604  1.00  0.00     0.118 C 
HETATM   23  C   UNL     1      -6.442  -4.515 -35.663  1.00  0.00     0.026 C 
ENDBRANCH  21  22
BRANCH  21  24
HETATM   24  C   UNL     1      -4.163  -3.671 -34.554  1.00  0.00     0.118 C 
HETATM   25  C   UNL     1      -3.742  -4.589 -33.415  1.00  0.00     0.026 C 
ENDBRANCH  21  24
ENDBRANCH  16  21
ENDBRANCH  12  13
ENDBRANCH   8  11
ENDBRANCH   1   7
BRANCH   4  26
HETATM   26  N   UNL     1      -5.220   9.244 -26.692  1.00  0.00    -0.335 N 
HETATM   27  C   UNL     1      -4.007   9.728 -26.330  1.00  0.00     0.171 A 
HETATM   28  S   UNL     1      -3.925  11.236 -25.491  1.00  0.00    -0.061 SA
HETATM   29  N   UNL     1      -2.839   9.158 -26.513  1.00  0.00    -0.223 NA
HETATM   30  C   UNL     1      -2.221  11.089 -25.384  1.00  0.00     0.085 A 
HETATM   31  C   UNL     1      -1.807   9.913 -25.976  1.00  0.00     0.076 A 
HETATM   32  H   UNL     1      -6.028   9.769 -26.385  1.00  0.00     0.168 HD
BRANCH  31  33
HETATM   33  C   UNL     1      -0.422   9.442 -26.049  1.00  0.00    -0.007 A 
HETATM   34  C   UNL     1       0.484   9.582 -24.988  1.00  0.00     0.014 A 
HETATM   35  C   UNL     1       1.796   9.108 -25.101  1.00  0.00     0.001 A 
HETATM   36  C   UNL     1       2.220   8.490 -26.275  1.00  0.00     0.000 A 
HETATM   37  C   UNL     1       1.335   8.344 -27.338  1.00  0.00     0.001 A 
HETATM   38  C   UNL     1       0.026   8.817 -27.225  1.00  0.00     0.014 A 
ENDBRANCH  31  33
ENDBRANCH   4  26
TORSDOF 9
ENDMDL
MODEL 7
REMARK VINA RESULT:      -8.2      2.215      2.758
REMARK  9 active torsions:
REMARK  status: ('A' for Active; 'I' for Inactive)
REMARK    1  A    between atoms: C_2  and  N_3 
REMARK    2  A    between atoms: N_3  and  C_4 
REMARK    3  A    between atoms: N_3  and  C_34 
REMARK    4  A    between atoms: C_6  and  O_7 
REMARK    5  A    between atoms: C_8  and  C_9 
REMARK    6  A    between atoms: N_10  and  N_11 
REMARK       I    between atoms: N_11  and  C_12 
REMARK    7  A    between atoms: C_12  and  C_13 
REMARK    8  A    between atoms: C_16  and  N_17 
REMARK    9  A    between atoms: C_21  and  C_22 
ROOT
HETATM    1  C   UNL     1      -5.881   5.391 -29.153  1.00  0.00     0.033 A 
HETATM    2  C   UNL     1      -7.142   4.846 -28.890  1.00  0.00     0.019 A 
HETATM    3  C   UNL     1      -7.908   4.312 -29.936  1.00  0.00     0.030 A 
HETATM    4  C   UNL     1      -7.443   4.315 -31.262  1.00  0.00     0.034 A 
HETATM    5  C   UNL     1      -6.189   4.887 -31.508  1.00  0.00     0.030 A 
HETATM    6  C   UNL     1      -5.414   5.416 -30.470  1.00  0.00     0.019 A 
ENDROOT
BRANCH   1   7
HETATM    7  C   UNL     1      -5.026   5.986 -28.086  1.00  0.00     0.271 C 
HETATM    8  N   UNL     1      -3.840   6.564 -28.529  1.00  0.00    -0.243 N 
HETATM    9  H   UNL     1      -3.784   6.828 -29.507  1.00  0.00     0.192 HD
HETATM   10  O   UNL     1      -5.428   5.962 -26.926  1.00  0.00    -0.266 OA
BRANCH   8  11
HETATM   11  N   UNL     1      -2.965   7.264 -27.738  1.00  0.00    -0.183 NA
HETATM   12  C   UNL     1      -1.710   7.263 -28.074  1.00  0.00     0.153 C 
BRANCH  12  13
HETATM   13  C   UNL     1      -0.689   7.940 -27.246  1.00  0.00     0.016 A 
HETATM   14  C   UNL     1      -0.719   9.318 -27.065  1.00  0.00     0.079 A 
HETATM   15  C   UNL     1       0.263   9.955 -26.289  1.00  0.00     0.066 A 
HETATM   16  C   UNL     1       1.313   9.246 -25.673  1.00  0.00     0.032 A 
HETATM   17  C   UNL     1       1.308   7.854 -25.877  1.00  0.00     0.030 A 
HETATM   18  C   UNL     1       0.330   7.205 -26.646  1.00  0.00     0.018 A 
BRANCH  14  19
HETATM   19  O   UNL     1      -1.710  10.064 -27.642  1.00  0.00    -0.360 OA
HETATM   20  H   UNL     1      -1.647  10.980 -27.329  1.00  0.00     0.217 HD
ENDBRANCH  14  19
BRANCH  16  21
HETATM   21  N   UNL     1       2.290   9.880 -24.909  1.00  0.00    -0.382 N 
BRANCH  21  22
HETATM   22  C   UNL     1       2.143  11.270 -24.451  1.00  0.00     0.118 C 
HETATM   23  C   UNL     1       1.254  11.343 -23.218  1.00  0.00     0.026 C 
ENDBRANCH  21  22
BRANCH  21  24
HETATM   24  C   UNL     1       3.505   9.190 -24.453  1.00  0.00     0.118 C 
HETATM   25  C   UNL     1       3.322   8.651 -23.041  1.00  0.00     0.026 C 
ENDBRANCH  21  24
ENDBRANCH  16  21
ENDBRANCH  12  13
ENDBRANCH   8  11
ENDBRANCH   1   7
BRANCH   4  26
HETATM   26  N   UNL     1      -8.285   3.816 -32.271  1.00  0.00    -0.335 N 
HETATM   27  C   UNL     1      -8.188   2.647 -32.950  1.00  0.00     0.171 A 
HETATM   28  S   UNL     1      -9.443   2.217 -34.057  1.00  0.00    -0.061 SA
HETATM   29  N   UNL     1      -7.206   1.778 -32.896  1.00  0.00    -0.223 NA
HETATM   30  C   UNL     1      -8.596   0.785 -34.467  1.00  0.00     0.085 A 
HETATM   31  C   UNL     1      -7.414   0.712 -33.759  1.00  0.00     0.076 A 
HETATM   32  H   UNL     1      -9.066   4.414 -32.506  1.00  0.00     0.168 HD
BRANCH  31  33
HETATM   33  C   UNL     1      -6.422  -0.359 -33.873  1.00  0.00    -0.007 A 
HETATM   34  C   UNL     1      -6.633  -1.510 -34.647  1.00  0.00     0.014 A 
HETATM   35  C   UNL     1      -5.652  -2.504 -34.733  1.00  0.00     0.001 A 
HETATM   36  C   UNL     1      -4.447  -2.362 -34.047  1.00  0.00     0.000 A 
HETATM   37  C   UNL     1      -4.222  -1.228 -33.273  1.00  0.00     0.001 A 
HETATM   38  C   UNL     1      -5.202  -0.236 -33.188  1.00  0.00     0.014 A 
ENDBRANCH  31  33
ENDBRANCH   4  26
TORSDOF 9
ENDMDL
MODEL 8
REMARK VINA RESULT:      -7.7      8.890     13.120
REMARK  9 active torsions:
REMARK  status: ('A' for Active; 'I' for Inactive)
REMARK    1  A    between atoms: C_2  and  N_3 
REMARK    2  A    between atoms: N_3  and  C_4 
REMARK    3  A    between atoms: N_3  and  C_34 
REMARK    4  A    between atoms: C_6  and  O_7 
REMARK    5  A    between atoms: C_8  and  C_9 
REMARK    6  A    between atoms: N_10  and  N_11 
REMARK       I    between atoms: N_11  and  C_12 
REMARK    7  A    between atoms: C_12  and  C_13 
REMARK    8  A    between atoms: C_16  and  N_17 
REMARK    9  A    between atoms: C_21  and  C_22 
ROOT
HETATM    1  C   UNL     1     -11.793   3.901 -33.797  1.00  0.00     0.033 A 
HETATM    2  C   UNL     1     -11.928   4.003 -35.186  1.00  0.00     0.019 A 
HETATM    3  C   UNL     1     -12.825   4.928 -35.737  1.00  0.00     0.030 A 
HETATM    4  C   UNL     1     -13.611   5.764 -34.925  1.00  0.00     0.034 A 
HETATM    5  C   UNL     1     -13.479   5.629 -33.538  1.00  0.00     0.030 A 
HETATM    6  C   UNL     1     -12.581   4.713 -32.977  1.00  0.00     0.019 A 
ENDROOT
BRANCH   1   7
HETATM    7  C   UNL     1     -10.867   2.927 -33.150  1.00  0.00     0.271 C 
HETATM    8  N   UNL     1     -10.366   1.937 -33.991  1.00  0.00    -0.243 N 
HETATM    9  H   UNL     1     -10.388   2.115 -34.989  1.00  0.00     0.192 HD
HETATM   10  O   UNL     1     -10.586   3.077 -31.965  1.00  0.00    -0.266 OA
BRANCH   8  11
HETATM   11  N   UNL     1      -9.417   1.013 -33.636  1.00  0.00    -0.183 NA
HETATM   12  C   UNL     1      -8.251   1.093 -34.203  1.00  0.00     0.153 C 
BRANCH  12  13
HETATM   13  C   UNL     1      -7.188   0.103 -33.927  1.00  0.00     0.016 A 
HETATM   14  C   UNL     1      -6.598   0.023 -32.670  1.00  0.00     0.079 A 
HETATM   15  C   UNL     1      -5.580  -0.910 -32.421  1.00  0.00     0.066 A 
HETATM   16  C   UNL     1      -5.106  -1.793 -33.412  1.00  0.00     0.032 A 
HETATM   17  C   UNL     1      -5.730  -1.684 -34.669  1.00  0.00     0.030 A 
HETATM   18  C   UNL     1      -6.752  -0.759 -34.930  1.00  0.00     0.018 A 
BRANCH  14  19
HETATM   19  O   UNL     1      -7.009   0.857 -31.667  1.00  0.00    -0.360 OA
HETATM   20  H   UNL     1      -6.928   0.398 -30.815  1.00  0.00     0.217 HD
ENDBRANCH  14  19
BRANCH  16  21
HETATM   21  N   UNL     1      -4.092  -2.714 -33.165  1.00  0.00    -0.382 N 
BRANCH  21  22
HETATM   22  C   UNL     1      -3.822  -3.841 -34.071  1.00  0.00     0.118 C 
HETATM   23  C   UNL     1      -3.817  -5.158 -33.309  1.00  0.00     0.026 C 
ENDBRANCH  21  22
BRANCH  21  24
HETATM   24  C   UNL     1      -3.179  -2.592 -32.019  1.00  0.00     0.118 C 
HETATM   25  C   UNL     1      -2.549  -1.207 -31.976  1.00  0.00     0.026 C 
ENDBRANCH  21  24
ENDBRANCH  16  21
ENDBRANCH  12  13
ENDBRANCH   8  11
ENDBRANCH   1   7
BRANCH   4  26
HETATM   26  N   UNL     1     -14.532   6.628 -35.541  1.00  0.00    -0.335 N 
HETATM   27  C   UNL     1     -14.290   7.632 -36.418  1.00  0.00     0.171 A 
HETATM   28  S   UNL     1     -15.629   8.461 -37.130  1.00  0.00    -0.061 SA
HETATM   29  N   UNL     1     -13.120   8.098 -36.788  1.00  0.00    -0.223 NA
HETATM   30  C   UNL     1     -14.549   9.490 -37.973  1.00  0.00     0.085 A 
HETATM   31  C   UNL     1     -13.244   9.162 -37.669  1.00  0.00     0.076 A 
HETATM   32  H   UNL     1     -15.499   6.463 -35.295  1.00  0.00     0.168 HD
BRANCH  31  33
HETATM   33  C   UNL     1     -12.055   9.846 -38.184  1.00  0.00    -0.007 A 
HETATM   34  C   UNL     1     -10.752   9.487 -37.810  1.00  0.00     0.014 A 
HETATM   35  C   UNL     1      -9.645  10.163 -38.335  1.00  0.00     0.001 A 
HETATM   36  C   UNL     1      -9.825  11.207 -39.240  1.00  0.00     0.000 A 
HETATM   37  C   UNL     1     -11.112  11.577 -39.621  1.00  0.00     0.001 A 
HETATM   38  C   UNL     1     -12.216  10.902 -39.096  1.00  0.00     0.014 A 
ENDBRANCH  31  33
ENDBRANCH   4  26
TORSDOF 9
ENDMDL
MODEL 9
REMARK VINA RESULT:      -7.6      7.892     13.356
REMARK  9 active torsions:
REMARK  status: ('A' for Active; 'I' for Inactive)
REMARK    1  A    between atoms: C_2  and  N_3 
REMARK    2  A    between atoms: N_3  and  C_4 
REMARK    3  A    between atoms: N_3  and  C_34 
REMARK    4  A    between atoms: C_6  and  O_7 
REMARK    5  A    between atoms: C_8  and  C_9 
REMARK    6  A    between atoms: N_10  and  N_11 
REMARK       I    between atoms: N_11  and  C_12 
REMARK    7  A    between atoms: C_12  and  C_13 
REMARK    8  A    between atoms: C_16  and  N_17 
REMARK    9  A    between atoms: C_21  and  C_22 
ROOT
HETATM    1  C   UNL     1      -8.667   5.481 -29.716  1.00  0.00     0.033 A 
HETATM    2  C   UNL     1      -9.682   6.386 -30.048  1.00  0.00     0.019 A 
HETATM    3  C   UNL     1      -9.849   7.558 -29.299  1.00  0.00     0.030 A 
HETATM    4  C   UNL     1      -9.020   7.855 -28.203  1.00  0.00     0.034 A 
HETATM    5  C   UNL     1      -8.026   6.926 -27.872  1.00  0.00     0.030 A 
HETATM    6  C   UNL     1      -7.847   5.755 -28.618  1.00  0.00     0.019 A 
ENDROOT
BRANCH   1   7
HETATM    7  C   UNL     1      -8.448   4.211 -30.466  1.00  0.00     0.271 C 
HETATM    8  N   UNL     1      -7.284   3.522 -30.139  1.00  0.00    -0.243 N 
HETATM    9  H   UNL     1      -6.853   3.728 -29.244  1.00  0.00     0.192 HD
HETATM   10  O   UNL     1      -9.301   3.847 -31.270  1.00  0.00    -0.266 OA
BRANCH   8  11
HETATM   11  N   UNL     1      -6.944   2.283 -30.619  1.00  0.00    -0.183 NA
HETATM   12  C   UNL     1      -6.230   2.228 -31.704  1.00  0.00     0.153 C 
BRANCH  12  13
HETATM   13  C   UNL     1      -5.871   0.936 -32.326  1.00  0.00     0.016 A 
HETATM   14  C   UNL     1      -5.032   0.040 -31.671  1.00  0.00     0.079 A 
HETATM   15  C   UNL     1      -4.684  -1.179 -32.275  1.00  0.00     0.066 A 
HETATM   16  C   UNL     1      -5.148  -1.547 -33.553  1.00  0.00     0.032 A 
HETATM   17  C   UNL     1      -5.996  -0.616 -34.182  1.00  0.00     0.030 A 
HETATM   18  C   UNL     1      -6.356   0.603 -33.588  1.00  0.00     0.018 A 
BRANCH  14  19
HETATM   19  O   UNL     1      -4.543   0.341 -30.430  1.00  0.00    -0.360 OA
HETATM   20  H   UNL     1      -3.636   0.677 -30.515  1.00  0.00     0.217 HD
ENDBRANCH  14  19
BRANCH  16  21
HETATM   21  N   UNL     1      -4.796  -2.753 -34.154  1.00  0.00    -0.382 N 
BRANCH  21  22
HETATM   22  C   UNL     1      -3.740  -3.619 -33.607  1.00  0.00     0.118 C 
HETATM   23  C   UNL     1      -3.809  -5.010 -34.220  1.00  0.00     0.026 C 
ENDBRANCH  21  22
BRANCH  21  24
HETATM   24  C   UNL     1      -5.495  -3.278 -35.336  1.00  0.00     0.118 C 
HETATM   25  C   UNL     1      -6.787  -3.974 -34.935  1.00  0.00     0.026 C 
ENDBRANCH  21  24
ENDBRANCH  16  21
ENDBRANCH  12  13
ENDBRANCH   8  11
ENDBRANCH   1   7
BRANCH   4  26
HETATM   26  N   UNL     1      -9.278   9.019 -27.459  1.00  0.00    -0.335 N 
HETATM   27  C   UNL     1     -10.218   9.220 -26.505  1.00  0.00     0.171 A 
HETATM   28  S   UNL     1     -10.233  10.721 -25.648  1.00  0.00    -0.061 SA
HETATM   29  N   UNL     1     -11.181   8.399 -26.154  1.00  0.00    -0.223 NA
HETATM   30  C   UNL     1     -11.612  10.210 -24.768  1.00  0.00     0.085 A 
HETATM   31  C   UNL     1     -11.992   8.946 -25.171  1.00  0.00     0.076 A 
HETATM   32  H   UNL     1      -8.669   9.800 -27.669  1.00  0.00     0.168 HD
BRANCH  31  33
HETATM   33  C   UNL     1     -13.144   8.202 -24.657  1.00  0.00    -0.007 A 
HETATM   34  C   UNL     1     -13.819   8.566 -23.482  1.00  0.00     0.014 A 
HETATM   35  C   UNL     1     -14.921   7.829 -23.034  1.00  0.00     0.001 A 
HETATM   36  C   UNL     1     -15.363   6.720 -23.751  1.00  0.00     0.000 A 
HETATM   37  C   UNL     1     -14.703   6.343 -24.917  1.00  0.00     0.001 A 
HETATM   38  C   UNL     1     -13.603   7.079 -25.365  1.00  0.00     0.014 A 
ENDBRANCH  31  33
ENDBRANCH   4  26
TORSDOF 9
ENDMDL
MODEL 10
REMARK VINA RESULT:      -7.6      4.331     12.600
REMARK  9 active torsions:
REMARK  status: ('A' for Active; 'I' for Inactive)
REMARK    1  A    between atoms: C_2  and  N_3 
REMARK    2  A    between atoms: N_3  and  C_4 
REMARK    3  A    between atoms: N_3  and  C_34 
REMARK    4  A    between atoms: C_6  and  O_7 
REMARK    5  A    between atoms: C_8  and  C_9 
REMARK    6  A    between atoms: N_10  and  N_11 
REMARK       I    between atoms: N_11  and  C_12 
REMARK    7  A    between atoms: C_12  and  C_13 
REMARK    8  A    between atoms: C_16  and  N_17 
REMARK    9  A    between atoms: C_21  and  C_22 
ROOT
HETATM    1  C   UNL     1      -1.200   6.305 -30.369  1.00  0.00     0.033 A 
HETATM    2  C   UNL     1      -1.873   7.503 -30.635  1.00  0.00     0.019 A 
HETATM    3  C   UNL     1      -1.755   8.585 -29.752  1.00  0.00     0.030 A 
HETATM    4  C   UNL     1      -0.976   8.500 -28.585  1.00  0.00     0.034 A 
HETATM    5  C   UNL     1      -0.331   7.285 -28.324  1.00  0.00     0.030 A 
HETATM    6  C   UNL     1      -0.437   6.201 -29.203  1.00  0.00     0.019 A 
ENDROOT
BRANCH   1   7
HETATM    7  C   UNL     1      -1.298   5.115 -31.262  1.00  0.00     0.271 C 
HETATM    8  N   UNL     1      -2.257   4.175 -30.896  1.00  0.00    -0.243 N 
HETATM    9  H   UNL     1      -3.007   4.484 -30.286  1.00  0.00     0.192 HD
HETATM   10  O   UNL     1      -0.575   5.060 -32.253  1.00  0.00    -0.266 OA
BRANCH   8  11
HETATM   11  N   UNL     1      -2.593   3.068 -31.633  1.00  0.00    -0.183 NA
HETATM   12  C   UNL     1      -3.516   2.285 -31.163  1.00  0.00     0.153 C 
BRANCH  12  13
HETATM   13  C   UNL     1      -3.897   1.038 -31.860  1.00  0.00     0.016 A 
HETATM   14  C   UNL     1      -3.174  -0.135 -31.667  1.00  0.00     0.079 A 
HETATM   15  C   UNL     1      -3.534  -1.311 -32.343  1.00  0.00     0.066 A 
HETATM   16  C   UNL     1      -4.618  -1.363 -33.241  1.00  0.00     0.032 A 
HETATM   17  C   UNL     1      -5.327  -0.159 -33.407  1.00  0.00     0.030 A 
HETATM   18  C   UNL     1      -4.981   1.022 -32.734  1.00  0.00     0.018 A 
BRANCH  14  19
HETATM   19  O   UNL     1      -2.106  -0.148 -30.812  1.00  0.00    -0.360 OA
HETATM   20  H   UNL     1      -2.163  -0.929 -30.239  1.00  0.00     0.217 HD
ENDBRANCH  14  19
BRANCH  16  21
HETATM   21  N   UNL     1      -4.970  -2.530 -33.916  1.00  0.00    -0.382 N 
BRANCH  21  22
HETATM   22  C   UNL     1      -6.361  -3.003 -33.985  1.00  0.00     0.118 C 
HETATM   23  C   UNL     1      -6.722  -3.414 -35.405  1.00  0.00     0.026 C 
ENDBRANCH  21  22
BRANCH  21  24
HETATM   24  C   UNL     1      -3.990  -3.336 -34.659  1.00  0.00     0.118 C 
HETATM   25  C   UNL     1      -3.679  -4.627 -33.916  1.00  0.00     0.026 C 
ENDBRANCH  21  24
ENDBRANCH  16  21
ENDBRANCH  12  13
ENDBRANCH   8  11
ENDBRANCH   1   7
BRANCH   4  26
HETATM   26  N   UNL     1      -0.947   9.602 -27.713  1.00  0.00    -0.335 N 
HETATM   27  C   UNL     1      -1.971  10.160 -27.024  1.00  0.00     0.171 A 
HETATM   28  S   UNL     1      -1.632  11.438 -25.911  1.00  0.00    -0.061 SA
HETATM   29  N   UNL     1      -3.246   9.864 -27.120  1.00  0.00    -0.223 NA
HETATM   30  C   UNL     1      -3.302  11.578 -25.556  1.00  0.00     0.085 A 
HETATM   31  C   UNL     1      -4.024  10.665 -26.297  1.00  0.00     0.076 A 
HETATM   32  H   UNL     1      -0.034  10.019 -27.587  1.00  0.00     0.168 HD
BRANCH  31  33
HETATM   33  C   UNL     1      -5.481  10.516 -26.273  1.00  0.00    -0.007 A 
HETATM   34  C   UNL     1      -6.312  11.305 -25.465  1.00  0.00     0.014 A 
HETATM   35  C   UNL     1      -7.700  11.132 -25.482  1.00  0.00     0.001 A 
HETATM   36  C   UNL     1      -8.277  10.168 -26.306  1.00  0.00     0.000 A 
HETATM   37  C   UNL     1      -7.468   9.375 -27.113  1.00  0.00     0.001 A 
HETATM   38  C   UNL     1      -6.082   9.548 -27.096  1.00  0.00     0.014 A 
ENDBRANCH  31  33
ENDBRANCH   4  26
TORSDOF 9
ENDMDL
