MODEL 1
REMARK VINA RESULT:      -9.0      0.000      0.000
REMARK  3 active torsions:
REMARK  status: ('A' for Active; 'I' for Inactive)
REMARK    1  A    between atoms: C_5  and  C_6 
REMARK    2  A    between atoms: C_10  and  N_11 
REMARK    3  A    between atoms: C_18  and  C_19 
ROOT
HETATM    1  C   UNL     1      -5.364   1.547 -33.362  1.00  0.00     0.106 A 
HETATM    2  C   UNL     1      -5.056   2.971 -32.889  1.00  0.00     0.081 A 
HETATM    3  C   UNL     1      -5.550   4.033 -33.702  1.00  0.00     0.100 C 
HETATM    4  N   UNL     1      -5.949   4.899 -34.362  1.00  0.00    -0.191 NA
HETATM    5  C   UNL     1      -4.313   3.237 -31.779  1.00  0.00     0.140 A 
HETATM    6  O   UNL     1      -3.772   2.214 -30.982  1.00  0.00    -0.279 OA
HETATM    7  C   UNL     1      -3.953   0.972 -31.414  1.00  0.00     0.175 A 
HETATM    8  C   UNL     1      -4.661   0.547 -32.509  1.00  0.00     0.040 A 
HETATM    9  N   UNL     1      -3.442  -0.133 -30.821  1.00  0.00    -0.256 N 
HETATM   10  H   UNL     1      -2.868  -0.191 -29.989  1.00  0.00     0.191 HD
HETATM   11  N   UNL     1      -3.764  -1.267 -31.468  1.00  0.00    -0.172 NA
HETATM   12  C   UNL     1      -4.493  -0.866 -32.530  1.00  0.00     0.099 A 
ENDROOT
BRANCH   1  13
HETATM   13  C   UNL     1      -6.851   1.222 -33.290  1.00  0.00    -0.044 A 
HETATM   14  C   UNL     1      -7.581   1.075 -34.481  1.00  0.00     0.009 A 
HETATM   15  C   UNL     1      -8.957   0.832 -34.454  1.00  0.00     0.007 A 
HETATM   16  C   UNL     1      -9.640   0.746 -33.237  1.00  0.00    -0.062 A 
HETATM   17  C   UNL     1     -11.112   0.460 -33.208  1.00  0.00     0.048 C 
HETATM   18  C   UNL     1      -8.920   0.879 -32.046  1.00  0.00     0.007 A 
HETATM   19  C   UNL     1      -7.546   1.126 -32.070  1.00  0.00     0.009 A 
ENDBRANCH   1  13
BRANCH   5  20
HETATM   20  N   UNL     1      -4.001   4.494 -31.309  1.00  0.00    -0.282 NA
HETATM   21  H   UNL     1      -4.752   5.180 -31.365  1.00  0.00     0.126 HD
HETATM   22  H   UNL     1      -3.559   4.462 -30.395  1.00  0.00     0.126 HD
ENDBRANCH   5  20
BRANCH  12  23
HETATM   23  C   UNL     1      -4.995  -1.840 -33.497  1.00  0.00    -0.005 A 
HETATM   24  C   UNL     1      -6.375  -1.963 -33.712  1.00  0.00     0.014 A 
HETATM   25  C   UNL     1      -6.872  -2.894 -34.627  1.00  0.00     0.001 A 
HETATM   26  C   UNL     1      -5.994  -3.715 -35.332  1.00  0.00     0.000 A 
HETATM   27  C   UNL     1      -4.620  -3.609 -35.118  1.00  0.00     0.001 A 
HETATM   28  C   UNL     1      -4.123  -2.679 -34.201  1.00  0.00     0.014 A 
ENDBRANCH  12  23
TORSDOF 3
ENDMDL
MODEL 2
REMARK VINA RESULT:      -8.1      3.012      4.908
REMARK  3 active torsions:
REMARK  status: ('A' for Active; 'I' for Inactive)
REMARK    1  A    between atoms: C_5  and  C_6 
REMARK    2  A    between atoms: C_10  and  N_11 
REMARK    3  A    between atoms: C_18  and  C_19 
ROOT
HETATM    1  C   UNL     1      -7.279   2.635 -31.149  1.00  0.00     0.106 A 
HETATM    2  C   UNL     1      -8.168   3.694 -30.488  1.00  0.00     0.081 A 
HETATM    3  C   UNL     1      -7.517   4.620 -29.622  1.00  0.00     0.100 C 
HETATM    4  N   UNL     1      -6.991   5.375 -28.914  1.00  0.00    -0.191 NA
HETATM    5  C   UNL     1      -9.517   3.743 -30.665  1.00  0.00     0.140 A 
HETATM    6  O   UNL     1     -10.195   2.817 -31.476  1.00  0.00    -0.279 OA
HETATM    7  C   UNL     1      -9.462   1.839 -31.994  1.00  0.00     0.175 A 
HETATM    8  C   UNL     1      -8.108   1.648 -31.897  1.00  0.00     0.040 A 
HETATM    9  N   UNL     1      -9.953   0.817 -32.734  1.00  0.00    -0.256 N 
HETATM   10  H   UNL     1     -10.914   0.641 -33.005  1.00  0.00     0.191 HD
HETATM   11  N   UNL     1      -9.000  -0.046 -33.127  1.00  0.00    -0.172 NA
HETATM   12  C   UNL     1      -7.857   0.434 -32.595  1.00  0.00     0.099 A 
ENDROOT
BRANCH   1  13
HETATM   13  C   UNL     1      -6.302   3.241 -32.148  1.00  0.00    -0.044 A 
HETATM   14  C   UNL     1      -4.927   3.216 -31.866  1.00  0.00     0.009 A 
HETATM   15  C   UNL     1      -4.005   3.812 -32.733  1.00  0.00     0.007 A 
HETATM   16  C   UNL     1      -4.438   4.460 -33.893  1.00  0.00    -0.062 A 
HETATM   17  C   UNL     1      -3.446   5.076 -34.836  1.00  0.00     0.048 C 
HETATM   18  C   UNL     1      -5.803   4.479 -34.189  1.00  0.00     0.007 A 
HETATM   19  C   UNL     1      -6.726   3.889 -33.323  1.00  0.00     0.009 A 
ENDBRANCH   1  13
BRANCH   5  20
HETATM   20  N   UNL     1     -10.365   4.668 -30.096  1.00  0.00    -0.282 NA
HETATM   21  H   UNL     1     -10.140   5.642 -30.286  1.00  0.00     0.126 HD
HETATM   22  H   UNL     1     -11.342   4.444 -30.263  1.00  0.00     0.126 HD
ENDBRANCH   5  20
BRANCH  12  23
HETATM   23  C   UNL     1      -6.594  -0.276 -32.785  1.00  0.00    -0.005 A 
HETATM   24  C   UNL     1      -6.302  -0.864 -34.025  1.00  0.00     0.014 A 
HETATM   25  C   UNL     1      -5.103  -1.552 -34.221  1.00  0.00     0.001 A 
HETATM   26  C   UNL     1      -4.186  -1.665 -33.178  1.00  0.00     0.000 A 
HETATM   27  C   UNL     1      -4.470  -1.094 -31.938  1.00  0.00     0.001 A 
HETATM   28  C   UNL     1      -5.670  -0.407 -31.741  1.00  0.00     0.014 A 
ENDBRANCH  12  23
TORSDOF 3
ENDMDL
MODEL 3
REMARK VINA RESULT:      -8.0      6.566      8.619
REMARK  3 active torsions:
REMARK  status: ('A' for Active; 'I' for Inactive)
REMARK    1  A    between atoms: C_5  and  C_6 
REMARK    2  A    between atoms: C_10  and  N_11 
REMARK    3  A    between atoms: C_18  and  C_19 
ROOT
HETATM    1  C   UNL     1      -1.070   7.874 -29.456  1.00  0.00     0.106 A 
HETATM    2  C   UNL     1      -0.648   8.539 -28.143  1.00  0.00     0.081 A 
HETATM    3  C   UNL     1      -1.085   9.881 -27.940  1.00  0.00     0.100 C 
HETATM    4  N   UNL     1      -1.438  10.973 -27.772  1.00  0.00    -0.191 NA
HETATM    5  C   UNL     1       0.141   7.922 -27.220  1.00  0.00     0.140 A 
HETATM    6  O   UNL     1       0.627   6.617 -27.410  1.00  0.00    -0.279 OA
HETATM    7  C   UNL     1       0.346   6.048 -28.575  1.00  0.00     0.175 A 
HETATM    8  C   UNL     1      -0.418   6.541 -29.602  1.00  0.00     0.040 A 
HETATM    9  N   UNL     1       0.792   4.830 -28.966  1.00  0.00    -0.256 N 
HETATM   10  H   UNL     1       1.381   4.183 -28.455  1.00  0.00     0.191 HD
HETATM   11  N   UNL     1       0.373   4.492 -30.198  1.00  0.00    -0.172 NA
HETATM   12  C   UNL     1      -0.352   5.549 -30.620  1.00  0.00     0.099 A 
ENDROOT
BRANCH   1  13
HETATM   13  C   UNL     1      -2.573   7.642 -29.531  1.00  0.00    -0.044 A 
HETATM   14  C   UNL     1      -3.231   7.046 -28.442  1.00  0.00     0.009 A 
HETATM   15  C   UNL     1      -4.600   6.766 -28.497  1.00  0.00     0.007 A 
HETATM   16  C   UNL     1      -5.340   7.061 -29.645  1.00  0.00    -0.062 A 
HETATM   17  C   UNL     1      -6.814   6.785 -29.693  1.00  0.00     0.048 C 
HETATM   18  C   UNL     1      -4.697   7.667 -30.728  1.00  0.00     0.007 A 
HETATM   19  C   UNL     1      -3.329   7.943 -30.678  1.00  0.00     0.009 A 
ENDBRANCH   1  13
BRANCH   5  20
HETATM   20  N   UNL     1       0.553   8.471 -26.026  1.00  0.00    -0.282 NA
HETATM   21  H   UNL     1       1.558   8.604 -25.929  1.00  0.00     0.126 HD
HETATM   22  H   UNL     1       0.017   9.298 -25.780  1.00  0.00     0.126 HD
ENDBRANCH   5  20
BRANCH  12  23
HETATM   23  C   UNL     1      -0.948   5.556 -31.954  1.00  0.00    -0.005 A 
HETATM   24  C   UNL     1      -0.644   6.592 -32.849  1.00  0.00     0.014 A 
HETATM   25  C   UNL     1      -1.209   6.618 -34.126  1.00  0.00     0.001 A 
HETATM   26  C   UNL     1      -2.089   5.611 -34.518  1.00  0.00     0.000 A 
HETATM   27  C   UNL     1      -2.407   4.581 -33.633  1.00  0.00     0.001 A 
HETATM   28  C   UNL     1      -1.843   4.557 -32.355  1.00  0.00     0.014 A 
ENDBRANCH  12  23
TORSDOF 3
ENDMDL
MODEL 4
REMARK VINA RESULT:      -8.0      3.006      6.019
REMARK  3 active torsions:
REMARK  status: ('A' for Active; 'I' for Inactive)
REMARK    1  A    between atoms: C_5  and  C_6 
REMARK    2  A    between atoms: C_10  and  N_11 
REMARK    3  A    between atoms: C_18  and  C_19 
ROOT
HETATM    1  C   UNL     1      -6.998   2.820 -32.381  1.00  0.00     0.106 A 
HETATM    2  C   UNL     1      -8.352   2.393 -31.806  1.00  0.00     0.081 A 
HETATM    3  C   UNL     1      -9.018   1.324 -32.474  1.00  0.00     0.100 C 
HETATM    4  N   UNL     1      -9.564   0.456 -33.016  1.00  0.00    -0.191 NA
HETATM    5  C   UNL     1      -8.933   3.014 -30.743  1.00  0.00     0.140 A 
HETATM    6  O   UNL     1      -8.324   4.100 -30.091  1.00  0.00    -0.279 OA
HETATM    7  C   UNL     1      -7.191   4.544 -30.619  1.00  0.00     0.175 A 
HETATM    8  C   UNL     1      -6.493   4.038 -31.686  1.00  0.00     0.040 A 
HETATM    9  N   UNL     1      -6.504   5.623 -30.175  1.00  0.00    -0.256 N 
HETATM   10  H   UNL     1      -6.730   6.238 -29.402  1.00  0.00     0.191 HD
HETATM   11  N   UNL     1      -5.394   5.867 -30.894  1.00  0.00    -0.172 NA
HETATM   12  C   UNL     1      -5.385   4.915 -31.850  1.00  0.00     0.099 A 
ENDROOT
BRANCH   1  13
HETATM   13  C   UNL     1      -5.933   1.743 -32.215  1.00  0.00    -0.044 A 
HETATM   14  C   UNL     1      -5.506   1.019 -33.341  1.00  0.00     0.009 A 
HETATM   15  C   UNL     1      -4.573  -0.014 -33.218  1.00  0.00     0.007 A 
HETATM   16  C   UNL     1      -4.055  -0.359 -31.966  1.00  0.00    -0.062 A 
HETATM   17  C   UNL     1      -3.034  -1.451 -31.840  1.00  0.00     0.048 C 
HETATM   18  C   UNL     1      -4.463   0.363 -30.842  1.00  0.00     0.007 A 
HETATM   19  C   UNL     1      -5.400   1.393 -30.961  1.00  0.00     0.009 A 
ENDBRANCH   1  13
BRANCH   5  20
HETATM   20  N   UNL     1     -10.147   2.677 -30.187  1.00  0.00    -0.282 NA
HETATM   21  H   UNL     1     -10.628   3.428 -29.696  1.00  0.00     0.126 HD
HETATM   22  H   UNL     1     -10.746   2.185 -30.845  1.00  0.00     0.126 HD
ENDBRANCH   5  20
BRANCH  12  23
HETATM   23  C   UNL     1      -4.326   4.884 -32.857  1.00  0.00    -0.005 A 
HETATM   24  C   UNL     1      -3.024   4.512 -32.491  1.00  0.00     0.014 A 
HETATM   25  C   UNL     1      -1.999   4.484 -33.439  1.00  0.00     0.001 A 
HETATM   26  C   UNL     1      -2.264   4.833 -34.762  1.00  0.00     0.000 A 
HETATM   27  C   UNL     1      -3.552   5.215 -35.135  1.00  0.00     0.001 A 
HETATM   28  C   UNL     1      -4.577   5.245 -34.186  1.00  0.00     0.014 A 
ENDBRANCH  12  23
TORSDOF 3
ENDMDL
MODEL 5
REMARK VINA RESULT:      -7.9      2.283      3.857
REMARK  3 active torsions:
REMARK  status: ('A' for Active; 'I' for Inactive)
REMARK    1  A    between atoms: C_5  and  C_6 
REMARK    2  A    between atoms: C_10  and  N_11 
REMARK    3  A    between atoms: C_18  and  C_19 
ROOT
HETATM    1  C   UNL     1      -4.427   3.761 -33.210  1.00  0.00     0.106 A 
HETATM    2  C   UNL     1      -3.147   4.542 -32.898  1.00  0.00     0.081 A 
HETATM    3  C   UNL     1      -2.918   5.722 -33.665  1.00  0.00     0.100 C 
HETATM    4  N   UNL     1      -2.728   6.681 -34.289  1.00  0.00    -0.191 NA
HETATM    5  C   UNL     1      -2.236   4.130 -31.973  1.00  0.00     0.140 A 
HETATM    6  O   UNL     1      -2.409   2.948 -31.233  1.00  0.00    -0.279 OA
HETATM    7  C   UNL     1      -3.467   2.209 -31.542  1.00  0.00     0.175 A 
HETATM    8  C   UNL     1      -4.459   2.480 -32.449  1.00  0.00     0.040 A 
HETATM    9  N   UNL     1      -3.754   1.006 -30.991  1.00  0.00    -0.256 N 
HETATM   10  H   UNL     1      -3.235   0.498 -30.284  1.00  0.00     0.191 HD
HETATM   11  N   UNL     1      -4.877   0.460 -31.489  1.00  0.00    -0.172 NA
HETATM   12  C   UNL     1      -5.312   1.342 -32.412  1.00  0.00     0.099 A 
ENDROOT
BRANCH   1  13
HETATM   13  C   UNL     1      -5.684   4.534 -32.829  1.00  0.00    -0.044 A 
HETATM   14  C   UNL     1      -5.865   4.937 -31.496  1.00  0.00     0.009 A 
HETATM   15  C   UNL     1      -7.031   5.598 -31.099  1.00  0.00     0.007 A 
HETATM   16  C   UNL     1      -8.050   5.858 -32.020  1.00  0.00    -0.062 A 
HETATM   17  C   UNL     1      -9.289   6.591 -31.598  1.00  0.00     0.048 C 
HETATM   18  C   UNL     1      -7.873   5.473 -33.352  1.00  0.00     0.007 A 
HETATM   19  C   UNL     1      -6.711   4.808 -33.750  1.00  0.00     0.009 A 
ENDBRANCH   1  13
BRANCH   5  20
HETATM   20  N   UNL     1      -1.069   4.788 -31.654  1.00  0.00    -0.282 NA
HETATM   21  H   UNL     1      -1.055   5.784 -31.867  1.00  0.00     0.126 HD
HETATM   22  H   UNL     1      -0.758   4.580 -30.709  1.00  0.00     0.126 HD
ENDBRANCH   5  20
BRANCH  12  23
HETATM   23  C   UNL     1      -6.512   1.063 -33.199  1.00  0.00    -0.005 A 
HETATM   24  C   UNL     1      -7.774   1.402 -32.690  1.00  0.00     0.014 A 
HETATM   25  C   UNL     1      -8.932   1.136 -33.426  1.00  0.00     0.001 A 
HETATM   26  C   UNL     1      -8.839   0.524 -34.674  1.00  0.00     0.000 A 
HETATM   27  C   UNL     1      -7.589   0.173 -35.185  1.00  0.00     0.001 A 
HETATM   28  C   UNL     1      -6.432   0.437 -34.448  1.00  0.00     0.014 A 
ENDBRANCH  12  23
TORSDOF 3
ENDMDL
MODEL 6
REMARK VINA RESULT:      -7.9     14.514     16.327
REMARK  3 active torsions:
REMARK  status: ('A' for Active; 'I' for Inactive)
REMARK    1  A    between atoms: C_5  and  C_6 
REMARK    2  A    between atoms: C_10  and  N_11 
REMARK    3  A    between atoms: C_18  and  C_19 
ROOT
HETATM    1  C   UNL     1      -7.102 -14.778 -39.005  1.00  0.00     0.106 A 
HETATM    2  C   UNL     1      -8.564 -15.155 -39.259  1.00  0.00     0.081 A 
HETATM    3  C   UNL     1      -8.996 -16.411 -38.740  1.00  0.00     0.100 C 
HETATM    4  N   UNL     1      -9.351 -17.433 -38.321  1.00  0.00    -0.191 NA
HETATM    5  C   UNL     1      -9.416 -14.373 -39.977  1.00  0.00     0.140 A 
HETATM    6  O   UNL     1      -9.009 -13.152 -40.541  1.00  0.00    -0.279 OA
HETATM    7  C   UNL     1      -7.727 -12.840 -40.408  1.00  0.00     0.175 A 
HETATM    8  C   UNL     1      -6.750 -13.524 -39.730  1.00  0.00     0.040 A 
HETATM    9  N   UNL     1      -7.140 -11.746 -40.948  1.00  0.00    -0.256 N 
HETATM   10  H   UNL     1      -7.563 -11.019 -41.512  1.00  0.00     0.191 HD
HETATM   11  N   UNL     1      -5.825 -11.670 -40.673  1.00  0.00    -0.172 NA
HETATM   12  C   UNL     1      -5.559 -12.775 -39.946  1.00  0.00     0.099 A 
ENDROOT
BRANCH   1  13
HETATM   13  C   UNL     1      -6.815 -14.530 -37.529  1.00  0.00    -0.044 A 
HETATM   14  C   UNL     1      -7.586 -13.589 -36.828  1.00  0.00     0.009 A 
HETATM   15  C   UNL     1      -7.316 -13.295 -35.488  1.00  0.00     0.007 A 
HETATM   16  C   UNL     1      -6.260 -13.923 -34.821  1.00  0.00    -0.062 A 
HETATM   17  C   UNL     1      -5.988 -13.627 -33.376  1.00  0.00     0.048 C 
HETATM   18  C   UNL     1      -5.496 -14.872 -35.507  1.00  0.00     0.007 A 
HETATM   19  C   UNL     1      -5.761 -15.164 -36.847  1.00  0.00     0.009 A 
ENDBRANCH   1  13
BRANCH   5  20
HETATM   20  N   UNL     1     -10.737 -14.663 -40.239  1.00  0.00    -0.282 NA
HETATM   21  H   UNL     1     -11.362 -14.623 -39.436  1.00  0.00     0.126 HD
HETATM   22  H   UNL     1     -11.089 -14.150 -41.043  1.00  0.00     0.126 HD
ENDBRANCH   5  20
BRANCH  12  23
HETATM   23  C   UNL     1      -4.199 -13.055 -39.490  1.00  0.00    -0.005 A 
HETATM   24  C   UNL     1      -3.699 -12.411 -38.349  1.00  0.00     0.014 A 
HETATM   25  C   UNL     1      -2.399 -12.662 -37.903  1.00  0.00     0.001 A 
HETATM   26  C   UNL     1      -1.585 -13.553 -38.598  1.00  0.00     0.000 A 
HETATM   27  C   UNL     1      -2.067 -14.191 -39.740  1.00  0.00     0.001 A 
HETATM   28  C   UNL     1      -3.367 -13.939 -40.187  1.00  0.00     0.014 A 
ENDBRANCH  12  23
TORSDOF 3
ENDMDL
MODEL 7
REMARK VINA RESULT:      -7.6     15.025     16.827
REMARK  3 active torsions:
REMARK  status: ('A' for Active; 'I' for Inactive)
REMARK    1  A    between atoms: C_5  and  C_6 
REMARK    2  A    between atoms: C_10  and  N_11 
REMARK    3  A    between atoms: C_18  and  C_19 
ROOT
HETATM    1  C   UNL     1      -5.737 -15.068 -40.864  1.00  0.00     0.106 A 
HETATM    2  C   UNL     1      -5.329 -15.214 -42.333  1.00  0.00     0.081 A 
HETATM    3  C   UNL     1      -6.176 -16.016 -43.153  1.00  0.00     0.100 C 
HETATM    4  N   UNL     1      -6.862 -16.669 -43.822  1.00  0.00    -0.191 NA
HETATM    5  C   UNL     1      -4.197 -14.655 -42.846  1.00  0.00     0.140 A 
HETATM    6  O   UNL     1      -3.318 -13.897 -42.055  1.00  0.00    -0.279 OA
HETATM    7  C   UNL     1      -3.603 -13.824 -40.761  1.00  0.00     0.175 A 
HETATM    8  C   UNL     1      -4.687 -14.339 -40.098  1.00  0.00     0.040 A 
HETATM    9  N   UNL     1      -2.831 -13.205 -39.835  1.00  0.00    -0.256 N 
HETATM   10  H   UNL     1      -1.955 -12.716 -39.972  1.00  0.00     0.191 HD
HETATM   11  N   UNL     1      -3.341 -13.288 -38.593  1.00  0.00    -0.172 NA
HETATM   12  C   UNL     1      -4.473 -14.010 -38.730  1.00  0.00     0.099 A 
ENDROOT
BRANCH   1  13
HETATM   13  C   UNL     1      -7.032 -14.283 -40.698  1.00  0.00    -0.044 A 
HETATM   14  C   UNL     1      -7.012 -12.886 -40.843  1.00  0.00     0.009 A 
HETATM   15  C   UNL     1      -8.169 -12.127 -40.642  1.00  0.00     0.007 A 
HETATM   16  C   UNL     1      -9.369 -12.744 -40.279  1.00  0.00    -0.062 A 
HETATM   17  C   UNL     1     -10.616 -11.932 -40.090  1.00  0.00     0.048 C 
HETATM   18  C   UNL     1      -9.403 -14.135 -40.146  1.00  0.00     0.007 A 
HETATM   19  C   UNL     1      -8.247 -14.895 -40.341  1.00  0.00     0.009 A 
ENDBRANCH   1  13
BRANCH   5  20
HETATM   20  N   UNL     1      -3.780 -14.755 -44.155  1.00  0.00    -0.282 NA
HETATM   21  H   UNL     1      -4.135 -14.037 -44.784  1.00  0.00     0.126 HD
HETATM   22  H   UNL     1      -2.774 -14.884 -44.226  1.00  0.00     0.126 HD
ENDBRANCH   5  20
BRANCH  12  23
HETATM   23  C   UNL     1      -5.289 -14.338 -37.564  1.00  0.00    -0.005 A 
HETATM   24  C   UNL     1      -6.387 -13.532 -37.230  1.00  0.00     0.014 A 
HETATM   25  C   UNL     1      -7.174 -13.828 -36.115  1.00  0.00     0.001 A 
HETATM   26  C   UNL     1      -6.867 -14.930 -35.319  1.00  0.00     0.000 A 
HETATM   27  C   UNL     1      -5.771 -15.732 -35.634  1.00  0.00     0.001 A 
HETATM   28  C   UNL     1      -4.983 -15.435 -36.749  1.00  0.00     0.014 A 
ENDBRANCH  12  23
TORSDOF 3
ENDMDL
MODEL 8
REMARK VINA RESULT:      -7.5     14.366     17.126
REMARK  3 active torsions:
REMARK  status: ('A' for Active; 'I' for Inactive)
REMARK    1  A    between atoms: C_5  and  C_6 
REMARK    2  A    between atoms: C_10  and  N_11 
REMARK    3  A    between atoms: C_18  and  C_19 
ROOT
HETATM    1  C   UNL     1      -3.009 -15.076 -39.004  1.00  0.00     0.106 A 
HETATM    2  C   UNL     1      -1.676 -15.766 -38.699  1.00  0.00     0.081 A 
HETATM    3  C   UNL     1      -1.683 -17.192 -38.701  1.00  0.00     0.100 C 
HETATM    4  N   UNL     1      -1.686 -18.352 -38.700  1.00  0.00    -0.191 NA
HETATM    5  C   UNL     1      -0.540 -15.080 -38.393  1.00  0.00     0.140 A 
HETATM    6  O   UNL     1      -0.511 -13.676 -38.337  1.00  0.00    -0.279 OA
HETATM    7  C   UNL     1      -1.670 -13.055 -38.516  1.00  0.00     0.175 A 
HETATM    8  C   UNL     1      -2.891 -13.602 -38.816  1.00  0.00     0.040 A 
HETATM    9  N   UNL     1      -1.849 -11.716 -38.421  1.00  0.00    -0.256 N 
HETATM   10  H   UNL     1      -1.161 -11.003 -38.213  1.00  0.00     0.191 HD
HETATM   11  N   UNL     1      -3.124 -11.345 -38.634  1.00  0.00    -0.172 NA
HETATM   12  C   UNL     1      -3.790 -12.499 -38.851  1.00  0.00     0.099 A 
ENDROOT
BRANCH   1  13
HETATM   13  C   UNL     1      -3.464 -15.303 -40.440  1.00  0.00    -0.044 A 
HETATM   14  C   UNL     1      -2.618 -14.926 -41.497  1.00  0.00     0.009 A 
HETATM   15  C   UNL     1      -3.024 -15.069 -42.827  1.00  0.00     0.007 A 
HETATM   16  C   UNL     1      -4.290 -15.576 -43.133  1.00  0.00    -0.062 A 
HETATM   17  C   UNL     1      -4.715 -15.753 -44.561  1.00  0.00     0.048 C 
HETATM   18  C   UNL     1      -5.134 -15.967 -42.089  1.00  0.00     0.007 A 
HETATM   19  C   UNL     1      -4.732 -15.821 -40.759  1.00  0.00     0.009 A 
ENDBRANCH   1  13
BRANCH   5  20
HETATM   20  N   UNL     1       0.682 -15.647 -38.108  1.00  0.00    -0.282 NA
HETATM   21  H   UNL     1       0.756 -16.090 -37.194  1.00  0.00     0.126 HD
HETATM   22  H   UNL     1       1.016 -16.236 -38.864  1.00  0.00     0.126 HD
ENDBRANCH   5  20
BRANCH  12  23
HETATM   23  C   UNL     1      -5.232 -12.491 -39.088  1.00  0.00    -0.005 A 
HETATM   24  C   UNL     1      -6.115 -12.739 -38.027  1.00  0.00     0.014 A 
HETATM   25  C   UNL     1      -7.496 -12.742 -38.237  1.00  0.00     0.001 A 
HETATM   26  C   UNL     1      -8.007 -12.502 -39.511  1.00  0.00     0.000 A 
HETATM   27  C   UNL     1      -7.138 -12.265 -40.576  1.00  0.00     0.001 A 
HETATM   28  C   UNL     1      -5.757 -12.264 -40.366  1.00  0.00     0.014 A 
ENDBRANCH  12  23
TORSDOF 3
ENDMDL
MODEL 9
REMARK VINA RESULT:      -7.4      7.995     10.312
REMARK  3 active torsions:
REMARK  status: ('A' for Active; 'I' for Inactive)
REMARK    1  A    between atoms: C_5  and  C_6 
REMARK    2  A    between atoms: C_10  and  N_11 
REMARK    3  A    between atoms: C_18  and  C_19 
ROOT
HETATM    1  C   UNL     1      -3.897   8.496 -28.433  1.00  0.00     0.106 A 
HETATM    2  C   UNL     1      -5.427   8.452 -28.491  1.00  0.00     0.081 A 
HETATM    3  C   UNL     1      -6.062   9.448 -29.288  1.00  0.00     0.100 C 
HETATM    4  N   UNL     1      -6.583  10.259 -29.934  1.00  0.00    -0.191 NA
HETATM    5  C   UNL     1      -6.168   7.547 -27.793  1.00  0.00     0.140 A 
HETATM    6  O   UNL     1      -5.574   6.581 -26.963  1.00  0.00    -0.279 OA
HETATM    7  C   UNL     1      -4.256   6.650 -26.828  1.00  0.00     0.175 A 
HETATM    8  C   UNL     1      -3.380   7.503 -27.449  1.00  0.00     0.040 A 
HETATM    9  N   UNL     1      -3.522   5.855 -26.013  1.00  0.00    -0.256 N 
HETATM   10  H   UNL     1      -3.842   5.110 -25.405  1.00  0.00     0.191 HD
HETATM   11  N   UNL     1      -2.208   6.140 -26.053  1.00  0.00    -0.172 NA
HETATM   12  C   UNL     1      -2.104   7.175 -26.912  1.00  0.00     0.099 A 
ENDROOT
BRANCH   1  13
HETATM   13  C   UNL     1      -3.256   8.165 -29.774  1.00  0.00    -0.044 A 
HETATM   14  C   UNL     1      -3.386   6.867 -30.296  1.00  0.00     0.009 A 
HETATM   15  C   UNL     1      -2.765   6.510 -31.496  1.00  0.00     0.007 A 
HETATM   16  C   UNL     1      -1.987   7.437 -32.197  1.00  0.00    -0.062 A 
HETATM   17  C   UNL     1      -1.342   7.061 -33.498  1.00  0.00     0.048 C 
HETATM   18  C   UNL     1      -1.863   8.735 -31.693  1.00  0.00     0.007 A 
HETATM   19  C   UNL     1      -2.478   9.092 -30.491  1.00  0.00     0.009 A 
ENDBRANCH   1  13
BRANCH   5  20
HETATM   20  N   UNL     1      -7.542   7.462 -27.805  1.00  0.00    -0.282 NA
HETATM   21  H   UNL     1      -8.035   8.348 -27.899  1.00  0.00     0.126 HD
HETATM   22  H   UNL     1      -7.876   6.750 -28.449  1.00  0.00     0.126 HD
ENDBRANCH   5  20
BRANCH  12  23
HETATM   23  C   UNL     1      -0.804   7.786 -27.184  1.00  0.00    -0.005 A 
HETATM   24  C   UNL     1      -0.062   7.382 -28.302  1.00  0.00     0.014 A 
HETATM   25  C   UNL     1       1.185   7.951 -28.572  1.00  0.00     0.001 A 
HETATM   26  C   UNL     1       1.704   8.927 -27.723  1.00  0.00     0.000 A 
HETATM   27  C   UNL     1       0.979   9.329 -26.601  1.00  0.00     0.001 A 
HETATM   28  C   UNL     1      -0.267   8.758 -26.330  1.00  0.00     0.014 A 
ENDBRANCH  12  23
TORSDOF 3
ENDMDL
MODEL 10
REMARK VINA RESULT:      -7.4      4.982      8.761
REMARK  3 active torsions:
REMARK  status: ('A' for Active; 'I' for Inactive)
REMARK    1  A    between atoms: C_5  and  C_6 
REMARK    2  A    between atoms: C_10  and  N_11 
REMARK    3  A    between atoms: C_18  and  C_19 
ROOT
HETATM    1  C   UNL     1      -3.884   5.600 -31.584  1.00  0.00     0.106 A 
HETATM    2  C   UNL     1      -4.841   4.781 -32.456  1.00  0.00     0.081 A 
HETATM    3  C   UNL     1      -5.714   3.883 -31.773  1.00  0.00     0.100 C 
HETATM    4  N   UNL     1      -6.423   3.151 -31.221  1.00  0.00    -0.191 NA
HETATM    5  C   UNL     1      -4.848   4.853 -33.816  1.00  0.00     0.140 A 
HETATM    6  O   UNL     1      -3.970   5.693 -34.521  1.00  0.00    -0.279 OA
HETATM    7  C   UNL     1      -3.075   6.351 -33.796  1.00  0.00     0.175 A 
HETATM    8  C   UNL     1      -2.934   6.373 -32.432  1.00  0.00     0.040 A 
HETATM    9  N   UNL     1      -2.103   7.145 -34.306  1.00  0.00    -0.256 N 
HETATM   10  H   UNL     1      -1.911   7.359 -35.278  1.00  0.00     0.191 HD
HETATM   11  N   UNL     1      -1.319   7.685 -33.356  1.00  0.00    -0.172 NA
HETATM   12  C   UNL     1      -1.798   7.197 -32.193  1.00  0.00     0.099 A 
ENDROOT
BRANCH   1  13
HETATM   13  C   UNL     1      -4.618   6.609 -30.710  1.00  0.00    -0.044 A 
HETATM   14  C   UNL     1      -4.591   6.456 -29.313  1.00  0.00     0.009 A 
HETATM   15  C   UNL     1      -5.299   7.330 -28.482  1.00  0.00     0.007 A 
HETATM   16  C   UNL     1      -6.062   8.367 -29.026  1.00  0.00    -0.062 A 
HETATM   17  C   UNL     1      -6.799   9.319 -28.133  1.00  0.00     0.048 C 
HETATM   18  C   UNL     1      -6.084   8.535 -30.414  1.00  0.00     0.007 A 
HETATM   19  C   UNL     1      -5.382   7.661 -31.247  1.00  0.00     0.009 A 
ENDBRANCH   1  13
BRANCH   5  20
HETATM   20  N   UNL     1      -5.682   4.139 -34.649  1.00  0.00    -0.282 NA
HETATM   21  H   UNL     1      -5.332   3.988 -35.593  1.00  0.00     0.126 HD
HETATM   22  H   UNL     1      -6.024   3.289 -34.210  1.00  0.00     0.126 HD
ENDBRANCH   5  20
BRANCH  12  23
HETATM   23  C   UNL     1      -1.162   7.544 -30.924  1.00  0.00    -0.005 A 
HETATM   24  C   UNL     1       0.028   6.907 -30.542  1.00  0.00     0.014 A 
HETATM   25  C   UNL     1       0.646   7.222 -29.329  1.00  0.00     0.001 A 
HETATM   26  C   UNL     1       0.076   8.173 -28.484  1.00  0.00     0.000 A 
HETATM   27  C   UNL     1      -1.112   8.805 -28.849  1.00  0.00     0.001 A 
HETATM   28  C   UNL     1      -1.731   8.488 -30.061  1.00  0.00     0.014 A 
ENDBRANCH  12  23
TORSDOF 3
ENDMDL
