MODEL 1
REMARK VINA RESULT:      -8.3      0.000      0.000
REMARK  6 active torsions:
REMARK  status: ('A' for Active; 'I' for Inactive)
REMARK    1  A    between atoms: O_2  and  C_3 
REMARK    2  A    between atoms: C_4  and  O_5 
REMARK    3  A    between atoms: O_5  and  C_6 
REMARK    4  A    between atoms: C_11  and  C_12 
REMARK    5  A    between atoms: C_12  and  N_13 
REMARK       I    between atoms: N_13  and  C_14 
REMARK    6  A    between atoms: C_14  and  C_15 
ROOT
HETATM    1  N   UNL     1      -5.865   2.275 -32.234  1.00  0.00    -0.353 N 
HETATM    2  C   UNL     1      -5.613   3.166 -33.254  1.00  0.00     0.252 C 
HETATM    3  O   UNL     1      -6.342   3.285 -34.233  1.00  0.00    -0.268 OA
HETATM    4  H   UNL     1      -5.133   2.053 -31.574  1.00  0.00     0.163 HD
ENDROOT
BRANCH   1   5
HETATM    5  C   UNL     1      -6.985   1.368 -32.315  1.00  0.00     0.161 C 
BRANCH   5   6
HETATM    6  C   UNL     1      -6.589   0.107 -33.036  1.00  0.00    -0.038 A 
HETATM    7  C   UNL     1      -7.422  -0.440 -34.021  1.00  0.00     0.012 A 
HETATM    8  C   UNL     1      -7.028  -1.580 -34.720  1.00  0.00     0.040 A 
HETATM    9  C   UNL     1      -5.804  -2.186 -34.431  1.00  0.00     0.108 A 
HETATM   10  C   UNL     1      -4.942  -1.637 -33.471  1.00  0.00     0.102 A 
HETATM   11  C   UNL     1      -5.345  -0.494 -32.774  1.00  0.00     0.048 A 
BRANCH   9  12
HETATM   12  O   UNL     1      -5.382  -3.278 -35.148  1.00  0.00    -0.287 OA
BRANCH  12  13
HETATM   13  C   UNL     1      -6.109  -4.439 -34.778  1.00  0.00     0.505 C 
HETATM   14  F   UNL     1      -6.795  -4.887 -35.862  1.00  0.00    -0.184 F 
HETATM   15  F   UNL     1      -5.207  -5.406 -34.471  1.00  0.00    -0.184 F 
ENDBRANCH  12  13
ENDBRANCH   9  12
BRANCH  10  16
HETATM   16  O   UNL     1      -3.761  -2.301 -33.269  1.00  0.00    -0.353 OA
HETATM   17  C   UNL     1      -3.192  -2.224 -31.967  1.00  0.00     0.210 C 
ENDBRANCH  10  16
ENDBRANCH   5   6
ENDBRANCH   1   5
BRANCH   2  18
HETATM   18  C   UNL     1      -4.365   3.976 -33.144  1.00  0.00     0.034 A 
HETATM   19  C   UNL     1      -3.392   3.699 -32.171  1.00  0.00     0.051 A 
HETATM   20  C   UNL     1      -2.240   4.498 -32.133  1.00  0.00     0.085 A 
HETATM   21  C   UNL     1      -2.098   5.545 -33.038  1.00  0.00     0.062 A 
HETATM   22  N   UNL     1      -1.154   4.423 -31.296  1.00  0.00    -0.242 NA
HETATM   23  N   UNL     1      -0.885   6.103 -32.719  1.00  0.00    -0.349 N 
HETATM   24  C   UNL     1      -3.054   5.859 -34.003  1.00  0.00     0.033 A 
HETATM   25  H   UNL     1      -0.458   6.896 -33.175  1.00  0.00     0.167 HD
HETATM   26  C   UNL     1      -0.359   5.398 -31.673  1.00  0.00     0.208 A 
HETATM   27  C   UNL     1      -4.196   5.049 -34.034  1.00  0.00     0.019 A 
ENDBRANCH   2  18
TORSDOF 6
ENDMDL
MODEL 2
REMARK VINA RESULT:      -8.1      3.996      6.910
REMARK  6 active torsions:
REMARK  status: ('A' for Active; 'I' for Inactive)
REMARK    1  A    between atoms: O_2  and  C_3 
REMARK    2  A    between atoms: C_4  and  O_5 
REMARK    3  A    between atoms: O_5  and  C_6 
REMARK    4  A    between atoms: C_11  and  C_12 
REMARK    5  A    between atoms: C_12  and  N_13 
REMARK       I    between atoms: N_13  and  C_14 
REMARK    6  A    between atoms: C_14  and  C_15 
ROOT
HETATM    1  N   UNL     1      -8.274   2.167 -33.886  1.00  0.00    -0.353 N 
HETATM    2  C   UNL     1      -9.078   1.955 -32.786  1.00  0.00     0.252 C 
HETATM    3  O   UNL     1      -8.633   1.683 -31.677  1.00  0.00    -0.268 OA
HETATM    4  H   UNL     1      -8.683   2.162 -34.810  1.00  0.00     0.163 HD
ENDROOT
BRANCH   1   5
HETATM    5  C   UNL     1      -6.844   1.996 -33.790  1.00  0.00     0.161 C 
BRANCH   5   6
HETATM    6  C   UNL     1      -6.475   0.547 -33.964  1.00  0.00    -0.038 A 
HETATM    7  C   UNL     1      -7.170  -0.259 -34.875  1.00  0.00     0.012 A 
HETATM    8  C   UNL     1      -6.793  -1.587 -35.068  1.00  0.00     0.040 A 
HETATM    9  C   UNL     1      -5.725  -2.120 -34.344  1.00  0.00     0.108 A 
HETATM   10  C   UNL     1      -4.996  -1.322 -33.450  1.00  0.00     0.102 A 
HETATM   11  C   UNL     1      -5.382   0.008 -33.261  1.00  0.00     0.048 A 
BRANCH   9  12
HETATM   12  O   UNL     1      -5.312  -3.410 -34.563  1.00  0.00    -0.287 OA
BRANCH  12  13
HETATM   13  C   UNL     1      -6.320  -4.162 -35.219  1.00  0.00     0.505 C 
HETATM   14  F   UNL     1      -5.758  -5.288 -35.732  1.00  0.00    -0.184 F 
HETATM   15  F   UNL     1      -7.204  -4.574 -34.275  1.00  0.00    -0.184 F 
ENDBRANCH  12  13
ENDBRANCH   9  12
BRANCH  10  16
HETATM   16  O   UNL     1      -3.961  -1.937 -32.797  1.00  0.00    -0.353 OA
HETATM   17  C   UNL     1      -3.176  -1.128 -31.928  1.00  0.00     0.210 C 
ENDBRANCH  10  16
ENDBRANCH   5   6
ENDBRANCH   1   5
BRANCH   2  18
HETATM   18  C   UNL     1     -10.551   2.031 -33.008  1.00  0.00     0.034 A 
HETATM   19  C   UNL     1     -11.267   0.961 -33.565  1.00  0.00     0.051 A 
HETATM   20  C   UNL     1     -12.652   1.101 -33.736  1.00  0.00     0.085 A 
HETATM   21  C   UNL     1     -13.274   2.290 -33.369  1.00  0.00     0.062 A 
HETATM   22  N   UNL     1     -13.563   0.208 -34.242  1.00  0.00    -0.242 NA
HETATM   23  N   UNL     1     -14.597   2.085 -33.671  1.00  0.00    -0.349 N 
HETATM   24  C   UNL     1     -12.590   3.379 -32.831  1.00  0.00     0.033 A 
HETATM   25  H   UNL     1     -15.346   2.748 -33.537  1.00  0.00     0.167 HD
HETATM   26  C   UNL     1     -14.721   0.826 -34.189  1.00  0.00     0.208 A 
HETATM   27  C   UNL     1     -11.208   3.223 -32.660  1.00  0.00     0.019 A 
ENDBRANCH   2  18
TORSDOF 6
ENDMDL
MODEL 3
REMARK VINA RESULT:      -8.1      5.445      8.255
REMARK  6 active torsions:
REMARK  status: ('A' for Active; 'I' for Inactive)
REMARK    1  A    between atoms: O_2  and  C_3 
REMARK    2  A    between atoms: C_4  and  O_5 
REMARK    3  A    between atoms: O_5  and  C_6 
REMARK    4  A    between atoms: C_11  and  C_12 
REMARK    5  A    between atoms: C_12  and  N_13 
REMARK       I    between atoms: N_13  and  C_14 
REMARK    6  A    between atoms: C_14  and  C_15 
ROOT
HETATM    1  N   UNL     1      -8.094   0.825 -32.719  1.00  0.00    -0.353 N 
HETATM    2  C   UNL     1      -7.137   0.788 -33.709  1.00  0.00     0.252 C 
HETATM    3  O   UNL     1      -6.897   1.741 -34.442  1.00  0.00    -0.268 OA
HETATM    4  H   UNL     1      -8.410  -0.038 -32.299  1.00  0.00     0.163 HD
ENDROOT
BRANCH   1   5
HETATM    5  C   UNL     1      -8.927   1.991 -32.549  1.00  0.00     0.161 C 
BRANCH   5   6
HETATM    6  C   UNL     1     -10.235   1.813 -33.273  1.00  0.00    -0.038 A 
HETATM    7  C   UNL     1     -10.946   0.610 -33.170  1.00  0.00     0.012 A 
HETATM    8  C   UNL     1     -12.180   0.466 -33.802  1.00  0.00     0.040 A 
HETATM    9  C   UNL     1     -12.705   1.521 -34.551  1.00  0.00     0.108 A 
HETATM   10  C   UNL     1     -12.024   2.744 -34.643  1.00  0.00     0.102 A 
HETATM   11  C   UNL     1     -10.787   2.879 -34.006  1.00  0.00     0.048 A 
BRANCH   9  12
HETATM   12  O   UNL     1     -13.942   1.410 -35.136  1.00  0.00    -0.287 OA
BRANCH  12  13
HETATM   13  C   UNL     1     -14.873   0.815 -34.247  1.00  0.00     0.505 C 
HETATM   14  F   UNL     1     -15.353   1.775 -33.413  1.00  0.00    -0.184 F 
HETATM   15  F   UNL     1     -15.929   0.388 -34.984  1.00  0.00    -0.184 F 
ENDBRANCH  12  13
ENDBRANCH   9  12
BRANCH  10  16
HETATM   16  O   UNL     1     -12.629   3.717 -35.393  1.00  0.00    -0.353 OA
HETATM   17  C   UNL     1     -13.023   4.904 -34.713  1.00  0.00     0.210 C 
ENDBRANCH  10  16
ENDBRANCH   5   6
ENDBRANCH   1   5
BRANCH   2  18
HETATM   18  C   UNL     1      -6.410  -0.502 -33.892  1.00  0.00     0.034 A 
HETATM   19  C   UNL     1      -7.063  -1.656 -34.350  1.00  0.00     0.051 A 
HETATM   20  C   UNL     1      -6.313  -2.831 -34.506  1.00  0.00     0.085 A 
HETATM   21  C   UNL     1      -4.959  -2.829 -34.190  1.00  0.00     0.062 A 
HETATM   22  N   UNL     1      -6.713  -4.070 -34.941  1.00  0.00    -0.242 NA
HETATM   23  N   UNL     1      -4.551  -4.113 -34.451  1.00  0.00    -0.349 N 
HETATM   24  C   UNL     1      -4.283  -1.706 -33.715  1.00  0.00     0.033 A 
HETATM   25  H   UNL     1      -3.616  -4.476 -34.330  1.00  0.00     0.167 HD
HETATM   26  C   UNL     1      -5.634  -4.817 -34.899  1.00  0.00     0.208 A 
HETATM   27  C   UNL     1      -5.043  -0.538 -33.570  1.00  0.00     0.019 A 
ENDBRANCH   2  18
TORSDOF 6
ENDMDL
MODEL 4
REMARK VINA RESULT:      -7.7      4.811      7.835
REMARK  6 active torsions:
REMARK  status: ('A' for Active; 'I' for Inactive)
REMARK    1  A    between atoms: O_2  and  C_3 
REMARK    2  A    between atoms: C_4  and  O_5 
REMARK    3  A    between atoms: O_5  and  C_6 
REMARK    4  A    between atoms: C_11  and  C_12 
REMARK    5  A    between atoms: C_12  and  N_13 
REMARK       I    between atoms: N_13  and  C_14 
REMARK    6  A    between atoms: C_14  and  C_15 
ROOT
HETATM    1  N   UNL     1      -6.700   0.539 -33.386  1.00  0.00    -0.353 N 
HETATM    2  C   UNL     1      -6.561  -0.130 -34.582  1.00  0.00     0.252 C 
HETATM    3  O   UNL     1      -6.843   0.370 -35.665  1.00  0.00    -0.268 OA
HETATM    4  H   UNL     1      -6.674   0.022 -32.519  1.00  0.00     0.163 HD
ENDROOT
BRANCH   1   5
HETATM    5  C   UNL     1      -7.270   1.865 -33.352  1.00  0.00     0.161 C 
BRANCH   5   6
HETATM    6  C   UNL     1      -8.772   1.793 -33.418  1.00  0.00    -0.038 A 
HETATM    7  C   UNL     1      -9.440   0.598 -33.122  1.00  0.00     0.012 A 
HETATM    8  C   UNL     1     -10.833   0.548 -33.136  1.00  0.00     0.040 A 
HETATM    9  C   UNL     1     -11.567   1.692 -33.456  1.00  0.00     0.108 A 
HETATM   10  C   UNL     1     -10.919   2.907 -33.726  1.00  0.00     0.102 A 
HETATM   11  C   UNL     1      -9.522   2.946 -33.711  1.00  0.00     0.048 A 
BRANCH   9  12
HETATM   12  O   UNL     1     -12.939   1.670 -33.424  1.00  0.00    -0.287 OA
BRANCH  12  13
HETATM   13  C   UNL     1     -13.464   1.025 -34.574  1.00  0.00     0.505 C 
HETATM   14  F   UNL     1     -12.579   1.169 -35.595  1.00  0.00    -0.184 F 
HETATM   15  F   UNL     1     -13.524  -0.304 -34.306  1.00  0.00    -0.184 F 
ENDBRANCH  12  13
ENDBRANCH   9  12
BRANCH  10  16
HETATM   16  O   UNL     1     -11.730   3.971 -34.020  1.00  0.00    -0.353 OA
HETATM   17  C   UNL     1     -11.688   4.464 -35.354  1.00  0.00     0.210 C 
ENDBRANCH  10  16
ENDBRANCH   5   6
ENDBRANCH   1   5
BRANCH   2  18
HETATM   18  C   UNL     1      -6.080  -1.541 -34.509  1.00  0.00     0.034 A 
HETATM   19  C   UNL     1      -4.855  -1.870 -33.908  1.00  0.00     0.051 A 
HETATM   20  C   UNL     1      -4.473  -3.219 -33.868  1.00  0.00     0.085 A 
HETATM   21  C   UNL     1      -5.298  -4.186 -34.433  1.00  0.00     0.062 A 
HETATM   22  N   UNL     1      -3.344  -3.790 -33.335  1.00  0.00    -0.242 NA
HETATM   23  N   UNL     1      -4.628  -5.364 -34.222  1.00  0.00    -0.349 N 
HETATM   24  C   UNL     1      -6.512  -3.890 -35.053  1.00  0.00     0.033 A 
HETATM   25  H   UNL     1      -4.938  -6.283 -34.508  1.00  0.00     0.167 HD
HETATM   26  C   UNL     1      -3.467  -5.077 -33.562  1.00  0.00     0.208 A 
HETATM   27  C   UNL     1      -6.885  -2.540 -35.081  1.00  0.00     0.019 A 
ENDBRANCH   2  18
TORSDOF 6
ENDMDL
MODEL 5
REMARK VINA RESULT:      -7.5      4.360      7.952
REMARK  6 active torsions:
REMARK  status: ('A' for Active; 'I' for Inactive)
REMARK    1  A    between atoms: O_2  and  C_3 
REMARK    2  A    between atoms: C_4  and  O_5 
REMARK    3  A    between atoms: O_5  and  C_6 
REMARK    4  A    between atoms: C_11  and  C_12 
REMARK    5  A    between atoms: C_12  and  N_13 
REMARK       I    between atoms: N_13  and  C_14 
REMARK    6  A    between atoms: C_14  and  C_15 
ROOT
HETATM    1  N   UNL     1      -6.127   0.834 -32.915  1.00  0.00    -0.353 N 
HETATM    2  C   UNL     1      -6.434   0.159 -34.076  1.00  0.00     0.252 C 
HETATM    3  O   UNL     1      -7.079   0.661 -34.989  1.00  0.00    -0.268 OA
HETATM    4  H   UNL     1      -5.798   0.319 -32.110  1.00  0.00     0.163 HD
ENDROOT
BRANCH   1   5
HETATM    5  C   UNL     1      -6.629   2.169 -32.690  1.00  0.00     0.161 C 
BRANCH   5   6
HETATM    6  C   UNL     1      -5.585   3.191 -33.053  1.00  0.00    -0.038 A 
HETATM    7  C   UNL     1      -5.607   3.816 -34.306  1.00  0.00     0.012 A 
HETATM    8  C   UNL     1      -4.667   4.797 -34.620  1.00  0.00     0.040 A 
HETATM    9  C   UNL     1      -3.693   5.152 -33.685  1.00  0.00     0.108 A 
HETATM   10  C   UNL     1      -3.672   4.561 -32.413  1.00  0.00     0.102 A 
HETATM   11  C   UNL     1      -4.617   3.577 -32.108  1.00  0.00     0.048 A 
BRANCH   9  12
HETATM   12  O   UNL     1      -2.795   6.152 -33.962  1.00  0.00    -0.287 OA
BRANCH  12  13
HETATM   13  C   UNL     1      -1.512   5.617 -34.245  1.00  0.00     0.505 C 
HETATM   14  F   UNL     1      -1.561   4.981 -35.445  1.00  0.00    -0.184 F 
HETATM   15  F   UNL     1      -0.659   6.661 -34.403  1.00  0.00    -0.184 F 
ENDBRANCH  12  13
ENDBRANCH   9  12
BRANCH  10  16
HETATM   16  O   UNL     1      -2.682   4.986 -31.566  1.00  0.00    -0.353 OA
HETATM   17  C   UNL     1      -3.006   6.050 -30.678  1.00  0.00     0.210 C 
ENDBRANCH  10  16
ENDBRANCH   5   6
ENDBRANCH   1   5
BRANCH   2  18
HETATM   18  C   UNL     1      -5.978  -1.258 -34.167  1.00  0.00     0.034 A 
HETATM   19  C   UNL     1      -4.795  -1.692 -33.549  1.00  0.00     0.051 A 
HETATM   20  C   UNL     1      -4.434  -3.042 -33.672  1.00  0.00     0.085 A 
HETATM   21  C   UNL     1      -5.238  -3.906 -34.408  1.00  0.00     0.062 A 
HETATM   22  N   UNL     1      -3.346  -3.703 -33.158  1.00  0.00    -0.242 NA
HETATM   23  N   UNL     1      -4.597  -5.116 -34.322  1.00  0.00    -0.349 N 
HETATM   24  C   UNL     1      -6.408  -3.503 -35.050  1.00  0.00     0.033 A 
HETATM   25  H   UNL     1      -4.902  -5.980 -34.747  1.00  0.00     0.167 HD
HETATM   26  C   UNL     1      -3.473  -4.946 -33.565  1.00  0.00     0.208 A 
HETATM   27  C   UNL     1      -6.761  -2.154 -34.915  1.00  0.00     0.019 A 
ENDBRANCH   2  18
TORSDOF 6
ENDMDL
MODEL 6
REMARK VINA RESULT:      -7.2      4.949      8.728
REMARK  6 active torsions:
REMARK  status: ('A' for Active; 'I' for Inactive)
REMARK    1  A    between atoms: O_2  and  C_3 
REMARK    2  A    between atoms: C_4  and  O_5 
REMARK    3  A    between atoms: O_5  and  C_6 
REMARK    4  A    between atoms: C_11  and  C_12 
REMARK    5  A    between atoms: C_12  and  N_13 
REMARK       I    between atoms: N_13  and  C_14 
REMARK    6  A    between atoms: C_14  and  C_15 
ROOT
HETATM    1  N   UNL     1      -5.497   2.124 -33.122  1.00  0.00    -0.353 N 
HETATM    2  C   UNL     1      -6.423   1.104 -33.081  1.00  0.00     0.252 C 
HETATM    3  O   UNL     1      -7.579   1.267 -32.708  1.00  0.00    -0.268 OA
HETATM    4  H   UNL     1      -4.516   1.903 -33.217  1.00  0.00     0.163 HD
ENDROOT
BRANCH   1   5
HETATM    5  C   UNL     1      -5.839   3.442 -32.643  1.00  0.00     0.161 C 
BRANCH   5   6
HETATM    6  C   UNL     1      -4.609   4.156 -32.148  1.00  0.00    -0.038 A 
HETATM    7  C   UNL     1      -3.333   3.644 -32.417  1.00  0.00     0.012 A 
HETATM    8  C   UNL     1      -2.197   4.333 -31.999  1.00  0.00     0.040 A 
HETATM    9  C   UNL     1      -2.329   5.534 -31.300  1.00  0.00     0.108 A 
HETATM   10  C   UNL     1      -3.596   6.080 -31.046  1.00  0.00     0.102 A 
HETATM   11  C   UNL     1      -4.730   5.381 -31.468  1.00  0.00     0.048 A 
BRANCH   9  12
HETATM   12  O   UNL     1      -1.218   6.248 -30.927  1.00  0.00    -0.287 OA
BRANCH  12  13
HETATM   13  C   UNL     1      -0.480   6.670 -32.063  1.00  0.00     0.505 C 
HETATM   14  F   UNL     1      -1.088   7.763 -32.595  1.00  0.00    -0.184 F 
HETATM   15  F   UNL     1       0.738   7.083 -31.631  1.00  0.00    -0.184 F 
ENDBRANCH  12  13
ENDBRANCH   9  12
BRANCH  10  16
HETATM   16  O   UNL     1      -3.617   7.266 -30.361  1.00  0.00    -0.353 OA
HETATM   17  C   UNL     1      -4.052   8.417 -31.078  1.00  0.00     0.210 C 
ENDBRANCH  10  16
ENDBRANCH   5   6
ENDBRANCH   1   5
BRANCH   2  18
HETATM   18  C   UNL     1      -5.945  -0.251 -33.479  1.00  0.00     0.034 A 
HETATM   19  C   UNL     1      -6.817  -1.209 -34.022  1.00  0.00     0.051 A 
HETATM   20  C   UNL     1      -6.294  -2.460 -34.380  1.00  0.00     0.085 A 
HETATM   21  C   UNL     1      -4.944  -2.726 -34.178  1.00  0.00     0.062 A 
HETATM   22  N   UNL     1      -6.929  -3.545 -34.931  1.00  0.00    -0.242 NA
HETATM   23  N   UNL     1      -4.783  -4.012 -34.627  1.00  0.00    -0.349 N 
HETATM   24  C   UNL     1      -4.055  -1.804 -33.625  1.00  0.00     0.033 A 
HETATM   25  H   UNL     1      -3.921  -4.538 -34.629  1.00  0.00     0.167 HD
HETATM   26  C   UNL     1      -5.997  -4.459 -35.068  1.00  0.00     0.208 A 
HETATM   27  C   UNL     1      -4.589  -0.557 -33.277  1.00  0.00     0.019 A 
ENDBRANCH   2  18
TORSDOF 6
ENDMDL
MODEL 7
REMARK VINA RESULT:      -7.0      4.856      8.391
REMARK  6 active torsions:
REMARK  status: ('A' for Active; 'I' for Inactive)
REMARK    1  A    between atoms: O_2  and  C_3 
REMARK    2  A    between atoms: C_4  and  O_5 
REMARK    3  A    between atoms: O_5  and  C_6 
REMARK    4  A    between atoms: C_11  and  C_12 
REMARK    5  A    between atoms: C_12  and  N_13 
REMARK       I    between atoms: N_13  and  C_14 
REMARK    6  A    between atoms: C_14  and  C_15 
ROOT
HETATM    1  N   UNL     1      -6.289   2.221 -34.004  1.00  0.00    -0.353 N 
HETATM    2  C   UNL     1      -6.464   1.215 -33.079  1.00  0.00     0.252 C 
HETATM    3  O   UNL     1      -6.971   1.400 -31.979  1.00  0.00    -0.268 OA
HETATM    4  H   UNL     1      -5.672   2.074 -34.791  1.00  0.00     0.163 HD
ENDROOT
BRANCH   1   5
HETATM    5  C   UNL     1      -6.635   3.584 -33.676  1.00  0.00     0.161 C 
BRANCH   5   6
HETATM    6  C   UNL     1      -5.468   4.281 -33.029  1.00  0.00    -0.038 A 
HETATM    7  C   UNL     1      -5.641   5.002 -31.841  1.00  0.00     0.012 A 
HETATM    8  C   UNL     1      -4.549   5.605 -31.219  1.00  0.00     0.040 A 
HETATM    9  C   UNL     1      -3.278   5.498 -31.787  1.00  0.00     0.108 A 
HETATM   10  C   UNL     1      -3.077   4.755 -32.960  1.00  0.00     0.102 A 
HETATM   11  C   UNL     1      -4.179   4.156 -33.577  1.00  0.00     0.048 A 
BRANCH   9  12
HETATM   12  O   UNL     1      -2.187   6.044 -31.158  1.00  0.00    -0.287 OA
BRANCH  12  13
HETATM   13  C   UNL     1      -2.126   7.445 -31.369  1.00  0.00     0.505 C 
HETATM   14  F   UNL     1      -1.567   8.026 -30.276  1.00  0.00    -0.184 F 
HETATM   15  F   UNL     1      -1.270   7.668 -32.399  1.00  0.00    -0.184 F 
ENDBRANCH  12  13
ENDBRANCH   9  12
BRANCH  10  16
HETATM   16  O   UNL     1      -1.792   4.705 -33.430  1.00  0.00    -0.353 OA
HETATM   17  C   UNL     1      -1.568   5.194 -34.748  1.00  0.00     0.210 C 
ENDBRANCH  10  16
ENDBRANCH   5   6
ENDBRANCH   1   5
BRANCH   2  18
HETATM   18  C   UNL     1      -5.964  -0.138 -33.458  1.00  0.00     0.034 A 
HETATM   19  C   UNL     1      -6.829  -1.136 -33.934  1.00  0.00     0.051 A 
HETATM   20  C   UNL     1      -6.286  -2.382 -34.279  1.00  0.00     0.085 A 
HETATM   21  C   UNL     1      -4.921  -2.603 -34.128  1.00  0.00     0.062 A 
HETATM   22  N   UNL     1      -6.912  -3.500 -34.770  1.00  0.00    -0.242 NA
HETATM   23  N   UNL     1      -4.742  -3.898 -34.546  1.00  0.00    -0.349 N 
HETATM   24  C   UNL     1      -4.037  -1.641 -33.641  1.00  0.00     0.033 A 
HETATM   25  H   UNL     1      -3.865  -4.398 -34.570  1.00  0.00     0.167 HD
HETATM   26  C   UNL     1      -5.960  -4.392 -34.921  1.00  0.00     0.208 A 
HETATM   27  C   UNL     1      -4.592  -0.399 -33.306  1.00  0.00     0.019 A 
ENDBRANCH   2  18
TORSDOF 6
ENDMDL
MODEL 8
REMARK VINA RESULT:      -6.9      6.018      9.808
REMARK  6 active torsions:
REMARK  status: ('A' for Active; 'I' for Inactive)
REMARK    1  A    between atoms: O_2  and  C_3 
REMARK    2  A    between atoms: C_4  and  O_5 
REMARK    3  A    between atoms: O_5  and  C_6 
REMARK    4  A    between atoms: C_11  and  C_12 
REMARK    5  A    between atoms: C_12  and  N_13 
REMARK       I    between atoms: N_13  and  C_14 
REMARK    6  A    between atoms: C_14  and  C_15 
ROOT
HETATM    1  N   UNL     1      -3.364   4.165 -31.939  1.00  0.00    -0.353 N 
HETATM    2  C   UNL     1      -3.660   2.913 -31.446  1.00  0.00     0.252 C 
HETATM    3  O   UNL     1      -2.802   2.076 -31.191  1.00  0.00    -0.268 OA
HETATM    4  H   UNL     1      -4.099   4.729 -32.342  1.00  0.00     0.163 HD
ENDROOT
BRANCH   1   5
HETATM    5  C   UNL     1      -2.001   4.523 -32.256  1.00  0.00     0.161 C 
BRANCH   5   6
HETATM    6  C   UNL     1      -1.476   5.523 -31.262  1.00  0.00    -0.038 A 
HETATM    7  C   UNL     1      -0.100   5.765 -31.156  1.00  0.00     0.012 A 
HETATM    8  C   UNL     1       0.379   6.727 -30.268  1.00  0.00     0.040 A 
HETATM    9  C   UNL     1      -0.516   7.446 -29.473  1.00  0.00     0.108 A 
HETATM   10  C   UNL     1      -1.899   7.241 -29.584  1.00  0.00     0.102 A 
HETATM   11  C   UNL     1      -2.369   6.273 -30.476  1.00  0.00     0.048 A 
BRANCH   9  12
HETATM   12  O   UNL     1      -0.061   8.431 -28.632  1.00  0.00    -0.287 OA
BRANCH  12  13
HETATM   13  C   UNL     1       1.077   7.995 -27.907  1.00  0.00     0.505 C 
HETATM   14  F   UNL     1       2.114   8.829 -28.183  1.00  0.00    -0.184 F 
HETATM   15  F   UNL     1       0.806   8.150 -26.586  1.00  0.00    -0.184 F 
ENDBRANCH  12  13
ENDBRANCH   9  12
BRANCH  10  16
HETATM   16  O   UNL     1      -2.690   8.003 -28.766  1.00  0.00    -0.353 OA
HETATM   17  C   UNL     1      -3.314   7.340 -27.672  1.00  0.00     0.210 C 
ENDBRANCH  10  16
ENDBRANCH   5   6
ENDBRANCH   1   5
BRANCH   2  18
HETATM   18  C   UNL     1      -5.105   2.589 -31.265  1.00  0.00     0.034 A 
HETATM   19  C   UNL     1      -5.733   1.583 -32.017  1.00  0.00     0.051 A 
HETATM   20  C   UNL     1      -7.092   1.328 -31.787  1.00  0.00     0.085 A 
HETATM   21  C   UNL     1      -7.783   2.079 -30.841  1.00  0.00     0.062 A 
HETATM   22  N   UNL     1      -7.918   0.404 -32.377  1.00  0.00    -0.242 NA
HETATM   23  N   UNL     1      -9.059   1.576 -30.879  1.00  0.00    -0.349 N 
HETATM   24  C   UNL     1      -7.195   3.097 -30.091  1.00  0.00     0.033 A 
HETATM   25  H   UNL     1      -9.839   1.890 -30.320  1.00  0.00     0.167 HD
HETATM   26  C   UNL     1      -9.091   0.576 -31.811  1.00  0.00     0.208 A 
HETATM   27  C   UNL     1      -5.835   3.337 -30.327  1.00  0.00     0.019 A 
ENDBRANCH   2  18
TORSDOF 6
ENDMDL
MODEL 9
REMARK VINA RESULT:      -6.9      4.653      7.484
REMARK  6 active torsions:
REMARK  status: ('A' for Active; 'I' for Inactive)
REMARK    1  A    between atoms: O_2  and  C_3 
REMARK    2  A    between atoms: C_4  and  O_5 
REMARK    3  A    between atoms: O_5  and  C_6 
REMARK    4  A    between atoms: C_11  and  C_12 
REMARK    5  A    between atoms: C_12  and  N_13 
REMARK       I    between atoms: N_13  and  C_14 
REMARK    6  A    between atoms: C_14  and  C_15 
ROOT
HETATM    1  N   UNL     1      -6.390   1.077 -33.828  1.00  0.00    -0.353 N 
HETATM    2  C   UNL     1      -5.873   0.548 -32.666  1.00  0.00     0.252 C 
HETATM    3  O   UNL     1      -5.965   1.107 -31.579  1.00  0.00    -0.268 OA
HETATM    4  H   UNL     1      -6.097   0.701 -34.720  1.00  0.00     0.163 HD
ENDROOT
BRANCH   1   5
HETATM    5  C   UNL     1      -7.009   2.381 -33.826  1.00  0.00     0.161 C 
BRANCH   5   6
HETATM    6  C   UNL     1      -8.506   2.251 -33.735  1.00  0.00    -0.038 A 
HETATM    7  C   UNL     1      -9.172   1.215 -34.402  1.00  0.00     0.012 A 
HETATM    8  C   UNL     1     -10.552   1.069 -34.275  1.00  0.00     0.040 A 
HETATM    9  C   UNL     1     -11.277   1.966 -33.488  1.00  0.00     0.108 A 
HETATM   10  C   UNL     1     -10.626   2.992 -32.787  1.00  0.00     0.102 A 
HETATM   11  C   UNL     1      -9.242   3.131 -32.921  1.00  0.00     0.048 A 
BRANCH   9  12
HETATM   12  O   UNL     1     -12.629   1.803 -33.314  1.00  0.00    -0.287 OA
BRANCH  12  13
HETATM   13  C   UNL     1     -13.122   0.747 -34.123  1.00  0.00     0.505 C 
HETATM   14  F   UNL     1     -13.365  -0.330 -33.330  1.00  0.00    -0.184 F 
HETATM   15  F   UNL     1     -14.325   1.136 -34.616  1.00  0.00    -0.184 F 
ENDBRANCH  12  13
ENDBRANCH   9  12
BRANCH  10  16
HETATM   16  O   UNL     1     -11.427   3.812 -32.036  1.00  0.00    -0.353 OA
HETATM   17  C   UNL     1     -10.806   4.942 -31.432  1.00  0.00     0.210 C 
ENDBRANCH  10  16
ENDBRANCH   5   6
ENDBRANCH   1   5
BRANCH   2  18
HETATM   18  C   UNL     1      -5.142  -0.747 -32.785  1.00  0.00     0.034 A 
HETATM   19  C   UNL     1      -5.535  -1.733 -33.704  1.00  0.00     0.051 A 
HETATM   20  C   UNL     1      -4.794  -2.921 -33.766  1.00  0.00     0.085 A 
HETATM   21  C   UNL     1      -3.709  -3.101 -32.915  1.00  0.00     0.062 A 
HETATM   22  N   UNL     1      -4.969  -4.017 -34.575  1.00  0.00    -0.242 NA
HETATM   23  N   UNL     1      -3.231  -4.347 -33.238  1.00  0.00    -0.349 N 
HETATM   24  C   UNL     1      -3.303  -2.151 -31.979  1.00  0.00     0.033 A 
HETATM   25  H   UNL     1      -2.441  -4.808 -32.811  1.00  0.00     0.167 HD
HETATM   26  C   UNL     1      -4.016  -4.854 -34.235  1.00  0.00     0.208 A 
HETATM   27  C   UNL     1      -4.048  -0.966 -31.931  1.00  0.00     0.019 A 
ENDBRANCH   2  18
TORSDOF 6
ENDMDL
MODEL 10
REMARK VINA RESULT:      -6.8      5.110      7.877
REMARK  6 active torsions:
REMARK  status: ('A' for Active; 'I' for Inactive)
REMARK    1  A    between atoms: O_2  and  C_3 
REMARK    2  A    between atoms: C_4  and  O_5 
REMARK    3  A    between atoms: O_5  and  C_6 
REMARK    4  A    between atoms: C_11  and  C_12 
REMARK    5  A    between atoms: C_12  and  N_13 
REMARK       I    between atoms: N_13  and  C_14 
REMARK    6  A    between atoms: C_14  and  C_15 
ROOT
HETATM    1  N   UNL     1      -9.084   1.060 -34.703  1.00  0.00    -0.353 N 
HETATM    2  C   UNL     1      -9.914   0.674 -33.674  1.00  0.00     0.252 C 
HETATM    3  O   UNL     1      -9.670  -0.277 -32.940  1.00  0.00    -0.268 OA
HETATM    4  H   UNL     1      -9.429   1.694 -35.411  1.00  0.00     0.163 HD
ENDROOT
BRANCH   1   5
HETATM    5  C   UNL     1      -7.900   0.295 -35.015  1.00  0.00     0.161 C 
BRANCH   5   6
HETATM    6  C   UNL     1      -6.730   0.783 -34.204  1.00  0.00    -0.038 A 
HETATM    7  C   UNL     1      -6.723   2.081 -33.676  1.00  0.00     0.012 A 
HETATM    8  C   UNL     1      -5.659   2.513 -32.885  1.00  0.00     0.040 A 
HETATM    9  C   UNL     1      -4.592   1.652 -32.624  1.00  0.00     0.108 A 
HETATM   10  C   UNL     1      -4.593   0.339 -33.117  1.00  0.00     0.102 A 
HETATM   11  C   UNL     1      -5.663  -0.085 -33.911  1.00  0.00     0.048 A 
BRANCH   9  12
HETATM   12  O   UNL     1      -3.564   2.047 -31.805  1.00  0.00    -0.287 OA
BRANCH  12  13
HETATM   13  C   UNL     1      -3.171   3.380 -32.090  1.00  0.00     0.505 C 
HETATM   14  F   UNL     1      -2.255   3.770 -31.165  1.00  0.00    -0.184 F 
HETATM   15  F   UNL     1      -2.527   3.372 -33.284  1.00  0.00    -0.184 F 
ENDBRANCH  12  13
ENDBRANCH   9  12
BRANCH  10  16
HETATM   16  O   UNL     1      -3.504  -0.428 -32.797  1.00  0.00    -0.353 OA
HETATM   17  C   UNL     1      -3.678  -1.399 -31.770  1.00  0.00     0.210 C 
ENDBRANCH  10  16
ENDBRANCH   5   6
ENDBRANCH   1   5
BRANCH   2  18
HETATM   18  C   UNL     1     -11.177   1.450 -33.504  1.00  0.00     0.034 A 
HETATM   19  C   UNL     1     -11.164   2.813 -33.169  1.00  0.00     0.051 A 
HETATM   20  C   UNL     1     -12.391   3.479 -33.035  1.00  0.00     0.085 A 
HETATM   21  C   UNL     1     -13.578   2.778 -33.218  1.00  0.00     0.062 A 
HETATM   22  N   UNL     1     -12.640   4.794 -32.728  1.00  0.00    -0.242 NA
HETATM   23  N   UNL     1     -14.558   3.716 -33.011  1.00  0.00    -0.349 N 
HETATM   24  C   UNL     1     -13.627   1.420 -33.532  1.00  0.00     0.033 A 
HETATM   25  H   UNL     1     -15.554   3.556 -33.060  1.00  0.00     0.167 HD
HETATM   26  C   UNL     1     -13.949   4.905 -32.723  1.00  0.00     0.208 A 
HETATM   27  C   UNL     1     -12.395   0.769 -33.669  1.00  0.00     0.019 A 
ENDBRANCH   2  18
TORSDOF 6
ENDMDL
