MODEL 1
REMARK VINA RESULT:      -7.5      0.000      0.000
REMARK  3 active torsions:
REMARK  status: ('A' for Active; 'I' for Inactive)
REMARK       I    between atoms: C_2  and  N_3 
REMARK    1  A    between atoms: N_3  and  C_4 
REMARK    2  A    between atoms: C_9  and  N_10 
REMARK       I    between atoms: N_10  and  C_11 
REMARK    3  A    between atoms: C_11  and  C_12 
ROOT
HETATM    1  C   UNL     1      -9.060   2.279 -33.720  1.00  0.00     0.156 A 
HETATM    2  N   UNL     1     -10.068   3.193 -33.684  1.00  0.00    -0.241 NA
HETATM    3  C   UNL     1     -11.328   2.748 -33.517  1.00  0.00     0.119 A 
HETATM    4  C   UNL     1     -11.647   1.416 -33.381  1.00  0.00     0.022 A 
HETATM    5  C   UNL     1     -10.612   0.487 -33.421  1.00  0.00     0.035 A 
HETATM    6  C   UNL     1      -9.281   0.892 -33.600  1.00  0.00     0.081 A 
ENDROOT
BRANCH   6   7
HETATM    7  N   UNL     1      -8.230  -0.059 -33.633  1.00  0.00    -0.320 N 
HETATM    8  C   UNL     1      -7.326  -0.295 -34.653  1.00  0.00     0.256 C 
HETATM    9  O   UNL     1      -7.208   0.354 -35.687  1.00  0.00    -0.267 OA
HETATM   10  H   UNL     1      -8.087  -0.575 -32.767  1.00  0.00     0.169 HD
BRANCH   8  11
HETATM   11  C   UNL     1      -6.384  -1.435 -34.441  1.00  0.00     0.032 A 
HETATM   12  C   UNL     1      -6.654  -2.729 -34.907  1.00  0.00     0.018 A 
HETATM   13  C   UNL     1      -5.725  -3.756 -34.708  1.00  0.00     0.025 A 
HETATM   14  C   UNL     1      -4.522  -3.489 -34.057  1.00  0.00     0.034 A 
HETATM   15 CL   UNL     1      -3.379  -4.754 -33.822  1.00  0.00    -0.084 Cl
HETATM   16  C   UNL     1      -4.234  -2.203 -33.604  1.00  0.00     0.025 A 
HETATM   17  C   UNL     1      -5.163  -1.177 -33.800  1.00  0.00     0.018 A 
ENDBRANCH   8  11
ENDBRANCH   6   7
BRANCH   1  18
HETATM   18  N   UNL     1      -7.849   2.963 -33.900  1.00  0.00    -0.310 N 
HETATM   19  C   UNL     1      -6.656   2.922 -33.239  1.00  0.00     0.219 C 
HETATM   20  C   UNL     1      -5.624   3.857 -33.820  1.00  0.00     0.117 C 
HETATM   21  O   UNL     1      -6.397   2.245 -32.250  1.00  0.00    -0.274 OA
HETATM   22  H   UNL     1      -7.944   3.609 -34.674  1.00  0.00     0.170 HD
ENDBRANCH   1  18
TORSDOF 3
ENDMDL
MODEL 2
REMARK VINA RESULT:      -7.3      2.190      3.521
REMARK  3 active torsions:
REMARK  status: ('A' for Active; 'I' for Inactive)
REMARK       I    between atoms: C_2  and  N_3 
REMARK    1  A    between atoms: N_3  and  C_4 
REMARK    2  A    between atoms: C_9  and  N_10 
REMARK       I    between atoms: N_10  and  C_11 
REMARK    3  A    between atoms: C_11  and  C_12 
ROOT
HETATM    1  C   UNL     1      -8.922   2.204 -31.287  1.00  0.00     0.156 A 
HETATM    2  N   UNL     1      -9.358   3.306 -30.618  1.00  0.00    -0.241 NA
HETATM    3  C   UNL     1      -8.478   3.976 -29.850  1.00  0.00     0.119 A 
HETATM    4  C   UNL     1      -7.162   3.603 -29.709  1.00  0.00     0.022 A 
HETATM    5  C   UNL     1      -6.723   2.474 -30.394  1.00  0.00     0.035 A 
HETATM    6  C   UNL     1      -7.596   1.732 -31.202  1.00  0.00     0.081 A 
ENDROOT
BRANCH   6   7
HETATM    7  N   UNL     1      -7.142   0.587 -31.903  1.00  0.00    -0.320 N 
HETATM    8  C   UNL     1      -6.230   0.529 -32.941  1.00  0.00     0.256 C 
HETATM    9  O   UNL     1      -5.566   1.462 -33.381  1.00  0.00    -0.267 OA
HETATM   10  H   UNL     1      -7.480  -0.304 -31.541  1.00  0.00     0.169 HD
BRANCH   8  11
HETATM   11  C   UNL     1      -6.018  -0.818 -33.550  1.00  0.00     0.032 A 
HETATM   12  C   UNL     1      -4.754  -1.419 -33.621  1.00  0.00     0.018 A 
HETATM   13  C   UNL     1      -4.613  -2.697 -34.175  1.00  0.00     0.025 A 
HETATM   14  C   UNL     1      -5.733  -3.379 -34.645  1.00  0.00     0.034 A 
HETATM   15 CL   UNL     1      -5.555  -4.952 -35.318  1.00  0.00    -0.084 Cl
HETATM   16  C   UNL     1      -6.998  -2.799 -34.565  1.00  0.00     0.025 A 
HETATM   17  C   UNL     1      -7.140  -1.522 -34.014  1.00  0.00     0.018 A 
ENDBRANCH   8  11
ENDBRANCH   6   7
BRANCH   1  18
HETATM   18  N   UNL     1      -9.999   1.673 -32.014  1.00  0.00    -0.310 N 
HETATM   19  C   UNL     1     -10.146   1.322 -33.324  1.00  0.00     0.219 C 
HETATM   20  C   UNL     1     -11.516   0.777 -33.640  1.00  0.00     0.117 C 
HETATM   21  O   UNL     1      -9.305   1.445 -34.208  1.00  0.00    -0.274 OA
HETATM   22  H   UNL     1     -10.795   1.567 -31.398  1.00  0.00     0.170 HD
ENDBRANCH   1  18
TORSDOF 3
ENDMDL
MODEL 3
REMARK VINA RESULT:      -7.2      2.638      4.632
REMARK  3 active torsions:
REMARK  status: ('A' for Active; 'I' for Inactive)
REMARK       I    between atoms: C_2  and  N_3 
REMARK    1  A    between atoms: N_3  and  C_4 
REMARK    2  A    between atoms: C_9  and  N_10 
REMARK       I    between atoms: N_10  and  C_11 
REMARK    3  A    between atoms: C_11  and  C_12 
ROOT
HETATM    1  C   UNL     1      -5.281   3.405 -31.500  1.00  0.00     0.156 A 
HETATM    2  N   UNL     1      -4.882   4.605 -30.999  1.00  0.00    -0.241 NA
HETATM    3  C   UNL     1      -3.626   5.020 -31.259  1.00  0.00     0.119 A 
HETATM    4  C   UNL     1      -2.730   4.290 -32.005  1.00  0.00     0.022 A 
HETATM    5  C   UNL     1      -3.145   3.062 -32.512  1.00  0.00     0.035 A 
HETATM    6  C   UNL     1      -4.437   2.576 -32.267  1.00  0.00     0.081 A 
ENDROOT
BRANCH   6   7
HETATM    7  N   UNL     1      -4.856   1.328 -32.792  1.00  0.00    -0.320 N 
HETATM    8  C   UNL     1      -4.731   0.077 -32.217  1.00  0.00     0.256 C 
HETATM    9  O   UNL     1      -4.319  -0.169 -31.088  1.00  0.00    -0.267 OA
HETATM   10  H   UNL     1      -5.376   1.380 -33.666  1.00  0.00     0.169 HD
BRANCH   8  11
HETATM   11  C   UNL     1      -5.182  -1.075 -33.054  1.00  0.00     0.032 A 
HETATM   12  C   UNL     1      -6.493  -1.183 -33.537  1.00  0.00     0.018 A 
HETATM   13  C   UNL     1      -6.858  -2.268 -34.343  1.00  0.00     0.025 A 
HETATM   14  C   UNL     1      -5.913  -3.236 -34.676  1.00  0.00     0.034 A 
HETATM   15 CL   UNL     1      -6.365  -4.563 -35.674  1.00  0.00    -0.084 Cl
HETATM   16  C   UNL     1      -4.602  -3.131 -34.216  1.00  0.00     0.025 A 
HETATM   17  C   UNL     1      -4.237  -2.050 -33.409  1.00  0.00     0.018 A 
ENDBRANCH   8  11
ENDBRANCH   6   7
BRANCH   1  18
HETATM   18  N   UNL     1      -6.609   3.182 -31.107  1.00  0.00    -0.310 N 
HETATM   19  C   UNL     1      -7.710   2.733 -31.778  1.00  0.00     0.219 C 
HETATM   20  C   UNL     1      -8.940   2.651 -30.909  1.00  0.00     0.117 C 
HETATM   21  O   UNL     1      -7.766   2.444 -32.968  1.00  0.00    -0.274 OA
HETATM   22  H   UNL     1      -6.715   3.436 -30.132  1.00  0.00     0.170 HD
ENDBRANCH   1  18
TORSDOF 3
ENDMDL
MODEL 4
REMARK VINA RESULT:      -7.0      3.448      6.378
REMARK  3 active torsions:
REMARK  status: ('A' for Active; 'I' for Inactive)
REMARK       I    between atoms: C_2  and  N_3 
REMARK    1  A    between atoms: N_3  and  C_4 
REMARK    2  A    between atoms: C_9  and  N_10 
REMARK       I    between atoms: N_10  and  C_11 
REMARK    3  A    between atoms: C_11  and  C_12 
ROOT
HETATM    1  C   UNL     1      -5.163  -1.516 -33.943  1.00  0.00     0.156 A 
HETATM    2  N   UNL     1      -4.184  -2.461 -33.937  1.00  0.00    -0.241 NA
HETATM    3  C   UNL     1      -4.501  -3.711 -34.327  1.00  0.00     0.119 A 
HETATM    4  C   UNL     1      -5.763  -4.078 -34.732  1.00  0.00     0.022 A 
HETATM    5  C   UNL     1      -6.760  -3.107 -34.733  1.00  0.00     0.035 A 
HETATM    6  C   UNL     1      -6.490  -1.792 -34.330  1.00  0.00     0.081 A 
ENDROOT
BRANCH   6   7
HETATM    7  N   UNL     1      -7.508  -0.805 -34.340  1.00  0.00    -0.320 N 
HETATM    8  C   UNL     1      -8.000  -0.077 -33.272  1.00  0.00     0.256 C 
HETATM    9  O   UNL     1      -7.567  -0.083 -32.124  1.00  0.00    -0.267 OA
HETATM   10  H   UNL     1      -7.862  -0.559 -35.263  1.00  0.00     0.169 HD
BRANCH   8  11
HETATM   11  C   UNL     1      -9.148   0.830 -33.573  1.00  0.00     0.032 A 
HETATM   12  C   UNL     1      -8.976   2.082 -34.179  1.00  0.00     0.018 A 
HETATM   13  C   UNL     1     -10.088   2.882 -34.467  1.00  0.00     0.025 A 
HETATM   14  C   UNL     1     -11.370   2.427 -34.163  1.00  0.00     0.034 A 
HETATM   15 CL   UNL     1     -12.734   3.411 -34.526  1.00  0.00    -0.084 Cl
HETATM   16  C   UNL     1     -11.555   1.177 -33.576  1.00  0.00     0.025 A 
HETATM   17  C   UNL     1     -10.445   0.378 -33.285  1.00  0.00     0.018 A 
ENDBRANCH   8  11
ENDBRANCH   6   7
BRANCH   1  18
HETATM   18  N   UNL     1      -4.610  -0.304 -33.503  1.00  0.00    -0.310 N 
HETATM   19  C   UNL     1      -4.157   0.118 -32.287  1.00  0.00     0.219 C 
HETATM   20  C   UNL     1      -3.632   1.532 -32.308  1.00  0.00     0.117 C 
HETATM   21  O   UNL     1      -4.178  -0.524 -31.242  1.00  0.00    -0.274 OA
HETATM   22  H   UNL     1      -4.581   0.349 -34.276  1.00  0.00     0.170 HD
ENDBRANCH   1  18
TORSDOF 3
ENDMDL
MODEL 5
REMARK VINA RESULT:      -6.9     14.376     16.788
REMARK  3 active torsions:
REMARK  status: ('A' for Active; 'I' for Inactive)
REMARK       I    between atoms: C_2  and  N_3 
REMARK    1  A    between atoms: N_3  and  C_4 
REMARK    2  A    between atoms: C_9  and  N_10 
REMARK       I    between atoms: N_10  and  C_11 
REMARK    3  A    between atoms: C_11  and  C_12 
ROOT
HETATM    1  C   UNL     1      -1.534 -14.837 -40.515  1.00  0.00     0.156 A 
HETATM    2  N   UNL     1      -0.213 -15.157 -40.455  1.00  0.00    -0.241 NA
HETATM    3  C   UNL     1       0.500 -14.729 -39.395  1.00  0.00     0.119 A 
HETATM    4  C   UNL     1      -0.041 -13.986 -38.372  1.00  0.00     0.022 A 
HETATM    5  C   UNL     1      -1.392 -13.660 -38.441  1.00  0.00     0.035 A 
HETATM    6  C   UNL     1      -2.182 -14.072 -39.524  1.00  0.00     0.081 A 
ENDROOT
BRANCH   6   7
HETATM    7  N   UNL     1      -3.559 -13.743 -39.586  1.00  0.00    -0.320 N 
HETATM    8  C   UNL     1      -4.201 -12.652 -39.029  1.00  0.00     0.256 C 
HETATM    9  O   UNL     1      -3.668 -11.706 -38.458  1.00  0.00    -0.267 OA
HETATM   10  H   UNL     1      -4.123 -14.353 -40.176  1.00  0.00     0.169 HD
BRANCH   8  11
HETATM   11  C   UNL     1      -5.687 -12.620 -39.180  1.00  0.00     0.032 A 
HETATM   12  C   UNL     1      -6.555 -12.775 -38.090  1.00  0.00     0.018 A 
HETATM   13  C   UNL     1      -7.940 -12.707 -38.280  1.00  0.00     0.025 A 
HETATM   14  C   UNL     1      -8.457 -12.473 -39.553  1.00  0.00     0.034 A 
HETATM   15 CL   UNL     1     -10.161 -12.382 -39.780  1.00  0.00    -0.084 Cl
HETATM   16  C   UNL     1      -7.604 -12.300 -40.642  1.00  0.00     0.025 A 
HETATM   17  C   UNL     1      -6.221 -12.370 -40.453  1.00  0.00     0.018 A 
ENDBRANCH   8  11
ENDBRANCH   6   7
BRANCH   1  18
HETATM   18  N   UNL     1      -2.067 -15.381 -41.693  1.00  0.00    -0.310 N 
HETATM   19  C   UNL     1      -2.970 -14.912 -42.603  1.00  0.00     0.219 C 
HETATM   20  C   UNL     1      -3.226 -15.876 -43.734  1.00  0.00     0.117 C 
HETATM   21  O   UNL     1      -3.570 -13.844 -42.545  1.00  0.00    -0.274 OA
HETATM   22  H   UNL     1      -1.683 -16.307 -41.835  1.00  0.00     0.170 HD
ENDBRANCH   1  18
TORSDOF 3
ENDMDL
MODEL 6
REMARK VINA RESULT:      -6.8     14.091     15.194
REMARK  3 active torsions:
REMARK  status: ('A' for Active; 'I' for Inactive)
REMARK       I    between atoms: C_2  and  N_3 
REMARK    1  A    between atoms: N_3  and  C_4 
REMARK    2  A    between atoms: C_9  and  N_10 
REMARK       I    between atoms: N_10  and  C_11 
REMARK    3  A    between atoms: C_11  and  C_12 
ROOT
HETATM    1  C   UNL     1      -6.504 -12.931 -38.148  1.00  0.00     0.156 A 
HETATM    2  N   UNL     1      -7.812 -12.563 -38.210  1.00  0.00    -0.241 NA
HETATM    3  C   UNL     1      -8.383 -12.434 -39.424  1.00  0.00     0.119 A 
HETATM    4  C   UNL     1      -7.709 -12.658 -40.602  1.00  0.00     0.022 A 
HETATM    5  C   UNL     1      -6.370 -13.031 -40.531  1.00  0.00     0.035 A 
HETATM    6  C   UNL     1      -5.722 -13.173 -39.296  1.00  0.00     0.081 A 
ENDROOT
BRANCH   6   7
HETATM    7  N   UNL     1      -4.360 -13.561 -39.230  1.00  0.00    -0.320 N 
HETATM    8  C   UNL     1      -3.291 -12.837 -38.733  1.00  0.00     0.256 C 
HETATM    9  O   UNL     1      -3.347 -11.754 -38.161  1.00  0.00    -0.267 OA
HETATM   10  H   UNL     1      -4.169 -14.519 -39.519  1.00  0.00     0.169 HD
BRANCH   8  11
HETATM   11  C   UNL     1      -1.947 -13.471 -38.885  1.00  0.00     0.032 A 
HETATM   12  C   UNL     1      -1.175 -13.866 -37.783  1.00  0.00     0.018 A 
HETATM   13  C   UNL     1       0.065 -14.483 -37.979  1.00  0.00     0.025 A 
HETATM   14  C   UNL     1       0.530 -14.717 -39.272  1.00  0.00     0.034 A 
HETATM   15 CL   UNL     1       2.053 -15.483 -39.507  1.00  0.00    -0.084 Cl
HETATM   16  C   UNL     1      -0.235 -14.344 -40.375  1.00  0.00     0.025 A 
HETATM   17  C   UNL     1      -1.474 -13.726 -40.181  1.00  0.00     0.018 A 
ENDBRANCH   8  11
ENDBRANCH   6   7
BRANCH   1  18
HETATM   18  N   UNL     1      -6.128 -13.000 -36.799  1.00  0.00    -0.310 N 
HETATM   19  C   UNL     1      -5.478 -13.952 -36.067  1.00  0.00     0.219 C 
HETATM   20  C   UNL     1      -5.291 -13.562 -34.622  1.00  0.00     0.117 C 
HETATM   21  O   UNL     1      -5.092 -15.042 -36.474  1.00  0.00    -0.274 OA
HETATM   22  H   UNL     1      -6.440 -12.163 -36.323  1.00  0.00     0.170 HD
ENDBRANCH   1  18
TORSDOF 3
ENDMDL
MODEL 7
REMARK VINA RESULT:      -6.8      3.206      4.761
REMARK  3 active torsions:
REMARK  status: ('A' for Active; 'I' for Inactive)
REMARK       I    between atoms: C_2  and  N_3 
REMARK    1  A    between atoms: N_3  and  C_4 
REMARK    2  A    between atoms: C_9  and  N_10 
REMARK       I    between atoms: N_10  and  C_11 
REMARK    3  A    between atoms: C_11  and  C_12 
ROOT
HETATM    1  C   UNL     1      -4.345   4.699 -31.760  1.00  0.00     0.156 A 
HETATM    2  N   UNL     1      -4.228   5.857 -31.055  1.00  0.00    -0.241 NA
HETATM    3  C   UNL     1      -4.868   5.954 -29.874  1.00  0.00     0.119 A 
HETATM    4  C   UNL     1      -5.633   4.940 -29.345  1.00  0.00     0.022 A 
HETATM    5  C   UNL     1      -5.750   3.760 -30.072  1.00  0.00     0.035 A 
HETATM    6  C   UNL     1      -5.113   3.605 -31.311  1.00  0.00     0.081 A 
ENDROOT
BRANCH   6   7
HETATM    7  N   UNL     1      -5.230   2.398 -32.044  1.00  0.00    -0.320 N 
HETATM    8  C   UNL     1      -6.106   2.108 -33.075  1.00  0.00     0.256 C 
HETATM    9  O   UNL     1      -6.881   2.890 -33.615  1.00  0.00    -0.267 OA
HETATM   10  H   UNL     1      -4.532   1.690 -31.825  1.00  0.00     0.169 HD
BRANCH   8  11
HETATM   11  C   UNL     1      -6.063   0.708 -33.595  1.00  0.00     0.032 A 
HETATM   12  C   UNL     1      -6.947   0.246 -34.580  1.00  0.00     0.018 A 
HETATM   13  C   UNL     1      -6.845  -1.066 -35.055  1.00  0.00     0.025 A 
HETATM   14  C   UNL     1      -5.855  -1.911 -34.559  1.00  0.00     0.034 A 
HETATM   15 CL   UNL     1      -5.730  -3.522 -35.153  1.00  0.00    -0.084 Cl
HETATM   16  C   UNL     1      -4.959  -1.459 -33.592  1.00  0.00     0.025 A 
HETATM   17  C   UNL     1      -5.061  -0.149 -33.115  1.00  0.00     0.018 A 
ENDBRANCH   8  11
ENDBRANCH   6   7
BRANCH   1  18
HETATM   18  N   UNL     1      -3.603   4.825 -32.944  1.00  0.00    -0.310 N 
HETATM   19  C   UNL     1      -2.272   4.706 -33.218  1.00  0.00     0.219 C 
HETATM   20  C   UNL     1      -1.945   4.927 -34.674  1.00  0.00     0.117 C 
HETATM   21  O   UNL     1      -1.381   4.479 -32.406  1.00  0.00    -0.274 OA
HETATM   22  H   UNL     1      -4.227   5.068 -33.703  1.00  0.00     0.170 HD
ENDBRANCH   1  18
TORSDOF 3
ENDMDL
MODEL 8
REMARK VINA RESULT:      -6.7      3.305      6.286
REMARK  3 active torsions:
REMARK  status: ('A' for Active; 'I' for Inactive)
REMARK       I    between atoms: C_2  and  N_3 
REMARK    1  A    between atoms: N_3  and  C_4 
REMARK    2  A    between atoms: C_9  and  N_10 
REMARK       I    between atoms: N_10  and  C_11 
REMARK    3  A    between atoms: C_11  and  C_12 
ROOT
HETATM    1  C   UNL     1      -6.459  -1.917 -34.179  1.00  0.00     0.156 A 
HETATM    2  N   UNL     1      -6.845  -3.117 -34.690  1.00  0.00    -0.241 NA
HETATM    3  C   UNL     1      -5.926  -4.098 -34.784  1.00  0.00     0.119 A 
HETATM    4  C   UNL     1      -4.618  -3.946 -34.387  1.00  0.00     0.022 A 
HETATM    5  C   UNL     1      -4.229  -2.715 -33.868  1.00  0.00     0.035 A 
HETATM    6  C   UNL     1      -5.140  -1.655 -33.755  1.00  0.00     0.081 A 
ENDROOT
BRANCH   6   7
HETATM    7  N   UNL     1      -4.739  -0.406 -33.218  1.00  0.00    -0.320 N 
HETATM    8  C   UNL     1      -5.110   0.163 -32.013  1.00  0.00     0.256 C 
HETATM    9  O   UNL     1      -5.784  -0.365 -31.135  1.00  0.00    -0.267 OA
HETATM   10  H   UNL     1      -4.036   0.092 -33.761  1.00  0.00     0.169 HD
BRANCH   8  11
HETATM   11  C   UNL     1      -4.600   1.543 -31.757  1.00  0.00     0.032 A 
HETATM   12  C   UNL     1      -3.439   2.039 -32.367  1.00  0.00     0.018 A 
HETATM   13  C   UNL     1      -3.019   3.350 -32.117  1.00  0.00     0.025 A 
HETATM   14  C   UNL     1      -3.763   4.169 -31.270  1.00  0.00     0.034 A 
HETATM   15 CL   UNL     1      -3.246   5.783 -30.971  1.00  0.00    -0.084 Cl
HETATM   16  C   UNL     1      -4.928   3.694 -30.671  1.00  0.00     0.025 A 
HETATM   17  C   UNL     1      -5.347   2.383 -30.918  1.00  0.00     0.018 A 
ENDBRANCH   8  11
ENDBRANCH   6   7
BRANCH   1  18
HETATM   18  N   UNL     1      -7.568  -1.059 -34.179  1.00  0.00    -0.310 N 
HETATM   19  C   UNL     1      -7.763   0.202 -34.665  1.00  0.00     0.219 C 
HETATM   20  C   UNL     1      -9.160   0.719 -34.428  1.00  0.00     0.117 C 
HETATM   21  O   UNL     1      -6.922   0.906 -35.214  1.00  0.00    -0.274 OA
HETATM   22  H   UNL     1      -8.337  -1.509 -33.697  1.00  0.00     0.170 HD
ENDBRANCH   1  18
TORSDOF 3
ENDMDL
MODEL 9
REMARK VINA RESULT:      -6.7      3.466      6.618
REMARK  3 active torsions:
REMARK  status: ('A' for Active; 'I' for Inactive)
REMARK       I    between atoms: C_2  and  N_3 
REMARK    1  A    between atoms: N_3  and  C_4 
REMARK    2  A    between atoms: C_9  and  N_10 
REMARK       I    between atoms: N_10  and  C_11 
REMARK    3  A    between atoms: C_11  and  C_12 
ROOT
HETATM    1  C   UNL     1      -4.956  -0.803 -32.721  1.00  0.00     0.156 A 
HETATM    2  N   UNL     1      -3.731  -1.201 -32.284  1.00  0.00    -0.241 NA
HETATM    3  C   UNL     1      -2.961  -0.305 -31.636  1.00  0.00     0.119 A 
HETATM    4  C   UNL     1      -3.353   0.992 -31.395  1.00  0.00     0.022 A 
HETATM    5  C   UNL     1      -4.606   1.393 -31.847  1.00  0.00     0.035 A 
HETATM    6  C   UNL     1      -5.447   0.506 -32.535  1.00  0.00     0.081 A 
ENDROOT
BRANCH   6   7
HETATM    7  N   UNL     1      -6.725   0.918 -32.987  1.00  0.00    -0.320 N 
HETATM    8  C   UNL     1      -7.947   0.744 -32.363  1.00  0.00     0.256 C 
HETATM    9  O   UNL     1      -8.134   0.283 -31.241  1.00  0.00    -0.267 OA
HETATM   10  H   UNL     1      -6.723   1.473 -33.841  1.00  0.00     0.169 HD
BRANCH   8  11
HETATM   11  C   UNL     1      -9.144   1.203 -33.129  1.00  0.00     0.032 A 
HETATM   12  C   UNL     1     -10.361   0.508 -33.107  1.00  0.00     0.018 A 
HETATM   13  C   UNL     1     -11.462   0.997 -33.820  1.00  0.00     0.025 A 
HETATM   14  C   UNL     1     -11.353   2.184 -34.542  1.00  0.00     0.034 A 
HETATM   15 CL   UNL     1     -12.712   2.784 -35.410  1.00  0.00    -0.084 Cl
HETATM   16  C   UNL     1     -10.153   2.893 -34.558  1.00  0.00     0.025 A 
HETATM   17  C   UNL     1      -9.052   2.404 -33.849  1.00  0.00     0.018 A 
ENDBRANCH   8  11
ENDBRANCH   6   7
BRANCH   1  18
HETATM   18  N   UNL     1      -5.572  -1.889 -33.361  1.00  0.00    -0.310 N 
HETATM   19  C   UNL     1      -6.313  -1.991 -34.502  1.00  0.00     0.219 C 
HETATM   20  C   UNL     1      -6.760  -3.402 -34.793  1.00  0.00     0.117 C 
HETATM   21  O   UNL     1      -6.644  -1.068 -35.238  1.00  0.00    -0.274 OA
HETATM   22  H   UNL     1      -5.415  -2.728 -32.816  1.00  0.00     0.170 HD
ENDBRANCH   1  18
TORSDOF 3
ENDMDL
MODEL 10
REMARK VINA RESULT:      -6.7      2.303      3.299
REMARK  3 active torsions:
REMARK  status: ('A' for Active; 'I' for Inactive)
REMARK       I    between atoms: C_2  and  N_3 
REMARK    1  A    between atoms: N_3  and  C_4 
REMARK    2  A    between atoms: C_9  and  N_10 
REMARK       I    between atoms: N_10  and  C_11 
REMARK    3  A    between atoms: C_11  and  C_12 
ROOT
HETATM    1  C   UNL     1     -11.789   2.307 -33.534  1.00  0.00     0.156 A 
HETATM    2  N   UNL     1     -13.046   2.827 -33.565  1.00  0.00    -0.241 NA
HETATM    3  C   UNL     1     -14.089   1.975 -33.607  1.00  0.00     0.119 A 
HETATM    4  C   UNL     1     -13.945   0.607 -33.618  1.00  0.00     0.022 A 
HETATM    5  C   UNL     1     -12.657   0.082 -33.589  1.00  0.00     0.035 A 
HETATM    6  C   UNL     1     -11.533   0.921 -33.554  1.00  0.00     0.081 A 
ENDROOT
BRANCH   6   7
HETATM    7  N   UNL     1     -10.224   0.380 -33.517  1.00  0.00    -0.320 N 
HETATM    8  C   UNL     1      -9.230   0.617 -32.585  1.00  0.00     0.256 C 
HETATM    9  O   UNL     1      -9.339   1.270 -31.552  1.00  0.00    -0.267 OA
HETATM   10  H   UNL     1     -10.026  -0.323 -34.228  1.00  0.00     0.169 HD
BRANCH   8  11
HETATM   11  C   UNL     1      -7.909  -0.024 -32.861  1.00  0.00     0.032 A 
HETATM   12  C   UNL     1      -6.863  -0.020 -31.927  1.00  0.00     0.018 A 
HETATM   13  C   UNL     1      -5.655  -0.661 -32.223  1.00  0.00     0.025 A 
HETATM   14  C   UNL     1      -5.495  -1.317 -33.442  1.00  0.00     0.034 A 
HETATM   15 CL   UNL     1      -4.010  -2.110 -33.797  1.00  0.00    -0.084 Cl
HETATM   16  C   UNL     1      -6.533  -1.343 -34.371  1.00  0.00     0.025 A 
HETATM   17  C   UNL     1      -7.739  -0.700 -34.078  1.00  0.00     0.018 A 
ENDBRANCH   8  11
ENDBRANCH   6   7
BRANCH   1  18
HETATM   18  N   UNL     1     -10.872   3.369 -33.495  1.00  0.00    -0.310 N 
HETATM   19  C   UNL     1     -10.391   4.211 -34.455  1.00  0.00     0.219 C 
HETATM   20  C   UNL     1      -9.408   5.221 -33.918  1.00  0.00     0.117 C 
HETATM   21  O   UNL     1     -10.662   4.179 -35.651  1.00  0.00    -0.274 OA
HETATM   22  H   UNL     1     -10.523   3.472 -32.550  1.00  0.00     0.170 HD
ENDBRANCH   1  18
TORSDOF 3
ENDMDL
