MODEL 1
REMARK VINA RESULT:      -8.6      0.000      0.000
REMARK  10 active torsions:
REMARK  status: ('A' for Active; 'I' for Inactive)
REMARK    1  A    between atoms: N_7  and  C_8 
REMARK    2  A    between atoms: C_8  and  C_9 
REMARK       I    between atoms: C_9  and  N_10 
REMARK    3  A    between atoms: N_10  and  C_11 
REMARK    4  A    between atoms: C_11  and  C_12 
REMARK    5  A    between atoms: C_12  and  C_13 
REMARK    6  A    between atoms: C_13  and  C_14 
REMARK       I    between atoms: C_14  and  N_15 
REMARK    7  A    between atoms: N_15  and  C_16 
REMARK    8  A    between atoms: C_16  and  C_17 
REMARK    9  A    between atoms: C_17  and  C_18 
REMARK   10  A    between atoms: C_18  and  N_19 
ROOT
HETATM    1  C   UNL     1      -3.994   5.561 -33.184  1.00  0.00     0.123 C 
ENDROOT
BRANCH   1   2
HETATM    2  N   UNL     1      -4.493   4.418 -32.447  1.00  0.00    -0.360 N 
HETATM    3  C   UNL     1      -3.640   3.591 -31.738  1.00  0.00     0.235 C 
HETATM    4  O   UNL     1      -2.424   3.757 -31.717  1.00  0.00    -0.272 OA
HETATM    5  H   UNL     1      -5.479   4.193 -32.507  1.00  0.00     0.162 HD
BRANCH   3   6
HETATM    6  C   UNL     1      -4.350   2.507 -30.926  1.00  0.00     0.235 C 
BRANCH   6   7
HETATM    7  N   UNL     1      -4.250   1.226 -31.601  1.00  0.00    -0.299 N 
HETATM    8  C   UNL     1      -3.201   0.372 -31.320  1.00  0.00     0.214 A 
HETATM    9  N   UNL     1      -3.030  -0.802 -31.834  1.00  0.00    -0.235 NA
HETATM   10  C   UNL     1      -3.992  -1.171 -32.717  1.00  0.00     0.115 A 
HETATM   11  C   UNL     1      -5.063  -0.414 -33.135  1.00  0.00     0.075 A 
HETATM   12  S   UNL     1      -3.981  -2.706 -33.447  1.00  0.00    -0.074 SA
HETATM   13  C   UNL     1      -5.896  -1.101 -34.090  1.00  0.00    -0.031 A 
HETATM   14  C   UNL     1      -5.205   0.917 -32.566  1.00  0.00     0.262 A 
HETATM   15  C   UNL     1      -7.117  -0.509 -34.720  1.00  0.00     0.050 C 
HETATM   16  C   UNL     1      -5.422  -2.387 -34.315  1.00  0.00    -0.012 A 
HETATM   17  C   UNL     1      -5.993  -3.457 -35.190  1.00  0.00     0.057 C 
HETATM   18  O   UNL     1      -6.089   1.702 -32.904  1.00  0.00    -0.267 OA
ENDBRANCH   6   7
ENDBRANCH   3   6
ENDBRANCH   1   2
BRANCH   1  19
HETATM   19  C   UNL     1      -3.615   5.205 -34.621  1.00  0.00     0.029 C 
BRANCH  19  20
HETATM   20  C   UNL     1      -2.107   5.319 -34.829  1.00  0.00     0.104 C 
BRANCH  20  21
HETATM   21  C   UNL     1      -1.471   6.430 -34.018  1.00  0.00     0.217 C 
HETATM   22  N   UNL     1      -0.724   6.024 -32.939  1.00  0.00    -0.361 N 
HETATM   23  H   UNL     1      -0.754   5.039 -32.682  1.00  0.00     0.162 HD
HETATM   24  O   UNL     1      -1.629   7.622 -34.282  1.00  0.00    -0.274 OA
BRANCH  22  25
HETATM   25  C   UNL     1      -0.223   6.952 -31.949  1.00  0.00     0.124 C 
BRANCH  25  26
HETATM   26  C   UNL     1      -1.141   7.137 -30.741  1.00  0.00     0.047 C 
BRANCH  26  27
HETATM   27  C   UNL     1      -0.937   6.197 -29.549  1.00  0.00     0.236 C 
BRANCH  27  28
HETATM   28  N   UNL     1      -0.554   6.892 -28.261  1.00  0.00    -0.070 N 
HETATM   29  H   UNL     1      -0.032   6.172 -27.717  1.00  0.00     0.279 HD
HETATM   30  C   UNL     1       0.288   8.124 -28.446  1.00  0.00     0.239 C 
HETATM   31  C   UNL     1       0.732   8.703 -27.099  1.00  0.00     0.008 C 
HETATM   32  C   UNL     1       1.804   7.839 -26.429  1.00  0.00     0.011 C 
HETATM   33  C   UNL     1      -0.472   8.936 -26.177  1.00  0.00     0.011 C 
HETATM   34  C   UNL     1      -1.356   7.692 -26.041  1.00  0.00     0.008 C 
HETATM   35  C   UNL     1      -2.586   8.003 -25.188  1.00  0.00     0.011 C 
HETATM   36  C   UNL     1      -1.779   7.170 -27.416  1.00  0.00     0.239 C 
ENDBRANCH  27  28
ENDBRANCH  26  27
ENDBRANCH  25  26
ENDBRANCH  22  25
ENDBRANCH  20  21
ENDBRANCH  19  20
ENDBRANCH   1  19
TORSDOF 10
ENDMDL
MODEL 2
REMARK VINA RESULT:      -8.6      1.387      2.089
REMARK  10 active torsions:
REMARK  status: ('A' for Active; 'I' for Inactive)
REMARK    1  A    between atoms: N_7  and  C_8 
REMARK    2  A    between atoms: C_8  and  C_9 
REMARK       I    between atoms: C_9  and  N_10 
REMARK    3  A    between atoms: N_10  and  C_11 
REMARK    4  A    between atoms: C_11  and  C_12 
REMARK    5  A    between atoms: C_12  and  C_13 
REMARK    6  A    between atoms: C_13  and  C_14 
REMARK       I    between atoms: C_14  and  N_15 
REMARK    7  A    between atoms: N_15  and  C_16 
REMARK    8  A    between atoms: C_16  and  C_17 
REMARK    9  A    between atoms: C_17  and  C_18 
REMARK   10  A    between atoms: C_18  and  N_19 
ROOT
HETATM    1  C   UNL     1      -2.142   4.592 -33.886  1.00  0.00     0.123 C 
ENDROOT
BRANCH   1   2
HETATM    2  N   UNL     1      -3.093   3.731 -33.215  1.00  0.00    -0.360 N 
HETATM    3  C   UNL     1      -2.941   3.390 -31.883  1.00  0.00     0.235 C 
HETATM    4  O   UNL     1      -1.986   3.768 -31.209  1.00  0.00    -0.272 OA
HETATM    5  H   UNL     1      -3.849   3.326 -33.755  1.00  0.00     0.162 HD
BRANCH   3   6
HETATM    6  C   UNL     1      -4.098   2.572 -31.308  1.00  0.00     0.235 C 
BRANCH   6   7
HETATM    7  N   UNL     1      -4.074   1.222 -31.840  1.00  0.00    -0.299 N 
HETATM    8  C   UNL     1      -3.134   0.314 -31.391  1.00  0.00     0.214 A 
HETATM    9  N   UNL     1      -3.041  -0.919 -31.769  1.00  0.00    -0.235 NA
HETATM   10  C   UNL     1      -3.968  -1.294 -32.686  1.00  0.00     0.115 A 
HETATM   11  C   UNL     1      -4.929  -0.495 -33.263  1.00  0.00     0.075 A 
HETATM   12  S   UNL     1      -4.053  -2.893 -33.255  1.00  0.00    -0.074 SA
HETATM   13  C   UNL     1      -5.754  -1.204 -34.209  1.00  0.00    -0.031 A 
HETATM   14  C   UNL     1      -4.983   0.897 -32.844  1.00  0.00     0.262 A 
HETATM   15  C   UNL     1      -6.864  -0.578 -34.992  1.00  0.00     0.050 C 
HETATM   16  C   UNL     1      -5.391  -2.544 -34.265  1.00  0.00    -0.012 A 
HETATM   17  C   UNL     1      -5.999  -3.646 -35.071  1.00  0.00     0.057 C 
HETATM   18  O   UNL     1      -5.761   1.716 -33.330  1.00  0.00    -0.267 OA
ENDBRANCH   6   7
ENDBRANCH   3   6
ENDBRANCH   1   2
BRANCH   1  19
HETATM   19  C   UNL     1      -2.723   5.971 -34.194  1.00  0.00     0.029 C 
BRANCH  19  20
HETATM   20  C   UNL     1      -1.749   7.074 -33.786  1.00  0.00     0.104 C 
BRANCH  20  21
HETATM   21  C   UNL     1      -2.213   7.870 -32.583  1.00  0.00     0.217 C 
HETATM   22  N   UNL     1      -3.243   7.312 -31.864  1.00  0.00    -0.361 N 
HETATM   23  H   UNL     1      -3.703   6.489 -32.249  1.00  0.00     0.162 HD
HETATM   24  O   UNL     1      -1.729   8.959 -32.277  1.00  0.00    -0.274 OA
BRANCH  22  25
HETATM   25  C   UNL     1      -3.938   8.030 -30.817  1.00  0.00     0.124 C 
BRANCH  25  26
HETATM   26  C   UNL     1      -3.604   7.555 -29.403  1.00  0.00     0.047 C 
BRANCH  26  27
HETATM   27  C   UNL     1      -2.778   8.495 -28.520  1.00  0.00     0.236 C 
BRANCH  27  28
HETATM   28  N   UNL     1      -1.325   8.103 -28.375  1.00  0.00    -0.070 N 
HETATM   29  H   UNL     1      -0.810   8.761 -28.999  1.00  0.00     0.279 HD
HETATM   30  C   UNL     1      -0.794   8.184 -26.971  1.00  0.00     0.239 C 
HETATM   31  C   UNL     1       0.707   7.886 -26.924  1.00  0.00     0.008 C 
HETATM   32  C   UNL     1       1.538   9.033 -27.507  1.00  0.00     0.011 C 
HETATM   33  C   UNL     1       1.024   6.548 -27.604  1.00  0.00     0.011 C 
HETATM   34  C   UNL     1       0.431   6.452 -29.013  1.00  0.00     0.008 C 
HETATM   35  C   UNL     1       0.696   5.070 -29.610  1.00  0.00     0.011 C 
HETATM   36  C   UNL     1      -1.071   6.744 -28.994  1.00  0.00     0.239 C 
ENDBRANCH  27  28
ENDBRANCH  26  27
ENDBRANCH  25  26
ENDBRANCH  22  25
ENDBRANCH  20  21
ENDBRANCH  19  20
ENDBRANCH   1  19
TORSDOF 10
ENDMDL
MODEL 3
REMARK VINA RESULT:      -8.1      5.184      9.753
REMARK  10 active torsions:
REMARK  status: ('A' for Active; 'I' for Inactive)
REMARK    1  A    between atoms: N_7  and  C_8 
REMARK    2  A    between atoms: C_8  and  C_9 
REMARK       I    between atoms: C_9  and  N_10 
REMARK    3  A    between atoms: N_10  and  C_11 
REMARK    4  A    between atoms: C_11  and  C_12 
REMARK    5  A    between atoms: C_12  and  C_13 
REMARK    6  A    between atoms: C_13  and  C_14 
REMARK       I    between atoms: C_14  and  N_15 
REMARK    7  A    between atoms: N_15  and  C_16 
REMARK    8  A    between atoms: C_16  and  C_17 
REMARK    9  A    between atoms: C_17  and  C_18 
REMARK   10  A    between atoms: C_18  and  N_19 
ROOT
HETATM    1  C   UNL     1      -7.476   3.607 -30.217  1.00  0.00     0.123 C 
ENDROOT
BRANCH   1   2
HETATM    2  N   UNL     1      -6.213   3.371 -30.884  1.00  0.00    -0.360 N 
HETATM    3  C   UNL     1      -5.387   2.325 -30.513  1.00  0.00     0.235 C 
HETATM    4  O   UNL     1      -5.660   1.562 -29.590  1.00  0.00    -0.272 OA
HETATM    5  H   UNL     1      -5.907   4.027 -31.594  1.00  0.00     0.162 HD
BRANCH   3   6
HETATM    6  C   UNL     1      -4.154   2.154 -31.400  1.00  0.00     0.235 C 
BRANCH   6   7
HETATM    7  N   UNL     1      -4.139   0.829 -31.993  1.00  0.00    -0.299 N 
HETATM    8  C   UNL     1      -3.146  -0.071 -31.658  1.00  0.00     0.214 A 
HETATM    9  N   UNL     1      -3.053  -1.284 -32.097  1.00  0.00    -0.235 NA
HETATM   10  C   UNL     1      -4.038  -1.645 -32.957  1.00  0.00     0.115 A 
HETATM   11  C   UNL     1      -5.060  -0.847 -33.422  1.00  0.00     0.075 A 
HETATM   12  S   UNL     1      -4.129  -3.219 -33.589  1.00  0.00    -0.074 SA
HETATM   13  C   UNL     1      -5.939  -1.538 -34.333  1.00  0.00    -0.031 A 
HETATM   14  C   UNL     1      -5.114   0.523 -32.938  1.00  0.00     0.262 A 
HETATM   15  C   UNL     1      -7.121  -0.909 -35.001  1.00  0.00     0.050 C 
HETATM   16  C   UNL     1      -5.549  -2.863 -34.477  1.00  0.00    -0.012 A 
HETATM   17  C   UNL     1      -6.190  -3.947 -35.282  1.00  0.00     0.057 C 
HETATM   18  O   UNL     1      -5.947   1.341 -33.326  1.00  0.00    -0.267 OA
ENDBRANCH   6   7
ENDBRANCH   3   6
ENDBRANCH   1   2
BRANCH   1  19
HETATM   19  C   UNL     1      -8.654   3.614 -31.191  1.00  0.00     0.029 C 
BRANCH  19  20
HETATM   20  C   UNL     1      -9.939   3.178 -30.492  1.00  0.00     0.104 C 
BRANCH  20  21
HETATM   21  C   UNL     1     -11.016   4.244 -30.494  1.00  0.00     0.217 C 
HETATM   22  N   UNL     1     -12.233   3.858 -29.985  1.00  0.00    -0.361 N 
HETATM   23  H   UNL     1     -12.368   2.873 -29.767  1.00  0.00     0.162 HD
HETATM   24  O   UNL     1     -10.835   5.373 -30.947  1.00  0.00    -0.274 OA
BRANCH  22  25
HETATM   25  C   UNL     1     -13.418   4.680 -30.100  1.00  0.00     0.124 C 
BRANCH  25  26
HETATM   26  C   UNL     1     -14.217   4.451 -31.383  1.00  0.00     0.047 C 
BRANCH  26  27
HETATM   27  C   UNL     1     -14.733   3.034 -31.650  1.00  0.00     0.236 C 
BRANCH  27  28
HETATM   28  N   UNL     1     -13.869   2.220 -32.588  1.00  0.00    -0.070 N 
HETATM   29  H   UNL     1     -13.306   1.604 -31.963  1.00  0.00     0.279 HD
HETATM   30  C   UNL     1     -14.638   1.396 -33.584  1.00  0.00     0.239 C 
HETATM   31  C   UNL     1     -13.704   0.515 -34.418  1.00  0.00     0.008 C 
HETATM   32  C   UNL     1     -13.138  -0.652 -33.604  1.00  0.00     0.011 C 
HETATM   33  C   UNL     1     -12.592   1.350 -35.067  1.00  0.00     0.011 C 
HETATM   34  C   UNL     1     -11.852   2.229 -34.053  1.00  0.00     0.008 C 
HETATM   35  C   UNL     1     -10.819   3.106 -34.760  1.00  0.00     0.011 C 
HETATM   36  C   UNL     1     -12.835   3.096 -33.262  1.00  0.00     0.239 C 
ENDBRANCH  27  28
ENDBRANCH  26  27
ENDBRANCH  25  26
ENDBRANCH  22  25
ENDBRANCH  20  21
ENDBRANCH  19  20
ENDBRANCH   1  19
TORSDOF 10
ENDMDL
MODEL 4
REMARK VINA RESULT:      -8.1      5.270      9.538
REMARK  10 active torsions:
REMARK  status: ('A' for Active; 'I' for Inactive)
REMARK    1  A    between atoms: N_7  and  C_8 
REMARK    2  A    between atoms: C_8  and  C_9 
REMARK       I    between atoms: C_9  and  N_10 
REMARK    3  A    between atoms: N_10  and  C_11 
REMARK    4  A    between atoms: C_11  and  C_12 
REMARK    5  A    between atoms: C_12  and  C_13 
REMARK    6  A    between atoms: C_13  and  C_14 
REMARK       I    between atoms: C_14  and  N_15 
REMARK    7  A    between atoms: N_15  and  C_16 
REMARK    8  A    between atoms: C_16  and  C_17 
REMARK    9  A    between atoms: C_17  and  C_18 
REMARK   10  A    between atoms: C_18  and  N_19 
ROOT
HETATM    1  C   UNL     1      -7.361   3.770 -29.532  1.00  0.00     0.123 C 
ENDROOT
BRANCH   1   2
HETATM    2  N   UNL     1      -6.229   3.603 -30.419  1.00  0.00    -0.360 N 
HETATM    3  C   UNL     1      -5.487   2.436 -30.428  1.00  0.00     0.235 C 
HETATM    4  O   UNL     1      -5.723   1.497 -29.673  1.00  0.00    -0.272 OA
HETATM    5  H   UNL     1      -5.946   4.385 -30.999  1.00  0.00     0.162 HD
BRANCH   3   6
HETATM    6  C   UNL     1      -4.405   2.389 -31.507  1.00  0.00     0.235 C 
BRANCH   6   7
HETATM    7  N   UNL     1      -4.335   1.061 -32.092  1.00  0.00    -0.299 N 
HETATM    8  C   UNL     1      -3.275   0.226 -31.795  1.00  0.00     0.214 A 
HETATM    9  N   UNL     1      -3.127  -0.982 -32.229  1.00  0.00    -0.235 NA
HETATM   10  C   UNL     1      -4.125  -1.410 -33.043  1.00  0.00     0.115 A 
HETATM   11  C   UNL     1      -5.213  -0.681 -33.468  1.00  0.00     0.075 A 
HETATM   12  S   UNL     1      -4.146  -2.994 -33.660  1.00  0.00    -0.074 SA
HETATM   13  C   UNL     1      -6.086  -1.433 -34.335  1.00  0.00    -0.031 A 
HETATM   14  C   UNL     1      -5.330   0.687 -32.991  1.00  0.00     0.262 A 
HETATM   15  C   UNL     1      -7.333  -0.884 -34.953  1.00  0.00     0.050 C 
HETATM   16  C   UNL     1      -5.623  -2.733 -34.486  1.00  0.00    -0.012 A 
HETATM   17  C   UNL     1      -6.231  -3.861 -35.256  1.00  0.00     0.057 C 
HETATM   18  O   UNL     1      -6.227   1.449 -33.347  1.00  0.00    -0.267 OA
ENDBRANCH   6   7
ENDBRANCH   3   6
ENDBRANCH   1   2
BRANCH   1  19
HETATM   19  C   UNL     1      -8.686   3.850 -30.289  1.00  0.00     0.029 C 
BRANCH  19  20
HETATM   20  C   UNL     1      -9.109   2.472 -30.792  1.00  0.00     0.104 C 
BRANCH  20  21
HETATM   21  C   UNL     1      -9.518   2.465 -32.251  1.00  0.00     0.217 C 
HETATM   22  N   UNL     1     -10.202   1.349 -32.669  1.00  0.00    -0.361 N 
HETATM   23  H   UNL     1     -10.273   0.564 -32.025  1.00  0.00     0.162 HD
HETATM   24  O   UNL     1      -9.236   3.378 -33.027  1.00  0.00    -0.274 OA
BRANCH  22  25
HETATM   25  C   UNL     1     -10.485   1.089 -34.064  1.00  0.00     0.124 C 
BRANCH  25  26
HETATM   26  C   UNL     1     -11.931   1.367 -34.473  1.00  0.00     0.047 C 
BRANCH  26  27
HETATM   27  C   UNL     1     -13.039   0.816 -33.571  1.00  0.00     0.236 C 
BRANCH  27  28
HETATM   28  N   UNL     1     -13.719   1.855 -32.708  1.00  0.00    -0.070 N 
HETATM   29  H   UNL     1     -13.556   1.534 -31.729  1.00  0.00     0.279 HD
HETATM   30  C   UNL     1     -13.205   3.255 -32.896  1.00  0.00     0.239 C 
HETATM   31  C   UNL     1     -13.859   4.226 -31.910  1.00  0.00     0.008 C 
HETATM   32  C   UNL     1     -13.344   4.026 -30.481  1.00  0.00     0.011 C 
HETATM   33  C   UNL     1     -15.388   4.139 -31.983  1.00  0.00     0.011 C 
HETATM   34  C   UNL     1     -15.900   2.701 -31.847  1.00  0.00     0.008 C 
HETATM   35  C   UNL     1     -17.419   2.657 -32.017  1.00  0.00     0.011 C 
HETATM   36  C   UNL     1     -15.224   1.782 -32.867  1.00  0.00     0.239 C 
ENDBRANCH  27  28
ENDBRANCH  26  27
ENDBRANCH  25  26
ENDBRANCH  22  25
ENDBRANCH  20  21
ENDBRANCH  19  20
ENDBRANCH   1  19
TORSDOF 10
ENDMDL
MODEL 5
REMARK VINA RESULT:      -8.0      1.504      2.406
REMARK  10 active torsions:
REMARK  status: ('A' for Active; 'I' for Inactive)
REMARK    1  A    between atoms: N_7  and  C_8 
REMARK    2  A    between atoms: C_8  and  C_9 
REMARK       I    between atoms: C_9  and  N_10 
REMARK    3  A    between atoms: N_10  and  C_11 
REMARK    4  A    between atoms: C_11  and  C_12 
REMARK    5  A    between atoms: C_12  and  C_13 
REMARK    6  A    between atoms: C_13  and  C_14 
REMARK       I    between atoms: C_14  and  N_15 
REMARK    7  A    between atoms: N_15  and  C_16 
REMARK    8  A    between atoms: C_16  and  C_17 
REMARK    9  A    between atoms: C_17  and  C_18 
REMARK   10  A    between atoms: C_18  and  N_19 
ROOT
HETATM    1  C   UNL     1      -5.920   5.517 -31.845  1.00  0.00     0.123 C 
ENDROOT
BRANCH   1   2
HETATM    2  N   UNL     1      -6.147   4.198 -31.291  1.00  0.00    -0.360 N 
HETATM    3  C   UNL     1      -5.099   3.416 -30.841  1.00  0.00     0.235 C 
HETATM    4  O   UNL     1      -3.927   3.777 -30.911  1.00  0.00    -0.272 OA
HETATM    5  H   UNL     1      -7.089   3.825 -31.293  1.00  0.00     0.162 HD
BRANCH   3   6
HETATM    6  C   UNL     1      -5.531   2.107 -30.181  1.00  0.00     0.235 C 
BRANCH   6   7
HETATM    7  N   UNL     1      -5.152   0.976 -31.009  1.00  0.00    -0.299 N 
HETATM    8  C   UNL     1      -3.975   0.296 -30.760  1.00  0.00     0.214 A 
HETATM    9  N   UNL     1      -3.555  -0.740 -31.410  1.00  0.00    -0.235 NA
HETATM   10  C   UNL     1      -4.379  -1.146 -32.409  1.00  0.00     0.115 A 
HETATM   11  C   UNL     1      -5.552  -0.544 -32.807  1.00  0.00     0.075 A 
HETATM   12  S   UNL     1      -4.035  -2.530 -33.332  1.00  0.00    -0.074 SA
HETATM   13  C   UNL     1      -6.185  -1.226 -33.908  1.00  0.00    -0.031 A 
HETATM   14  C   UNL     1      -5.976   0.642 -32.080  1.00  0.00     0.262 A 
HETATM   15  C   UNL     1      -7.461  -0.782 -34.550  1.00  0.00     0.050 C 
HETATM   16  C   UNL     1      -5.462  -2.357 -34.262  1.00  0.00    -0.012 A 
HETATM   17  C   UNL     1      -5.769  -3.375 -35.313  1.00  0.00     0.057 C 
HETATM   18  O   UNL     1      -6.975   1.293 -32.381  1.00  0.00    -0.267 OA
ENDBRANCH   6   7
ENDBRANCH   3   6
ENDBRANCH   1   2
BRANCH   1  19
HETATM   19  C   UNL     1      -6.265   5.590 -33.332  1.00  0.00     0.029 C 
BRANCH  19  20
HETATM   20  C   UNL     1      -5.503   4.526 -34.119  1.00  0.00     0.104 C 
BRANCH  20  21
HETATM   21  C   UNL     1      -4.083   4.932 -34.459  1.00  0.00     0.217 C 
HETATM   22  N   UNL     1      -3.129   4.578 -33.537  1.00  0.00    -0.361 N 
HETATM   23  H   UNL     1      -3.443   4.193 -32.648  1.00  0.00     0.162 HD
HETATM   24  O   UNL     1      -3.796   5.563 -35.476  1.00  0.00    -0.274 OA
BRANCH  22  25
HETATM   25  C   UNL     1      -1.767   5.062 -33.604  1.00  0.00     0.124 C 
BRANCH  25  26
HETATM   26  C   UNL     1      -1.525   6.363 -32.838  1.00  0.00     0.047 C 
BRANCH  26  27
HETATM   27  C   UNL     1      -0.381   6.381 -31.821  1.00  0.00     0.236 C 
BRANCH  27  28
HETATM   28  N   UNL     1      -0.592   7.323 -30.656  1.00  0.00    -0.070 N 
HETATM   29  H   UNL     1      -0.332   8.263 -31.025  1.00  0.00     0.279 HD
HETATM   30  C   UNL     1      -1.994   7.338 -30.115  1.00  0.00     0.239 C 
HETATM   31  C   UNL     1      -2.157   8.395 -29.019  1.00  0.00     0.008 C 
HETATM   32  C   UNL     1      -2.159   9.816 -29.589  1.00  0.00     0.011 C 
HETATM   33  C   UNL     1      -1.097   8.220 -27.924  1.00  0.00     0.011 C 
HETATM   34  C   UNL     1       0.325   8.148 -28.490  1.00  0.00     0.008 C 
HETATM   35  C   UNL     1       1.332   7.883 -27.371  1.00  0.00     0.011 C 
HETATM   36  C   UNL     1       0.429   7.066 -29.567  1.00  0.00     0.239 C 
ENDBRANCH  27  28
ENDBRANCH  26  27
ENDBRANCH  25  26
ENDBRANCH  22  25
ENDBRANCH  20  21
ENDBRANCH  19  20
ENDBRANCH   1  19
TORSDOF 10
ENDMDL
MODEL 6
REMARK VINA RESULT:      -7.8      2.900      9.678
REMARK  10 active torsions:
REMARK  status: ('A' for Active; 'I' for Inactive)
REMARK    1  A    between atoms: N_7  and  C_8 
REMARK    2  A    between atoms: C_8  and  C_9 
REMARK       I    between atoms: C_9  and  N_10 
REMARK    3  A    between atoms: N_10  and  C_11 
REMARK    4  A    between atoms: C_11  and  C_12 
REMARK    5  A    between atoms: C_12  and  C_13 
REMARK    6  A    between atoms: C_13  and  C_14 
REMARK       I    between atoms: C_14  and  N_15 
REMARK    7  A    between atoms: N_15  and  C_16 
REMARK    8  A    between atoms: C_16  and  C_17 
REMARK    9  A    between atoms: C_17  and  C_18 
REMARK   10  A    between atoms: C_18  and  N_19 
ROOT
HETATM    1  C   UNL     1      -4.564   5.155 -34.306  1.00  0.00     0.123 C 
ENDROOT
BRANCH   1   2
HETATM    2  N   UNL     1      -3.465   5.989 -33.867  1.00  0.00    -0.360 N 
HETATM    3  C   UNL     1      -2.178   5.791 -34.333  1.00  0.00     0.235 C 
HETATM    4  O   UNL     1      -1.891   4.888 -35.115  1.00  0.00    -0.272 OA
HETATM    5  H   UNL     1      -3.641   6.691 -33.157  1.00  0.00     0.162 HD
BRANCH   3   6
HETATM    6  C   UNL     1      -1.169   6.835 -33.856  1.00  0.00     0.235 C 
BRANCH   6   7
HETATM    7  N   UNL     1      -1.058   6.804 -32.409  1.00  0.00    -0.299 N 
HETATM    8  C   UNL     1      -0.570   5.678 -31.774  1.00  0.00     0.214 A 
HETATM    9  N   UNL     1      -0.397   5.551 -30.498  1.00  0.00    -0.235 NA
HETATM   10  C   UNL     1      -0.745   6.646 -29.775  1.00  0.00     0.115 A 
HETATM   11  C   UNL     1      -1.290   7.815 -30.258  1.00  0.00     0.075 A 
HETATM   12  S   UNL     1      -0.527   6.699 -28.091  1.00  0.00    -0.074 SA
HETATM   13  C   UNL     1      -1.550   8.781 -29.220  1.00  0.00    -0.031 A 
HETATM   14  C   UNL     1      -1.506   7.911 -31.693  1.00  0.00     0.262 A 
HETATM   15  C   UNL     1      -2.153  10.129 -29.459  1.00  0.00     0.050 C 
HETATM   16  C   UNL     1      -1.138   8.295 -27.986  1.00  0.00    -0.012 A 
HETATM   17  C   UNL     1      -1.177   8.970 -26.653  1.00  0.00     0.057 C 
HETATM   18  O   UNL     1      -2.037   8.882 -32.230  1.00  0.00    -0.267 OA
ENDBRANCH   6   7
ENDBRANCH   3   6
ENDBRANCH   1   2
BRANCH   1  19
HETATM   19  C   UNL     1      -4.783   3.952 -33.390  1.00  0.00     0.029 C 
BRANCH  19  20
HETATM   20  C   UNL     1      -5.792   4.281 -32.292  1.00  0.00     0.104 C 
BRANCH  20  21
HETATM   21  C   UNL     1      -7.165   3.691 -32.542  1.00  0.00     0.217 C 
HETATM   22  N   UNL     1      -7.751   3.076 -31.462  1.00  0.00    -0.361 N 
HETATM   23  H   UNL     1      -7.187   2.943 -30.625  1.00  0.00     0.162 HD
HETATM   24  O   UNL     1      -7.716   3.729 -33.641  1.00  0.00    -0.274 OA
BRANCH  22  25
HETATM   25  C   UNL     1      -8.959   2.288 -31.579  1.00  0.00     0.124 C 
BRANCH  25  26
HETATM   26  C   UNL     1      -8.720   0.779 -31.637  1.00  0.00     0.047 C 
BRANCH  26  27
HETATM   27  C   UNL     1      -8.395   0.169 -33.003  1.00  0.00     0.236 C 
BRANCH  27  28
HETATM   28  N   UNL     1      -6.960  -0.281 -33.164  1.00  0.00    -0.070 N 
HETATM   29  H   UNL     1      -6.519   0.449 -33.763  1.00  0.00     0.279 HD
HETATM   30  C   UNL     1      -6.206  -0.428 -31.871  1.00  0.00     0.239 C 
HETATM   31  C   UNL     1      -4.735  -0.771 -32.120  1.00  0.00     0.008 C 
HETATM   32  C   UNL     1      -3.950   0.427 -32.662  1.00  0.00     0.011 C 
HETATM   33  C   UNL     1      -4.602  -1.999 -33.030  1.00  0.00     0.011 C 
HETATM   34  C   UNL     1      -5.420  -1.865 -34.319  1.00  0.00     0.008 C 
HETATM   35  C   UNL     1      -5.328  -3.147 -35.146  1.00  0.00     0.011 C 
HETATM   36  C   UNL     1      -6.882  -1.537 -34.006  1.00  0.00     0.239 C 
ENDBRANCH  27  28
ENDBRANCH  26  27
ENDBRANCH  25  26
ENDBRANCH  22  25
ENDBRANCH  20  21
ENDBRANCH  19  20
ENDBRANCH   1  19
TORSDOF 10
ENDMDL
MODEL 7
REMARK VINA RESULT:      -7.7      2.842      9.662
REMARK  10 active torsions:
REMARK  status: ('A' for Active; 'I' for Inactive)
REMARK    1  A    between atoms: N_7  and  C_8 
REMARK    2  A    between atoms: C_8  and  C_9 
REMARK       I    between atoms: C_9  and  N_10 
REMARK    3  A    between atoms: N_10  and  C_11 
REMARK    4  A    between atoms: C_11  and  C_12 
REMARK    5  A    between atoms: C_12  and  C_13 
REMARK    6  A    between atoms: C_13  and  C_14 
REMARK       I    between atoms: C_14  and  N_15 
REMARK    7  A    between atoms: N_15  and  C_16 
REMARK    8  A    between atoms: C_16  and  C_17 
REMARK    9  A    between atoms: C_17  and  C_18 
REMARK   10  A    between atoms: C_18  and  N_19 
ROOT
HETATM    1  C   UNL     1      -5.201   4.115 -33.685  1.00  0.00     0.123 C 
ENDROOT
BRANCH   1   2
HETATM    2  N   UNL     1      -3.790   4.401 -33.531  1.00  0.00    -0.360 N 
HETATM    3  C   UNL     1      -3.104   5.165 -34.458  1.00  0.00     0.235 C 
HETATM    4  O   UNL     1      -3.637   5.614 -35.469  1.00  0.00    -0.272 OA
HETATM    5  H   UNL     1      -3.290   3.979 -32.757  1.00  0.00     0.162 HD
BRANCH   3   6
HETATM    6  C   UNL     1      -1.654   5.463 -34.075  1.00  0.00     0.235 C 
BRANCH   6   7
HETATM    7  N   UNL     1      -1.609   6.353 -32.929  1.00  0.00    -0.299 N 
HETATM    8  C   UNL     1      -2.229   7.586 -32.981  1.00  0.00     0.214 A 
HETATM    9  N   UNL     1      -2.281   8.442 -32.013  1.00  0.00    -0.235 NA
HETATM   10  C   UNL     1      -1.655   8.041 -30.878  1.00  0.00     0.115 A 
HETATM   11  C   UNL     1      -0.954   6.871 -30.691  1.00  0.00     0.075 A 
HETATM   12  S   UNL     1      -1.672   8.997 -29.473  1.00  0.00    -0.074 SA
HETATM   13  C   UNL     1      -0.402   6.754 -29.364  1.00  0.00    -0.031 A 
HETATM   14  C   UNL     1      -0.882   5.947 -31.812  1.00  0.00     0.262 A 
HETATM   15  C   UNL     1       0.416   5.594 -28.893  1.00  0.00     0.050 C 
HETATM   16  C   UNL     1      -0.761   7.849 -28.588  1.00  0.00    -0.012 A 
HETATM   17  C   UNL     1      -0.448   8.123 -27.153  1.00  0.00     0.057 C 
HETATM   18  O   UNL     1      -0.240   4.899 -31.780  1.00  0.00    -0.267 OA
ENDBRANCH   6   7
ENDBRANCH   3   6
ENDBRANCH   1   2
BRANCH   1  19
HETATM   19  C   UNL     1      -6.071   4.967 -32.762  1.00  0.00     0.029 C 
BRANCH  19  20
HETATM   20  C   UNL     1      -6.707   4.109 -31.671  1.00  0.00     0.104 C 
BRANCH  20  21
HETATM   21  C   UNL     1      -5.711   3.228 -30.944  1.00  0.00     0.217 C 
HETATM   22  N   UNL     1      -6.025   1.891 -30.901  1.00  0.00    -0.361 N 
HETATM   23  H   UNL     1      -6.943   1.605 -31.234  1.00  0.00     0.162 HD
HETATM   24  O   UNL     1      -4.701   3.672 -30.399  1.00  0.00    -0.274 OA
BRANCH  22  25
HETATM   25  C   UNL     1      -5.296   0.949 -30.079  1.00  0.00     0.124 C 
BRANCH  25  26
HETATM   26  C   UNL     1      -4.278   0.104 -30.845  1.00  0.00     0.047 C 
BRANCH  26  27
HETATM   27  C   UNL     1      -4.271   0.221 -32.372  1.00  0.00     0.236 C 
BRANCH  27  28
HETATM   28  N   UNL     1      -5.501  -0.343 -33.049  1.00  0.00    -0.070 N 
HETATM   29  H   UNL     1      -6.139  -0.602 -32.267  1.00  0.00     0.279 HD
HETATM   30  C   UNL     1      -6.184   0.609 -33.992  1.00  0.00     0.239 C 
HETATM   31  C   UNL     1      -7.479   0.011 -34.547  1.00  0.00     0.008 C 
HETATM   32  C   UNL     1      -8.587  -0.037 -33.492  1.00  0.00     0.011 C 
HETATM   33  C   UNL     1      -7.226  -1.368 -35.172  1.00  0.00     0.011 C 
HETATM   34  C   UNL     1      -6.479  -2.312 -34.224  1.00  0.00     0.008 C 
HETATM   35  C   UNL     1      -6.171  -3.636 -34.924  1.00  0.00     0.011 C 
HETATM   36  C   UNL     1      -5.188  -1.666 -33.716  1.00  0.00     0.239 C 
ENDBRANCH  27  28
ENDBRANCH  26  27
ENDBRANCH  25  26
ENDBRANCH  22  25
ENDBRANCH  20  21
ENDBRANCH  19  20
ENDBRANCH   1  19
TORSDOF 10
ENDMDL
MODEL 8
REMARK VINA RESULT:      -7.7      3.281     10.194
REMARK  10 active torsions:
REMARK  status: ('A' for Active; 'I' for Inactive)
REMARK    1  A    between atoms: N_7  and  C_8 
REMARK    2  A    between atoms: C_8  and  C_9 
REMARK       I    between atoms: C_9  and  N_10 
REMARK    3  A    between atoms: N_10  and  C_11 
REMARK    4  A    between atoms: C_11  and  C_12 
REMARK    5  A    between atoms: C_12  and  C_13 
REMARK    6  A    between atoms: C_13  and  C_14 
REMARK       I    between atoms: C_14  and  N_15 
REMARK    7  A    between atoms: N_15  and  C_16 
REMARK    8  A    between atoms: C_16  and  C_17 
REMARK    9  A    between atoms: C_17  and  C_18 
REMARK   10  A    between atoms: C_18  and  N_19 
ROOT
HETATM    1  C   UNL     1      -4.517   3.046 -31.007  1.00  0.00     0.123 C 
ENDROOT
BRANCH   1   2
HETATM    2  N   UNL     1      -3.219   3.665 -31.179  1.00  0.00    -0.360 N 
HETATM    3  C   UNL     1      -2.827   4.190 -32.397  1.00  0.00     0.235 C 
HETATM    4  O   UNL     1      -3.535   4.136 -33.399  1.00  0.00    -0.272 OA
HETATM    5  H   UNL     1      -2.568   3.655 -30.402  1.00  0.00     0.162 HD
BRANCH   3   6
HETATM    6  C   UNL     1      -1.477   4.908 -32.366  1.00  0.00     0.235 C 
BRANCH   6   7
HETATM    7  N   UNL     1      -1.576   6.132 -31.591  1.00  0.00    -0.299 N 
HETATM    8  C   UNL     1      -2.490   7.106 -31.944  1.00  0.00     0.214 A 
HETATM    9  N   UNL     1      -2.686   8.216 -31.310  1.00  0.00    -0.235 NA
HETATM   10  C   UNL     1      -1.899   8.383 -30.217  1.00  0.00     0.115 A 
HETATM   11  C   UNL     1      -0.914   7.530 -29.772  1.00  0.00     0.075 A 
HETATM   12  S   UNL     1      -2.055   9.745 -29.214  1.00  0.00    -0.074 SA
HETATM   13  C   UNL     1      -0.256   8.007 -28.581  1.00  0.00    -0.031 A 
HETATM   14  C   UNL     1      -0.692   6.308 -30.529  1.00  0.00     0.262 A 
HETATM   15  C   UNL     1       0.860   7.289 -27.891  1.00  0.00     0.050 C 
HETATM   16  C   UNL     1      -0.823   9.202 -28.156  1.00  0.00    -0.012 A 
HETATM   17  C   UNL     1      -0.487  10.024 -26.953  1.00  0.00     0.057 C 
HETATM   18  O   UNL     1       0.195   5.501 -30.259  1.00  0.00    -0.267 OA
ENDBRANCH   6   7
ENDBRANCH   3   6
ENDBRANCH   1   2
BRANCH   1  19
HETATM   19  C   UNL     1      -5.433   3.862 -30.096  1.00  0.00     0.029 C 
BRANCH  19  20
HETATM   20  C   UNL     1      -6.695   3.074 -29.749  1.00  0.00     0.104 C 
BRANCH  20  21
HETATM   21  C   UNL     1      -7.819   3.271 -30.746  1.00  0.00     0.217 C 
HETATM   22  N   UNL     1      -8.697   2.221 -30.864  1.00  0.00    -0.361 N 
HETATM   23  H   UNL     1      -8.468   1.352 -30.385  1.00  0.00     0.162 HD
HETATM   24  O   UNL     1      -7.931   4.287 -31.431  1.00  0.00    -0.274 OA
BRANCH  22  25
HETATM   25  C   UNL     1      -9.698   2.160 -31.907  1.00  0.00     0.124 C 
BRANCH  25  26
HETATM   26  C   UNL     1      -9.698   0.853 -32.699  1.00  0.00     0.047 C 
BRANCH  26  27
HETATM   27  C   UNL     1      -8.756   0.757 -33.903  1.00  0.00     0.236 C 
BRANCH  27  28
HETATM   28  N   UNL     1      -7.685  -0.303 -33.777  1.00  0.00    -0.070 N 
HETATM   29  H   UNL     1      -8.150  -1.091 -33.278  1.00  0.00     0.279 HD
HETATM   30  C   UNL     1      -7.115  -0.771 -35.087  1.00  0.00     0.239 C 
HETATM   31  C   UNL     1      -6.125  -1.921 -34.885  1.00  0.00     0.008 C 
HETATM   32  C   UNL     1      -6.831  -3.227 -34.508  1.00  0.00     0.011 C 
HETATM   33  C   UNL     1      -5.042  -1.543 -33.866  1.00  0.00     0.011 C 
HETATM   34  C   UNL     1      -5.631  -1.013 -32.555  1.00  0.00     0.008 C 
HETATM   35  C   UNL     1      -4.515  -0.566 -31.611  1.00  0.00     0.011 C 
HETATM   36  C   UNL     1      -6.599   0.143 -32.819  1.00  0.00     0.239 C 
ENDBRANCH  27  28
ENDBRANCH  26  27
ENDBRANCH  25  26
ENDBRANCH  22  25
ENDBRANCH  20  21
ENDBRANCH  19  20
ENDBRANCH   1  19
TORSDOF 10
ENDMDL
MODEL 9
REMARK VINA RESULT:      -7.7      3.126      9.425
REMARK  10 active torsions:
REMARK  status: ('A' for Active; 'I' for Inactive)
REMARK    1  A    between atoms: N_7  and  C_8 
REMARK    2  A    between atoms: C_8  and  C_9 
REMARK       I    between atoms: C_9  and  N_10 
REMARK    3  A    between atoms: N_10  and  C_11 
REMARK    4  A    between atoms: C_11  and  C_12 
REMARK    5  A    between atoms: C_12  and  C_13 
REMARK    6  A    between atoms: C_13  and  C_14 
REMARK       I    between atoms: C_14  and  N_15 
REMARK    7  A    between atoms: N_15  and  C_16 
REMARK    8  A    between atoms: C_16  and  C_17 
REMARK    9  A    between atoms: C_17  and  C_18 
REMARK   10  A    between atoms: C_18  and  N_19 
ROOT
HETATM    1  C   UNL     1      -7.279   3.155 -30.792  1.00  0.00     0.123 C 
ENDROOT
BRANCH   1   2
HETATM    2  N   UNL     1      -6.421   4.157 -31.390  1.00  0.00    -0.360 N 
HETATM    3  C   UNL     1      -5.689   3.891 -32.532  1.00  0.00     0.235 C 
HETATM    4  O   UNL     1      -5.699   2.793 -33.083  1.00  0.00    -0.272 OA
HETATM    5  H   UNL     1      -6.315   5.049 -30.920  1.00  0.00     0.162 HD
BRANCH   3   6
HETATM    6  C   UNL     1      -4.933   5.097 -33.089  1.00  0.00     0.235 C 
BRANCH   6   7
HETATM    7  N   UNL     1      -3.646   5.233 -32.432  1.00  0.00    -0.299 N 
HETATM    8  C   UNL     1      -2.590   4.420 -32.796  1.00  0.00     0.214 A 
HETATM    9  N   UNL     1      -1.396   4.475 -32.303  1.00  0.00    -0.235 NA
HETATM   10  C   UNL     1      -1.226   5.427 -31.352  1.00  0.00     0.115 A 
HETATM   11  C   UNL     1      -2.190   6.273 -30.850  1.00  0.00     0.075 A 
HETATM   12  S   UNL     1       0.289   5.700 -30.634  1.00  0.00    -0.074 SA
HETATM   13  C   UNL     1      -1.680   7.164 -29.838  1.00  0.00    -0.031 A 
HETATM   14  C   UNL     1      -3.532   6.159 -31.398  1.00  0.00     0.262 A 
HETATM   15  C   UNL     1      -2.511   8.176 -29.114  1.00  0.00     0.050 C 
HETATM   16  C   UNL     1      -0.317   6.969 -29.657  1.00  0.00    -0.012 A 
HETATM   17  C   UNL     1       0.621   7.696 -28.748  1.00  0.00     0.057 C 
HETATM   18  O   UNL     1      -4.484   6.822 -30.990  1.00  0.00    -0.267 OA
ENDBRANCH   6   7
ENDBRANCH   3   6
ENDBRANCH   1   2
BRANCH   1  19
HETATM   19  C   UNL     1      -8.671   3.697 -30.473  1.00  0.00     0.029 C 
BRANCH  19  20
HETATM   20  C   UNL     1      -9.329   4.276 -31.724  1.00  0.00     0.104 C 
BRANCH  20  21
HETATM   21  C   UNL     1      -9.645   3.231 -32.774  1.00  0.00     0.217 C 
HETATM   22  N   UNL     1     -10.093   2.024 -32.294  1.00  0.00    -0.361 N 
HETATM   23  H   UNL     1     -10.059   1.869 -31.288  1.00  0.00     0.162 HD
HETATM   24  O   UNL     1      -9.487   3.428 -33.979  1.00  0.00    -0.274 OA
BRANCH  22  25
HETATM   25  C   UNL     1     -10.243   0.860 -33.139  1.00  0.00     0.124 C 
BRANCH  25  26
HETATM   26  C   UNL     1      -8.937   0.119 -33.423  1.00  0.00     0.047 C 
BRANCH  26  27
HETATM   27  C   UNL     1      -7.847   0.172 -32.349  1.00  0.00     0.236 C 
BRANCH  27  28
HETATM   28  N   UNL     1      -6.500  -0.353 -32.795  1.00  0.00    -0.070 N 
HETATM   29  H   UNL     1      -6.122   0.389 -33.422  1.00  0.00     0.279 HD
HETATM   30  C   UNL     1      -5.539  -0.635 -31.674  1.00  0.00     0.239 C 
HETATM   31  C   UNL     1      -4.166  -1.050 -32.208  1.00  0.00     0.008 C 
HETATM   32  C   UNL     1      -3.405   0.132 -32.815  1.00  0.00     0.011 C 
HETATM   33  C   UNL     1      -4.289  -2.218 -33.196  1.00  0.00     0.011 C 
HETATM   34  C   UNL     1      -5.313  -1.944 -34.303  1.00  0.00     0.008 C 
HETATM   35  C   UNL     1      -5.464  -3.168 -35.205  1.00  0.00     0.011 C 
HETATM   36  C   UNL     1      -6.667  -1.549 -33.709  1.00  0.00     0.239 C 
ENDBRANCH  27  28
ENDBRANCH  26  27
ENDBRANCH  25  26
ENDBRANCH  22  25
ENDBRANCH  20  21
ENDBRANCH  19  20
ENDBRANCH   1  19
TORSDOF 10
ENDMDL
MODEL 10
REMARK VINA RESULT:      -7.6      3.760      8.932
REMARK  10 active torsions:
REMARK  status: ('A' for Active; 'I' for Inactive)
REMARK    1  A    between atoms: N_7  and  C_8 
REMARK    2  A    between atoms: C_8  and  C_9 
REMARK       I    between atoms: C_9  and  N_10 
REMARK    3  A    between atoms: N_10  and  C_11 
REMARK    4  A    between atoms: C_11  and  C_12 
REMARK    5  A    between atoms: C_12  and  C_13 
REMARK    6  A    between atoms: C_13  and  C_14 
REMARK       I    between atoms: C_14  and  N_15 
REMARK    7  A    between atoms: N_15  and  C_16 
REMARK    8  A    between atoms: C_16  and  C_17 
REMARK    9  A    between atoms: C_17  and  C_18 
REMARK   10  A    between atoms: C_18  and  N_19 
ROOT
HETATM    1  C   UNL     1      -9.326   4.374 -31.378  1.00  0.00     0.123 C 
ENDROOT
BRANCH   1   2
HETATM    2  N   UNL     1      -8.108   4.120 -30.637  1.00  0.00    -0.360 N 
HETATM    3  C   UNL     1      -7.589   2.843 -30.519  1.00  0.00     0.235 C 
HETATM    4  O   UNL     1      -8.139   1.858 -31.005  1.00  0.00    -0.272 OA
HETATM    5  H   UNL     1      -7.667   4.890 -30.147  1.00  0.00     0.162 HD
BRANCH   3   6
HETATM    6  C   UNL     1      -6.239   2.778 -29.805  1.00  0.00     0.235 C 
BRANCH   6   7
HETATM    7  N   UNL     1      -5.182   3.252 -30.680  1.00  0.00    -0.299 N 
HETATM    8  C   UNL     1      -4.539   2.375 -31.532  1.00  0.00     0.214 A 
HETATM    9  N   UNL     1      -3.611   2.691 -32.375  1.00  0.00    -0.235 NA
HETATM   10  C   UNL     1      -3.281   4.008 -32.376  1.00  0.00     0.115 A 
HETATM   11  C   UNL     1      -3.794   4.988 -31.555  1.00  0.00     0.075 A 
HETATM   12  S   UNL     1      -2.132   4.631 -33.461  1.00  0.00    -0.074 SA
HETATM   13  C   UNL     1      -3.223   6.287 -31.810  1.00  0.00    -0.031 A 
HETATM   14  C   UNL     1      -4.809   4.591 -30.592  1.00  0.00     0.262 A 
HETATM   15  C   UNL     1      -3.586   7.527 -31.056  1.00  0.00     0.050 C 
HETATM   16  C   UNL     1      -2.320   6.225 -32.864  1.00  0.00    -0.012 A 
HETATM   17  C   UNL     1      -1.533   7.331 -33.490  1.00  0.00     0.057 C 
HETATM   18  O   UNL     1      -5.298   5.367 -29.772  1.00  0.00    -0.267 OA
ENDBRANCH   6   7
ENDBRANCH   3   6
ENDBRANCH   1   2
BRANCH   1  19
HETATM   19  C   UNL     1      -9.052   4.968 -32.759  1.00  0.00     0.029 C 
BRANCH  19  20
HETATM   20  C   UNL     1      -7.562   5.246 -32.945  1.00  0.00     0.104 C 
BRANCH  20  21
HETATM   21  C   UNL     1      -6.875   4.251 -33.859  1.00  0.00     0.217 C 
HETATM   22  N   UNL     1      -7.417   2.989 -33.874  1.00  0.00    -0.361 N 
HETATM   23  H   UNL     1      -8.141   2.772 -33.193  1.00  0.00     0.162 HD
HETATM   24  O   UNL     1      -5.880   4.535 -34.525  1.00  0.00    -0.274 OA
BRANCH  22  25
HETATM   25  C   UNL     1      -6.766   1.873 -34.527  1.00  0.00     0.124 C 
BRANCH  25  26
HETATM   26  C   UNL     1      -7.682   0.676 -34.783  1.00  0.00     0.047 C 
BRANCH  26  27
HETATM   27  C   UNL     1      -7.799  -0.373 -33.673  1.00  0.00     0.236 C 
BRANCH  27  28
HETATM   28  N   UNL     1      -6.771  -1.481 -33.747  1.00  0.00    -0.070 N 
HETATM   29  H   UNL     1      -7.190  -2.267 -33.204  1.00  0.00     0.279 HD
HETATM   30  C   UNL     1      -6.434  -1.925 -35.143  1.00  0.00     0.239 C 
HETATM   31  C   UNL     1      -5.480  -3.122 -35.132  1.00  0.00     0.008 C 
HETATM   32  C   UNL     1      -6.180  -4.410 -34.687  1.00  0.00     0.011 C 
HETATM   33  C   UNL     1      -4.236  -2.827 -34.284  1.00  0.00     0.011 C 
HETATM   34  C   UNL     1      -4.589  -2.319 -32.882  1.00  0.00     0.008 C 
HETATM   35  C   UNL     1      -3.321  -1.954 -32.111  1.00  0.00     0.011 C 
HETATM   36  C   UNL     1      -5.531  -1.116 -32.958  1.00  0.00     0.239 C 
ENDBRANCH  27  28
ENDBRANCH  26  27
ENDBRANCH  25  26
ENDBRANCH  22  25
ENDBRANCH  20  21
ENDBRANCH  19  20
ENDBRANCH   1  19
TORSDOF 10
ENDMDL
