MODEL 1
REMARK VINA RESULT:      -7.5      0.000      0.000
REMARK  9 active torsions:
REMARK  status: ('A' for Active; 'I' for Inactive)
REMARK    1  A    between atoms: O_2  and  C_3 
REMARK    2  A    between atoms: C_5  and  O_6 
REMARK    3  A    between atoms: C_9  and  C_10 
REMARK       I    between atoms: C_10  and  N_11 
REMARK    4  A    between atoms: N_11  and  C_12 
REMARK    5  A    between atoms: C_13  and  C_14 
REMARK       I    between atoms: C_14  and  N_15 
REMARK    6  A    between atoms: N_15  and  C_16 
REMARK    7  A    between atoms: C_16  and  C_17 
REMARK    8  A    between atoms: C_17  and  O_18 
REMARK    9  A    between atoms: O_18  and  C_19 
ROOT
HETATM    1  C   UNL     1      -5.167  -1.308 -33.706  1.00  0.00     0.050 A 
HETATM    2  C   UNL     1      -6.383  -1.546 -34.376  1.00  0.00     0.058 A 
HETATM    3  C   UNL     1      -6.612  -2.785 -35.004  1.00  0.00     0.019 A 
HETATM    4  C   UNL     1      -5.667  -3.806 -34.931  1.00  0.00     0.001 A 
HETATM    5  C   UNL     1      -4.493  -3.603 -34.215  1.00  0.00     0.002 A 
HETATM    6  C   UNL     1      -4.248  -2.370 -33.605  1.00  0.00     0.030 A 
ENDROOT
BRANCH   1   7
HETATM    7  N   UNL     1      -4.736  -0.085 -33.124  1.00  0.00    -0.322 N 
HETATM    8  C   UNL     1      -5.141   0.402 -31.892  1.00  0.00     0.256 C 
HETATM    9  O   UNL     1      -5.925  -0.149 -31.130  1.00  0.00    -0.267 OA
HETATM   10  H   UNL     1      -4.408   0.613 -33.779  1.00  0.00     0.169 HD
BRANCH   8  11
HETATM   11  C   UNL     1      -4.648   1.763 -31.523  1.00  0.00     0.037 A 
HETATM   12  C   UNL     1      -5.496   2.562 -30.738  1.00  0.00     0.054 A 
HETATM   13  C   UNL     1      -5.106   3.843 -30.363  1.00  0.00     0.071 A 
HETATM   14  C   UNL     1      -3.871   4.331 -30.792  1.00  0.00     0.073 A 
HETATM   15  C   UNL     1      -3.008   3.541 -31.558  1.00  0.00     0.071 A 
HETATM   16  C   UNL     1      -3.391   2.248 -31.916  1.00  0.00     0.054 A 
BRANCH  13  17
HETATM   17  O   UNL     1      -5.840   4.710 -29.602  1.00  0.00    -0.356 OA
HETATM   18  C   UNL     1      -7.243   4.468 -29.537  1.00  0.00     0.210 C 
ENDBRANCH  13  17
BRANCH  15  19
HETATM   19  O   UNL     1      -1.828   4.151 -31.882  1.00  0.00    -0.356 OA
HETATM   20  C   UNL     1      -1.800   4.946 -33.059  1.00  0.00     0.210 C 
ENDBRANCH  15  19
ENDBRANCH   8  11
ENDBRANCH   1   7
BRANCH   2  21
HETATM   21  C   UNL     1      -7.557  -0.638 -34.372  1.00  0.00     0.253 C 
HETATM   22  N   UNL     1      -8.252  -0.590 -33.181  1.00  0.00    -0.355 N 
HETATM   23  H   UNL     1      -7.875  -1.086 -32.387  1.00  0.00     0.162 HD
HETATM   24  O   UNL     1      -7.908  -0.079 -35.404  1.00  0.00    -0.268 OA
BRANCH  22  25
HETATM   25  C   UNL     1      -9.342   0.341 -32.956  1.00  0.00     0.149 C 
BRANCH  25  26
HETATM   26  C   UNL     1      -8.929   1.734 -32.467  1.00  0.00     0.195 C 
BRANCH  26  27
HETATM   27  O   UNL     1      -9.011   2.671 -33.552  1.00  0.00    -0.350 OA
BRANCH  27  28
HETATM   28  C   UNL     1      -7.905   3.473 -33.654  1.00  0.00     0.068 A 
HETATM   29  C   UNL     1      -8.013   4.751 -33.106  1.00  0.00     0.037 A 
HETATM   30  C   UNL     1      -6.931   5.632 -33.163  1.00  0.00     0.003 A 
HETATM   31  C   UNL     1      -5.733   5.230 -33.752  1.00  0.00     0.000 A 
HETATM   32  C   UNL     1      -5.615   3.944 -34.277  1.00  0.00     0.003 A 
HETATM   33  C   UNL     1      -6.697   3.063 -34.224  1.00  0.00     0.037 A 
ENDBRANCH  27  28
ENDBRANCH  26  27
ENDBRANCH  25  26
ENDBRANCH  22  25
ENDBRANCH   2  21
TORSDOF 9
ENDMDL
MODEL 2
REMARK VINA RESULT:      -7.5      0.205      2.225
REMARK  9 active torsions:
REMARK  status: ('A' for Active; 'I' for Inactive)
REMARK    1  A    between atoms: O_2  and  C_3 
REMARK    2  A    between atoms: C_5  and  O_6 
REMARK    3  A    between atoms: C_9  and  C_10 
REMARK       I    between atoms: C_10  and  N_11 
REMARK    4  A    between atoms: N_11  and  C_12 
REMARK    5  A    between atoms: C_13  and  C_14 
REMARK       I    between atoms: C_14  and  N_15 
REMARK    6  A    between atoms: N_15  and  C_16 
REMARK    7  A    between atoms: C_16  and  C_17 
REMARK    8  A    between atoms: C_17  and  O_18 
REMARK    9  A    between atoms: O_18  and  C_19 
ROOT
HETATM    1  C   UNL     1      -5.193  -1.130 -33.659  1.00  0.00     0.050 A 
HETATM    2  C   UNL     1      -6.400  -1.403 -34.332  1.00  0.00     0.058 A 
HETATM    3  C   UNL     1      -6.587  -2.644 -34.968  1.00  0.00     0.019 A 
HETATM    4  C   UNL     1      -5.610  -3.635 -34.900  1.00  0.00     0.001 A 
HETATM    5  C   UNL     1      -4.444  -3.399 -34.180  1.00  0.00     0.002 A 
HETATM    6  C   UNL     1      -4.241  -2.162 -33.562  1.00  0.00     0.030 A 
ENDROOT
BRANCH   1   7
HETATM    7  N   UNL     1      -4.803   0.104 -33.069  1.00  0.00    -0.322 N 
HETATM    8  C   UNL     1      -5.226   0.570 -31.836  1.00  0.00     0.256 C 
HETATM    9  O   UNL     1      -5.994  -0.010 -31.079  1.00  0.00    -0.267 OA
HETATM   10  H   UNL     1      -4.495   0.815 -33.719  1.00  0.00     0.169 HD
BRANCH   8  11
HETATM   11  C   UNL     1      -4.777   1.944 -31.458  1.00  0.00     0.037 A 
HETATM   12  C   UNL     1      -3.535   2.372 -31.955  1.00  0.00     0.054 A 
HETATM   13  C   UNL     1      -3.048   3.636 -31.638  1.00  0.00     0.071 A 
HETATM   14  C   UNL     1      -3.801   4.464 -30.806  1.00  0.00     0.073 A 
HETATM   15  C   UNL     1      -5.048   4.060 -30.318  1.00  0.00     0.071 A 
HETATM   16  C   UNL     1      -5.545   2.800 -30.654  1.00  0.00     0.054 A 
BRANCH  13  17
HETATM   17  O   UNL     1      -1.860   4.163 -32.062  1.00  0.00    -0.356 OA
HETATM   18  C   UNL     1      -1.869   4.813 -33.330  1.00  0.00     0.210 C 
ENDBRANCH  13  17
BRANCH  15  19
HETATM   19  O   UNL     1      -5.673   4.990 -29.534  1.00  0.00    -0.356 OA
HETATM   20  C   UNL     1      -7.019   4.734 -29.157  1.00  0.00     0.210 C 
ENDBRANCH  15  19
ENDBRANCH   8  11
ENDBRANCH   1   7
BRANCH   2  21
HETATM   21  C   UNL     1      -7.603  -0.533 -34.325  1.00  0.00     0.253 C 
HETATM   22  N   UNL     1      -8.283  -0.492 -33.126  1.00  0.00    -0.355 N 
HETATM   23  H   UNL     1      -7.881  -0.964 -32.330  1.00  0.00     0.162 HD
HETATM   24  O   UNL     1      -7.985   0.000 -35.360  1.00  0.00    -0.268 OA
BRANCH  22  25
HETATM   25  C   UNL     1      -9.400   0.406 -32.899  1.00  0.00     0.149 C 
BRANCH  25  26
HETATM   26  C   UNL     1      -9.030   1.800 -32.380  1.00  0.00     0.195 C 
BRANCH  26  27
HETATM   27  O   UNL     1      -9.129   2.755 -33.447  1.00  0.00    -0.350 OA
BRANCH  27  28
HETATM   28  C   UNL     1      -8.016   3.547 -33.565  1.00  0.00     0.068 A 
HETATM   29  C   UNL     1      -8.091   4.812 -32.982  1.00  0.00     0.037 A 
HETATM   30  C   UNL     1      -7.001   5.682 -33.052  1.00  0.00     0.003 A 
HETATM   31  C   UNL     1      -5.827   5.280 -33.688  1.00  0.00     0.000 A 
HETATM   32  C   UNL     1      -5.741   4.006 -34.248  1.00  0.00     0.003 A 
HETATM   33  C   UNL     1      -6.832   3.137 -34.182  1.00  0.00     0.037 A 
ENDBRANCH  27  28
ENDBRANCH  26  27
ENDBRANCH  25  26
ENDBRANCH  22  25
ENDBRANCH   2  21
TORSDOF 9
ENDMDL
MODEL 3
REMARK VINA RESULT:      -7.3      2.678      6.340
REMARK  9 active torsions:
REMARK  status: ('A' for Active; 'I' for Inactive)
REMARK    1  A    between atoms: O_2  and  C_3 
REMARK    2  A    between atoms: C_5  and  O_6 
REMARK    3  A    between atoms: C_9  and  C_10 
REMARK       I    between atoms: C_10  and  N_11 
REMARK    4  A    between atoms: N_11  and  C_12 
REMARK    5  A    between atoms: C_13  and  C_14 
REMARK       I    between atoms: C_14  and  N_15 
REMARK    6  A    between atoms: N_15  and  C_16 
REMARK    7  A    between atoms: C_16  and  C_17 
REMARK    8  A    between atoms: C_17  and  O_18 
REMARK    9  A    between atoms: O_18  and  C_19 
ROOT
HETATM    1  C   UNL     1      -7.183  -0.098 -34.324  1.00  0.00     0.050 A 
HETATM    2  C   UNL     1      -6.052   0.217 -33.547  1.00  0.00     0.058 A 
HETATM    3  C   UNL     1      -5.053  -0.750 -33.330  1.00  0.00     0.019 A 
HETATM    4  C   UNL     1      -5.141  -2.010 -33.918  1.00  0.00     0.001 A 
HETATM    5  C   UNL     1      -6.220  -2.307 -34.742  1.00  0.00     0.002 A 
HETATM    6  C   UNL     1      -7.227  -1.360 -34.947  1.00  0.00     0.030 A 
ENDROOT
BRANCH   1   7
HETATM    7  N   UNL     1      -8.326   0.719 -34.542  1.00  0.00    -0.322 N 
HETATM    8  C   UNL     1      -9.447   0.758 -33.730  1.00  0.00     0.256 C 
HETATM    9  O   UNL     1      -9.615   0.098 -32.713  1.00  0.00    -0.267 OA
HETATM   10  H   UNL     1      -8.474   1.009 -35.500  1.00  0.00     0.169 HD
BRANCH   8  11
HETATM   11  C   UNL     1     -10.579   1.608 -34.205  1.00  0.00     0.037 A 
HETATM   12  C   UNL     1     -11.838   0.995 -34.320  1.00  0.00     0.054 A 
HETATM   13  C   UNL     1     -12.938   1.723 -34.764  1.00  0.00     0.071 A 
HETATM   14  C   UNL     1     -12.769   3.063 -35.112  1.00  0.00     0.073 A 
HETATM   15  C   UNL     1     -11.526   3.693 -34.986  1.00  0.00     0.071 A 
HETATM   16  C   UNL     1     -10.429   2.967 -34.520  1.00  0.00     0.054 A 
BRANCH  13  17
HETATM   17  O   UNL     1     -14.207   1.239 -34.913  1.00  0.00    -0.356 OA
HETATM   18  C   UNL     1     -15.007   1.178 -33.735  1.00  0.00     0.210 C 
ENDBRANCH  13  17
BRANCH  15  19
HETATM   19  O   UNL     1     -11.526   5.012 -35.346  1.00  0.00    -0.356 OA
HETATM   20  C   UNL     1     -10.276   5.687 -35.369  1.00  0.00     0.210 C 
ENDBRANCH  15  19
ENDBRANCH   8  11
ENDBRANCH   1   7
BRANCH   2  21
HETATM   21  C   UNL     1      -5.719   1.565 -33.022  1.00  0.00     0.253 C 
HETATM   22  N   UNL     1      -5.093   1.572 -31.793  1.00  0.00    -0.355 N 
HETATM   23  H   UNL     1      -4.824   0.688 -31.386  1.00  0.00     0.162 HD
HETATM   24  O   UNL     1      -6.092   2.569 -33.618  1.00  0.00    -0.268 OA
BRANCH  22  25
HETATM   25  C   UNL     1      -4.577   2.789 -31.192  1.00  0.00     0.149 C 
BRANCH  25  26
HETATM   26  C   UNL     1      -3.076   3.034 -31.384  1.00  0.00     0.195 C 
BRANCH  26  27
HETATM   27  O   UNL     1      -2.816   3.398 -32.748  1.00  0.00    -0.350 OA
BRANCH  27  28
HETATM   28  C   UNL     1      -2.157   4.593 -32.870  1.00  0.00     0.068 A 
HETATM   29  C   UNL     1      -2.424   5.335 -34.019  1.00  0.00     0.037 A 
HETATM   30  C   UNL     1      -1.798   6.567 -34.220  1.00  0.00     0.003 A 
HETATM   31  C   UNL     1      -0.917   7.066 -33.262  1.00  0.00     0.000 A 
HETATM   32  C   UNL     1      -0.668   6.338 -32.100  1.00  0.00     0.003 A 
HETATM   33  C   UNL     1      -1.291   5.104 -31.899  1.00  0.00     0.037 A 
ENDBRANCH  27  28
ENDBRANCH  26  27
ENDBRANCH  25  26
ENDBRANCH  22  25
ENDBRANCH   2  21
TORSDOF 9
ENDMDL
MODEL 4
REMARK VINA RESULT:      -7.1      2.792      6.623
REMARK  9 active torsions:
REMARK  status: ('A' for Active; 'I' for Inactive)
REMARK    1  A    between atoms: O_2  and  C_3 
REMARK    2  A    between atoms: C_5  and  O_6 
REMARK    3  A    between atoms: C_9  and  C_10 
REMARK       I    between atoms: C_10  and  N_11 
REMARK    4  A    between atoms: N_11  and  C_12 
REMARK    5  A    between atoms: C_13  and  C_14 
REMARK       I    between atoms: C_14  and  N_15 
REMARK    6  A    between atoms: N_15  and  C_16 
REMARK    7  A    between atoms: C_16  and  C_17 
REMARK    8  A    between atoms: C_17  and  O_18 
REMARK    9  A    between atoms: O_18  and  C_19 
ROOT
HETATM    1  C   UNL     1      -7.219  -0.149 -34.410  1.00  0.00     0.050 A 
HETATM    2  C   UNL     1      -6.075   0.244 -33.688  1.00  0.00     0.058 A 
HETATM    3  C   UNL     1      -5.033  -0.674 -33.463  1.00  0.00     0.019 A 
HETATM    4  C   UNL     1      -5.092  -1.962 -33.990  1.00  0.00     0.001 A 
HETATM    5  C   UNL     1      -6.185  -2.338 -34.761  1.00  0.00     0.002 A 
HETATM    6  C   UNL     1      -7.235  -1.440 -34.973  1.00  0.00     0.030 A 
ENDROOT
BRANCH   1   7
HETATM    7  N   UNL     1      -8.399   0.613 -34.624  1.00  0.00    -0.322 N 
HETATM    8  C   UNL     1      -9.409   0.801 -33.696  1.00  0.00     0.256 C 
HETATM    9  O   UNL     1      -9.431   0.339 -32.562  1.00  0.00    -0.267 OA
HETATM   10  H   UNL     1      -8.674   0.722 -35.592  1.00  0.00     0.169 HD
BRANCH   8  11
HETATM   11  C   UNL     1     -10.613   1.549 -34.169  1.00  0.00     0.037 A 
HETATM   12  C   UNL     1     -10.447   2.913 -34.460  1.00  0.00     0.054 A 
HETATM   13  C   UNL     1     -11.525   3.676 -34.898  1.00  0.00     0.071 A 
HETATM   14  C   UNL     1     -12.776   3.072 -35.025  1.00  0.00     0.073 A 
HETATM   15  C   UNL     1     -12.954   1.711 -34.757  1.00  0.00     0.071 A 
HETATM   16  C   UNL     1     -11.867   0.942 -34.339  1.00  0.00     0.054 A 
BRANCH  13  17
HETATM   17  O   UNL     1     -11.486   5.005 -35.214  1.00  0.00    -0.356 OA
HETATM   18  C   UNL     1     -12.696   5.579 -35.701  1.00  0.00     0.210 C 
ENDBRANCH  13  17
BRANCH  15  19
HETATM   19  O   UNL     1     -14.232   1.262 -34.948  1.00  0.00    -0.356 OA
HETATM   20  C   UNL     1     -15.052   1.103 -33.799  1.00  0.00     0.210 C 
ENDBRANCH  15  19
ENDBRANCH   8  11
ENDBRANCH   1   7
BRANCH   2  21
HETATM   21  C   UNL     1      -5.779   1.626 -33.236  1.00  0.00     0.253 C 
HETATM   22  N   UNL     1      -5.169   1.716 -32.002  1.00  0.00    -0.355 N 
HETATM   23  H   UNL     1      -4.888   0.863 -31.542  1.00  0.00     0.162 HD
HETATM   24  O   UNL     1      -6.164   2.586 -33.893  1.00  0.00    -0.268 OA
BRANCH  22  25
HETATM   25  C   UNL     1      -4.688   2.976 -31.465  1.00  0.00     0.149 C 
BRANCH  25  26
HETATM   26  C   UNL     1      -3.168   3.170 -31.502  1.00  0.00     0.195 C 
BRANCH  26  27
HETATM   27  O   UNL     1      -2.757   3.512 -32.834  1.00  0.00    -0.350 OA
BRANCH  27  28
HETATM   28  C   UNL     1      -2.160   4.744 -32.914  1.00  0.00     0.068 A 
HETATM   29  C   UNL     1      -2.647   5.607 -33.893  1.00  0.00     0.037 A 
HETATM   30  C   UNL     1      -2.099   6.883 -34.040  1.00  0.00     0.003 A 
HETATM   31  C   UNL     1      -1.073   7.303 -33.194  1.00  0.00     0.000 A 
HETATM   32  C   UNL     1      -0.603   6.451 -32.196  1.00  0.00     0.003 A 
HETATM   33  C   UNL     1      -1.149   5.173 -32.051  1.00  0.00     0.037 A 
ENDBRANCH  27  28
ENDBRANCH  26  27
ENDBRANCH  25  26
ENDBRANCH  22  25
ENDBRANCH   2  21
TORSDOF 9
ENDMDL
MODEL 5
REMARK VINA RESULT:      -7.1      2.291      5.937
REMARK  9 active torsions:
REMARK  status: ('A' for Active; 'I' for Inactive)
REMARK    1  A    between atoms: O_2  and  C_3 
REMARK    2  A    between atoms: C_5  and  O_6 
REMARK    3  A    between atoms: C_9  and  C_10 
REMARK       I    between atoms: C_10  and  N_11 
REMARK    4  A    between atoms: N_11  and  C_12 
REMARK    5  A    between atoms: C_13  and  C_14 
REMARK       I    between atoms: C_14  and  N_15 
REMARK    6  A    between atoms: N_15  and  C_16 
REMARK    7  A    between atoms: C_16  and  C_17 
REMARK    8  A    between atoms: C_17  and  O_18 
REMARK    9  A    between atoms: O_18  and  C_19 
ROOT
HETATM    1  C   UNL     1     -10.480   1.195 -33.776  1.00  0.00     0.050 A 
HETATM    2  C   UNL     1     -10.624   2.596 -33.804  1.00  0.00     0.058 A 
HETATM    3  C   UNL     1     -11.906   3.174 -33.770  1.00  0.00     0.019 A 
HETATM    4  C   UNL     1     -13.044   2.378 -33.658  1.00  0.00     0.001 A 
HETATM    5  C   UNL     1     -12.908   0.998 -33.563  1.00  0.00     0.002 A 
HETATM    6  C   UNL     1     -11.639   0.413 -33.616  1.00  0.00     0.030 A 
ENDROOT
BRANCH   1   7
HETATM    7  N   UNL     1      -9.273   0.456 -33.919  1.00  0.00    -0.322 N 
HETATM    8  C   UNL     1      -8.372   0.193 -32.901  1.00  0.00     0.256 C 
HETATM    9  O   UNL     1      -8.483   0.558 -31.738  1.00  0.00    -0.267 OA
HETATM   10  H   UNL     1      -8.890   0.430 -34.855  1.00  0.00     0.169 HD
BRANCH   8  11
HETATM   11  C   UNL     1      -7.114  -0.509 -33.296  1.00  0.00     0.037 A 
HETATM   12  C   UNL     1      -5.907   0.002 -32.789  1.00  0.00     0.054 A 
HETATM   13  C   UNL     1      -4.695  -0.596 -33.120  1.00  0.00     0.071 A 
HETATM   14  C   UNL     1      -4.693  -1.696 -33.977  1.00  0.00     0.073 A 
HETATM   15  C   UNL     1      -5.887  -2.228 -34.477  1.00  0.00     0.071 A 
HETATM   16  C   UNL     1      -7.103  -1.641 -34.125  1.00  0.00     0.054 A 
BRANCH  13  17
HETATM   17  O   UNL     1      -3.462  -0.193 -32.688  1.00  0.00    -0.356 OA
HETATM   18  C   UNL     1      -3.229  -0.255 -31.284  1.00  0.00     0.210 C 
ENDBRANCH  13  17
BRANCH  15  19
HETATM   19  O   UNL     1      -5.722  -3.318 -35.285  1.00  0.00    -0.356 OA
HETATM   20  C   UNL     1      -6.429  -4.503 -34.945  1.00  0.00     0.210 C 
ENDBRANCH  15  19
ENDBRANCH   8  11
ENDBRANCH   1   7
BRANCH   2  21
HETATM   21  C   UNL     1      -9.511   3.575 -33.722  1.00  0.00     0.253 C 
HETATM   22  N   UNL     1      -8.797   3.547 -32.542  1.00  0.00    -0.355 N 
HETATM   23  H   UNL     1      -9.009   2.824 -31.871  1.00  0.00     0.162 HD
HETATM   24  O   UNL     1      -9.347   4.398 -34.615  1.00  0.00    -0.268 OA
BRANCH  22  25
HETATM   25  C   UNL     1      -7.597   4.339 -32.343  1.00  0.00     0.149 C 
BRANCH  25  26
HETATM   26  C   UNL     1      -6.334   3.804 -33.027  1.00  0.00     0.195 C 
BRANCH  26  27
HETATM   27  O   UNL     1      -5.811   4.799 -33.921  1.00  0.00    -0.350 OA
BRANCH  27  28
HETATM   28  C   UNL     1      -4.441   4.852 -33.924  1.00  0.00     0.068 A 
HETATM   29  C   UNL     1      -3.800   4.407 -32.769  1.00  0.00     0.037 A 
HETATM   30  C   UNL     1      -2.406   4.422 -32.689  1.00  0.00     0.003 A 
HETATM   31  C   UNL     1      -1.650   4.866 -33.774  1.00  0.00     0.000 A 
HETATM   32  C   UNL     1      -2.288   5.286 -34.940  1.00  0.00     0.003 A 
HETATM   33  C   UNL     1      -3.683   5.275 -35.019  1.00  0.00     0.037 A 
ENDBRANCH  27  28
ENDBRANCH  26  27
ENDBRANCH  25  26
ENDBRANCH  22  25
ENDBRANCH   2  21
TORSDOF 9
ENDMDL
MODEL 6
REMARK VINA RESULT:      -7.1      2.236      5.960
REMARK  9 active torsions:
REMARK  status: ('A' for Active; 'I' for Inactive)
REMARK    1  A    between atoms: O_2  and  C_3 
REMARK    2  A    between atoms: C_5  and  O_6 
REMARK    3  A    between atoms: C_9  and  C_10 
REMARK       I    between atoms: C_10  and  N_11 
REMARK    4  A    between atoms: N_11  and  C_12 
REMARK    5  A    between atoms: C_13  and  C_14 
REMARK       I    between atoms: C_14  and  N_15 
REMARK    6  A    between atoms: N_15  and  C_16 
REMARK    7  A    between atoms: C_16  and  C_17 
REMARK    8  A    between atoms: C_17  and  O_18 
REMARK    9  A    between atoms: O_18  and  C_19 
ROOT
HETATM    1  C   UNL     1      -9.461   1.967 -34.165  1.00  0.00     0.050 A 
HETATM    2  C   UNL     1      -9.369   3.363 -34.002  1.00  0.00     0.058 A 
HETATM    3  C   UNL     1     -10.516   4.166 -34.140  1.00  0.00     0.019 A 
HETATM    4  C   UNL     1     -11.761   3.594 -34.388  1.00  0.00     0.001 A 
HETATM    5  C   UNL     1     -11.873   2.212 -34.484  1.00  0.00     0.002 A 
HETATM    6  C   UNL     1     -10.737   1.407 -34.368  1.00  0.00     0.030 A 
ENDROOT
BRANCH   1   7
HETATM    7  N   UNL     1      -8.388   1.034 -34.172  1.00  0.00    -0.322 N 
HETATM    8  C   UNL     1      -7.841   0.436 -33.049  1.00  0.00     0.256 C 
HETATM    9  O   UNL     1      -8.201   0.624 -31.894  1.00  0.00    -0.267 OA
HETATM   10  H   UNL     1      -7.778   1.082 -34.978  1.00  0.00     0.169 HD
BRANCH   8  11
HETATM   11  C   UNL     1      -6.647  -0.432 -33.277  1.00  0.00     0.037 A 
HETATM   12  C   UNL     1      -6.771  -1.457 -34.229  1.00  0.00     0.054 A 
HETATM   13  C   UNL     1      -5.703  -2.310 -34.488  1.00  0.00     0.071 A 
HETATM   14  C   UNL     1      -4.514  -2.144 -33.777  1.00  0.00     0.073 A 
HETATM   15  C   UNL     1      -4.368  -1.117 -32.839  1.00  0.00     0.071 A 
HETATM   16  C   UNL     1      -5.433  -0.249 -32.596  1.00  0.00     0.054 A 
BRANCH  13  17
HETATM   17  O   UNL     1      -5.702  -3.338 -35.390  1.00  0.00    -0.356 OA
HETATM   18  C   UNL     1      -6.442  -4.501 -35.030  1.00  0.00     0.210 C 
ENDBRANCH  13  17
BRANCH  15  19
HETATM   19  O   UNL     1      -3.139  -1.072 -32.242  1.00  0.00    -0.356 OA
HETATM   20  C   UNL     1      -2.942  -0.107 -31.217  1.00  0.00     0.210 C 
ENDBRANCH  15  19
ENDBRANCH   8  11
ENDBRANCH   1   7
BRANCH   2  21
HETATM   21  C   UNL     1      -8.162   4.096 -33.544  1.00  0.00     0.253 C 
HETATM   22  N   UNL     1      -7.770   3.820 -32.250  1.00  0.00    -0.355 N 
HETATM   23  H   UNL     1      -8.256   3.092 -31.747  1.00  0.00     0.162 HD
HETATM   24  O   UNL     1      -7.652   4.952 -34.257  1.00  0.00    -0.268 OA
BRANCH  22  25
HETATM   25  C   UNL     1      -6.540   4.342 -31.685  1.00  0.00     0.149 C 
BRANCH  25  26
HETATM   26  C   UNL     1      -5.334   3.398 -31.747  1.00  0.00     0.195 C 
BRANCH  26  27
HETATM   27  O   UNL     1      -4.803   3.380 -33.080  1.00  0.00    -0.350 OA
BRANCH  27  28
HETATM   28  C   UNL     1      -3.663   4.129 -33.216  1.00  0.00     0.068 A 
HETATM   29  C   UNL     1      -3.636   5.030 -34.280  1.00  0.00     0.037 A 
HETATM   30  C   UNL     1      -2.515   5.836 -34.488  1.00  0.00     0.003 A 
HETATM   31  C   UNL     1      -1.427   5.755 -33.621  1.00  0.00     0.000 A 
HETATM   32  C   UNL     1      -1.462   4.875 -32.541  1.00  0.00     0.003 A 
HETATM   33  C   UNL     1      -2.582   4.065 -32.334  1.00  0.00     0.037 A 
ENDBRANCH  27  28
ENDBRANCH  26  27
ENDBRANCH  25  26
ENDBRANCH  22  25
ENDBRANCH   2  21
TORSDOF 9
ENDMDL
MODEL 7
REMARK VINA RESULT:      -7.1      2.149      7.106
REMARK  9 active torsions:
REMARK  status: ('A' for Active; 'I' for Inactive)
REMARK    1  A    between atoms: O_2  and  C_3 
REMARK    2  A    between atoms: C_5  and  O_6 
REMARK    3  A    between atoms: C_9  and  C_10 
REMARK       I    between atoms: C_10  and  N_11 
REMARK    4  A    between atoms: N_11  and  C_12 
REMARK    5  A    between atoms: C_13  and  C_14 
REMARK       I    between atoms: C_14  and  N_15 
REMARK    6  A    between atoms: N_15  and  C_16 
REMARK    7  A    between atoms: C_16  and  C_17 
REMARK    8  A    between atoms: C_17  and  O_18 
REMARK    9  A    between atoms: O_18  and  C_19 
ROOT
HETATM    1  C   UNL     1      -4.995   4.071 -33.405  1.00  0.00     0.050 A 
HETATM    2  C   UNL     1      -3.936   3.366 -32.802  1.00  0.00     0.058 A 
HETATM    3  C   UNL     1      -2.604   3.739 -33.059  1.00  0.00     0.019 A 
HETATM    4  C   UNL     1      -2.314   4.834 -33.869  1.00  0.00     0.001 A 
HETATM    5  C   UNL     1      -3.354   5.577 -34.414  1.00  0.00     0.002 A 
HETATM    6  C   UNL     1      -4.680   5.203 -34.181  1.00  0.00     0.030 A 
ENDROOT
BRANCH   1   7
HETATM    7  N   UNL     1      -6.380   3.754 -33.342  1.00  0.00    -0.322 N 
HETATM    8  C   UNL     1      -6.954   2.582 -33.805  1.00  0.00     0.256 C 
HETATM    9  O   UNL     1      -6.355   1.655 -34.334  1.00  0.00    -0.267 OA
HETATM   10  H   UNL     1      -7.004   4.549 -33.284  1.00  0.00     0.169 HD
BRANCH   8  11
HETATM   11  C   UNL     1      -8.444   2.503 -33.737  1.00  0.00     0.037 A 
HETATM   12  C   UNL     1      -9.156   3.710 -33.838  1.00  0.00     0.054 A 
HETATM   13  C   UNL     1     -10.546   3.714 -33.775  1.00  0.00     0.071 A 
HETATM   14  C   UNL     1     -11.221   2.507 -33.591  1.00  0.00     0.073 A 
HETATM   15  C   UNL     1     -10.528   1.295 -33.507  1.00  0.00     0.071 A 
HETATM   16  C   UNL     1      -9.135   1.290 -33.593  1.00  0.00     0.054 A 
BRANCH  13  17
HETATM   17  O   UNL     1     -11.345   4.819 -33.863  1.00  0.00    -0.356 OA
HETATM   18  C   UNL     1     -12.567   4.782 -33.132  1.00  0.00     0.210 C 
ENDBRANCH  13  17
BRANCH  15  19
HETATM   19  O   UNL     1     -11.330   0.199 -33.349  1.00  0.00    -0.356 OA
HETATM   20  C   UNL     1     -12.706   0.338 -33.674  1.00  0.00     0.210 C 
ENDBRANCH  15  19
ENDBRANCH   8  11
ENDBRANCH   1   7
BRANCH   2  21
HETATM   21  C   UNL     1      -4.086   2.311 -31.768  1.00  0.00     0.253 C 
HETATM   22  N   UNL     1      -3.845   1.026 -32.210  1.00  0.00    -0.355 N 
HETATM   23  H   UNL     1      -3.502   0.899 -33.151  1.00  0.00     0.162 HD
HETATM   24  O   UNL     1      -4.500   2.596 -30.651  1.00  0.00    -0.268 OA
BRANCH  22  25
HETATM   25  C   UNL     1      -3.814  -0.111 -31.308  1.00  0.00     0.149 C 
BRANCH  25  26
HETATM   26  C   UNL     1      -3.560  -1.470 -31.970  1.00  0.00     0.195 C 
BRANCH  26  27
HETATM   27  O   UNL     1      -3.765  -1.363 -33.387  1.00  0.00    -0.350 OA
BRANCH  27  28
HETATM   28  C   UNL     1      -4.678  -2.265 -33.868  1.00  0.00     0.068 A 
HETATM   29  C   UNL     1      -5.982  -1.801 -34.030  1.00  0.00     0.037 A 
HETATM   30  C   UNL     1      -6.975  -2.653 -34.519  1.00  0.00     0.003 A 
HETATM   31  C   UNL     1      -6.659  -3.966 -34.864  1.00  0.00     0.000 A 
HETATM   32  C   UNL     1      -5.349  -4.425 -34.727  1.00  0.00     0.003 A 
HETATM   33  C   UNL     1      -4.357  -3.575 -34.235  1.00  0.00     0.037 A 
ENDBRANCH  27  28
ENDBRANCH  26  27
ENDBRANCH  25  26
ENDBRANCH  22  25
ENDBRANCH   2  21
TORSDOF 9
ENDMDL
MODEL 8
REMARK VINA RESULT:      -7.0      1.944      5.904
REMARK  9 active torsions:
REMARK  status: ('A' for Active; 'I' for Inactive)
REMARK    1  A    between atoms: O_2  and  C_3 
REMARK    2  A    between atoms: C_5  and  O_6 
REMARK    3  A    between atoms: C_9  and  C_10 
REMARK       I    between atoms: C_10  and  N_11 
REMARK    4  A    between atoms: N_11  and  C_12 
REMARK    5  A    between atoms: C_13  and  C_14 
REMARK       I    between atoms: C_14  and  N_15 
REMARK    6  A    between atoms: N_15  and  C_16 
REMARK    7  A    between atoms: C_16  and  C_17 
REMARK    8  A    between atoms: C_17  and  O_18 
REMARK    9  A    between atoms: O_18  and  C_19 
ROOT
HETATM    1  C   UNL     1      -6.600  -1.145 -33.777  1.00  0.00     0.050 A 
HETATM    2  C   UNL     1      -5.488  -1.091 -32.914  1.00  0.00     0.058 A 
HETATM    3  C   UNL     1      -4.405  -1.970 -33.104  1.00  0.00     0.019 A 
HETATM    4  C   UNL     1      -4.394  -2.867 -34.169  1.00  0.00     0.001 A 
HETATM    5  C   UNL     1      -5.456  -2.881 -35.065  1.00  0.00     0.002 A 
HETATM    6  C   UNL     1      -6.545  -2.025 -34.874  1.00  0.00     0.030 A 
ENDROOT
BRANCH   1   7
HETATM    7  N   UNL     1      -7.813  -0.413 -33.656  1.00  0.00    -0.322 N 
HETATM    8  C   UNL     1      -7.986   0.914 -34.011  1.00  0.00     0.256 C 
HETATM    9  O   UNL     1      -7.122   1.646 -34.478  1.00  0.00    -0.267 OA
HETATM   10  H   UNL     1      -8.463  -0.765 -32.964  1.00  0.00     0.169 HD
BRANCH   8  11
HETATM   11  C   UNL     1      -9.316   1.516 -33.696  1.00  0.00     0.037 A 
HETATM   12  C   UNL     1      -9.333   2.615 -32.821  1.00  0.00     0.054 A 
HETATM   13  C   UNL     1     -10.536   3.221 -32.476  1.00  0.00     0.071 A 
HETATM   14  C   UNL     1     -11.726   2.713 -32.996  1.00  0.00     0.073 A 
HETATM   15  C   UNL     1     -11.726   1.631 -33.883  1.00  0.00     0.071 A 
HETATM   16  C   UNL     1     -10.516   1.037 -34.245  1.00  0.00     0.054 A 
BRANCH  13  17
HETATM   17  O   UNL     1     -10.678   4.294 -31.640  1.00  0.00    -0.356 OA
HETATM   18  C   UNL     1      -9.979   4.232 -30.400  1.00  0.00     0.210 C 
ENDBRANCH  13  17
BRANCH  15  19
HETATM   19  O   UNL     1     -12.967   1.262 -34.321  1.00  0.00    -0.356 OA
HETATM   20  C   UNL     1     -13.597   0.168 -33.669  1.00  0.00     0.210 C 
ENDBRANCH  15  19
ENDBRANCH   8  11
ENDBRANCH   1   7
BRANCH   2  21
HETATM   21  C   UNL     1      -5.266  -0.067 -31.863  1.00  0.00     0.253 C 
HETATM   22  N   UNL     1      -4.128   0.696 -32.026  1.00  0.00    -0.355 N 
HETATM   23  H   UNL     1      -3.588   0.578 -32.871  1.00  0.00     0.162 HD
HETATM   24  O   UNL     1      -6.004  -0.014 -30.887  1.00  0.00    -0.268 OA
BRANCH  22  25
HETATM   25  C   UNL     1      -3.825   1.829 -31.171  1.00  0.00     0.149 C 
BRANCH  25  26
HETATM   26  C   UNL     1      -3.502   3.138 -31.900  1.00  0.00     0.195 C 
BRANCH  26  27
HETATM   27  O   UNL     1      -2.200   3.600 -31.510  1.00  0.00    -0.350 OA
BRANCH  27  28
HETATM   28  C   UNL     1      -1.775   4.684 -32.233  1.00  0.00     0.068 A 
HETATM   29  C   UNL     1      -2.021   4.650 -33.605  1.00  0.00     0.037 A 
HETATM   30  C   UNL     1      -1.625   5.716 -34.415  1.00  0.00     0.003 A 
HETATM   31  C   UNL     1      -0.999   6.826 -33.851  1.00  0.00     0.000 A 
HETATM   32  C   UNL     1      -0.776   6.875 -32.476  1.00  0.00     0.003 A 
HETATM   33  C   UNL     1      -1.169   5.808 -31.665  1.00  0.00     0.037 A 
ENDBRANCH  27  28
ENDBRANCH  26  27
ENDBRANCH  25  26
ENDBRANCH  22  25
ENDBRANCH   2  21
TORSDOF 9
ENDMDL
MODEL 9
REMARK VINA RESULT:      -7.0      1.822      4.740
REMARK  9 active torsions:
REMARK  status: ('A' for Active; 'I' for Inactive)
REMARK    1  A    between atoms: O_2  and  C_3 
REMARK    2  A    between atoms: C_5  and  O_6 
REMARK    3  A    between atoms: C_9  and  C_10 
REMARK       I    between atoms: C_10  and  N_11 
REMARK    4  A    between atoms: N_11  and  C_12 
REMARK    5  A    between atoms: C_13  and  C_14 
REMARK       I    between atoms: C_14  and  N_15 
REMARK    6  A    between atoms: N_15  and  C_16 
REMARK    7  A    between atoms: C_16  and  C_17 
REMARK    8  A    between atoms: C_17  and  O_18 
REMARK    9  A    between atoms: O_18  and  C_19 
ROOT
HETATM    1  C   UNL     1      -6.315  -2.260 -33.974  1.00  0.00     0.050 A 
HETATM    2  C   UNL     1      -4.945  -2.336 -33.655  1.00  0.00     0.058 A 
HETATM    3  C   UNL     1      -4.210  -3.493 -33.974  1.00  0.00     0.019 A 
HETATM    4  C   UNL     1      -4.809  -4.553 -34.651  1.00  0.00     0.001 A 
HETATM    5  C   UNL     1      -6.143  -4.459 -35.030  1.00  0.00     0.002 A 
HETATM    6  C   UNL     1      -6.886  -3.322 -34.700  1.00  0.00     0.030 A 
ENDROOT
BRANCH   1   7
HETATM    7  N   UNL     1      -7.219  -1.221 -33.620  1.00  0.00    -0.322 N 
HETATM    8  C   UNL     1      -7.360  -0.020 -34.296  1.00  0.00     0.256 C 
HETATM    9  O   UNL     1      -6.730   0.318 -35.289  1.00  0.00    -0.267 OA
HETATM   10  H   UNL     1      -7.506  -1.209 -32.650  1.00  0.00     0.169 HD
BRANCH   8  11
HETATM   11  C   UNL     1      -8.293   0.976 -33.687  1.00  0.00     0.037 A 
HETATM   12  C   UNL     1      -9.215   1.598 -34.545  1.00  0.00     0.054 A 
HETATM   13  C   UNL     1     -10.110   2.543 -34.051  1.00  0.00     0.071 A 
HETATM   14  C   UNL     1     -10.065   2.876 -32.697  1.00  0.00     0.073 A 
HETATM   15  C   UNL     1      -9.166   2.252 -31.826  1.00  0.00     0.071 A 
HETATM   16  C   UNL     1      -8.284   1.289 -32.320  1.00  0.00     0.054 A 
BRANCH  13  17
HETATM   17  O   UNL     1     -11.051   3.210 -34.783  1.00  0.00    -0.356 OA
HETATM   18  C   UNL     1     -11.074   4.628 -34.648  1.00  0.00     0.210 C 
ENDBRANCH  13  17
BRANCH  15  19
HETATM   19  O   UNL     1      -9.258   2.670 -30.528  1.00  0.00    -0.356 OA
HETATM   20  C   UNL     1      -8.803   3.981 -30.225  1.00  0.00     0.210 C 
ENDBRANCH  15  19
ENDBRANCH   8  11
ENDBRANCH   1   7
BRANCH   2  21
HETATM   21  C   UNL     1      -4.126  -1.222 -33.116  1.00  0.00     0.253 C 
HETATM   22  N   UNL     1      -4.229  -1.030 -31.754  1.00  0.00    -0.355 N 
HETATM   23  H   UNL     1      -4.763  -1.695 -31.215  1.00  0.00     0.162 HD
HETATM   24  O   UNL     1      -3.507  -0.488 -33.877  1.00  0.00    -0.268 OA
BRANCH  22  25
HETATM   25  C   UNL     1      -3.399  -0.076 -31.041  1.00  0.00     0.149 C 
BRANCH  25  26
HETATM   26  C   UNL     1      -3.956   1.350 -30.960  1.00  0.00     0.195 C 
BRANCH  26  27
HETATM   27  O   UNL     1      -3.036   2.263 -31.578  1.00  0.00    -0.350 OA
BRANCH  27  28
HETATM   28  C   UNL     1      -3.632   3.085 -32.499  1.00  0.00     0.068 A 
HETATM   29  C   UNL     1      -4.972   2.828 -32.784  1.00  0.00     0.037 A 
HETATM   30  C   UNL     1      -5.658   3.620 -33.708  1.00  0.00     0.003 A 
HETATM   31  C   UNL     1      -5.007   4.683 -34.334  1.00  0.00     0.000 A 
HETATM   32  C   UNL     1      -3.675   4.958 -34.030  1.00  0.00     0.003 A 
HETATM   33  C   UNL     1      -2.988   4.164 -33.109  1.00  0.00     0.037 A 
ENDBRANCH  27  28
ENDBRANCH  26  27
ENDBRANCH  25  26
ENDBRANCH  22  25
ENDBRANCH   2  21
TORSDOF 9
ENDMDL
MODEL 10
REMARK VINA RESULT:      -6.9      2.416      4.244
REMARK  9 active torsions:
REMARK  status: ('A' for Active; 'I' for Inactive)
REMARK    1  A    between atoms: O_2  and  C_3 
REMARK    2  A    between atoms: C_5  and  O_6 
REMARK    3  A    between atoms: C_9  and  C_10 
REMARK       I    between atoms: C_10  and  N_11 
REMARK    4  A    between atoms: N_11  and  C_12 
REMARK    5  A    between atoms: C_13  and  C_14 
REMARK       I    between atoms: C_14  and  N_15 
REMARK    6  A    between atoms: N_15  and  C_16 
REMARK    7  A    between atoms: C_16  and  C_17 
REMARK    8  A    between atoms: C_17  and  O_18 
REMARK    9  A    between atoms: O_18  and  C_19 
ROOT
HETATM    1  C   UNL     1      -5.148  -0.809 -33.620  1.00  0.00     0.050 A 
HETATM    2  C   UNL     1      -6.381  -1.089 -34.240  1.00  0.00     0.058 A 
HETATM    3  C   UNL     1      -6.617  -2.358 -34.799  1.00  0.00     0.019 A 
HETATM    4  C   UNL     1      -5.662  -3.367 -34.706  1.00  0.00     0.001 A 
HETATM    5  C   UNL     1      -4.469  -3.121 -34.036  1.00  0.00     0.002 A 
HETATM    6  C   UNL     1      -4.217  -1.858 -33.494  1.00  0.00     0.030 A 
ENDROOT
BRANCH   1   7
HETATM    7  N   UNL     1      -4.710   0.445 -33.112  1.00  0.00    -0.322 N 
HETATM    8  C   UNL     1      -5.075   0.984 -31.890  1.00  0.00     0.256 C 
HETATM    9  O   UNL     1      -5.823   0.461 -31.074  1.00  0.00    -0.267 OA
HETATM   10  H   UNL     1      -4.415   1.115 -33.810  1.00  0.00     0.169 HD
BRANCH   8  11
HETATM   11  C   UNL     1      -4.584   2.365 -31.603  1.00  0.00     0.037 A 
HETATM   12  C   UNL     1      -3.268   2.672 -31.987  1.00  0.00     0.054 A 
HETATM   13  C   UNL     1      -2.740   3.936 -31.744  1.00  0.00     0.071 A 
HETATM   14  C   UNL     1      -3.529   4.888 -31.099  1.00  0.00     0.073 A 
HETATM   15  C   UNL     1      -4.847   4.605 -30.726  1.00  0.00     0.071 A 
HETATM   16  C   UNL     1      -5.382   3.343 -30.990  1.00  0.00     0.054 A 
BRANCH  13  17
HETATM   17  O   UNL     1      -1.480   4.351 -32.073  1.00  0.00    -0.356 OA
HETATM   18  C   UNL     1      -1.321   5.738 -32.358  1.00  0.00     0.210 C 
ENDBRANCH  13  17
BRANCH  15  19
HETATM   19  O   UNL     1      -5.497   5.646 -30.123  1.00  0.00    -0.356 OA
HETATM   20  C   UNL     1      -4.701   6.660 -29.525  1.00  0.00     0.210 C 
ENDBRANCH  15  19
ENDBRANCH   8  11
ENDBRANCH   1   7
BRANCH   2  21
HETATM   21  C   UNL     1      -7.562  -0.190 -34.245  1.00  0.00     0.253 C 
HETATM   22  N   UNL     1      -8.202  -0.063 -33.030  1.00  0.00    -0.355 N 
HETATM   23  H   UNL     1      -7.785  -0.499 -32.221  1.00  0.00     0.162 HD
HETATM   24  O   UNL     1      -7.965   0.293 -35.297  1.00  0.00    -0.268 OA
BRANCH  22  25
HETATM   25  C   UNL     1      -9.289   0.875 -32.820  1.00  0.00     0.149 C 
BRANCH  25  26
HETATM   26  C   UNL     1     -10.691   0.338 -33.131  1.00  0.00     0.195 C 
BRANCH  26  27
HETATM   27  O   UNL     1     -11.348   1.214 -34.061  1.00  0.00    -0.350 OA
BRANCH  27  28
HETATM   28  C   UNL     1     -12.677   1.398 -33.779  1.00  0.00     0.068 A 
HETATM   29  C   UNL     1     -13.569   0.529 -34.406  1.00  0.00     0.037 A 
HETATM   30  C   UNL     1     -14.941   0.644 -34.171  1.00  0.00     0.003 A 
HETATM   31  C   UNL     1     -15.420   1.617 -33.295  1.00  0.00     0.000 A 
HETATM   32  C   UNL     1     -14.527   2.469 -32.647  1.00  0.00     0.003 A 
HETATM   33  C   UNL     1     -13.155   2.357 -32.884  1.00  0.00     0.037 A 
ENDBRANCH  27  28
ENDBRANCH  26  27
ENDBRANCH  25  26
ENDBRANCH  22  25
ENDBRANCH   2  21
TORSDOF 9
ENDMDL
