MODEL 1
REMARK VINA RESULT:      -8.0      0.000      0.000
REMARK  5 active torsions:
REMARK  status: ('A' for Active; 'I' for Inactive)
REMARK    1  A    between atoms: C_6  and  N_7 
REMARK       I    between atoms: N_7  and  C_8 
REMARK    2  A    between atoms: C_8  and  C_9 
REMARK    3  A    between atoms: C_9  and  C_10 
REMARK    4  A    between atoms: C_13  and  O_14 
REMARK    5  A    between atoms: C_19  and  C_20 
ROOT
HETATM    1  C   UNL     1      -6.833  -4.265 -35.170  1.00  0.00     0.073 C 
HETATM    2  C   UNL     1      -5.700  -3.479 -34.621  1.00  0.00     0.065 A 
HETATM    3  N   UNL     1      -4.502  -4.056 -34.463  1.00  0.00    -0.177 NA
HETATM    4  N   UNL     1      -3.731  -3.070 -33.974  1.00  0.00    -0.262 N 
HETATM    5  H   UNL     1      -2.752  -3.251 -33.764  1.00  0.00     0.191 HD
HETATM    6  C   UNL     1      -4.393  -1.882 -33.798  1.00  0.00     0.137 A 
HETATM    7  C   UNL     1      -5.689  -2.113 -34.218  1.00  0.00     0.046 A 
ENDROOT
BRANCH   6   8
HETATM    8  N   UNL     1      -3.801  -0.738 -33.291  1.00  0.00    -0.311 N 
HETATM    9  C   UNL     1      -4.072  -0.272 -32.011  1.00  0.00     0.227 C 
HETATM   10  O   UNL     1      -4.854  -0.822 -31.236  1.00  0.00    -0.273 OA
HETATM   11  H   UNL     1      -3.147  -0.245 -33.888  1.00  0.00     0.170 HD
BRANCH   9  12
HETATM   12  C   UNL     1      -3.234   0.948 -31.651  1.00  0.00     0.141 C 
BRANCH  12  13
HETATM   13  C   UNL     1      -3.742   2.262 -32.194  1.00  0.00    -0.049 A 
HETATM   14  C   UNL     1      -5.059   2.384 -32.653  1.00  0.00     0.010 A 
HETATM   15  C   UNL     1      -5.537   3.613 -33.113  1.00  0.00     0.037 A 
HETATM   16  C   UNL     1      -4.718   4.743 -33.113  1.00  0.00     0.068 A 
HETATM   17  C   UNL     1      -3.400   4.625 -32.672  1.00  0.00     0.037 A 
HETATM   18  C   UNL     1      -2.916   3.393 -32.217  1.00  0.00     0.010 A 
BRANCH  16  19
HETATM   19  O   UNL     1      -5.314   5.885 -33.569  1.00  0.00    -0.356 OA
HETATM   20  C   UNL     1      -6.299   6.471 -32.728  1.00  0.00     0.210 C 
ENDBRANCH  16  19
ENDBRANCH  12  13
ENDBRANCH   9  12
ENDBRANCH   6   8
BRANCH   7  21
HETATM   21  C   UNL     1      -6.753  -1.128 -34.213  1.00  0.00    -0.020 A 
HETATM   22  C   UNL     1      -6.830  -0.160 -35.223  1.00  0.00     0.014 A 
HETATM   23  C   UNL     1      -7.858   0.787 -35.214  1.00  0.00     0.020 A 
HETATM   24  C   UNL     1      -8.813   0.760 -34.200  1.00  0.00     0.011 A 
HETATM   25 BR   UNL     1     -10.205   2.038 -34.189  1.00  0.00    -0.051 Br
HETATM   26  C   UNL     1      -8.752  -0.204 -33.196  1.00  0.00     0.020 A 
HETATM   27  C   UNL     1      -7.722  -1.149 -33.203  1.00  0.00     0.014 A 
ENDBRANCH   7  21
TORSDOF 5
ENDMDL
MODEL 2
REMARK VINA RESULT:      -7.9      1.631      2.276
REMARK  5 active torsions:
REMARK  status: ('A' for Active; 'I' for Inactive)
REMARK    1  A    between atoms: C_6  and  N_7 
REMARK       I    between atoms: N_7  and  C_8 
REMARK    2  A    between atoms: C_8  and  C_9 
REMARK    3  A    between atoms: C_9  and  C_10 
REMARK    4  A    between atoms: C_13  and  O_14 
REMARK    5  A    between atoms: C_19  and  C_20 
ROOT
HETATM    1  C   UNL     1      -6.927  -4.356 -35.655  1.00  0.00     0.073 C 
HETATM    2  C   UNL     1      -5.834  -3.723 -34.875  1.00  0.00     0.065 A 
HETATM    3  N   UNL     1      -4.691  -4.389 -34.665  1.00  0.00    -0.177 NA
HETATM    4  N   UNL     1      -3.941  -3.528 -33.957  1.00  0.00    -0.262 N 
HETATM    5  H   UNL     1      -3.004  -3.796 -33.666  1.00  0.00     0.191 HD
HETATM    6  C   UNL     1      -4.564  -2.336 -33.691  1.00  0.00     0.137 A 
HETATM    7  C   UNL     1      -5.809  -2.427 -34.283  1.00  0.00     0.046 A 
ENDROOT
BRANCH   6   8
HETATM    8  N   UNL     1      -3.986  -1.310 -32.963  1.00  0.00    -0.311 N 
HETATM    9  C   UNL     1      -3.106  -1.554 -31.916  1.00  0.00     0.227 C 
HETATM   10  O   UNL     1      -2.778  -2.681 -31.548  1.00  0.00    -0.273 OA
HETATM   11  H   UNL     1      -4.222  -0.360 -33.224  1.00  0.00     0.170 HD
BRANCH   9  12
HETATM   12  C   UNL     1      -2.537  -0.268 -31.330  1.00  0.00     0.141 C 
BRANCH  12  13
HETATM   13  C   UNL     1      -3.555   0.800 -31.010  1.00  0.00    -0.049 A 
HETATM   14  C   UNL     1      -3.350   2.126 -31.411  1.00  0.00     0.010 A 
HETATM   15  C   UNL     1      -4.315   3.101 -31.150  1.00  0.00     0.037 A 
HETATM   16  C   UNL     1      -5.504   2.772 -30.496  1.00  0.00     0.068 A 
HETATM   17  C   UNL     1      -5.708   1.457 -30.079  1.00  0.00     0.037 A 
HETATM   18  C   UNL     1      -4.739   0.478 -30.334  1.00  0.00     0.010 A 
BRANCH  16  19
HETATM   19  O   UNL     1      -6.371   3.814 -30.321  1.00  0.00    -0.356 OA
HETATM   20  C   UNL     1      -5.939   4.869 -29.470  1.00  0.00     0.210 C 
ENDBRANCH  16  19
ENDBRANCH  12  13
ENDBRANCH   9  12
ENDBRANCH   6   8
BRANCH   7  21
HETATM   21  C   UNL     1      -6.820  -1.389 -34.259  1.00  0.00    -0.020 A 
HETATM   22  C   UNL     1      -7.666  -1.245 -33.152  1.00  0.00     0.014 A 
HETATM   23  C   UNL     1      -8.639  -0.242 -33.133  1.00  0.00     0.020 A 
HETATM   24  C   UNL     1      -8.760   0.623 -34.219  1.00  0.00     0.011 A 
HETATM   25 BR   UNL     1     -10.073   1.982 -34.193  1.00  0.00    -0.051 Br
HETATM   26  C   UNL     1      -7.917   0.497 -35.321  1.00  0.00     0.020 A 
HETATM   27  C   UNL     1      -6.947  -0.509 -35.341  1.00  0.00     0.014 A 
ENDBRANCH   7  21
TORSDOF 5
ENDMDL
MODEL 3
REMARK VINA RESULT:      -7.8      3.629      5.585
REMARK  5 active torsions:
REMARK  status: ('A' for Active; 'I' for Inactive)
REMARK    1  A    between atoms: C_6  and  N_7 
REMARK       I    between atoms: N_7  and  C_8 
REMARK    2  A    between atoms: C_8  and  C_9 
REMARK    3  A    between atoms: C_9  and  C_10 
REMARK    4  A    between atoms: C_13  and  O_14 
REMARK    5  A    between atoms: C_19  and  C_20 
ROOT
HETATM    1  C   UNL     1      -9.788   1.851 -32.774  1.00  0.00     0.073 C 
HETATM    2  C   UNL     1      -8.726   2.781 -33.233  1.00  0.00     0.065 A 
HETATM    3  N   UNL     1      -8.952   4.101 -33.239  1.00  0.00    -0.177 NA
HETATM    4  N   UNL     1      -7.796   4.624 -33.685  1.00  0.00    -0.262 N 
HETATM    5  H   UNL     1      -7.703   5.632 -33.782  1.00  0.00     0.191 HD
HETATM    6  C   UNL     1      -6.840   3.687 -33.980  1.00  0.00     0.137 A 
HETATM    7  C   UNL     1      -7.415   2.464 -33.691  1.00  0.00     0.046 A 
ENDROOT
BRANCH   6   8
HETATM    8  N   UNL     1      -5.583   3.998 -34.470  1.00  0.00    -0.311 N 
HETATM    9  C   UNL     1      -4.941   5.189 -34.154  1.00  0.00     0.227 C 
HETATM   10  O   UNL     1      -5.431   6.057 -33.431  1.00  0.00    -0.273 OA
HETATM   11  H   UNL     1      -5.133   3.317 -35.071  1.00  0.00     0.170 HD
BRANCH   9  12
HETATM   12  C   UNL     1      -3.537   5.261 -34.739  1.00  0.00     0.141 C 
BRANCH  12  13
HETATM   13  C   UNL     1      -2.462   5.717 -33.782  1.00  0.00    -0.049 A 
HETATM   14  C   UNL     1      -1.826   4.802 -32.935  1.00  0.00     0.010 A 
HETATM   15  C   UNL     1      -0.802   5.222 -32.082  1.00  0.00     0.037 A 
HETATM   16  C   UNL     1      -0.386   6.554 -32.068  1.00  0.00     0.068 A 
HETATM   17  C   UNL     1      -1.026   7.474 -32.898  1.00  0.00     0.037 A 
HETATM   18  C   UNL     1      -2.058   7.058 -33.749  1.00  0.00     0.010 A 
BRANCH  16  19
HETATM   19  O   UNL     1       0.638   6.827 -31.204  1.00  0.00    -0.356 OA
HETATM   20  C   UNL     1       0.282   7.072 -29.849  1.00  0.00     0.210 C 
ENDBRANCH  16  19
ENDBRANCH  12  13
ENDBRANCH   9  12
ENDBRANCH   6   8
BRANCH   7  21
HETATM   21  C   UNL     1      -6.763   1.180 -33.850  1.00  0.00    -0.020 A 
HETATM   22  C   UNL     1      -7.199   0.278 -34.830  1.00  0.00     0.014 A 
HETATM   23  C   UNL     1      -6.567  -0.960 -34.980  1.00  0.00     0.020 A 
HETATM   24  C   UNL     1      -5.493  -1.291 -34.157  1.00  0.00     0.011 A 
HETATM   25 BR   UNL     1      -4.635  -2.963 -34.361  1.00  0.00    -0.051 Br
HETATM   26  C   UNL     1      -5.043  -0.398 -33.186  1.00  0.00     0.020 A 
HETATM   27  C   UNL     1      -5.678   0.838 -33.033  1.00  0.00     0.014 A 
ENDBRANCH   7  21
TORSDOF 5
ENDMDL
MODEL 4
REMARK VINA RESULT:      -7.7      3.419      7.441
REMARK  5 active torsions:
REMARK  status: ('A' for Active; 'I' for Inactive)
REMARK    1  A    between atoms: C_6  and  N_7 
REMARK       I    between atoms: N_7  and  C_8 
REMARK    2  A    between atoms: C_8  and  C_9 
REMARK    3  A    between atoms: C_9  and  C_10 
REMARK    4  A    between atoms: C_13  and  O_14 
REMARK    5  A    between atoms: C_19  and  C_20 
ROOT
HETATM    1  C   UNL     1      -5.787   5.386 -28.906  1.00  0.00     0.073 C 
HETATM    2  C   UNL     1      -6.435   4.312 -29.700  1.00  0.00     0.065 A 
HETATM    3  N   UNL     1      -7.518   3.688 -29.218  1.00  0.00    -0.177 NA
HETATM    4  N   UNL     1      -7.840   2.810 -30.184  1.00  0.00    -0.262 N 
HETATM    5  H   UNL     1      -8.646   2.201 -30.064  1.00  0.00     0.191 HD
HETATM    6  C   UNL     1      -6.996   2.837 -31.264  1.00  0.00     0.137 A 
HETATM    7  C   UNL     1      -6.062   3.816 -30.982  1.00  0.00     0.046 A 
ENDROOT
BRANCH   6   8
HETATM    8  N   UNL     1      -7.128   2.008 -32.365  1.00  0.00    -0.311 N 
HETATM    9  C   UNL     1      -7.410   0.653 -32.240  1.00  0.00     0.227 C 
HETATM   10  O   UNL     1      -7.555   0.084 -31.159  1.00  0.00    -0.273 OA
HETATM   11  H   UNL     1      -7.017   2.426 -33.282  1.00  0.00     0.170 HD
BRANCH   9  12
HETATM   12  C   UNL     1      -7.594  -0.024 -33.591  1.00  0.00     0.141 C 
BRANCH  12  13
HETATM   13  C   UNL     1      -6.599  -1.115 -33.906  1.00  0.00    -0.049 A 
HETATM   14  C   UNL     1      -5.240  -0.949 -33.613  1.00  0.00     0.010 A 
HETATM   15  C   UNL     1      -4.330  -1.979 -33.867  1.00  0.00     0.037 A 
HETATM   16  C   UNL     1      -4.759  -3.194 -34.404  1.00  0.00     0.068 A 
HETATM   17  C   UNL     1      -6.108  -3.361 -34.713  1.00  0.00     0.037 A 
HETATM   18  C   UNL     1      -7.022  -2.328 -34.466  1.00  0.00     0.010 A 
BRANCH  16  19
HETATM   19  O   UNL     1      -3.772  -4.122 -34.583  1.00  0.00    -0.356 OA
HETATM   20  C   UNL     1      -3.547  -5.031 -33.512  1.00  0.00     0.210 C 
ENDBRANCH  16  19
ENDBRANCH  12  13
ENDBRANCH   9  12
ENDBRANCH   6   8
BRANCH   7  21
HETATM   21  C   UNL     1      -4.966   4.194 -31.850  1.00  0.00    -0.020 A 
HETATM   22  C   UNL     1      -5.097   5.278 -32.729  1.00  0.00     0.014 A 
HETATM   23  C   UNL     1      -4.036   5.640 -33.565  1.00  0.00     0.020 A 
HETATM   24  C   UNL     1      -2.842   4.923 -33.515  1.00  0.00     0.011 A 
HETATM   25 BR   UNL     1      -1.407   5.414 -34.642  1.00  0.00    -0.051 Br
HETATM   26  C   UNL     1      -2.697   3.850 -32.638  1.00  0.00     0.020 A 
HETATM   27  C   UNL     1      -3.759   3.486 -31.806  1.00  0.00     0.014 A 
ENDBRANCH   7  21
TORSDOF 5
ENDMDL
MODEL 5
REMARK VINA RESULT:      -7.6      3.822      6.414
REMARK  5 active torsions:
REMARK  status: ('A' for Active; 'I' for Inactive)
REMARK    1  A    between atoms: C_6  and  N_7 
REMARK       I    between atoms: N_7  and  C_8 
REMARK    2  A    between atoms: C_8  and  C_9 
REMARK    3  A    between atoms: C_9  and  C_10 
REMARK    4  A    between atoms: C_13  and  O_14 
REMARK    5  A    between atoms: C_19  and  C_20 
ROOT
HETATM    1  C   UNL     1      -2.933   0.126 -31.094  1.00  0.00     0.073 C 
HETATM    2  C   UNL     1      -3.952   1.057 -31.641  1.00  0.00     0.065 A 
HETATM    3  N   UNL     1      -3.963   2.338 -31.251  1.00  0.00    -0.177 NA
HETATM    4  N   UNL     1      -4.981   2.877 -31.944  1.00  0.00    -0.262 N 
HETATM    5  H   UNL     1      -5.204   3.863 -31.828  1.00  0.00     0.191 HD
HETATM    6  C   UNL     1      -5.634   1.986 -32.756  1.00  0.00     0.137 A 
HETATM    7  C   UNL     1      -4.982   0.780 -32.586  1.00  0.00     0.046 A 
ENDROOT
BRANCH   6   8
HETATM    8  N   UNL     1      -6.722   2.318 -33.545  1.00  0.00    -0.311 N 
HETATM    9  C   UNL     1      -7.964   2.623 -33.001  1.00  0.00     0.227 C 
HETATM   10  O   UNL     1      -8.199   2.616 -31.794  1.00  0.00    -0.273 OA
HETATM   11  H   UNL     1      -6.583   2.339 -34.549  1.00  0.00     0.170 HD
BRANCH   9  12
HETATM   12  C   UNL     1      -8.972   3.041 -34.063  1.00  0.00     0.141 C 
BRANCH  12  13
HETATM   13  C   UNL     1     -10.392   2.593 -33.816  1.00  0.00    -0.049 A 
HETATM   14  C   UNL     1     -11.380   3.516 -33.454  1.00  0.00     0.010 A 
HETATM   15  C   UNL     1     -12.702   3.103 -33.268  1.00  0.00     0.037 A 
HETATM   16  C   UNL     1     -13.064   1.768 -33.452  1.00  0.00     0.068 A 
HETATM   17  C   UNL     1     -12.082   0.839 -33.797  1.00  0.00     0.037 A 
HETATM   18  C   UNL     1     -10.755   1.249 -33.977  1.00  0.00     0.010 A 
BRANCH  16  19
HETATM   19  O   UNL     1     -14.391   1.501 -33.260  1.00  0.00    -0.356 OA
HETATM   20  C   UNL     1     -15.034   0.710 -34.250  1.00  0.00     0.210 C 
ENDBRANCH  16  19
ENDBRANCH  12  13
ENDBRANCH   9  12
ENDBRANCH   6   8
BRANCH   7  21
HETATM   21  C   UNL     1      -5.332  -0.457 -33.254  1.00  0.00    -0.020 A 
HETATM   22  C   UNL     1      -4.333  -1.313 -33.736  1.00  0.00     0.014 A 
HETATM   23  C   UNL     1      -4.676  -2.505 -34.379  1.00  0.00     0.020 A 
HETATM   24  C   UNL     1      -6.018  -2.845 -34.534  1.00  0.00     0.011 A 
HETATM   25 BR   UNL     1      -6.483  -4.459 -35.401  1.00  0.00    -0.051 Br
HETATM   26  C   UNL     1      -7.021  -2.007 -34.050  1.00  0.00     0.020 A 
HETATM   27  C   UNL     1      -6.678  -0.813 -33.410  1.00  0.00     0.014 A 
ENDBRANCH   7  21
TORSDOF 5
ENDMDL
MODEL 6
REMARK VINA RESULT:      -7.3      3.716      6.782
REMARK  5 active torsions:
REMARK  status: ('A' for Active; 'I' for Inactive)
REMARK    1  A    between atoms: C_6  and  N_7 
REMARK       I    between atoms: N_7  and  C_8 
REMARK    2  A    between atoms: C_8  and  C_9 
REMARK    3  A    between atoms: C_9  and  C_10 
REMARK    4  A    between atoms: C_13  and  O_14 
REMARK    5  A    between atoms: C_19  and  C_20 
ROOT
HETATM    1  C   UNL     1     -10.179   6.099 -34.985  1.00  0.00     0.073 C 
HETATM    2  C   UNL     1      -9.297   5.041 -34.429  1.00  0.00     0.065 A 
HETATM    3  N   UNL     1      -7.993   5.286 -34.252  1.00  0.00    -0.177 NA
HETATM    4  N   UNL     1      -7.519   4.142 -33.728  1.00  0.00    -0.262 N 
HETATM    5  H   UNL     1      -6.531   4.066 -33.494  1.00  0.00     0.191 HD
HETATM    6  C   UNL     1      -8.469   3.166 -33.574  1.00  0.00     0.137 A 
HETATM    7  C   UNL     1      -9.651   3.723 -34.021  1.00  0.00     0.046 A 
ENDROOT
BRANCH   6   8
HETATM    8  N   UNL     1      -8.201   1.904 -33.070  1.00  0.00    -0.311 N 
HETATM    9  C   UNL     1      -7.299   1.699 -32.034  1.00  0.00     0.227 C 
HETATM   10  O   UNL     1      -6.666   2.604 -31.491  1.00  0.00    -0.273 OA
HETATM   11  H   UNL     1      -8.696   1.121 -33.482  1.00  0.00     0.170 HD
BRANCH   9  12
HETATM   12  C   UNL     1      -7.244   0.241 -31.598  1.00  0.00     0.141 C 
BRANCH  12  13
HETATM   13  C   UNL     1      -6.399  -0.660 -32.466  1.00  0.00    -0.049 A 
HETATM   14  C   UNL     1      -5.047  -0.873 -32.172  1.00  0.00     0.010 A 
HETATM   15  C   UNL     1      -4.281  -1.742 -32.953  1.00  0.00     0.037 A 
HETATM   16  C   UNL     1      -4.850  -2.421 -34.032  1.00  0.00     0.068 A 
HETATM   17  C   UNL     1      -6.192  -2.202 -34.340  1.00  0.00     0.037 A 
HETATM   18  C   UNL     1      -6.961  -1.326 -33.563  1.00  0.00     0.010 A 
BRANCH  16  19
HETATM   19  O   UNL     1      -3.997  -3.255 -34.699  1.00  0.00    -0.356 OA
HETATM   20  C   UNL     1      -3.728  -4.513 -34.093  1.00  0.00     0.210 C 
ENDBRANCH  16  19
ENDBRANCH  12  13
ENDBRANCH   9  12
ENDBRANCH   6   8
BRANCH   7  21
HETATM   21  C   UNL     1     -10.933   3.048 -34.044  1.00  0.00    -0.020 A 
HETATM   22  C   UNL     1     -11.210   2.081 -35.019  1.00  0.00     0.014 A 
HETATM   23  C   UNL     1     -12.448   1.432 -35.038  1.00  0.00     0.020 A 
HETATM   24  C   UNL     1     -13.405   1.744 -34.074  1.00  0.00     0.011 A 
HETATM   25 BR   UNL     1     -15.078   0.864 -34.095  1.00  0.00    -0.051 Br
HETATM   26  C   UNL     1     -13.137   2.696 -33.092  1.00  0.00     0.020 A 
HETATM   27  C   UNL     1     -11.901   3.348 -33.077  1.00  0.00     0.014 A 
ENDBRANCH   7  21
TORSDOF 5
ENDMDL
MODEL 7
REMARK VINA RESULT:      -7.3      3.109      6.481
REMARK  5 active torsions:
REMARK  status: ('A' for Active; 'I' for Inactive)
REMARK    1  A    between atoms: C_6  and  N_7 
REMARK       I    between atoms: N_7  and  C_8 
REMARK    2  A    between atoms: C_8  and  C_9 
REMARK    3  A    between atoms: C_9  and  C_10 
REMARK    4  A    between atoms: C_13  and  O_14 
REMARK    5  A    between atoms: C_19  and  C_20 
ROOT
HETATM    1  C   UNL     1      -8.187   5.682 -29.302  1.00  0.00     0.073 C 
HETATM    2  C   UNL     1      -7.054   4.745 -29.505  1.00  0.00     0.065 A 
HETATM    3  N   UNL     1      -5.933   4.890 -28.787  1.00  0.00    -0.177 NA
HETATM    4  N   UNL     1      -5.148   3.883 -29.208  1.00  0.00    -0.262 N 
HETATM    5  H   UNL     1      -4.219   3.765 -28.809  1.00  0.00     0.191 HD
HETATM    6  C   UNL     1      -5.718   3.103 -30.181  1.00  0.00     0.137 A 
HETATM    7  C   UNL     1      -6.973   3.638 -30.398  1.00  0.00     0.046 A 
ENDROOT
BRANCH   6   8
HETATM    8  N   UNL     1      -5.085   2.023 -30.772  1.00  0.00    -0.311 N 
HETATM    9  C   UNL     1      -4.539   2.095 -32.048  1.00  0.00     0.227 C 
HETATM   10  O   UNL     1      -4.578   3.104 -32.751  1.00  0.00    -0.273 OA
HETATM   11  H   UNL     1      -5.024   1.165 -30.236  1.00  0.00     0.170 HD
BRANCH   9  12
HETATM   12  C   UNL     1      -3.821   0.811 -32.441  1.00  0.00     0.141 C 
BRANCH  12  13
HETATM   13  C   UNL     1      -4.681  -0.225 -33.124  1.00  0.00    -0.049 A 
HETATM   14  C   UNL     1      -4.144  -1.460 -33.506  1.00  0.00     0.010 A 
HETATM   15  C   UNL     1      -4.954  -2.432 -34.098  1.00  0.00     0.037 A 
HETATM   16  C   UNL     1      -6.314  -2.195 -34.309  1.00  0.00     0.068 A 
HETATM   17  C   UNL     1      -6.852  -0.961 -33.945  1.00  0.00     0.037 A 
HETATM   18  C   UNL     1      -6.041   0.017 -33.357  1.00  0.00     0.010 A 
BRANCH  16  19
HETATM   19  O   UNL     1      -6.996  -3.235 -34.877  1.00  0.00    -0.356 OA
HETATM   20  C   UNL     1      -6.261  -4.429 -35.112  1.00  0.00     0.210 C 
ENDBRANCH  16  19
ENDBRANCH  12  13
ENDBRANCH   9  12
ENDBRANCH   6   8
BRANCH   7  21
HETATM   21  C   UNL     1      -7.941   3.131 -31.351  1.00  0.00    -0.020 A 
HETATM   22  C   UNL     1      -8.561   1.892 -31.143  1.00  0.00     0.014 A 
HETATM   23  C   UNL     1      -9.493   1.407 -32.064  1.00  0.00     0.020 A 
HETATM   24  C   UNL     1      -9.812   2.165 -33.189  1.00  0.00     0.011 A 
HETATM   25 BR   UNL     1     -11.075   1.512 -34.433  1.00  0.00    -0.051 Br
HETATM   26  C   UNL     1      -9.209   3.404 -33.401  1.00  0.00     0.020 A 
HETATM   27  C   UNL     1      -8.274   3.886 -32.482  1.00  0.00     0.014 A 
ENDBRANCH   7  21
TORSDOF 5
ENDMDL
MODEL 8
REMARK VINA RESULT:      -7.3      3.565      5.457
REMARK  5 active torsions:
REMARK  status: ('A' for Active; 'I' for Inactive)
REMARK    1  A    between atoms: C_6  and  N_7 
REMARK       I    between atoms: N_7  and  C_8 
REMARK    2  A    between atoms: C_8  and  C_9 
REMARK    3  A    between atoms: C_9  and  C_10 
REMARK    4  A    between atoms: C_13  and  O_14 
REMARK    5  A    between atoms: C_19  and  C_20 
ROOT
HETATM    1  C   UNL     1      -9.264   1.693 -31.709  1.00  0.00     0.073 C 
HETATM    2  C   UNL     1      -8.011   2.468 -31.893  1.00  0.00     0.065 A 
HETATM    3  N   UNL     1      -7.938   3.732 -31.455  1.00  0.00    -0.177 NA
HETATM    4  N   UNL     1      -6.686   4.109 -31.766  1.00  0.00    -0.262 N 
HETATM    5  H   UNL     1      -6.368   5.047 -31.532  1.00  0.00     0.191 HD
HETATM    6  C   UNL     1      -5.955   3.138 -32.401  1.00  0.00     0.137 A 
HETATM    7  C   UNL     1      -6.793   2.045 -32.498  1.00  0.00     0.046 A 
ENDROOT
BRANCH   6   8
HETATM    8  N   UNL     1      -4.649   3.314 -32.828  1.00  0.00    -0.311 N 
HETATM    9  C   UNL     1      -4.234   4.469 -33.479  1.00  0.00     0.227 C 
HETATM   10  O   UNL     1      -4.980   5.414 -33.734  1.00  0.00    -0.273 OA
HETATM   11  H   UNL     1      -3.992   2.565 -32.644  1.00  0.00     0.170 HD
BRANCH   9  12
HETATM   12  C   UNL     1      -2.739   4.462 -33.769  1.00  0.00     0.141 C 
BRANCH  12  13
HETATM   13  C   UNL     1      -1.886   5.212 -32.774  1.00  0.00    -0.049 A 
HETATM   14  C   UNL     1      -1.694   4.714 -31.480  1.00  0.00     0.010 A 
HETATM   15  C   UNL     1      -0.869   5.390 -30.577  1.00  0.00     0.037 A 
HETATM   16  C   UNL     1      -0.213   6.564 -30.951  1.00  0.00     0.068 A 
HETATM   17  C   UNL     1      -0.412   7.074 -32.234  1.00  0.00     0.037 A 
HETATM   18  C   UNL     1      -1.244   6.403 -33.138  1.00  0.00     0.010 A 
BRANCH  16  19
HETATM   19  O   UNL     1       0.579   7.113 -29.982  1.00  0.00    -0.356 OA
HETATM   20  C   UNL     1       0.523   6.511 -28.694  1.00  0.00     0.210 C 
ENDBRANCH  16  19
ENDBRANCH  12  13
ENDBRANCH   9  12
ENDBRANCH   6   8
BRANCH   7  21
HETATM   21  C   UNL     1      -6.439   0.776 -33.103  1.00  0.00    -0.020 A 
HETATM   22  C   UNL     1      -5.548  -0.094 -32.462  1.00  0.00     0.014 A 
HETATM   23  C   UNL     1      -5.210  -1.316 -33.049  1.00  0.00     0.020 A 
HETATM   24  C   UNL     1      -5.770  -1.672 -34.274  1.00  0.00     0.011 A 
HETATM   25 BR   UNL     1      -5.316  -3.326 -35.068  1.00  0.00    -0.051 Br
HETATM   26  C   UNL     1      -6.665  -0.819 -34.917  1.00  0.00     0.020 A 
HETATM   27  C   UNL     1      -7.000   0.405 -34.331  1.00  0.00     0.014 A 
ENDBRANCH   7  21
TORSDOF 5
ENDMDL
MODEL 9
REMARK VINA RESULT:      -7.3      5.836      8.151
REMARK  5 active torsions:
REMARK  status: ('A' for Active; 'I' for Inactive)
REMARK    1  A    between atoms: C_6  and  N_7 
REMARK       I    between atoms: N_7  and  C_8 
REMARK    2  A    between atoms: C_8  and  C_9 
REMARK    3  A    between atoms: C_9  and  C_10 
REMARK    4  A    between atoms: C_13  and  O_14 
REMARK    5  A    between atoms: C_19  and  C_20 
ROOT
HETATM    1  C   UNL     1      -3.311   5.509 -34.948  1.00  0.00     0.073 C 
HETATM    2  C   UNL     1      -2.389   5.809 -33.825  1.00  0.00     0.065 A 
HETATM    3  N   UNL     1      -1.425   6.726 -33.980  1.00  0.00    -0.177 NA
HETATM    4  N   UNL     1      -0.808   6.751 -32.786  1.00  0.00    -0.262 N 
HETATM    5  H   UNL     1      -0.024   7.382 -32.636  1.00  0.00     0.191 HD
HETATM    6  C   UNL     1      -1.332   5.873 -31.872  1.00  0.00     0.137 A 
HETATM    7  C   UNL     1      -2.375   5.240 -32.519  1.00  0.00     0.046 A 
ENDROOT
BRANCH   6   8
HETATM    8  N   UNL     1      -0.842   5.718 -30.586  1.00  0.00    -0.311 N 
HETATM    9  C   UNL     1       0.407   5.165 -30.333  1.00  0.00     0.227 C 
HETATM   10  O   UNL     1       1.167   4.766 -31.215  1.00  0.00    -0.273 OA
HETATM   11  H   UNL     1      -1.429   6.031 -29.821  1.00  0.00     0.170 HD
BRANCH   9  12
HETATM   12  C   UNL     1       0.756   5.183 -28.851  1.00  0.00     0.141 C 
BRANCH  12  13
HETATM   13  C   UNL     1       0.399   6.455 -28.120  1.00  0.00    -0.049 A 
HETATM   14  C   UNL     1      -0.489   6.431 -27.038  1.00  0.00     0.010 A 
HETATM   15  C   UNL     1      -0.782   7.604 -26.337  1.00  0.00     0.037 A 
HETATM   16  C   UNL     1      -0.188   8.816 -26.694  1.00  0.00     0.068 A 
HETATM   17  C   UNL     1       0.685   8.849 -27.781  1.00  0.00     0.037 A 
HETATM   18  C   UNL     1       0.976   7.677 -28.489  1.00  0.00     0.010 A 
BRANCH  16  19
HETATM   19  O   UNL     1      -0.545   9.881 -25.916  1.00  0.00    -0.356 OA
HETATM   20  C   UNL     1       0.484  10.807 -25.589  1.00  0.00     0.210 C 
ENDBRANCH  16  19
ENDBRANCH  12  13
ENDBRANCH   9  12
ENDBRANCH   6   8
BRANCH   7  21
HETATM   21  C   UNL     1      -3.223   4.222 -31.932  1.00  0.00    -0.020 A 
HETATM   22  C   UNL     1      -2.991   2.865 -32.193  1.00  0.00     0.014 A 
HETATM   23  C   UNL     1      -3.812   1.887 -31.624  1.00  0.00     0.020 A 
HETATM   24  C   UNL     1      -4.859   2.267 -30.787  1.00  0.00     0.011 A 
HETATM   25 BR   UNL     1      -5.967   0.945 -30.014  1.00  0.00    -0.051 Br
HETATM   26  C   UNL     1      -5.093   3.612 -30.511  1.00  0.00     0.020 A 
HETATM   27  C   UNL     1      -4.275   4.590 -31.084  1.00  0.00     0.014 A 
ENDBRANCH   7  21
TORSDOF 5
ENDMDL
MODEL 10
REMARK VINA RESULT:      -7.2      2.512      6.387
REMARK  5 active torsions:
REMARK  status: ('A' for Active; 'I' for Inactive)
REMARK    1  A    between atoms: C_6  and  N_7 
REMARK       I    between atoms: N_7  and  C_8 
REMARK    2  A    between atoms: C_8  and  C_9 
REMARK    3  A    between atoms: C_9  and  C_10 
REMARK    4  A    between atoms: C_13  and  O_14 
REMARK    5  A    between atoms: C_19  and  C_20 
ROOT
HETATM    1  C   UNL     1      -5.191   5.444 -32.240  1.00  0.00     0.073 C 
HETATM    2  C   UNL     1      -4.453   4.208 -31.876  1.00  0.00     0.065 A 
HETATM    3  N   UNL     1      -3.175   4.285 -31.484  1.00  0.00    -0.177 NA
HETATM    4  N   UNL     1      -2.840   3.010 -31.223  1.00  0.00    -0.262 N 
HETATM    5  H   UNL     1      -1.901   2.791 -30.899  1.00  0.00     0.191 HD
HETATM    6  C   UNL     1      -3.853   2.113 -31.446  1.00  0.00     0.137 A 
HETATM    7  C   UNL     1      -4.930   2.866 -31.872  1.00  0.00     0.046 A 
ENDROOT
BRANCH   6   8
HETATM    8  N   UNL     1      -3.726   0.747 -31.261  1.00  0.00    -0.311 N 
HETATM    9  C   UNL     1      -2.961  -0.045 -32.108  1.00  0.00     0.227 C 
HETATM   10  O   UNL     1      -2.348   0.391 -33.081  1.00  0.00    -0.273 OA
HETATM   11  H   UNL     1      -4.211   0.334 -30.472  1.00  0.00     0.170 HD
BRANCH   9  12
HETATM   12  C   UNL     1      -2.905  -1.496 -31.647  1.00  0.00     0.141 C 
BRANCH  12  13
HETATM   13  C   UNL     1      -3.594  -2.487 -32.553  1.00  0.00    -0.049 A 
HETATM   14  C   UNL     1      -4.553  -2.062 -33.480  1.00  0.00     0.010 A 
HETATM   15  C   UNL     1      -5.156  -2.977 -34.346  1.00  0.00     0.037 A 
HETATM   16  C   UNL     1      -4.806  -4.328 -34.313  1.00  0.00     0.068 A 
HETATM   17  C   UNL     1      -3.863  -4.762 -33.381  1.00  0.00     0.037 A 
HETATM   18  C   UNL     1      -3.262  -3.848 -32.507  1.00  0.00     0.010 A 
BRANCH  16  19
HETATM   19  O   UNL     1      -5.454  -5.112 -35.226  1.00  0.00    -0.356 OA
HETATM   20  C   UNL     1      -6.764  -4.705 -35.601  1.00  0.00     0.210 C 
ENDBRANCH  16  19
ENDBRANCH  12  13
ENDBRANCH   9  12
ENDBRANCH   6   8
BRANCH   7  21
HETATM   21  C   UNL     1      -6.230   2.333 -32.226  1.00  0.00    -0.020 A 
HETATM   22  C   UNL     1      -7.220   2.163 -31.249  1.00  0.00     0.014 A 
HETATM   23  C   UNL     1      -8.472   1.648 -31.594  1.00  0.00     0.020 A 
HETATM   24  C   UNL     1      -8.738   1.312 -32.920  1.00  0.00     0.011 A 
HETATM   25 BR   UNL     1     -10.432   0.619 -33.390  1.00  0.00    -0.051 Br
HETATM   26  C   UNL     1      -7.766   1.486 -33.903  1.00  0.00     0.020 A 
HETATM   27  C   UNL     1      -6.512   1.996 -33.556  1.00  0.00     0.014 A 
ENDBRANCH   7  21
TORSDOF 5
ENDMDL
