MODEL 1
REMARK VINA RESULT:      -9.8      0.000      0.000
REMARK  7 active torsions:
REMARK  status: ('A' for Active; 'I' for Inactive)
REMARK    1  A    between atoms: C_7  and  C_8 
REMARK    2  A    between atoms: C_8  and  C_9 
REMARK       I    between atoms: C_9  and  N_10 
REMARK    3  A    between atoms: N_10  and  N_11 
REMARK       I    between atoms: N_11  and  C_12 
REMARK    4  A    between atoms: C_12  and  C_13 
REMARK    5  A    between atoms: C_23  and  O_24 
REMARK    6  A    between atoms: O_24  and  C_25 
REMARK    7  A    between atoms: C_25  and  C_26 
ROOT
HETATM    1  C   UNL     1      -6.242   3.994 -34.091  1.00  0.00     0.068 C 
HETATM    2  C   UNL     1      -4.927   4.513 -33.633  1.00  0.00     0.013 A 
HETATM    3  N   UNL     1      -4.257   5.488 -34.328  1.00  0.00    -0.359 N 
HETATM    4  H   UNL     1      -4.584   5.926 -35.179  1.00  0.00     0.166 HD
HETATM    5  C   UNL     1      -3.071   5.798 -33.706  1.00  0.00     0.043 A 
HETATM    6  C   UNL     1      -2.978   4.992 -32.574  1.00  0.00     0.002 A 
HETATM    7  C   UNL     1      -4.150   4.169 -32.536  1.00  0.00    -0.015 A 
HETATM    8  C   UNL     1      -2.085   6.724 -34.059  1.00  0.00     0.033 A 
HETATM    9  C   UNL     1      -0.966   6.838 -33.223  1.00  0.00     0.039 A 
HETATM   10  C   UNL     1      -0.841   6.056 -32.076  1.00  0.00     0.070 A 
HETATM   11  C   UNL     1      -1.839   5.127 -31.752  1.00  0.00     0.051 A 
ENDROOT
BRANCH   7  12
HETATM   12  C   UNL     1      -4.473   3.132 -31.502  1.00  0.00     0.146 C 
BRANCH  12  13
HETATM   13  C   UNL     1      -4.389   1.697 -31.995  1.00  0.00     0.240 C 
HETATM   14  N   UNL     1      -5.588   1.030 -32.139  1.00  0.00    -0.267 N 
HETATM   15  H   UNL     1      -6.460   1.365 -31.729  1.00  0.00     0.190 HD
HETATM   16  O   UNL     1      -3.312   1.192 -32.326  1.00  0.00    -0.272 OA
BRANCH  14  17
HETATM   17  N   UNL     1      -5.560  -0.304 -32.543  1.00  0.00    -0.262 N 
HETATM   18  C   UNL     1      -5.915  -0.640 -33.832  1.00  0.00     0.288 C 
HETATM   19  O   UNL     1      -6.322   0.169 -34.661  1.00  0.00    -0.264 OA
HETATM   20  H   UNL     1      -5.226  -1.010 -31.883  1.00  0.00     0.190 HD
BRANCH  18  21
HETATM   21  C   UNL     1      -5.754  -2.094 -34.149  1.00  0.00     0.125 A 
HETATM   22  N   UNL     1      -4.516  -2.625 -33.945  1.00  0.00    -0.255 NA
HETATM   23  C   UNL     1      -4.367  -3.933 -34.246  1.00  0.00     0.117 A 
HETATM   24  C   UNL     1      -5.386  -4.733 -34.741  1.00  0.00     0.019 A 
HETATM   25  C   UNL     1      -6.641  -4.163 -34.939  1.00  0.00     0.004 A 
HETATM   26  C   UNL     1      -6.834  -2.818 -34.639  1.00  0.00     0.037 A 
ENDBRANCH  18  21
ENDBRANCH  14  17
ENDBRANCH  12  13
ENDBRANCH   7  12
BRANCH  10  27
HETATM   27  O   UNL     1       0.198   6.096 -31.184  1.00  0.00    -0.347 OA
BRANCH  27  28
HETATM   28  C   UNL     1      -0.009   5.482 -29.911  1.00  0.00     0.214 C 
BRANCH  28  29
HETATM   29  C   UNL     1       0.339   6.431 -28.784  1.00  0.00    -0.034 A 
HETATM   30  C   UNL     1       0.125   6.100 -27.438  1.00  0.00     0.009 A 
HETATM   31  C   UNL     1       0.485   6.987 -26.421  1.00  0.00     0.001 A 
HETATM   32  C   UNL     1       1.073   8.210 -26.735  1.00  0.00     0.000 A 
HETATM   33  C   UNL     1       1.307   8.546 -28.066  1.00  0.00     0.001 A 
HETATM   34  C   UNL     1       0.947   7.662 -29.084  1.00  0.00     0.009 A 
ENDBRANCH  28  29
ENDBRANCH  27  28
ENDBRANCH  10  27
TORSDOF 7
ENDMDL
MODEL 2
REMARK VINA RESULT:      -9.8      2.419     10.194
REMARK  7 active torsions:
REMARK  status: ('A' for Active; 'I' for Inactive)
REMARK    1  A    between atoms: C_7  and  C_8 
REMARK    2  A    between atoms: C_8  and  C_9 
REMARK       I    between atoms: C_9  and  N_10 
REMARK    3  A    between atoms: N_10  and  N_11 
REMARK       I    between atoms: N_11  and  C_12 
REMARK    4  A    between atoms: C_12  and  C_13 
REMARK    5  A    between atoms: C_23  and  O_24 
REMARK    6  A    between atoms: O_24  and  C_25 
REMARK    7  A    between atoms: C_25  and  C_26 
ROOT
HETATM    1  C   UNL     1      -4.870   6.190 -32.172  1.00  0.00     0.068 C 
HETATM    2  C   UNL     1      -4.850   4.708 -32.054  1.00  0.00     0.013 A 
HETATM    3  N   UNL     1      -5.888   4.019 -31.479  1.00  0.00    -0.359 N 
HETATM    4  H   UNL     1      -6.727   4.439 -31.101  1.00  0.00     0.166 HD
HETATM    5  C   UNL     1      -5.637   2.668 -31.490  1.00  0.00     0.043 A 
HETATM    6  C   UNL     1      -4.393   2.486 -32.090  1.00  0.00     0.002 A 
HETATM    7  C   UNL     1      -3.890   3.783 -32.437  1.00  0.00    -0.015 A 
HETATM    8  C   UNL     1      -6.411   1.605 -31.017  1.00  0.00     0.033 A 
HETATM    9  C   UNL     1      -5.903   0.307 -31.168  1.00  0.00     0.039 A 
HETATM   10  C   UNL     1      -4.666   0.084 -31.773  1.00  0.00     0.070 A 
HETATM   11  C   UNL     1      -3.906   1.170 -32.227  1.00  0.00     0.051 A 
ENDROOT
BRANCH   7  12
HETATM   12  C   UNL     1      -2.574   4.078 -33.090  1.00  0.00     0.146 C 
BRANCH  12  13
HETATM   13  C   UNL     1      -1.581   4.822 -32.211  1.00  0.00     0.240 C 
HETATM   14  N   UNL     1      -1.619   4.528 -30.864  1.00  0.00    -0.267 N 
HETATM   15  H   UNL     1      -2.398   4.033 -30.427  1.00  0.00     0.190 HD
HETATM   16  O   UNL     1      -0.737   5.582 -32.695  1.00  0.00    -0.272 OA
BRANCH  14  17
HETATM   17  N   UNL     1      -0.761   5.220 -30.010  1.00  0.00    -0.262 N 
HETATM   18  C   UNL     1      -1.170   6.405 -29.437  1.00  0.00     0.288 C 
HETATM   19  O   UNL     1      -2.248   6.943 -29.677  1.00  0.00    -0.264 OA
HETATM   20  H   UNL     1       0.145   4.806 -29.783  1.00  0.00     0.190 HD
BRANCH  18  21
HETATM   21  C   UNL     1      -0.183   6.991 -28.478  1.00  0.00     0.125 A 
HETATM   22  N   UNL     1      -0.193   6.484 -27.213  1.00  0.00    -0.255 NA
HETATM   23  C   UNL     1       0.687   7.024 -26.343  1.00  0.00     0.117 A 
HETATM   24  C   UNL     1       1.571   8.041 -26.669  1.00  0.00     0.019 A 
HETATM   25  C   UNL     1       1.559   8.540 -27.969  1.00  0.00     0.004 A 
HETATM   26  C   UNL     1       0.667   8.008 -28.896  1.00  0.00     0.037 A 
ENDBRANCH  18  21
ENDBRANCH  14  17
ENDBRANCH  12  13
ENDBRANCH   7  12
BRANCH  10  27
HETATM   27  O   UNL     1      -4.084  -1.138 -31.985  1.00  0.00    -0.347 OA
BRANCH  27  28
HETATM   28  C   UNL     1      -3.739  -1.472 -33.330  1.00  0.00     0.214 C 
BRANCH  28  29
HETATM   29  C   UNL     1      -4.651  -2.552 -33.874  1.00  0.00    -0.034 A 
HETATM   30  C   UNL     1      -5.948  -2.272 -34.328  1.00  0.00     0.009 A 
HETATM   31  C   UNL     1      -6.753  -3.286 -34.852  1.00  0.00     0.001 A 
HETATM   32  C   UNL     1      -6.268  -4.590 -34.940  1.00  0.00     0.000 A 
HETATM   33  C   UNL     1      -4.976  -4.880 -34.508  1.00  0.00     0.001 A 
HETATM   34  C   UNL     1      -4.170  -3.867 -33.983  1.00  0.00     0.009 A 
ENDBRANCH  28  29
ENDBRANCH  27  28
ENDBRANCH  10  27
TORSDOF 7
ENDMDL
MODEL 3
REMARK VINA RESULT:      -9.7      4.431      7.303
REMARK  7 active torsions:
REMARK  status: ('A' for Active; 'I' for Inactive)
REMARK    1  A    between atoms: C_7  and  C_8 
REMARK    2  A    between atoms: C_8  and  C_9 
REMARK       I    between atoms: C_9  and  N_10 
REMARK    3  A    between atoms: N_10  and  N_11 
REMARK       I    between atoms: N_11  and  C_12 
REMARK    4  A    between atoms: C_12  and  C_13 
REMARK    5  A    between atoms: C_23  and  O_24 
REMARK    6  A    between atoms: O_24  and  C_25 
REMARK    7  A    between atoms: C_25  and  C_26 
ROOT
HETATM    1  C   UNL     1      -6.746  -3.140 -34.959  1.00  0.00     0.068 C 
HETATM    2  C   UNL     1      -6.114  -1.970 -34.294  1.00  0.00     0.013 A 
HETATM    3  N   UNL     1      -5.019  -2.111 -33.480  1.00  0.00    -0.359 N 
HETATM    4  H   UNL     1      -4.560  -2.987 -33.268  1.00  0.00     0.166 HD
HETATM    5  C   UNL     1      -4.622  -0.891 -32.987  1.00  0.00     0.043 A 
HETATM    6  C   UNL     1      -5.495   0.064 -33.502  1.00  0.00     0.002 A 
HETATM    7  C   UNL     1      -6.449  -0.624 -34.322  1.00  0.00    -0.015 A 
HETATM    8  C   UNL     1      -3.565  -0.566 -32.133  1.00  0.00     0.033 A 
HETATM    9  C   UNL     1      -3.386   0.783 -31.797  1.00  0.00     0.039 A 
HETATM   10  C   UNL     1      -4.233   1.769 -32.300  1.00  0.00     0.070 A 
HETATM   11  C   UNL     1      -5.293   1.414 -33.146  1.00  0.00     0.051 A 
ENDROOT
BRANCH   7  12
HETATM   12  C   UNL     1      -7.591  -0.001 -35.067  1.00  0.00     0.146 C 
BRANCH  12  13
HETATM   13  C   UNL     1      -8.791   0.356 -34.206  1.00  0.00     0.240 C 
HETATM   14  N   UNL     1      -9.742   1.168 -34.789  1.00  0.00    -0.267 N 
HETATM   15  H   UNL     1      -9.567   1.699 -35.642  1.00  0.00     0.190 HD
HETATM   16  O   UNL     1      -8.941  -0.127 -33.079  1.00  0.00    -0.272 OA
BRANCH  14  17
HETATM   17  N   UNL     1     -10.837   1.563 -34.021  1.00  0.00    -0.262 N 
HETATM   18  C   UNL     1     -12.079   1.684 -34.608  1.00  0.00     0.288 C 
HETATM   19  O   UNL     1     -12.286   1.521 -35.807  1.00  0.00    -0.264 OA
HETATM   20  H   UNL     1     -10.707   1.707 -33.018  1.00  0.00     0.190 HD
BRANCH  18  21
HETATM   21  C   UNL     1     -13.174   2.029 -33.649  1.00  0.00     0.125 A 
HETATM   22  N   UNL     1     -14.330   1.316 -33.766  1.00  0.00    -0.255 NA
HETATM   23  C   UNL     1     -15.324   1.638 -32.911  1.00  0.00     0.117 A 
HETATM   24  C   UNL     1     -15.224   2.633 -31.950  1.00  0.00     0.019 A 
HETATM   25  C   UNL     1     -14.031   3.345 -31.852  1.00  0.00     0.004 A 
HETATM   26  C   UNL     1     -12.983   3.041 -32.715  1.00  0.00     0.037 A 
ENDBRANCH  18  21
ENDBRANCH  14  17
ENDBRANCH  12  13
ENDBRANCH   7  12
BRANCH  10  27
HETATM   27  O   UNL     1      -4.140   3.113 -32.051  1.00  0.00    -0.347 OA
BRANCH  27  28
HETATM   28  C   UNL     1      -2.913   3.591 -31.498  1.00  0.00     0.214 C 
BRANCH  28  29
HETATM   29  C   UNL     1      -2.243   4.578 -32.431  1.00  0.00    -0.034 A 
HETATM   30  C   UNL     1      -2.335   4.465 -33.826  1.00  0.00     0.009 A 
HETATM   31  C   UNL     1      -1.729   5.408 -34.658  1.00  0.00     0.001 A 
HETATM   32  C   UNL     1      -1.035   6.484 -34.107  1.00  0.00     0.000 A 
HETATM   33  C   UNL     1      -0.949   6.619 -32.724  1.00  0.00     0.001 A 
HETATM   34  C   UNL     1      -1.553   5.676 -31.890  1.00  0.00     0.009 A 
ENDBRANCH  28  29
ENDBRANCH  27  28
ENDBRANCH  10  27
TORSDOF 7
ENDMDL
MODEL 4
REMARK VINA RESULT:      -9.4      3.614     10.037
REMARK  7 active torsions:
REMARK  status: ('A' for Active; 'I' for Inactive)
REMARK    1  A    between atoms: C_7  and  C_8 
REMARK    2  A    between atoms: C_8  and  C_9 
REMARK       I    between atoms: C_9  and  N_10 
REMARK    3  A    between atoms: N_10  and  N_11 
REMARK       I    between atoms: N_11  and  C_12 
REMARK    4  A    between atoms: C_12  and  C_13 
REMARK    5  A    between atoms: C_23  and  O_24 
REMARK    6  A    between atoms: O_24  and  C_25 
REMARK    7  A    between atoms: C_25  and  C_26 
ROOT
HETATM    1  C   UNL     1      -3.511  -2.534 -32.440  1.00  0.00     0.068 C 
HETATM    2  C   UNL     1      -4.621  -1.650 -32.884  1.00  0.00     0.013 A 
HETATM    3  N   UNL     1      -5.237  -1.825 -34.097  1.00  0.00    -0.359 N 
HETATM    4  H   UNL     1      -5.005  -2.543 -34.771  1.00  0.00     0.166 HD
HETATM    5  C   UNL     1      -6.227  -0.889 -34.276  1.00  0.00     0.043 A 
HETATM    6  C   UNL     1      -6.243  -0.085 -33.139  1.00  0.00     0.002 A 
HETATM    7  C   UNL     1      -5.215  -0.561 -32.262  1.00  0.00    -0.015 A 
HETATM    8  C   UNL     1      -7.101  -0.697 -35.350  1.00  0.00     0.033 A 
HETATM    9  C   UNL     1      -8.031   0.348 -35.259  1.00  0.00     0.039 A 
HETATM   10  C   UNL     1      -8.084   1.169 -34.133  1.00  0.00     0.070 A 
HETATM   11  C   UNL     1      -7.188   0.961 -33.075  1.00  0.00     0.051 A 
ENDROOT
BRANCH   7  12
HETATM   12  C   UNL     1      -4.854   0.011 -30.924  1.00  0.00     0.146 C 
BRANCH  12  13
HETATM   13  C   UNL     1      -3.679   0.976 -30.944  1.00  0.00     0.240 C 
HETATM   14  N   UNL     1      -3.988   2.317 -30.849  1.00  0.00    -0.267 N 
HETATM   15  H   UNL     1      -4.931   2.678 -30.994  1.00  0.00     0.190 HD
HETATM   16  O   UNL     1      -2.513   0.569 -30.958  1.00  0.00    -0.272 OA
BRANCH  14  17
HETATM   17  N   UNL     1      -2.948   3.243 -30.911  1.00  0.00    -0.262 N 
HETATM   18  C   UNL     1      -2.755   3.985 -32.057  1.00  0.00     0.288 C 
HETATM   19  O   UNL     1      -3.419   3.845 -33.080  1.00  0.00    -0.264 OA
HETATM   20  H   UNL     1      -2.372   3.391 -30.079  1.00  0.00     0.190 HD
BRANCH  18  21
HETATM   21  C   UNL     1      -1.660   4.998 -31.949  1.00  0.00     0.125 A 
HETATM   22  N   UNL     1      -0.637   4.698 -31.101  1.00  0.00    -0.255 NA
HETATM   23  C   UNL     1       0.344   5.619 -30.993  1.00  0.00     0.117 A 
HETATM   24  C   UNL     1       0.354   6.822 -31.683  1.00  0.00     0.019 A 
HETATM   25  C   UNL     1      -0.704   7.102 -32.543  1.00  0.00     0.004 A 
HETATM   26  C   UNL     1      -1.734   6.176 -32.684  1.00  0.00     0.037 A 
ENDBRANCH  18  21
ENDBRANCH  14  17
ENDBRANCH  12  13
ENDBRANCH   7  12
BRANCH  10  27
HETATM   27  O   UNL     1      -8.958   2.204 -33.933  1.00  0.00    -0.347 OA
BRANCH  27  28
HETATM   28  C   UNL     1      -9.842   2.106 -32.815  1.00  0.00     0.214 C 
BRANCH  28  29
HETATM   29  C   UNL     1     -11.272   1.903 -33.267  1.00  0.00    -0.034 A 
HETATM   30  C   UNL     1     -12.149   2.979 -33.471  1.00  0.00     0.009 A 
HETATM   31  C   UNL     1     -13.454   2.760 -33.916  1.00  0.00     0.001 A 
HETATM   32  C   UNL     1     -13.896   1.464 -34.176  1.00  0.00     0.000 A 
HETATM   33  C   UNL     1     -13.032   0.387 -33.995  1.00  0.00     0.001 A 
HETATM   34  C   UNL     1     -11.728   0.605 -33.548  1.00  0.00     0.009 A 
ENDBRANCH  28  29
ENDBRANCH  27  28
ENDBRANCH  10  27
TORSDOF 7
ENDMDL
MODEL 5
REMARK VINA RESULT:      -9.2      2.317      9.852
REMARK  7 active torsions:
REMARK  status: ('A' for Active; 'I' for Inactive)
REMARK    1  A    between atoms: C_7  and  C_8 
REMARK    2  A    between atoms: C_8  and  C_9 
REMARK       I    between atoms: C_9  and  N_10 
REMARK    3  A    between atoms: N_10  and  N_11 
REMARK       I    between atoms: N_11  and  C_12 
REMARK    4  A    between atoms: C_12  and  C_13 
REMARK    5  A    between atoms: C_23  and  O_24 
REMARK    6  A    between atoms: O_24  and  C_25 
REMARK    7  A    between atoms: C_25  and  C_26 
ROOT
HETATM    1  C   UNL     1      -8.165   5.402 -33.514  1.00  0.00     0.068 C 
HETATM    2  C   UNL     1      -7.579   4.082 -33.165  1.00  0.00     0.013 A 
HETATM    3  N   UNL     1      -8.308   3.125 -32.505  1.00  0.00    -0.359 N 
HETATM    4  H   UNL     1      -9.270   3.225 -32.211  1.00  0.00     0.166 HD
HETATM    5  C   UNL     1      -7.550   1.997 -32.299  1.00  0.00     0.043 A 
HETATM    6  C   UNL     1      -6.291   2.242 -32.843  1.00  0.00     0.002 A 
HETATM    7  C   UNL     1      -6.308   3.570 -33.381  1.00  0.00    -0.015 A 
HETATM    8  C   UNL     1      -7.882   0.790 -31.677  1.00  0.00     0.033 A 
HETATM    9  C   UNL     1      -6.899  -0.207 -31.614  1.00  0.00     0.039 A 
HETATM   10  C   UNL     1      -5.631  -0.003 -32.156  1.00  0.00     0.070 A 
HETATM   11  C   UNL     1      -5.321   1.221 -32.764  1.00  0.00     0.051 A 
ENDROOT
BRANCH   7  12
HETATM   12  C   UNL     1      -5.165   4.269 -34.053  1.00  0.00     0.146 C 
BRANCH  12  13
HETATM   13  C   UNL     1      -4.357   5.181 -33.142  1.00  0.00     0.240 C 
HETATM   14  N   UNL     1      -3.863   4.609 -31.988  1.00  0.00    -0.267 N 
HETATM   15  H   UNL     1      -4.196   3.715 -31.628  1.00  0.00     0.190 HD
HETATM   16  O   UNL     1      -4.091   6.342 -33.467  1.00  0.00    -0.272 OA
BRANCH  14  17
HETATM   17  N   UNL     1      -3.156   5.418 -31.098  1.00  0.00    -0.262 N 
HETATM   18  C   UNL     1      -1.778   5.387 -31.087  1.00  0.00     0.288 C 
HETATM   19  O   UNL     1      -1.107   4.635 -31.787  1.00  0.00    -0.264 OA
HETATM   20  H   UNL     1      -3.678   6.060 -30.499  1.00  0.00     0.190 HD
BRANCH  18  21
HETATM   21  C   UNL     1      -1.155   6.368 -30.145  1.00  0.00     0.125 A 
HETATM   22  N   UNL     1      -2.011   7.102 -29.380  1.00  0.00    -0.255 NA
HETATM   23  C   UNL     1      -1.449   7.998 -28.541  1.00  0.00     0.117 A 
HETATM   24  C   UNL     1      -0.082   8.199 -28.429  1.00  0.00     0.019 A 
HETATM   25  C   UNL     1       0.769   7.434 -29.222  1.00  0.00     0.004 A 
HETATM   26  C   UNL     1       0.228   6.498 -30.098  1.00  0.00     0.037 A 
ENDBRANCH  18  21
ENDBRANCH  14  17
ENDBRANCH  12  13
ENDBRANCH   7  12
BRANCH  10  27
HETATM   27  O   UNL     1      -4.605  -0.910 -32.164  1.00  0.00    -0.347 OA
BRANCH  27  28
HETATM   28  C   UNL     1      -4.083  -1.294 -33.437  1.00  0.00     0.214 C 
BRANCH  28  29
HETATM   29  C   UNL     1      -4.784  -2.530 -33.962  1.00  0.00    -0.034 A 
HETATM   30  C   UNL     1      -6.068  -2.476 -34.523  1.00  0.00     0.009 A 
HETATM   31  C   UNL     1      -6.674  -3.630 -35.025  1.00  0.00     0.001 A 
HETATM   32  C   UNL     1      -6.001  -4.849 -34.985  1.00  0.00     0.000 A 
HETATM   33  C   UNL     1      -4.718  -4.915 -34.447  1.00  0.00     0.001 A 
HETATM   34  C   UNL     1      -4.111  -3.763 -33.943  1.00  0.00     0.009 A 
ENDBRANCH  28  29
ENDBRANCH  27  28
ENDBRANCH  10  27
TORSDOF 7
ENDMDL
MODEL 6
REMARK VINA RESULT:      -9.2      5.045      9.271
REMARK  7 active torsions:
REMARK  status: ('A' for Active; 'I' for Inactive)
REMARK    1  A    between atoms: C_7  and  C_8 
REMARK    2  A    between atoms: C_8  and  C_9 
REMARK       I    between atoms: C_9  and  N_10 
REMARK    3  A    between atoms: N_10  and  N_11 
REMARK       I    between atoms: N_11  and  C_12 
REMARK    4  A    between atoms: C_12  and  C_13 
REMARK    5  A    between atoms: C_23  and  O_24 
REMARK    6  A    between atoms: O_24  and  C_25 
REMARK    7  A    between atoms: C_25  and  C_26 
ROOT
HETATM    1  C   UNL     1      -5.850   5.530 -29.397  1.00  0.00     0.068 C 
HETATM    2  C   UNL     1      -6.026   4.207 -30.052  1.00  0.00     0.013 A 
HETATM    3  N   UNL     1      -5.356   3.093 -29.613  1.00  0.00    -0.359 N 
HETATM    4  H   UNL     1      -4.710   3.070 -28.835  1.00  0.00     0.166 HD
HETATM    5  C   UNL     1      -5.685   1.998 -30.375  1.00  0.00     0.043 A 
HETATM    6  C   UNL     1      -6.596   2.427 -31.338  1.00  0.00     0.002 A 
HETATM    7  C   UNL     1      -6.802   3.831 -31.140  1.00  0.00    -0.015 A 
HETATM    8  C   UNL     1      -5.249   0.673 -30.284  1.00  0.00     0.033 A 
HETATM    9  C   UNL     1      -5.765  -0.251 -31.203  1.00  0.00     0.039 A 
HETATM   10  C   UNL     1      -6.686   0.138 -32.175  1.00  0.00     0.070 A 
HETATM   11  C   UNL     1      -7.097   1.476 -32.251  1.00  0.00     0.051 A 
ENDROOT
BRANCH   7  12
HETATM   12  C   UNL     1      -7.690   4.722 -31.955  1.00  0.00     0.146 C 
BRANCH  12  13
HETATM   13  C   UNL     1      -9.150   4.301 -31.989  1.00  0.00     0.240 C 
HETATM   14  N   UNL     1      -9.611   3.787 -33.183  1.00  0.00    -0.267 N 
HETATM   15  H   UNL     1      -9.102   3.890 -34.062  1.00  0.00     0.190 HD
HETATM   16  O   UNL     1      -9.855   4.343 -30.976  1.00  0.00    -0.272 OA
BRANCH  14  17
HETATM   17  N   UNL     1     -10.956   3.433 -33.278  1.00  0.00    -0.262 N 
HETATM   18  C   UNL     1     -11.307   2.116 -33.485  1.00  0.00     0.288 C 
HETATM   19  O   UNL     1     -10.494   1.211 -33.654  1.00  0.00    -0.264 OA
HETATM   20  H   UNL     1     -11.665   4.156 -33.141  1.00  0.00     0.190 HD
BRANCH  18  21
HETATM   21  C   UNL     1     -12.783   1.870 -33.477  1.00  0.00     0.125 A 
HETATM   22  N   UNL     1     -13.518   2.623 -32.612  1.00  0.00    -0.255 NA
HETATM   23  C   UNL     1     -14.848   2.390 -32.594  1.00  0.00     0.117 A 
HETATM   24  C   UNL     1     -15.478   1.447 -33.392  1.00  0.00     0.019 A 
HETATM   25  C   UNL     1     -14.701   0.692 -34.267  1.00  0.00     0.004 A 
HETATM   26  C   UNL     1     -13.327   0.905 -34.316  1.00  0.00     0.037 A 
ENDBRANCH  18  21
ENDBRANCH  14  17
ENDBRANCH  12  13
ENDBRANCH   7  12
BRANCH  10  27
HETATM   27  O   UNL     1      -7.264  -0.681 -33.109  1.00  0.00    -0.347 OA
BRANCH  27  28
HETATM   28  C   UNL     1      -6.534  -0.915 -34.314  1.00  0.00     0.214 C 
BRANCH  28  29
HETATM   29  C   UNL     1      -5.992  -2.328 -34.357  1.00  0.00    -0.034 A 
HETATM   30  C   UNL     1      -6.763  -3.408 -34.810  1.00  0.00     0.009 A 
HETATM   31  C   UNL     1      -6.223  -4.695 -34.865  1.00  0.00     0.001 A 
HETATM   32  C   UNL     1      -4.902  -4.917 -34.481  1.00  0.00     0.000 A 
HETATM   33  C   UNL     1      -4.118  -3.851 -34.046  1.00  0.00     0.001 A 
HETATM   34  C   UNL     1      -4.657  -2.564 -33.988  1.00  0.00     0.009 A 
ENDBRANCH  28  29
ENDBRANCH  27  28
ENDBRANCH  10  27
TORSDOF 7
ENDMDL
MODEL 7
REMARK VINA RESULT:      -9.1      3.798      7.587
REMARK  7 active torsions:
REMARK  status: ('A' for Active; 'I' for Inactive)
REMARK    1  A    between atoms: C_7  and  C_8 
REMARK    2  A    between atoms: C_8  and  C_9 
REMARK       I    between atoms: C_9  and  N_10 
REMARK    3  A    between atoms: N_10  and  N_11 
REMARK       I    between atoms: N_11  and  C_12 
REMARK    4  A    between atoms: C_12  and  C_13 
REMARK    5  A    between atoms: C_23  and  O_24 
REMARK    6  A    between atoms: O_24  and  C_25 
REMARK    7  A    between atoms: C_25  and  C_26 
ROOT
HETATM    1  C   UNL     1      -5.572  -3.944 -35.163  1.00  0.00     0.068 C 
HETATM    2  C   UNL     1      -5.286  -2.732 -34.351  1.00  0.00     0.013 A 
HETATM    3  N   UNL     1      -4.072  -2.546 -33.740  1.00  0.00    -0.359 N 
HETATM    4  H   UNL     1      -3.292  -3.188 -33.786  1.00  0.00     0.166 HD
HETATM    5  C   UNL     1      -4.052  -1.355 -33.054  1.00  0.00     0.043 A 
HETATM    6  C   UNL     1      -5.299  -0.759 -33.230  1.00  0.00     0.002 A 
HETATM    7  C   UNL     1      -6.085  -1.640 -34.043  1.00  0.00    -0.015 A 
HETATM    8  C   UNL     1      -3.034  -0.768 -32.298  1.00  0.00     0.033 A 
HETATM    9  C   UNL     1      -3.292   0.477 -31.707  1.00  0.00     0.039 A 
HETATM   10  C   UNL     1      -4.524   1.109 -31.868  1.00  0.00     0.070 A 
HETATM   11  C   UNL     1      -5.532   0.491 -32.621  1.00  0.00     0.051 A 
ENDROOT
BRANCH   7  12
HETATM   12  C   UNL     1      -7.503  -1.418 -34.477  1.00  0.00     0.146 C 
BRANCH  12  13
HETATM   13  C   UNL     1      -7.825   0.011 -34.884  1.00  0.00     0.240 C 
HETATM   14  N   UNL     1      -8.868   0.616 -34.216  1.00  0.00    -0.267 N 
HETATM   15  H   UNL     1      -9.544   0.094 -33.657  1.00  0.00     0.190 HD
HETATM   16  O   UNL     1      -7.132   0.617 -35.707  1.00  0.00    -0.272 OA
BRANCH  14  17
HETATM   17  N   UNL     1      -9.233   1.910 -34.587  1.00  0.00    -0.262 N 
HETATM   18  C   UNL     1     -10.485   2.389 -34.270  1.00  0.00     0.288 C 
HETATM   19  O   UNL     1     -11.352   1.720 -33.716  1.00  0.00    -0.264 OA
HETATM   20  H   UNL     1      -8.539   2.501 -35.050  1.00  0.00     0.190 HD
BRANCH  18  21
HETATM   21  C   UNL     1     -10.706   3.819 -34.653  1.00  0.00     0.125 A 
HETATM   22  N   UNL     1     -11.964   4.152 -35.054  1.00  0.00    -0.255 NA
HETATM   23  C   UNL     1     -12.159   5.438 -35.415  1.00  0.00     0.117 A 
HETATM   24  C   UNL     1     -11.164   6.404 -35.398  1.00  0.00     0.019 A 
HETATM   25  C   UNL     1      -9.888   6.036 -34.983  1.00  0.00     0.004 A 
HETATM   26  C   UNL     1      -9.648   4.719 -34.601  1.00  0.00     0.037 A 
ENDBRANCH  18  21
ENDBRANCH  14  17
ENDBRANCH  12  13
ENDBRANCH   7  12
BRANCH  10  27
HETATM   27  O   UNL     1      -4.876   2.327 -31.349  1.00  0.00    -0.347 OA
BRANCH  27  28
HETATM   28  C   UNL     1      -3.858   3.325 -31.276  1.00  0.00     0.214 C 
BRANCH  28  29
HETATM   29  C   UNL     1      -3.662   4.003 -32.616  1.00  0.00    -0.034 A 
HETATM   30  C   UNL     1      -4.743   4.443 -33.393  1.00  0.00     0.009 A 
HETATM   31  C   UNL     1      -4.527   5.091 -34.611  1.00  0.00     0.001 A 
HETATM   32  C   UNL     1      -3.229   5.320 -35.062  1.00  0.00     0.000 A 
HETATM   33  C   UNL     1      -2.144   4.903 -34.294  1.00  0.00     0.001 A 
HETATM   34  C   UNL     1      -2.359   4.253 -33.077  1.00  0.00     0.009 A 
ENDBRANCH  28  29
ENDBRANCH  27  28
ENDBRANCH  10  27
TORSDOF 7
ENDMDL
MODEL 8
REMARK VINA RESULT:      -9.0      2.815     10.338
REMARK  7 active torsions:
REMARK  status: ('A' for Active; 'I' for Inactive)
REMARK    1  A    between atoms: C_7  and  C_8 
REMARK    2  A    between atoms: C_8  and  C_9 
REMARK       I    between atoms: C_9  and  N_10 
REMARK    3  A    between atoms: N_10  and  N_11 
REMARK       I    between atoms: N_11  and  C_12 
REMARK    4  A    between atoms: C_12  and  C_13 
REMARK    5  A    between atoms: C_23  and  O_24 
REMARK    6  A    between atoms: O_24  and  C_25 
REMARK    7  A    between atoms: C_25  and  C_26 
ROOT
HETATM    1  C   UNL     1      -7.101   5.281 -28.945  1.00  0.00     0.068 C 
HETATM    2  C   UNL     1      -6.722   4.098 -29.762  1.00  0.00     0.013 A 
HETATM    3  N   UNL     1      -6.872   2.820 -29.287  1.00  0.00    -0.359 N 
HETATM    4  H   UNL     1      -7.240   2.575 -28.377  1.00  0.00     0.166 HD
HETATM    5  C   UNL     1      -6.456   1.904 -30.223  1.00  0.00     0.043 A 
HETATM    6  C   UNL     1      -6.022   2.622 -31.335  1.00  0.00     0.002 A 
HETATM    7  C   UNL     1      -6.180   4.014 -31.036  1.00  0.00    -0.015 A 
HETATM    8  C   UNL     1      -6.431   0.508 -30.169  1.00  0.00     0.033 A 
HETATM    9  C   UNL     1      -5.956  -0.184 -31.291  1.00  0.00     0.039 A 
HETATM   10  C   UNL     1      -5.522   0.499 -32.427  1.00  0.00     0.070 A 
HETATM   11  C   UNL     1      -5.545   1.900 -32.450  1.00  0.00     0.051 A 
ENDROOT
BRANCH   7  12
HETATM   12  C   UNL     1      -5.826   5.161 -31.935  1.00  0.00     0.146 C 
BRANCH  12  13
HETATM   13  C   UNL     1      -4.553   5.897 -31.552  1.00  0.00     0.240 C 
HETATM   14  N   UNL     1      -3.845   5.380 -30.486  1.00  0.00    -0.267 N 
HETATM   15  H   UNL     1      -4.242   4.702 -29.836  1.00  0.00     0.190 HD
HETATM   16  O   UNL     1      -4.138   6.852 -32.215  1.00  0.00    -0.272 OA
BRANCH  14  17
HETATM   17  N   UNL     1      -2.696   6.049 -30.067  1.00  0.00    -0.262 N 
HETATM   18  C   UNL     1      -2.760   6.928 -29.007  1.00  0.00     0.288 C 
HETATM   19  O   UNL     1      -3.800   7.217 -28.422  1.00  0.00    -0.264 OA
HETATM   20  H   UNL     1      -1.808   5.835 -30.527  1.00  0.00     0.190 HD
BRANCH  18  21
HETATM   21  C   UNL     1      -1.437   7.504 -28.612  1.00  0.00     0.125 A 
HETATM   22  N   UNL     1      -1.463   8.726 -28.011  1.00  0.00    -0.255 NA
HETATM   23  C   UNL     1      -0.268   9.253 -27.669  1.00  0.00     0.117 A 
HETATM   24  C   UNL     1       0.947   8.626 -27.899  1.00  0.00     0.019 A 
HETATM   25  C   UNL     1       0.944   7.377 -28.516  1.00  0.00     0.004 A 
HETATM   26  C   UNL     1      -0.269   6.800 -28.881  1.00  0.00     0.037 A 
ENDBRANCH  18  21
ENDBRANCH  14  17
ENDBRANCH  12  13
ENDBRANCH   7  12
BRANCH  10  27
HETATM   27  O   UNL     1      -5.054  -0.074 -33.580  1.00  0.00    -0.347 OA
BRANCH  27  28
HETATM   28  C   UNL     1      -5.991  -0.803 -34.373  1.00  0.00     0.214 C 
BRANCH  28  29
HETATM   29  C   UNL     1      -5.664  -2.282 -34.380  1.00  0.00    -0.034 A 
HETATM   30  C   UNL     1      -6.570  -3.243 -34.853  1.00  0.00     0.009 A 
HETATM   31  C   UNL     1      -6.226  -4.596 -34.873  1.00  0.00     0.001 A 
HETATM   32  C   UNL     1      -4.969  -5.006 -34.434  1.00  0.00     0.000 A 
HETATM   33  C   UNL     1      -4.053  -4.061 -33.977  1.00  0.00     0.001 A 
HETATM   34  C   UNL     1      -4.395  -2.708 -33.954  1.00  0.00     0.009 A 
ENDBRANCH  28  29
ENDBRANCH  27  28
ENDBRANCH  10  27
TORSDOF 7
ENDMDL
MODEL 9
REMARK VINA RESULT:      -8.8      3.836      9.575
REMARK  7 active torsions:
REMARK  status: ('A' for Active; 'I' for Inactive)
REMARK    1  A    between atoms: C_7  and  C_8 
REMARK    2  A    between atoms: C_8  and  C_9 
REMARK       I    between atoms: C_9  and  N_10 
REMARK    3  A    between atoms: N_10  and  N_11 
REMARK       I    between atoms: N_11  and  C_12 
REMARK    4  A    between atoms: C_12  and  C_13 
REMARK    5  A    between atoms: C_23  and  O_24 
REMARK    6  A    between atoms: O_24  and  C_25 
REMARK    7  A    between atoms: C_25  and  C_26 
ROOT
HETATM    1  C   UNL     1      -9.682   5.455 -30.097  1.00  0.00     0.068 C 
HETATM    2  C   UNL     1      -9.507   4.180 -30.841  1.00  0.00     0.013 A 
HETATM    3  N   UNL     1     -10.376   3.802 -31.833  1.00  0.00    -0.359 N 
HETATM    4  H   UNL     1     -11.180   4.334 -32.138  1.00  0.00     0.166 HD
HETATM    5  C   UNL     1     -10.003   2.593 -32.368  1.00  0.00     0.043 A 
HETATM    6  C   UNL     1      -8.856   2.181 -31.693  1.00  0.00     0.002 A 
HETATM    7  C   UNL     1      -8.549   3.184 -30.716  1.00  0.00    -0.015 A 
HETATM    8  C   UNL     1     -10.589   1.840 -33.389  1.00  0.00     0.033 A 
HETATM    9  C   UNL     1      -9.981   0.627 -33.742  1.00  0.00     0.039 A 
HETATM   10  C   UNL     1      -8.827   0.186 -33.096  1.00  0.00     0.070 A 
HETATM   11  C   UNL     1      -8.266   0.955 -32.067  1.00  0.00     0.051 A 
ENDROOT
BRANCH   7  12
HETATM   12  C   UNL     1      -7.408   3.157 -29.745  1.00  0.00     0.146 C 
BRANCH  12  13
HETATM   13  C   UNL     1      -6.052   3.484 -30.351  1.00  0.00     0.240 C 
HETATM   14  N   UNL     1      -5.896   4.763 -30.844  1.00  0.00    -0.267 N 
HETATM   15  H   UNL     1      -6.683   5.388 -31.019  1.00  0.00     0.190 HD
HETATM   16  O   UNL     1      -5.123   2.672 -30.323  1.00  0.00    -0.272 OA
BRANCH  14  17
HETATM   17  N   UNL     1      -4.687   5.096 -31.453  1.00  0.00    -0.262 N 
HETATM   18  C   UNL     1      -4.647   5.354 -32.806  1.00  0.00     0.288 C 
HETATM   19  O   UNL     1      -5.619   5.254 -33.549  1.00  0.00    -0.264 OA
HETATM   20  H   UNL     1      -3.853   5.191 -30.869  1.00  0.00     0.190 HD
BRANCH  18  21
HETATM   21  C   UNL     1      -3.303   5.782 -33.305  1.00  0.00     0.125 A 
HETATM   22  N   UNL     1      -2.830   6.968 -32.831  1.00  0.00    -0.255 NA
HETATM   23  C   UNL     1      -1.624   7.363 -33.293  1.00  0.00     0.117 A 
HETATM   24  C   UNL     1      -0.871   6.637 -34.204  1.00  0.00     0.019 A 
HETATM   25  C   UNL     1      -1.379   5.428 -34.671  1.00  0.00     0.004 A 
HETATM   26  C   UNL     1      -2.619   4.987 -34.216  1.00  0.00     0.037 A 
ENDBRANCH  18  21
ENDBRANCH  14  17
ENDBRANCH  12  13
ENDBRANCH   7  12
BRANCH  10  27
HETATM   27  O   UNL     1      -8.144  -0.969 -33.369  1.00  0.00    -0.347 OA
BRANCH  27  28
HETATM   28  C   UNL     1      -7.039  -0.878 -34.269  1.00  0.00     0.214 C 
BRANCH  28  29
HETATM   29  C   UNL     1      -6.274  -2.183 -34.327  1.00  0.00    -0.034 A 
HETATM   30  C   UNL     1      -6.869  -3.376 -34.763  1.00  0.00     0.009 A 
HETATM   31  C   UNL     1      -6.128  -4.557 -34.833  1.00  0.00     0.001 A 
HETATM   32  C   UNL     1      -4.779  -4.560 -34.481  1.00  0.00     0.000 A 
HETATM   33  C   UNL     1      -4.170  -3.379 -34.062  1.00  0.00     0.001 A 
HETATM   34  C   UNL     1      -4.911  -2.198 -33.990  1.00  0.00     0.009 A 
ENDBRANCH  28  29
ENDBRANCH  27  28
ENDBRANCH  10  27
TORSDOF 7
ENDMDL
MODEL 10
REMARK VINA RESULT:      -8.8      2.676     10.366
REMARK  7 active torsions:
REMARK  status: ('A' for Active; 'I' for Inactive)
REMARK    1  A    between atoms: C_7  and  C_8 
REMARK    2  A    between atoms: C_8  and  C_9 
REMARK       I    between atoms: C_9  and  N_10 
REMARK    3  A    between atoms: N_10  and  N_11 
REMARK       I    between atoms: N_11  and  C_12 
REMARK    4  A    between atoms: C_12  and  C_13 
REMARK    5  A    between atoms: C_23  and  O_24 
REMARK    6  A    between atoms: O_24  and  C_25 
REMARK    7  A    between atoms: C_25  and  C_26 
ROOT
HETATM    1  C   UNL     1      -1.759   7.348 -33.902  1.00  0.00     0.068 C 
HETATM    2  C   UNL     1      -2.447   6.091 -33.508  1.00  0.00     0.013 A 
HETATM    3  N   UNL     1      -3.720   5.805 -33.934  1.00  0.00    -0.359 N 
HETATM    4  H   UNL     1      -4.282   6.397 -34.530  1.00  0.00     0.166 HD
HETATM    5  C   UNL     1      -4.134   4.591 -33.439  1.00  0.00     0.043 A 
HETATM    6  C   UNL     1      -3.091   4.084 -32.668  1.00  0.00     0.002 A 
HETATM    7  C   UNL     1      -2.026   5.042 -32.703  1.00  0.00    -0.015 A 
HETATM    8  C   UNL     1      -5.343   3.912 -33.616  1.00  0.00     0.033 A 
HETATM    9  C   UNL     1      -5.492   2.666 -32.991  1.00  0.00     0.039 A 
HETATM   10  C   UNL     1      -4.467   2.121 -32.220  1.00  0.00     0.070 A 
HETATM   11  C   UNL     1      -3.269   2.829 -32.049  1.00  0.00     0.051 A 
ENDROOT
BRANCH   7  12
HETATM   12  C   UNL     1      -0.706   4.927 -32.002  1.00  0.00     0.146 C 
BRANCH  12  13
HETATM   13  C   UNL     1      -0.419   6.040 -31.006  1.00  0.00     0.240 C 
HETATM   14  N   UNL     1      -1.205   6.064 -29.873  1.00  0.00    -0.267 N 
HETATM   15  H   UNL     1      -2.075   5.537 -29.792  1.00  0.00     0.190 HD
HETATM   16  O   UNL     1       0.522   6.822 -31.171  1.00  0.00    -0.272 OA
BRANCH  14  17
HETATM   17  N   UNL     1      -1.011   7.095 -28.954  1.00  0.00    -0.262 N 
HETATM   18  C   UNL     1      -0.278   6.867 -27.810  1.00  0.00     0.288 C 
HETATM   19  O   UNL     1       0.184   5.771 -27.502  1.00  0.00    -0.264 OA
HETATM   20  H   UNL     1      -1.379   8.023 -29.173  1.00  0.00     0.190 HD
BRANCH  18  21
HETATM   21  C   UNL     1      -0.079   8.082 -26.961  1.00  0.00     0.125 A 
HETATM   22  N   UNL     1      -1.002   8.296 -25.982  1.00  0.00    -0.255 NA
HETATM   23  C   UNL     1      -0.831   9.402 -25.226  1.00  0.00     0.117 A 
HETATM   24  C   UNL     1       0.209  10.302 -25.399  1.00  0.00     0.019 A 
HETATM   25  C   UNL     1       1.138  10.058 -26.406  1.00  0.00     0.004 A 
HETATM   26  C   UNL     1       0.997   8.927 -27.206  1.00  0.00     0.037 A 
ENDBRANCH  18  21
ENDBRANCH  14  17
ENDBRANCH  12  13
ENDBRANCH   7  12
BRANCH  10  27
HETATM   27  O   UNL     1      -4.499   0.910 -31.580  1.00  0.00    -0.347 OA
BRANCH  27  28
HETATM   28  C   UNL     1      -5.708   0.155 -31.670  1.00  0.00     0.214 C 
BRANCH  28  29
HETATM   29  C   UNL     1      -5.647  -0.838 -32.811  1.00  0.00    -0.034 A 
HETATM   30  C   UNL     1      -4.483  -1.565 -33.104  1.00  0.00     0.009 A 
HETATM   31  C   UNL     1      -4.468  -2.496 -34.145  1.00  0.00     0.001 A 
HETATM   32  C   UNL     1      -5.618  -2.722 -34.898  1.00  0.00     0.000 A 
HETATM   33  C   UNL     1      -6.786  -2.020 -34.609  1.00  0.00     0.001 A 
HETATM   34  C   UNL     1      -6.802  -1.088 -33.570  1.00  0.00     0.009 A 
ENDBRANCH  28  29
ENDBRANCH  27  28
ENDBRANCH  10  27
TORSDOF 7
ENDMDL
