MODEL 1
REMARK VINA RESULT:      -8.5      0.000      0.000
REMARK  2 active torsions:
REMARK  status: ('A' for Active; 'I' for Inactive)
REMARK    1  A    between atoms: C_11  and  N_12 
REMARK    2  A    between atoms: N_12  and  C_13 
ROOT
HETATM    1  C   UNL     1      -3.210  -4.606 -32.955  1.00  0.00     0.045 A 
HETATM    2  C   UNL     1      -3.009  -3.591 -32.030  1.00  0.00     0.117 A 
HETATM    3  F   UNL     1      -2.261  -3.827 -30.945  1.00  0.00    -0.206 F 
HETATM    4  C   UNL     1      -3.563  -2.326 -32.213  1.00  0.00     0.054 A 
HETATM    5  C   UNL     1      -4.346  -2.044 -33.346  1.00  0.00     0.001 A 
HETATM    6  C   UNL     1      -4.577  -3.098 -34.246  1.00  0.00     0.077 A 
HETATM    7  O   UNL     1      -5.360  -2.917 -35.356  1.00  0.00    -0.351 OA
HETATM    8  C   UNL     1      -6.737  -2.805 -34.986  1.00  0.00     0.175 C 
HETATM    9  C   UNL     1      -7.133  -1.348 -34.781  1.00  0.00     0.029 C 
HETATM   10  C   UNL     1      -6.464  -0.693 -33.568  1.00  0.00     0.032 C 
HETATM   11  C   UNL     1      -4.922  -0.671 -33.647  1.00  0.00     0.118 C 
HETATM   12  C   UNL     1      -3.998  -4.358 -34.075  1.00  0.00     0.040 A 
ENDROOT
BRANCH  11  13
HETATM   13  N   UNL     1      -4.443   0.355 -32.720  1.00  0.00    -0.378 N 
HETATM   14  H   UNL     1      -3.583   0.801 -33.032  1.00  0.00     0.160 HD
BRANCH  13  15
HETATM   15  C   UNL     1      -5.139   1.065 -31.740  1.00  0.00     0.075 A 
HETATM   16  C   UNL     1      -5.691   2.295 -31.718  1.00  0.00     0.131 A 
HETATM   17 CL   UNL     1      -5.666   3.389 -33.061  1.00  0.00    -0.076 Cl
HETATM   18  C   UNL     1      -6.372   2.830 -30.499  1.00  0.00     0.285 A 
HETATM   19  O   UNL     1      -6.889   3.943 -30.450  1.00  0.00    -0.265 OA
HETATM   20  N   UNL     1      -6.388   2.003 -29.406  1.00  0.00    -0.242 N 
HETATM   21  N   UNL     1      -5.873   0.751 -29.358  1.00  0.00    -0.182 NA
HETATM   22  H   UNL     1      -6.841   2.349 -28.566  1.00  0.00     0.192 HD
HETATM   23  C   UNL     1      -5.308   0.332 -30.442  1.00  0.00     0.169 A 
ENDBRANCH  13  15
ENDBRANCH  11  13
TORSDOF 2
ENDMDL
MODEL 2
REMARK VINA RESULT:      -8.2      1.840      2.106
REMARK  2 active torsions:
REMARK  status: ('A' for Active; 'I' for Inactive)
REMARK    1  A    between atoms: C_11  and  N_12 
REMARK    2  A    between atoms: N_12  and  C_13 
ROOT
HETATM    1  C   UNL     1      -3.302  -4.345 -33.083  1.00  0.00     0.045 A 
HETATM    2  C   UNL     1      -3.070  -3.441 -32.056  1.00  0.00     0.117 A 
HETATM    3  F   UNL     1      -2.257  -3.782 -31.048  1.00  0.00    -0.206 F 
HETATM    4  C   UNL     1      -3.661  -2.179 -32.056  1.00  0.00     0.054 A 
HETATM    5  C   UNL     1      -4.513  -1.788 -33.104  1.00  0.00     0.001 A 
HETATM    6  C   UNL     1      -4.772  -2.734 -34.109  1.00  0.00     0.077 A 
HETATM    7  O   UNL     1      -5.621  -2.446 -35.145  1.00  0.00    -0.351 OA
HETATM    8  C   UNL     1      -6.977  -2.417 -34.690  1.00  0.00     0.175 C 
HETATM    9  C   UNL     1      -7.391  -1.006 -34.292  1.00  0.00     0.029 C 
HETATM   10  C   UNL     1      -6.669  -0.479 -33.047  1.00  0.00     0.032 C 
HETATM   11  C   UNL     1      -5.135  -0.405 -33.207  1.00  0.00     0.118 C 
HETATM   12  C   UNL     1      -4.157  -3.989 -34.121  1.00  0.00     0.040 A 
ENDROOT
BRANCH  11  13
HETATM   13  N   UNL     1      -4.626   0.518 -32.191  1.00  0.00    -0.378 N 
HETATM   14  H   UNL     1      -4.179   0.041 -31.410  1.00  0.00     0.160 HD
BRANCH  13  15
HETATM   15  C   UNL     1      -4.309   1.874 -32.298  1.00  0.00     0.075 A 
HETATM   16  C   UNL     1      -4.857   2.889 -32.994  1.00  0.00     0.131 A 
HETATM   17 CL   UNL     1      -6.241   2.721 -34.022  1.00  0.00    -0.076 Cl
HETATM   18  C   UNL     1      -4.288   4.272 -32.946  1.00  0.00     0.285 A 
HETATM   19  O   UNL     1      -4.768   5.219 -33.565  1.00  0.00    -0.265 OA
HETATM   20  N   UNL     1      -3.174   4.439 -32.165  1.00  0.00    -0.242 N 
HETATM   21  N   UNL     1      -2.581   3.474 -31.423  1.00  0.00    -0.182 NA
HETATM   22  H   UNL     1      -2.770   5.369 -32.122  1.00  0.00     0.192 HD
HETATM   23  C   UNL     1      -3.119   2.300 -31.490  1.00  0.00     0.169 A 
ENDBRANCH  13  15
ENDBRANCH  11  13
TORSDOF 2
ENDMDL
MODEL 3
REMARK VINA RESULT:      -7.9      3.233      6.086
REMARK  2 active torsions:
REMARK  status: ('A' for Active; 'I' for Inactive)
REMARK    1  A    between atoms: C_11  and  N_12 
REMARK    2  A    between atoms: N_12  and  C_13 
ROOT
HETATM    1  C   UNL     1      -5.091   2.230 -30.881  1.00  0.00     0.045 A 
HETATM    2  C   UNL     1      -4.413   1.689 -31.964  1.00  0.00     0.117 A 
HETATM    3  F   UNL     1      -3.144   2.048 -32.195  1.00  0.00    -0.206 F 
HETATM    4  C   UNL     1      -5.026   0.769 -32.813  1.00  0.00     0.054 A 
HETATM    5  C   UNL     1      -6.353   0.365 -32.594  1.00  0.00     0.001 A 
HETATM    6  C   UNL     1      -7.037   0.960 -31.520  1.00  0.00     0.077 A 
HETATM    7  O   UNL     1      -8.346   0.649 -31.261  1.00  0.00    -0.351 OA
HETATM    8  C   UNL     1      -9.205   1.224 -32.251  1.00  0.00     0.175 C 
HETATM    9  C   UNL     1      -9.462   0.244 -33.388  1.00  0.00     0.029 C 
HETATM   10  C   UNL     1      -8.221  -0.056 -34.236  1.00  0.00     0.032 C 
HETATM   11  C   UNL     1      -7.061  -0.685 -33.434  1.00  0.00     0.118 C 
HETATM   12  C   UNL     1      -6.413   1.861 -30.654  1.00  0.00     0.040 A 
ENDROOT
BRANCH  11  13
HETATM   13  N   UNL     1      -6.164  -1.339 -34.388  1.00  0.00    -0.378 N 
HETATM   14  H   UNL     1      -5.684  -0.680 -34.998  1.00  0.00     0.160 HD
BRANCH  13  15
HETATM   15  C   UNL     1      -5.583  -2.608 -34.339  1.00  0.00     0.075 A 
HETATM   16  C   UNL     1      -4.465  -3.081 -33.755  1.00  0.00     0.131 A 
HETATM   17 CL   UNL     1      -3.378  -2.110 -32.819  1.00  0.00    -0.076 Cl
HETATM   18  C   UNL     1      -4.055  -4.514 -33.886  1.00  0.00     0.285 A 
HETATM   19  O   UNL     1      -3.045  -4.975 -33.362  1.00  0.00    -0.265 OA
HETATM   20  N   UNL     1      -4.876  -5.309 -34.644  1.00  0.00    -0.242 N 
HETATM   21  N   UNL     1      -6.023  -4.911 -35.243  1.00  0.00    -0.182 NA
HETATM   22  H   UNL     1      -4.613  -6.284 -34.749  1.00  0.00     0.192 HD
HETATM   23  C   UNL     1      -6.338  -3.667 -35.088  1.00  0.00     0.169 A 
ENDBRANCH  13  15
ENDBRANCH  11  13
TORSDOF 2
ENDMDL
MODEL 4
REMARK VINA RESULT:      -7.7      3.081      3.790
REMARK  2 active torsions:
REMARK  status: ('A' for Active; 'I' for Inactive)
REMARK    1  A    between atoms: C_11  and  N_12 
REMARK    2  A    between atoms: N_12  and  C_13 
ROOT
HETATM    1  C   UNL     1      -4.913  -4.273 -34.650  1.00  0.00     0.045 A 
HETATM    2  C   UNL     1      -6.177  -3.792 -34.963  1.00  0.00     0.117 A 
HETATM    3  F   UNL     1      -6.964  -4.495 -35.788  1.00  0.00    -0.206 F 
HETATM    4  C   UNL     1      -6.648  -2.595 -34.428  1.00  0.00     0.054 A 
HETATM    5  C   UNL     1      -5.850  -1.839 -33.552  1.00  0.00     0.001 A 
HETATM    6  C   UNL     1      -4.556  -2.318 -33.286  1.00  0.00     0.077 A 
HETATM    7  O   UNL     1      -3.702  -1.621 -32.473  1.00  0.00    -0.351 OA
HETATM    8  C   UNL     1      -3.232  -0.441 -33.132  1.00  0.00     0.175 C 
HETATM    9  C   UNL     1      -4.114   0.757 -32.806  1.00  0.00     0.029 C 
HETATM   10  C   UNL     1      -5.528   0.658 -33.388  1.00  0.00     0.032 C 
HETATM   11  C   UNL     1      -6.323  -0.563 -32.876  1.00  0.00     0.118 C 
HETATM   12  C   UNL     1      -4.096  -3.532 -33.801  1.00  0.00     0.040 A 
ENDROOT
BRANCH  11  13
HETATM   13  N   UNL     1      -7.744  -0.298 -33.108  1.00  0.00    -0.378 N 
HETATM   14  H   UNL     1      -8.256  -1.121 -33.419  1.00  0.00     0.160 HD
BRANCH  13  15
HETATM   15  C   UNL     1      -8.550   0.732 -32.618  1.00  0.00     0.075 A 
HETATM   16  C   UNL     1      -8.435   1.561 -31.561  1.00  0.00     0.131 A 
HETATM   17 CL   UNL     1      -7.103   1.535 -30.454  1.00  0.00    -0.076 Cl
HETATM   18  C   UNL     1      -9.481   2.581 -31.245  1.00  0.00     0.285 A 
HETATM   19  O   UNL     1      -9.402   3.353 -30.292  1.00  0.00    -0.265 OA
HETATM   20  N   UNL     1     -10.565   2.613 -32.083  1.00  0.00    -0.242 N 
HETATM   21  N   UNL     1     -10.741   1.829 -33.173  1.00  0.00    -0.182 NA
HETATM   22  H   UNL     1     -11.290   3.296 -31.883  1.00  0.00     0.192 HD
HETATM   23  C   UNL     1      -9.802   0.973 -33.409  1.00  0.00     0.169 A 
ENDBRANCH  13  15
ENDBRANCH  11  13
TORSDOF 2
ENDMDL
MODEL 5
REMARK VINA RESULT:      -7.6      3.557      4.673
REMARK  2 active torsions:
REMARK  status: ('A' for Active; 'I' for Inactive)
REMARK    1  A    between atoms: C_11  and  N_12 
REMARK    2  A    between atoms: N_12  and  C_13 
ROOT
HETATM    1  C   UNL     1      -5.825  -1.814 -34.045  1.00  0.00     0.045 A 
HETATM    2  C   UNL     1      -5.026  -1.032 -33.222  1.00  0.00     0.117 A 
HETATM    3  F   UNL     1      -3.988  -1.591 -32.588  1.00  0.00    -0.206 F 
HETATM    4  C   UNL     1      -5.279   0.327 -33.049  1.00  0.00     0.054 A 
HETATM    5  C   UNL     1      -6.357   0.945 -33.707  1.00  0.00     0.001 A 
HETATM    6  C   UNL     1      -7.181   0.126 -34.497  1.00  0.00     0.077 A 
HETATM    7  O   UNL     1      -8.274   0.643 -35.142  1.00  0.00    -0.351 OA
HETATM    8  C   UNL     1      -9.312   0.947 -34.206  1.00  0.00     0.175 C 
HETATM    9  C   UNL     1      -9.222   2.394 -33.738  1.00  0.00     0.029 C 
HETATM   10  C   UNL     1      -7.983   2.690 -32.886  1.00  0.00     0.032 C 
HETATM   11  C   UNL     1      -6.650   2.433 -33.622  1.00  0.00     0.118 C 
HETATM   12  C   UNL     1      -6.910  -1.230 -34.691  1.00  0.00     0.040 A 
ENDROOT
BRANCH  11  13
HETATM   13  N   UNL     1      -5.602   3.173 -32.916  1.00  0.00    -0.378 N 
HETATM   14  H   UNL     1      -5.471   2.858 -31.957  1.00  0.00     0.160 HD
BRANCH  13  15
HETATM   15  C   UNL     1      -4.539   3.919 -33.429  1.00  0.00     0.075 A 
HETATM   16  C   UNL     1      -3.282   4.142 -32.994  1.00  0.00     0.131 A 
HETATM   17 CL   UNL     1      -2.629   3.464 -31.540  1.00  0.00    -0.076 Cl
HETATM   18  C   UNL     1      -2.337   5.025 -33.743  1.00  0.00     0.285 A 
HETATM   19  O   UNL     1      -1.185   5.243 -33.375  1.00  0.00    -0.265 OA
HETATM   20  N   UNL     1      -2.827   5.603 -34.885  1.00  0.00    -0.242 N 
HETATM   21  N   UNL     1      -4.067   5.412 -35.394  1.00  0.00    -0.182 NA
HETATM   22  H   UNL     1      -2.202   6.210 -35.406  1.00  0.00     0.192 HD
HETATM   23  C   UNL     1      -4.841   4.630 -34.716  1.00  0.00     0.169 A 
ENDBRANCH  13  15
ENDBRANCH  11  13
TORSDOF 2
ENDMDL
MODEL 6
REMARK VINA RESULT:      -7.6      3.059      6.060
REMARK  2 active torsions:
REMARK  status: ('A' for Active; 'I' for Inactive)
REMARK    1  A    between atoms: C_11  and  N_12 
REMARK    2  A    between atoms: N_12  and  C_13 
ROOT
HETATM    1  C   UNL     1      -5.391   3.328 -30.824  1.00  0.00     0.045 A 
HETATM    2  C   UNL     1      -4.289   2.679 -31.364  1.00  0.00     0.117 A 
HETATM    3  F   UNL     1      -3.057   3.092 -31.042  1.00  0.00    -0.206 F 
HETATM    4  C   UNL     1      -4.441   1.598 -32.231  1.00  0.00     0.054 A 
HETATM    5  C   UNL     1      -5.721   1.136 -32.582  1.00  0.00     0.001 A 
HETATM    6  C   UNL     1      -6.822   1.836 -32.062  1.00  0.00     0.077 A 
HETATM    7  O   UNL     1      -8.103   1.473 -32.385  1.00  0.00    -0.351 OA
HETATM    8  C   UNL     1      -8.398   1.825 -33.741  1.00  0.00     0.175 C 
HETATM    9  C   UNL     1      -8.102   0.667 -34.684  1.00  0.00     0.029 C 
HETATM   10  C   UNL     1      -6.611   0.333 -34.801  1.00  0.00     0.032 C 
HETATM   11  C   UNL     1      -5.962  -0.079 -33.462  1.00  0.00     0.118 C 
HETATM   12  C   UNL     1      -6.668   2.902 -31.172  1.00  0.00     0.040 A 
ENDROOT
BRANCH  11  13
HETATM   13  N   UNL     1      -4.727  -0.804 -33.770  1.00  0.00    -0.378 N 
HETATM   14  H   UNL     1      -3.907  -0.201 -33.788  1.00  0.00     0.160 HD
BRANCH  13  15
HETATM   15  C   UNL     1      -4.441  -2.165 -33.653  1.00  0.00     0.075 A 
HETATM   16  C   UNL     1      -4.849  -3.249 -34.343  1.00  0.00     0.131 A 
HETATM   17 CL   UNL     1      -5.936  -3.185 -35.690  1.00  0.00    -0.076 Cl
HETATM   18  C   UNL     1      -4.396  -4.628 -33.981  1.00  0.00     0.285 A 
HETATM   19  O   UNL     1      -4.746  -5.633 -34.593  1.00  0.00    -0.265 OA
HETATM   20  N   UNL     1      -3.557  -4.722 -32.901  1.00  0.00    -0.242 N 
HETATM   21  N   UNL     1      -3.089  -3.681 -32.174  1.00  0.00    -0.182 NA
HETATM   22  H   UNL     1      -3.241  -5.650 -32.636  1.00  0.00     0.192 HD
HETATM   23  C   UNL     1      -3.501  -2.510 -32.536  1.00  0.00     0.169 A 
ENDBRANCH  13  15
ENDBRANCH  11  13
TORSDOF 2
ENDMDL
MODEL 7
REMARK VINA RESULT:      -7.6      2.826      3.703
REMARK  2 active torsions:
REMARK  status: ('A' for Active; 'I' for Inactive)
REMARK    1  A    between atoms: C_11  and  N_12 
REMARK    2  A    between atoms: N_12  and  C_13 
ROOT
HETATM    1  C   UNL     1      -5.944  -2.592 -34.586  1.00  0.00     0.045 A 
HETATM    2  C   UNL     1      -4.902  -2.102 -33.811  1.00  0.00     0.117 A 
HETATM    3  F   UNL     1      -3.775  -2.816 -33.695  1.00  0.00    -0.206 F 
HETATM    4  C   UNL     1      -5.001  -0.875 -33.159  1.00  0.00     0.054 A 
HETATM    5  C   UNL     1      -6.167  -0.097 -33.268  1.00  0.00     0.001 A 
HETATM    6  C   UNL     1      -7.228  -0.633 -34.017  1.00  0.00     0.077 A 
HETATM    7  O   UNL     1      -8.413   0.044 -34.142  1.00  0.00    -0.351 OA
HETATM    8  C   UNL     1      -9.141   0.013 -32.910  1.00  0.00     0.175 C 
HETATM    9  C   UNL     1      -8.825   1.235 -32.057  1.00  0.00     0.029 C 
HETATM   10  C   UNL     1      -7.387   1.263 -31.529  1.00  0.00     0.032 C 
HETATM   11  C   UNL     1      -6.319   1.279 -32.644  1.00  0.00     0.118 C 
HETATM   12  C   UNL     1      -7.117  -1.850 -34.693  1.00  0.00     0.040 A 
ENDROOT
BRANCH  11  13
HETATM   13  N   UNL     1      -5.071   1.772 -32.058  1.00  0.00    -0.378 N 
HETATM   14  H   UNL     1      -4.534   1.040 -31.596  1.00  0.00     0.160 HD
BRANCH  13  15
HETATM   15  C   UNL     1      -4.341   2.924 -32.355  1.00  0.00     0.075 A 
HETATM   16  C   UNL     1      -4.547   3.943 -33.214  1.00  0.00     0.131 A 
HETATM   17 CL   UNL     1      -5.929   4.067 -34.251  1.00  0.00    -0.076 Cl
HETATM   18  C   UNL     1      -3.568   5.064 -33.353  1.00  0.00     0.285 A 
HETATM   19  O   UNL     1      -3.730   6.008 -34.122  1.00  0.00    -0.265 OA
HETATM   20  N   UNL     1      -2.447   4.987 -32.568  1.00  0.00    -0.242 N 
HETATM   21  N   UNL     1      -2.180   4.009 -31.670  1.00  0.00    -0.182 NA
HETATM   22  H   UNL     1      -1.767   5.736 -32.650  1.00  0.00     0.192 HD
HETATM   23  C   UNL     1      -3.064   3.070 -31.580  1.00  0.00     0.169 A 
ENDBRANCH  13  15
ENDBRANCH  11  13
TORSDOF 2
ENDMDL
MODEL 8
REMARK VINA RESULT:      -7.4      3.499      4.459
REMARK  2 active torsions:
REMARK  status: ('A' for Active; 'I' for Inactive)
REMARK    1  A    between atoms: C_11  and  N_12 
REMARK    2  A    between atoms: N_12  and  C_13 
ROOT
HETATM    1  C   UNL     1      -4.093  -2.620 -33.287  1.00  0.00     0.045 A 
HETATM    2  C   UNL     1      -4.970  -2.151 -34.256  1.00  0.00     0.117 A 
HETATM    3  F   UNL     1      -5.215  -2.896 -35.341  1.00  0.00    -0.206 F 
HETATM    4  C   UNL     1      -5.609  -0.921 -34.117  1.00  0.00     0.054 A 
HETATM    5  C   UNL     1      -5.381  -0.118 -32.986  1.00  0.00     0.001 A 
HETATM    6  C   UNL     1      -4.454  -0.589 -32.041  1.00  0.00     0.077 A 
HETATM    7  O   UNL     1      -4.146   0.150 -30.929  1.00  0.00    -0.351 OA
HETATM    8  C   UNL     1      -3.350   1.285 -31.285  1.00  0.00     0.175 C 
HETATM    9  C   UNL     1      -4.223   2.506 -31.543  1.00  0.00     0.029 C 
HETATM   10  C   UNL     1      -5.104   2.382 -32.791  1.00  0.00     0.032 C 
HETATM   11  C   UNL     1      -6.095   1.199 -32.733  1.00  0.00     0.118 C 
HETATM   12  C   UNL     1      -3.835  -1.835 -32.168  1.00  0.00     0.040 A 
ENDROOT
BRANCH  11  13
HETATM   13  N   UNL     1      -7.156   1.459 -33.708  1.00  0.00    -0.378 N 
HETATM   14  H   UNL     1      -6.848   1.341 -34.671  1.00  0.00     0.160 HD
BRANCH  13  15
HETATM   15  C   UNL     1      -8.542   1.449 -33.540  1.00  0.00     0.075 A 
HETATM   16  C   UNL     1      -9.486   2.404 -33.661  1.00  0.00     0.131 A 
HETATM   17 CL   UNL     1      -9.151   4.042 -34.115  1.00  0.00    -0.076 Cl
HETATM   18  C   UNL     1     -10.929   2.121 -33.391  1.00  0.00     0.285 A 
HETATM   19  O   UNL     1     -11.812   2.969 -33.498  1.00  0.00    -0.265 OA
HETATM   20  N   UNL     1     -11.230   0.842 -33.002  1.00  0.00    -0.242 N 
HETATM   21  N   UNL     1     -10.343  -0.173 -32.878  1.00  0.00    -0.182 NA
HETATM   22  H   UNL     1     -12.204   0.630 -32.809  1.00  0.00     0.192 HD
HETATM   23  C   UNL     1      -9.110   0.121 -33.135  1.00  0.00     0.169 A 
ENDBRANCH  13  15
ENDBRANCH  11  13
TORSDOF 2
ENDMDL
MODEL 9
REMARK VINA RESULT:      -7.3      5.031      7.479
REMARK  2 active torsions:
REMARK  status: ('A' for Active; 'I' for Inactive)
REMARK    1  A    between atoms: C_11  and  N_12 
REMARK    2  A    between atoms: N_12  and  C_13 
ROOT
HETATM    1  C   UNL     1       0.392   6.926 -30.536  1.00  0.00     0.045 A 
HETATM    2  C   UNL     1       0.229   5.619 -30.097  1.00  0.00     0.117 A 
HETATM    3  F   UNL     1       1.082   5.115 -29.197  1.00  0.00    -0.206 F 
HETATM    4  C   UNL     1      -0.813   4.823 -30.569  1.00  0.00     0.054 A 
HETATM    5  C   UNL     1      -1.730   5.326 -31.508  1.00  0.00     0.001 A 
HETATM    6  C   UNL     1      -1.519   6.634 -31.975  1.00  0.00     0.077 A 
HETATM    7  O   UNL     1      -2.345   7.185 -32.919  1.00  0.00    -0.351 OA
HETATM    8  C   UNL     1      -2.115   6.589 -34.199  1.00  0.00     0.175 C 
HETATM    9  C   UNL     1      -3.053   5.412 -34.432  1.00  0.00     0.029 C 
HETATM   10  C   UNL     1      -2.781   4.215 -33.514  1.00  0.00     0.032 C 
HETATM   11  C   UNL     1      -2.929   4.541 -32.012  1.00  0.00     0.118 C 
HETATM   12  C   UNL     1      -0.491   7.440 -31.481  1.00  0.00     0.040 A 
ENDROOT
BRANCH  11  13
HETATM   13  N   UNL     1      -3.114   3.276 -31.298  1.00  0.00    -0.378 N 
HETATM   14  H   UNL     1      -2.263   2.948 -30.846  1.00  0.00     0.160 HD
BRANCH  13  15
HETATM   15  C   UNL     1      -4.286   2.684 -30.823  1.00  0.00     0.075 A 
HETATM   16  C   UNL     1      -4.725   1.410 -30.802  1.00  0.00     0.131 A 
HETATM   17 CL   UNL     1      -3.824   0.067 -31.423  1.00  0.00    -0.076 Cl
HETATM   18  C   UNL     1      -6.064   1.049 -30.243  1.00  0.00     0.285 A 
HETATM   19  O   UNL     1      -6.489  -0.103 -30.205  1.00  0.00    -0.265 OA
HETATM   20  N   UNL     1      -6.819   2.089 -29.767  1.00  0.00    -0.242 N 
HETATM   21  N   UNL     1      -6.439   3.388 -29.736  1.00  0.00    -0.182 NA
HETATM   22  H   UNL     1      -7.734   1.866 -29.387  1.00  0.00     0.192 HD
HETATM   23  C   UNL     1      -5.268   3.645 -30.220  1.00  0.00     0.169 A 
ENDBRANCH  13  15
ENDBRANCH  11  13
TORSDOF 2
ENDMDL
MODEL 10
REMARK VINA RESULT:      -7.2      3.276      4.073
REMARK  2 active torsions:
REMARK  status: ('A' for Active; 'I' for Inactive)
REMARK    1  A    between atoms: C_11  and  N_12 
REMARK    2  A    between atoms: N_12  and  C_13 
ROOT
HETATM    1  C   UNL     1      -4.956  -3.282 -34.589  1.00  0.00     0.045 A 
HETATM    2  C   UNL     1      -6.282  -2.872 -34.606  1.00  0.00     0.117 A 
HETATM    3  F   UNL     1      -7.154  -3.495 -35.408  1.00  0.00    -0.206 F 
HETATM    4  C   UNL     1      -6.726  -1.828 -33.797  1.00  0.00     0.054 A 
HETATM    5  C   UNL     1      -5.837  -1.159 -32.939  1.00  0.00     0.001 A 
HETATM    6  C   UNL     1      -4.490  -1.557 -32.971  1.00  0.00     0.077 A 
HETATM    7  O   UNL     1      -3.552  -0.932 -32.193  1.00  0.00    -0.351 OA
HETATM    8  C   UNL     1      -3.275   0.379 -32.696  1.00  0.00     0.175 C 
HETATM    9  C   UNL     1      -4.159   1.422 -32.024  1.00  0.00     0.029 C 
HETATM   10  C   UNL     1      -5.644   1.294 -32.382  1.00  0.00     0.032 C 
HETATM   11  C   UNL     1      -6.263  -0.061 -31.978  1.00  0.00     0.118 C 
HETATM   12  C   UNL     1      -4.052  -2.622 -33.762  1.00  0.00     0.040 A 
ENDROOT
BRANCH  11  13
HETATM   13  N   UNL     1      -7.717   0.110 -31.930  1.00  0.00    -0.378 N 
HETATM   14  H   UNL     1      -8.165  -0.496 -31.246  1.00  0.00     0.160 HD
BRANCH  13  15
HETATM   15  C   UNL     1      -8.501   1.185 -32.352  1.00  0.00     0.075 A 
HETATM   16  C   UNL     1      -8.929   1.586 -33.566  1.00  0.00     0.131 A 
HETATM   17 CL   UNL     1      -8.567   0.754 -35.041  1.00  0.00    -0.076 Cl
HETATM   18  C   UNL     1      -9.757   2.819 -33.740  1.00  0.00     0.285 A 
HETATM   19  O   UNL     1     -10.165   3.207 -34.831  1.00  0.00    -0.265 OA
HETATM   20  N   UNL     1     -10.040   3.521 -32.597  1.00  0.00    -0.242 N 
HETATM   21  N   UNL     1      -9.664   3.171 -31.344  1.00  0.00    -0.182 NA
HETATM   22  H   UNL     1     -10.598   4.364 -32.693  1.00  0.00     0.192 HD
HETATM   23  C   UNL     1      -8.961   2.090 -31.248  1.00  0.00     0.169 A 
ENDBRANCH  13  15
ENDBRANCH  11  13
TORSDOF 2
ENDMDL
