MODEL 1
REMARK VINA RESULT:      -9.8      0.000      0.000
REMARK  5 active torsions:
REMARK  status: ('A' for Active; 'I' for Inactive)
REMARK    1  A    between atoms: C_2  and  N_3 
REMARK    2  A    between atoms: C_5  and  C_6 
REMARK    3  A    between atoms: C_6  and  C_7 
REMARK       I    between atoms: C_7  and  N_8 
REMARK    4  A    between atoms: N_8  and  C_9 
REMARK    5  A    between atoms: C_16  and  O_17 
ROOT
HETATM    1  C   UNL     1      -7.833   1.359 -34.422  1.00  0.00     0.224 C 
HETATM    2  N   UNL     1      -6.869   2.293 -34.121  1.00  0.00    -0.351 N 
HETATM    3  O   UNL     1      -9.037   1.597 -34.432  1.00  0.00    -0.273 OA
HETATM    4  H   UNL     1      -5.948   1.959 -33.852  1.00  0.00     0.163 HD
ENDROOT
BRANCH   2   5
HETATM    5  C   UNL     1      -7.227   3.645 -33.756  1.00  0.00     0.135 C 
HETATM    6  C   UNL     1      -5.979   4.456 -33.681  1.00  0.00     0.040 A 
HETATM    7  C   UNL     1      -5.684   5.415 -32.733  1.00  0.00    -0.021 A 
HETATM    8  N   UNL     1      -4.956   4.427 -34.590  1.00  0.00    -0.357 N 
HETATM    9  C   UNL     1      -4.415   5.966 -33.061  1.00  0.00     0.002 A 
HETATM   10  C   UNL     1      -6.600   5.723 -31.595  1.00  0.00     0.042 C 
HETATM   11  C   UNL     1      -3.976   5.322 -34.220  1.00  0.00     0.043 A 
HETATM   12  C   UNL     1      -3.589   6.953 -32.487  1.00  0.00     0.051 A 
HETATM   13  C   UNL     1      -2.749   5.614 -34.823  1.00  0.00     0.033 A 
HETATM   14  C   UNL     1      -1.944   6.596 -34.228  1.00  0.00     0.039 A 
HETATM   15  C   UNL     1      -2.354   7.264 -33.074  1.00  0.00     0.069 A 
HETATM   16  C   UNL     1      -8.008   5.142 -31.839  1.00  0.00     0.007 C 
HETATM   17  C   UNL     1      -7.959   3.706 -32.396  1.00  0.00     0.032 C 
HETATM   18  H   UNL     1      -4.919   3.831 -35.405  1.00  0.00     0.166 HD
BRANCH  15  19
HETATM   19  O   UNL     1      -1.650   8.240 -32.420  1.00  0.00    -0.356 OA
HETATM   20  C   UNL     1      -2.223   8.758 -31.226  1.00  0.00     0.210 C 
ENDBRANCH  15  19
ENDBRANCH   2   5
BRANCH   1  21
HETATM   21  C   UNL     1      -7.289   0.003 -34.786  1.00  0.00     0.164 C 
BRANCH  21  22
HETATM   22  C   UNL     1      -6.141  -0.437 -33.909  1.00  0.00     0.075 A 
HETATM   23  N   UNL     1      -5.689   0.440 -33.067  1.00  0.00    -0.172 NA
HETATM   24  N   UNL     1      -4.623   0.117 -32.260  1.00  0.00    -0.230 N 
HETATM   25  C   UNL     1      -3.919  -1.083 -32.356  1.00  0.00     0.275 A 
HETATM   26  C   UNL     1      -4.465  -2.098 -33.275  1.00  0.00     0.046 A 
HETATM   27  O   UNL     1      -2.895  -1.336 -31.723  1.00  0.00    -0.266 OA
HETATM   28  C   UNL     1      -5.585  -1.799 -34.043  1.00  0.00     0.006 A 
HETATM   29  C   UNL     1      -3.858  -3.358 -33.370  1.00  0.00     0.018 A 
HETATM   30  C   UNL     1      -6.119  -2.772 -34.897  1.00  0.00     0.014 A 
HETATM   31  C   UNL     1      -5.516  -4.030 -34.987  1.00  0.00     0.001 A 
HETATM   32  C   UNL     1      -4.384  -4.322 -34.229  1.00  0.00     0.001 A 
BRANCH  24  33
HETATM   33  C   UNL     1      -4.082   1.199 -31.421  1.00  0.00     0.105 C 
HETATM   34  C   UNL     1      -5.165   1.906 -30.603  1.00  0.00     0.034 C 
HETATM   35  C   UNL     1      -3.308   2.202 -32.279  1.00  0.00     0.034 C 
ENDBRANCH  24  33
ENDBRANCH  21  22
ENDBRANCH   1  21
TORSDOF 5
ENDMDL
MODEL 2
REMARK VINA RESULT:      -9.4      3.523      5.885
REMARK  5 active torsions:
REMARK  status: ('A' for Active; 'I' for Inactive)
REMARK    1  A    between atoms: C_2  and  N_3 
REMARK    2  A    between atoms: C_5  and  C_6 
REMARK    3  A    between atoms: C_6  and  C_7 
REMARK       I    between atoms: C_7  and  N_8 
REMARK    4  A    between atoms: N_8  and  C_9 
REMARK    5  A    between atoms: C_16  and  O_17 
ROOT
HETATM    1  C   UNL     1      -5.313   0.805 -30.164  1.00  0.00     0.224 C 
HETATM    2  N   UNL     1      -5.610   2.074 -30.602  1.00  0.00    -0.351 N 
HETATM    3  O   UNL     1      -5.948   0.214 -29.296  1.00  0.00    -0.273 OA
HETATM    4  H   UNL     1      -4.887   2.593 -31.093  1.00  0.00     0.163 HD
ENDROOT
BRANCH   2   5
HETATM    5  C   UNL     1      -6.703   2.826 -30.028  1.00  0.00     0.135 C 
HETATM    6  C   UNL     1      -7.914   2.610 -30.870  1.00  0.00     0.040 A 
HETATM    7  C   UNL     1      -8.845   3.567 -31.220  1.00  0.00    -0.021 A 
HETATM    8  N   UNL     1      -8.331   1.406 -31.369  1.00  0.00    -0.357 N 
HETATM    9  C   UNL     1      -9.852   2.922 -31.991  1.00  0.00     0.002 A 
HETATM   10  C   UNL     1      -8.711   4.999 -30.821  1.00  0.00     0.042 C 
HETATM   11  C   UNL     1      -9.499   1.574 -32.079  1.00  0.00     0.043 A 
HETATM   12  C   UNL     1     -11.034   3.351 -32.628  1.00  0.00     0.051 A 
HETATM   13  C   UNL     1     -10.269   0.640 -32.781  1.00  0.00     0.033 A 
HETATM   14  C   UNL     1     -11.436   1.095 -33.410  1.00  0.00     0.039 A 
HETATM   15  C   UNL     1     -11.822   2.434 -33.336  1.00  0.00     0.069 A 
HETATM   16  C   UNL     1      -7.665   5.170 -29.700  1.00  0.00     0.007 C 
HETATM   17  C   UNL     1      -6.393   4.339 -29.956  1.00  0.00     0.032 C 
HETATM   18  H   UNL     1      -7.849   0.527 -31.244  1.00  0.00     0.166 HD
BRANCH  15  19
HETATM   19  O   UNL     1     -12.943   2.977 -33.906  1.00  0.00    -0.356 OA
HETATM   20  C   UNL     1     -12.782   3.612 -35.168  1.00  0.00     0.210 C 
ENDBRANCH  15  19
ENDBRANCH   2   5
BRANCH   1  21
HETATM   21  C   UNL     1      -4.150   0.162 -30.872  1.00  0.00     0.164 C 
BRANCH  21  22
HETATM   22  C   UNL     1      -4.531  -0.485 -32.183  1.00  0.00     0.075 A 
HETATM   23  N   UNL     1      -5.267   0.223 -32.984  1.00  0.00    -0.172 NA
HETATM   24  N   UNL     1      -5.678  -0.316 -34.180  1.00  0.00    -0.230 N 
HETATM   25  C   UNL     1      -5.431  -1.637 -34.557  1.00  0.00     0.275 A 
HETATM   26  C   UNL     1      -4.552  -2.422 -33.673  1.00  0.00     0.046 A 
HETATM   27  O   UNL     1      -5.892  -2.164 -35.567  1.00  0.00    -0.266 OA
HETATM   28  C   UNL     1      -4.078  -1.856 -32.494  1.00  0.00     0.006 A 
HETATM   29  C   UNL     1      -4.195  -3.733 -34.021  1.00  0.00     0.018 A 
HETATM   30  C   UNL     1      -3.222  -2.594 -31.666  1.00  0.00     0.014 A 
HETATM   31  C   UNL     1      -2.863  -3.898 -32.018  1.00  0.00     0.001 A 
HETATM   32  C   UNL     1      -3.352  -4.469 -33.191  1.00  0.00     0.001 A 
BRANCH  24  33
HETATM   33  C   UNL     1      -6.613   0.493 -34.979  1.00  0.00     0.105 C 
HETATM   34  C   UNL     1      -6.733   1.929 -34.468  1.00  0.00     0.034 C 
HETATM   35  C   UNL     1      -7.986  -0.180 -35.035  1.00  0.00     0.034 C 
ENDBRANCH  24  33
ENDBRANCH  21  22
ENDBRANCH   1  21
TORSDOF 5
ENDMDL
MODEL 3
REMARK VINA RESULT:      -9.2      3.078      8.093
REMARK  5 active torsions:
REMARK  status: ('A' for Active; 'I' for Inactive)
REMARK    1  A    between atoms: C_2  and  N_3 
REMARK    2  A    between atoms: C_5  and  C_6 
REMARK    3  A    between atoms: C_6  and  C_7 
REMARK       I    between atoms: C_7  and  N_8 
REMARK    4  A    between atoms: N_8  and  C_9 
REMARK    5  A    between atoms: C_16  and  O_17 
ROOT
HETATM    1  C   UNL     1      -5.002   6.178 -29.185  1.00  0.00     0.224 C 
HETATM    2  N   UNL     1      -5.373   5.274 -30.154  1.00  0.00    -0.351 N 
HETATM    3  O   UNL     1      -5.377   6.122 -28.018  1.00  0.00    -0.273 OA
HETATM    4  H   UNL     1      -5.265   5.545 -31.127  1.00  0.00     0.163 HD
ENDROOT
BRANCH   2   5
HETATM    5  C   UNL     1      -6.279   4.188 -29.855  1.00  0.00     0.135 C 
HETATM    6  C   UNL     1      -5.747   2.947 -30.487  1.00  0.00     0.040 A 
HETATM    7  C   UNL     1      -6.489   1.976 -31.128  1.00  0.00    -0.021 A 
HETATM    8  N   UNL     1      -4.440   2.541 -30.465  1.00  0.00    -0.357 N 
HETATM    9  C   UNL     1      -5.590   0.954 -31.541  1.00  0.00     0.002 A 
HETATM   10  C   UNL     1      -7.965   2.089 -31.315  1.00  0.00     0.042 C 
HETATM   11  C   UNL     1      -4.314   1.338 -31.125  1.00  0.00     0.043 A 
HETATM   12  C   UNL     1      -5.733  -0.267 -32.231  1.00  0.00     0.051 A 
HETATM   13  C   UNL     1      -3.177   0.563 -31.375  1.00  0.00     0.033 A 
HETATM   14  C   UNL     1      -3.346  -0.643 -32.069  1.00  0.00     0.039 A 
HETATM   15  C   UNL     1      -4.608  -1.061 -32.494  1.00  0.00     0.069 A 
HETATM   16  C   UNL     1      -8.562   3.179 -30.401  1.00  0.00     0.007 C 
HETATM   17  C   UNL     1      -7.705   4.461 -30.384  1.00  0.00     0.032 C 
HETATM   18  H   UNL     1      -3.680   3.051 -30.039  1.00  0.00     0.166 HD
BRANCH  15  19
HETATM   19  O   UNL     1      -4.882  -2.220 -33.169  1.00  0.00    -0.356 OA
HETATM   20  C   UNL     1      -5.633  -2.104 -34.371  1.00  0.00     0.210 C 
ENDBRANCH  15  19
ENDBRANCH   2   5
BRANCH   1  21
HETATM   21  C   UNL     1      -4.049   7.241 -29.662  1.00  0.00     0.164 C 
BRANCH  21  22
HETATM   22  C   UNL     1      -2.700   6.696 -30.070  1.00  0.00     0.075 A 
HETATM   23  N   UNL     1      -2.623   6.176 -31.256  1.00  0.00    -0.172 NA
HETATM   24  N   UNL     1      -1.434   5.631 -31.680  1.00  0.00    -0.230 N 
HETATM   25  C   UNL     1      -0.306   5.512 -30.867  1.00  0.00     0.275 A 
HETATM   26  C   UNL     1      -0.378   6.150 -29.540  1.00  0.00     0.046 A 
HETATM   27  O   UNL     1       0.723   4.924 -31.195  1.00  0.00    -0.266 OA
HETATM   28  C   UNL     1      -1.559   6.762 -29.134  1.00  0.00     0.006 A 
HETATM   29  C   UNL     1       0.740   6.140 -28.695  1.00  0.00     0.018 A 
HETATM   30  C   UNL     1      -1.620   7.390 -27.884  1.00  0.00     0.014 A 
HETATM   31  C   UNL     1      -0.502   7.384 -27.045  1.00  0.00     0.001 A 
HETATM   32  C   UNL     1       0.675   6.756 -27.446  1.00  0.00     0.001 A 
BRANCH  24  33
HETATM   33  C   UNL     1      -1.451   4.947 -32.983  1.00  0.00     0.105 C 
HETATM   34  C   UNL     1      -1.269   5.911 -34.157  1.00  0.00     0.034 C 
HETATM   35  C   UNL     1      -2.740   4.137 -33.142  1.00  0.00     0.034 C 
ENDBRANCH  24  33
ENDBRANCH  21  22
ENDBRANCH   1  21
TORSDOF 5
ENDMDL
MODEL 4
REMARK VINA RESULT:      -9.1      3.832      7.032
REMARK  5 active torsions:
REMARK  status: ('A' for Active; 'I' for Inactive)
REMARK    1  A    between atoms: C_2  and  N_3 
REMARK    2  A    between atoms: C_5  and  C_6 
REMARK    3  A    between atoms: C_6  and  C_7 
REMARK       I    between atoms: C_7  and  N_8 
REMARK    4  A    between atoms: N_8  and  C_9 
REMARK    5  A    between atoms: C_16  and  O_17 
ROOT
HETATM    1  C   UNL     1     -10.079   0.329 -33.417  1.00  0.00     0.224 C 
HETATM    2  N   UNL     1      -8.781   0.631 -33.756  1.00  0.00    -0.351 N 
HETATM    3  O   UNL     1     -10.390  -0.520 -32.588  1.00  0.00    -0.273 OA
HETATM    4  H   UNL     1      -8.617   1.118 -34.633  1.00  0.00     0.163 HD
ENDROOT
BRANCH   2   5
HETATM    5  C   UNL     1      -7.669  -0.077 -33.162  1.00  0.00     0.135 C 
HETATM    6  C   UNL     1      -6.645   0.923 -32.748  1.00  0.00     0.040 A 
HETATM    7  C   UNL     1      -5.277   0.791 -32.879  1.00  0.00    -0.021 A 
HETATM    8  N   UNL     1      -6.900   2.103 -32.104  1.00  0.00    -0.357 N 
HETATM    9  C   UNL     1      -4.679   1.955 -32.320  1.00  0.00     0.002 A 
HETATM   10  C   UNL     1      -4.645  -0.396 -33.525  1.00  0.00     0.042 C 
HETATM   11  C   UNL     1      -5.717   2.764 -31.853  1.00  0.00     0.043 A 
HETATM   12  C   UNL     1      -3.353   2.405 -32.162  1.00  0.00     0.051 A 
HETATM   13  C   UNL     1      -5.489   4.003 -31.247  1.00  0.00     0.033 A 
HETATM   14  C   UNL     1      -4.161   4.430 -31.108  1.00  0.00     0.039 A 
HETATM   15  C   UNL     1      -3.099   3.644 -31.557  1.00  0.00     0.069 A 
HETATM   16  C   UNL     1      -5.649  -1.560 -33.657  1.00  0.00     0.007 C 
HETATM   17  C   UNL     1      -7.032  -1.086 -34.145  1.00  0.00     0.032 C 
HETATM   18  H   UNL     1      -7.818   2.444 -31.857  1.00  0.00     0.166 HD
BRANCH  15  19
HETATM   19  O   UNL     1      -1.771   3.963 -31.464  1.00  0.00    -0.356 OA
HETATM   20  C   UNL     1      -1.317   5.068 -32.235  1.00  0.00     0.210 C 
ENDBRANCH  15  19
ENDBRANCH   2   5
BRANCH   1  21
HETATM   21  C   UNL     1     -11.114   1.165 -34.122  1.00  0.00     0.164 C 
BRANCH  21  22
HETATM   22  C   UNL     1     -11.602   2.334 -33.300  1.00  0.00     0.075 A 
HETATM   23  N   UNL     1     -10.705   3.196 -32.932  1.00  0.00    -0.172 NA
HETATM   24  N   UNL     1     -11.074   4.267 -32.154  1.00  0.00    -0.230 N 
HETATM   25  C   UNL     1     -12.360   4.442 -31.641  1.00  0.00     0.275 A 
HETATM   26  C   UNL     1     -13.389   3.493 -32.101  1.00  0.00     0.046 A 
HETATM   27  O   UNL     1     -12.673   5.330 -30.850  1.00  0.00    -0.266 OA
HETATM   28  C   UNL     1     -13.032   2.446 -32.945  1.00  0.00     0.006 A 
HETATM   29  C   UNL     1     -14.721   3.647 -31.691  1.00  0.00     0.018 A 
HETATM   30  C   UNL     1     -14.014   1.559 -33.402  1.00  0.00     0.014 A 
HETATM   31  C   UNL     1     -15.342   1.718 -32.997  1.00  0.00     0.001 A 
HETATM   32  C   UNL     1     -15.695   2.757 -32.139  1.00  0.00     0.001 A 
BRANCH  24  33
HETATM   33  C   UNL     1      -9.987   5.134 -31.669  1.00  0.00     0.105 C 
HETATM   34  C   UNL     1      -8.945   5.430 -32.749  1.00  0.00     0.034 C 
HETATM   35  C   UNL     1      -9.327   4.519 -30.433  1.00  0.00     0.034 C 
ENDBRANCH  24  33
ENDBRANCH  21  22
ENDBRANCH   1  21
TORSDOF 5
ENDMDL
MODEL 5
REMARK VINA RESULT:      -9.0     15.891     18.193
REMARK  5 active torsions:
REMARK  status: ('A' for Active; 'I' for Inactive)
REMARK    1  A    between atoms: C_2  and  N_3 
REMARK    2  A    between atoms: C_5  and  C_6 
REMARK    3  A    between atoms: C_6  and  C_7 
REMARK       I    between atoms: C_7  and  N_8 
REMARK    4  A    between atoms: N_8  and  C_9 
REMARK    5  A    between atoms: C_16  and  O_17 
ROOT
HETATM    1  C   UNL     1      -7.298 -12.992 -39.557  1.00  0.00     0.224 C 
HETATM    2  N   UNL     1      -6.911 -14.167 -38.955  1.00  0.00    -0.351 N 
HETATM    3  O   UNL     1      -8.367 -12.430 -39.339  1.00  0.00    -0.273 OA
HETATM    4  H   UNL     1      -6.170 -14.706 -39.392  1.00  0.00     0.163 HD
ENDROOT
BRANCH   2   5
HETATM    5  C   UNL     1      -7.780 -14.850 -38.023  1.00  0.00     0.135 C 
HETATM    6  C   UNL     1      -7.232 -14.665 -36.650  1.00  0.00     0.040 A 
HETATM    7  C   UNL     1      -7.182 -15.621 -35.655  1.00  0.00    -0.021 A 
HETATM    8  N   UNL     1      -6.757 -13.489 -36.135  1.00  0.00    -0.357 N 
HETATM    9  C   UNL     1      -6.623 -15.008 -34.500  1.00  0.00     0.002 A 
HETATM   10  C   UNL     1      -7.642 -17.024 -35.870  1.00  0.00     0.042 C 
HETATM   11  C   UNL     1      -6.355 -13.678 -34.831  1.00  0.00     0.043 A 
HETATM   12  C   UNL     1      -6.315 -15.451 -33.199  1.00  0.00     0.051 A 
HETATM   13  C   UNL     1      -5.787 -12.777 -33.924  1.00  0.00     0.033 A 
HETATM   14  C   UNL     1      -5.485 -13.247 -32.638  1.00  0.00     0.039 A 
HETATM   15  C   UNL     1      -5.745 -14.568 -32.272  1.00  0.00     0.069 A 
HETATM   16  C   UNL     1      -8.496 -17.141 -37.150  1.00  0.00     0.007 C 
HETATM   17  C   UNL     1      -7.888 -16.361 -38.332  1.00  0.00     0.032 C 
HETATM   18  H   UNL     1      -6.700 -12.615 -36.639  1.00  0.00     0.166 HD
BRANCH  15  19
HETATM   19  O   UNL     1      -5.496 -15.122 -31.044  1.00  0.00    -0.356 OA
HETATM   20  C   UNL     1      -4.383 -16.002 -30.948  1.00  0.00     0.210 C 
ENDBRANCH  15  19
ENDBRANCH   2   5
BRANCH   1  21
HETATM   21  C   UNL     1      -6.273 -12.409 -40.494  1.00  0.00     0.164 C 
BRANCH  21  22
HETATM   22  C   UNL     1      -4.957 -13.150 -40.477  1.00  0.00     0.075 A 
HETATM   23  N   UNL     1      -4.247 -13.041 -39.396  1.00  0.00    -0.172 NA
HETATM   24  N   UNL     1      -3.023 -13.663 -39.324  1.00  0.00    -0.230 N 
HETATM   25  C   UNL     1      -2.436 -14.339 -40.395  1.00  0.00     0.275 A 
HETATM   26  C   UNL     1      -3.264 -14.507 -41.602  1.00  0.00     0.046 A 
HETATM   27  O   UNL     1      -1.295 -14.797 -40.381  1.00  0.00    -0.266 OA
HETATM   28  C   UNL     1      -4.532 -13.937 -41.653  1.00  0.00     0.006 A 
HETATM   29  C   UNL     1      -2.775 -15.240 -42.693  1.00  0.00     0.018 A 
HETATM   30  C   UNL     1      -5.328 -14.118 -42.790  1.00  0.00     0.014 A 
HETATM   31  C   UNL     1      -4.841 -14.854 -43.874  1.00  0.00     0.001 A 
HETATM   32  C   UNL     1      -3.565 -15.410 -43.828  1.00  0.00     0.001 A 
BRANCH  24  33
HETATM   33  C   UNL     1      -2.217 -13.393 -38.122  1.00  0.00     0.105 C 
HETATM   34  C   UNL     1      -3.021 -13.547 -36.829  1.00  0.00     0.034 C 
HETATM   35  C   UNL     1      -1.585 -12.002 -38.205  1.00  0.00     0.034 C 
ENDBRANCH  24  33
ENDBRANCH  21  22
ENDBRANCH   1  21
TORSDOF 5
ENDMDL
MODEL 6
REMARK VINA RESULT:      -8.9      2.921      5.263
REMARK  5 active torsions:
REMARK  status: ('A' for Active; 'I' for Inactive)
REMARK    1  A    between atoms: C_2  and  N_3 
REMARK    2  A    between atoms: C_5  and  C_6 
REMARK    3  A    between atoms: C_6  and  C_7 
REMARK       I    between atoms: C_7  and  N_8 
REMARK    4  A    between atoms: N_8  and  C_9 
REMARK    5  A    between atoms: C_16  and  O_17 
ROOT
HETATM    1  C   UNL     1      -3.699   3.946 -31.393  1.00  0.00     0.224 C 
HETATM    2  N   UNL     1      -2.639   3.712 -32.238  1.00  0.00    -0.351 N 
HETATM    3  O   UNL     1      -4.026   5.061 -30.999  1.00  0.00    -0.273 OA
HETATM    4  H   UNL     1      -2.261   2.769 -32.282  1.00  0.00     0.163 HD
ENDROOT
BRANCH   2   5
HETATM    5  C   UNL     1      -1.801   4.793 -32.704  1.00  0.00     0.135 C 
HETATM    6  C   UNL     1      -1.201   5.466 -31.517  1.00  0.00     0.040 A 
HETATM    7  C   UNL     1      -1.029   6.825 -31.349  1.00  0.00    -0.021 A 
HETATM    8  N   UNL     1      -0.657   4.830 -30.434  1.00  0.00    -0.357 N 
HETATM    9  C   UNL     1      -0.384   7.023 -30.097  1.00  0.00     0.002 A 
HETATM   10  C   UNL     1      -1.493   7.821 -32.359  1.00  0.00     0.042 C 
HETATM   11  C   UNL     1      -0.174   5.760 -29.540  1.00  0.00     0.043 A 
HETATM   12  C   UNL     1       0.045   8.156 -29.376  1.00  0.00     0.051 A 
HETATM   13  C   UNL     1       0.436   5.580 -28.294  1.00  0.00     0.033 A 
HETATM   14  C   UNL     1       0.847   6.724 -27.595  1.00  0.00     0.039 A 
HETATM   15  C   UNL     1       0.659   8.001 -28.125  1.00  0.00     0.069 A 
HETATM   16  C   UNL     1      -1.809   7.143 -33.708  1.00  0.00     0.007 C 
HETATM   17  C   UNL     1      -2.596   5.829 -33.531  1.00  0.00     0.032 C 
HETATM   18  H   UNL     1      -0.624   3.829 -30.303  1.00  0.00     0.166 HD
BRANCH  15  19
HETATM   19  O   UNL     1       1.029   9.178 -27.530  1.00  0.00    -0.356 OA
HETATM   20  C   UNL     1       0.567   9.403 -26.205  1.00  0.00     0.210 C 
ENDBRANCH  15  19
ENDBRANCH   2   5
BRANCH   1  21
HETATM   21  C   UNL     1      -4.471   2.712 -31.011  1.00  0.00     0.164 C 
BRANCH  21  22
HETATM   22  C   UNL     1      -5.349   2.187 -32.123  1.00  0.00     0.075 A 
HETATM   23  N   UNL     1      -6.313   2.962 -32.512  1.00  0.00    -0.172 NA
HETATM   24  N   UNL     1      -7.171   2.533 -33.498  1.00  0.00    -0.230 N 
HETATM   25  C   UNL     1      -7.131   1.254 -34.053  1.00  0.00     0.275 A 
HETATM   26  C   UNL     1      -6.005   0.394 -33.648  1.00  0.00     0.046 A 
HETATM   27  O   UNL     1      -7.962   0.819 -34.848  1.00  0.00    -0.266 OA
HETATM   28  C   UNL     1      -5.094   0.851 -32.701  1.00  0.00     0.006 A 
HETATM   29  C   UNL     1      -5.852  -0.878 -34.219  1.00  0.00     0.018 A 
HETATM   30  C   UNL     1      -4.010   0.044 -32.335  1.00  0.00     0.014 A 
HETATM   31  C   UNL     1      -3.856  -1.221 -32.910  1.00  0.00     0.001 A 
HETATM   32  C   UNL     1      -4.778  -1.684 -33.847  1.00  0.00     0.001 A 
BRANCH  24  33
HETATM   33  C   UNL     1      -8.315   3.408 -33.801  1.00  0.00     0.105 C 
HETATM   34  C   UNL     1      -7.928   4.888 -33.846  1.00  0.00     0.034 C 
HETATM   35  C   UNL     1      -9.445   3.175 -32.796  1.00  0.00     0.034 C 
ENDBRANCH  24  33
ENDBRANCH  21  22
ENDBRANCH   1  21
TORSDOF 5
ENDMDL
MODEL 7
REMARK VINA RESULT:      -8.7      3.505      5.579
REMARK  5 active torsions:
REMARK  status: ('A' for Active; 'I' for Inactive)
REMARK    1  A    between atoms: C_2  and  N_3 
REMARK    2  A    between atoms: C_5  and  C_6 
REMARK    3  A    between atoms: C_6  and  C_7 
REMARK       I    between atoms: C_7  and  N_8 
REMARK    4  A    between atoms: N_8  and  C_9 
REMARK    5  A    between atoms: C_16  and  O_17 
ROOT
HETATM    1  C   UNL     1      -9.158   0.654 -33.540  1.00  0.00     0.224 C 
HETATM    2  N   UNL     1      -8.978   1.977 -33.210  1.00  0.00    -0.351 N 
HETATM    3  O   UNL     1     -10.051  -0.051 -33.080  1.00  0.00    -0.273 OA
HETATM    4  H   UNL     1      -8.072   2.398 -33.397  1.00  0.00     0.163 HD
ENDROOT
BRANCH   2   5
HETATM    5  C   UNL     1      -9.837   2.631 -32.249  1.00  0.00     0.135 C 
HETATM    6  C   UNL     1     -10.666   3.638 -32.969  1.00  0.00     0.040 A 
HETATM    7  C   UNL     1     -10.988   4.903 -32.519  1.00  0.00    -0.021 A 
HETATM    8  N   UNL     1     -11.300   3.437 -34.165  1.00  0.00    -0.357 N 
HETATM    9  C   UNL     1     -11.826   5.505 -33.498  1.00  0.00     0.002 A 
HETATM   10  C   UNL     1     -10.476   5.446 -31.227  1.00  0.00     0.042 C 
HETATM   11  C   UNL     1     -11.995   4.572 -34.522  1.00  0.00     0.043 A 
HETATM   12  C   UNL     1     -12.460   6.758 -33.618  1.00  0.00     0.051 A 
HETATM   13  C   UNL     1     -12.762   4.838 -35.662  1.00  0.00     0.033 A 
HETATM   14  C   UNL     1     -13.377   6.094 -35.758  1.00  0.00     0.039 A 
HETATM   15  C   UNL     1     -13.234   7.048 -34.750  1.00  0.00     0.069 A 
HETATM   16  C   UNL     1      -9.903   4.324 -30.337  1.00  0.00     0.007 C 
HETATM   17  C   UNL     1      -9.030   3.335 -31.134  1.00  0.00     0.032 C 
HETATM   18  H   UNL     1     -11.258   2.588 -34.710  1.00  0.00     0.166 HD
BRANCH  15  19
HETATM   19  O   UNL     1     -13.797   8.296 -34.743  1.00  0.00    -0.356 OA
HETATM   20  C   UNL     1     -13.986   8.925 -36.004  1.00  0.00     0.210 C 
ENDBRANCH  15  19
ENDBRANCH   2   5
BRANCH   1  21
HETATM   21  C   UNL     1      -8.182   0.132 -34.561  1.00  0.00     0.164 C 
BRANCH  21  22
HETATM   22  C   UNL     1      -6.799  -0.105 -34.002  1.00  0.00     0.075 A 
HETATM   23  N   UNL     1      -6.242   0.898 -33.396  1.00  0.00    -0.172 NA
HETATM   24  N   UNL     1      -4.970   0.762 -32.892  1.00  0.00    -0.230 N 
HETATM   25  C   UNL     1      -4.184  -0.376 -33.075  1.00  0.00     0.275 A 
HETATM   26  C   UNL     1      -4.836  -1.532 -33.716  1.00  0.00     0.046 A 
HETATM   27  O   UNL     1      -3.007  -0.466 -32.732  1.00  0.00    -0.266 OA
HETATM   28  C   UNL     1      -6.148  -1.420 -34.167  1.00  0.00     0.006 A 
HETATM   29  C   UNL     1      -4.137  -2.738 -33.868  1.00  0.00     0.018 A 
HETATM   30  C   UNL     1      -6.775  -2.526 -34.753  1.00  0.00     0.014 A 
HETATM   31  C   UNL     1      -6.079  -3.729 -34.898  1.00  0.00     0.001 A 
HETATM   32  C   UNL     1      -4.760  -3.834 -34.461  1.00  0.00     0.001 A 
BRANCH  24  33
HETATM   33  C   UNL     1      -4.352   1.975 -32.331  1.00  0.00     0.105 C 
HETATM   34  C   UNL     1      -4.572   2.104 -30.823  1.00  0.00     0.034 C 
HETATM   35  C   UNL     1      -4.861   3.219 -33.062  1.00  0.00     0.034 C 
ENDBRANCH  24  33
ENDBRANCH  21  22
ENDBRANCH   1  21
TORSDOF 5
ENDMDL
MODEL 8
REMARK VINA RESULT:      -8.7      2.482      7.422
REMARK  5 active torsions:
REMARK  status: ('A' for Active; 'I' for Inactive)
REMARK    1  A    between atoms: C_2  and  N_3 
REMARK    2  A    between atoms: C_5  and  C_6 
REMARK    3  A    between atoms: C_6  and  C_7 
REMARK       I    between atoms: C_7  and  N_8 
REMARK    4  A    between atoms: N_8  and  C_9 
REMARK    5  A    between atoms: C_16  and  O_17 
ROOT
HETATM    1  C   UNL     1      -5.933   5.603 -30.620  1.00  0.00     0.224 C 
HETATM    2  N   UNL     1      -6.612   4.835 -31.537  1.00  0.00    -0.351 N 
HETATM    3  O   UNL     1      -5.802   5.301 -29.438  1.00  0.00    -0.273 OA
HETATM    4  H   UNL     1      -6.921   5.279 -32.397  1.00  0.00     0.163 HD
ENDROOT
BRANCH   2   5
HETATM    5  C   UNL     1      -7.260   3.603 -31.147  1.00  0.00     0.135 C 
HETATM    6  C   UNL     1      -6.466   2.464 -31.689  1.00  0.00     0.040 A 
HETATM    7  C   UNL     1      -6.973   1.307 -32.245  1.00  0.00    -0.021 A 
HETATM    8  N   UNL     1      -5.102   2.357 -31.651  1.00  0.00    -0.357 N 
HETATM    9  C   UNL     1      -5.869   0.478 -32.590  1.00  0.00     0.002 A 
HETATM   10  C   UNL     1      -8.437   1.079 -32.424  1.00  0.00     0.042 C 
HETATM   11  C   UNL     1      -4.711   1.164 -32.219  1.00  0.00     0.043 A 
HETATM   12  C   UNL     1      -5.737  -0.793 -33.184  1.00  0.00     0.051 A 
HETATM   13  C   UNL     1      -3.430   0.640 -32.422  1.00  0.00     0.033 A 
HETATM   14  C   UNL     1      -3.327  -0.623 -33.021  1.00  0.00     0.039 A 
HETATM   15  C   UNL     1      -4.464  -1.339 -33.398  1.00  0.00     0.069 A 
HETATM   16  C   UNL     1      -9.263   2.079 -31.588  1.00  0.00     0.007 C 
HETATM   17  C   UNL     1      -8.709   3.515 -31.679  1.00  0.00     0.032 C 
HETATM   18  H   UNL     1      -4.474   3.052 -31.273  1.00  0.00     0.166 HD
BRANCH  15  19
HETATM   19  O   UNL     1      -4.473  -2.579 -33.980  1.00  0.00    -0.356 OA
HETATM   20  C   UNL     1      -5.673  -2.975 -34.633  1.00  0.00     0.210 C 
ENDBRANCH  15  19
ENDBRANCH   2   5
BRANCH   1  21
HETATM   21  C   UNL     1      -5.313   6.849 -31.194  1.00  0.00     0.164 C 
BRANCH  21  22
HETATM   22  C   UNL     1      -3.817   6.745 -31.373  1.00  0.00     0.075 A 
HETATM   23  N   UNL     1      -3.087   7.158 -30.383  1.00  0.00    -0.172 NA
HETATM   24  N   UNL     1      -1.717   7.123 -30.492  1.00  0.00    -0.230 N 
HETATM   25  C   UNL     1      -1.044   6.754 -31.657  1.00  0.00     0.275 A 
HETATM   26  C   UNL     1      -1.871   6.235 -32.761  1.00  0.00     0.046 A 
HETATM   27  O   UNL     1       0.174   6.830 -31.805  1.00  0.00    -0.266 OA
HETATM   28  C   UNL     1      -3.256   6.205 -32.629  1.00  0.00     0.006 A 
HETATM   29  C   UNL     1      -1.264   5.773 -33.937  1.00  0.00     0.018 A 
HETATM   30  C   UNL     1      -4.040   5.689 -33.668  1.00  0.00     0.014 A 
HETATM   31  C   UNL     1      -3.432   5.223 -34.836  1.00  0.00     0.001 A 
HETATM   32  C   UNL     1      -2.046   5.269 -34.974  1.00  0.00     0.001 A 
BRANCH  24  33
HETATM   33  C   UNL     1      -0.953   7.724 -29.386  1.00  0.00     0.105 C 
HETATM   34  C   UNL     1      -0.397   6.677 -28.419  1.00  0.00     0.034 C 
HETATM   35  C   UNL     1      -1.812   8.748 -28.640  1.00  0.00     0.034 C 
ENDBRANCH  24  33
ENDBRANCH  21  22
ENDBRANCH   1  21
TORSDOF 5
ENDMDL
MODEL 9
REMARK VINA RESULT:      -8.6      2.178      7.167
REMARK  5 active torsions:
REMARK  status: ('A' for Active; 'I' for Inactive)
REMARK    1  A    between atoms: C_2  and  N_3 
REMARK    2  A    between atoms: C_5  and  C_6 
REMARK    3  A    between atoms: C_6  and  C_7 
REMARK       I    between atoms: C_7  and  N_8 
REMARK    4  A    between atoms: N_8  and  C_9 
REMARK    5  A    between atoms: C_16  and  O_17 
ROOT
HETATM    1  C   UNL     1      -7.169   4.195 -33.285  1.00  0.00     0.224 C 
HETATM    2  N   UNL     1      -7.623   3.819 -32.042  1.00  0.00    -0.351 N 
HETATM    3  O   UNL     1      -7.278   3.501 -34.291  1.00  0.00    -0.273 OA
HETATM    4  H   UNL     1      -7.245   4.299 -31.230  1.00  0.00     0.163 HD
ENDROOT
BRANCH   2   5
HETATM    5  C   UNL     1      -8.248   2.533 -31.831  1.00  0.00     0.135 C 
HETATM    6  C   UNL     1      -7.316   1.475 -32.314  1.00  0.00     0.040 A 
HETATM    7  C   UNL     1      -7.666   0.336 -33.012  1.00  0.00    -0.021 A 
HETATM    8  N   UNL     1      -5.969   1.432 -32.075  1.00  0.00    -0.357 N 
HETATM    9  C   UNL     1      -6.476  -0.412 -33.234  1.00  0.00     0.002 A 
HETATM   10  C   UNL     1      -9.071   0.050 -33.425  1.00  0.00     0.042 C 
HETATM   11  C   UNL     1      -5.429   0.302 -32.649  1.00  0.00     0.043 A 
HETATM   12  C   UNL     1      -6.182  -1.630 -33.878  1.00  0.00     0.051 A 
HETATM   13  C   UNL     1      -4.103  -0.143 -32.686  1.00  0.00     0.033 A 
HETATM   14  C   UNL     1      -3.838  -1.355 -33.339  1.00  0.00     0.039 A 
HETATM   15  C   UNL     1      -4.862  -2.098 -33.928  1.00  0.00     0.069 A 
HETATM   16  C   UNL     1     -10.070   0.948 -32.666  1.00  0.00     0.007 C 
HETATM   17  C   UNL     1      -9.593   2.412 -32.582  1.00  0.00     0.032 C 
HETATM   18  H   UNL     1      -5.447   2.129 -31.564  1.00  0.00     0.166 HD
BRANCH  15  19
HETATM   19  O   UNL     1      -4.712  -3.293 -34.580  1.00  0.00    -0.356 OA
HETATM   20  C   UNL     1      -5.895  -3.917 -35.063  1.00  0.00     0.210 C 
ENDBRANCH  15  19
ENDBRANCH   2   5
BRANCH   1  21
HETATM   21  C   UNL     1      -6.551   5.567 -33.330  1.00  0.00     0.164 C 
BRANCH  21  22
HETATM   22  C   UNL     1      -5.305   5.691 -32.486  1.00  0.00     0.075 A 
HETATM   23  N   UNL     1      -5.484   5.909 -31.220  1.00  0.00    -0.172 NA
HETATM   24  N   UNL     1      -4.393   6.065 -30.398  1.00  0.00    -0.230 N 
HETATM   25  C   UNL     1      -3.077   6.101 -30.861  1.00  0.00     0.275 A 
HETATM   26  C   UNL     1      -2.871   5.801 -32.289  1.00  0.00     0.046 A 
HETATM   27  O   UNL     1      -2.103   6.356 -30.156  1.00  0.00    -0.266 OA
HETATM   28  C   UNL     1      -3.971   5.574 -33.111  1.00  0.00     0.006 A 
HETATM   29  C   UNL     1      -1.573   5.742 -32.815  1.00  0.00     0.018 A 
HETATM   30  C   UNL     1      -3.775   5.264 -34.462  1.00  0.00     0.014 A 
HETATM   31  C   UNL     1      -2.479   5.200 -34.983  1.00  0.00     0.001 A 
HETATM   32  C   UNL     1      -1.380   5.444 -34.162  1.00  0.00     0.001 A 
BRANCH  24  33
HETATM   33  C   UNL     1      -4.669   6.436 -29.001  1.00  0.00     0.105 C 
HETATM   34  C   UNL     1      -5.698   5.515 -28.341  1.00  0.00     0.034 C 
HETATM   35  C   UNL     1      -5.115   7.897 -28.915  1.00  0.00     0.034 C 
ENDBRANCH  24  33
ENDBRANCH  21  22
ENDBRANCH   1  21
TORSDOF 5
ENDMDL
MODEL 10
REMARK VINA RESULT:      -8.5      2.498      3.991
REMARK  5 active torsions:
REMARK  status: ('A' for Active; 'I' for Inactive)
REMARK    1  A    between atoms: C_2  and  N_3 
REMARK    2  A    between atoms: C_5  and  C_6 
REMARK    3  A    between atoms: C_6  and  C_7 
REMARK       I    between atoms: C_7  and  N_8 
REMARK    4  A    between atoms: N_8  and  C_9 
REMARK    5  A    between atoms: C_16  and  O_17 
ROOT
HETATM    1  C   UNL     1      -4.416   2.864 -31.765  1.00  0.00     0.224 C 
HETATM    2  N   UNL     1      -4.857   3.879 -32.581  1.00  0.00    -0.351 N 
HETATM    3  O   UNL     1      -4.115   3.017 -30.585  1.00  0.00    -0.273 OA
HETATM    4  H   UNL     1      -4.806   3.741 -33.587  1.00  0.00     0.163 HD
ENDROOT
BRANCH   2   5
HETATM    5  C   UNL     1      -4.965   5.236 -32.095  1.00  0.00     0.135 C 
HETATM    6  C   UNL     1      -3.638   5.649 -31.559  1.00  0.00     0.040 A 
HETATM    7  C   UNL     1      -3.414   6.389 -30.415  1.00  0.00    -0.021 A 
HETATM    8  N   UNL     1      -2.431   5.418 -32.160  1.00  0.00    -0.357 N 
HETATM    9  C   UNL     1      -2.010   6.588 -30.301  1.00  0.00     0.002 A 
HETATM   10  C   UNL     1      -4.522   6.834 -29.520  1.00  0.00     0.042 C 
HETATM   11  C   UNL     1      -1.418   5.960 -31.399  1.00  0.00     0.043 A 
HETATM   12  C   UNL     1      -1.178   7.240 -29.371  1.00  0.00     0.051 A 
HETATM   13  C   UNL     1      -0.034   5.948 -31.602  1.00  0.00     0.033 A 
HETATM   14  C   UNL     1       0.771   6.600 -30.657  1.00  0.00     0.039 A 
HETATM   15  C   UNL     1       0.212   7.243 -29.552  1.00  0.00     0.069 A 
HETATM   16  C   UNL     1      -5.891   6.702 -30.219  1.00  0.00     0.007 C 
HETATM   17  C   UNL     1      -6.031   5.371 -30.983  1.00  0.00     0.032 C 
HETATM   18  H   UNL     1      -2.299   4.917 -33.028  1.00  0.00     0.166 HD
BRANCH  15  19
HETATM   19  O   UNL     1       0.906   7.913 -28.579  1.00  0.00    -0.356 OA
HETATM   20  C   UNL     1       1.050   7.259 -27.325  1.00  0.00     0.210 C 
ENDBRANCH  15  19
ENDBRANCH   2   5
BRANCH   1  21
HETATM   21  C   UNL     1      -4.370   1.513 -32.426  1.00  0.00     0.164 C 
BRANCH  21  22
HETATM   22  C   UNL     1      -5.737   0.953 -32.741  1.00  0.00     0.075 A 
HETATM   23  N   UNL     1      -6.754   1.681 -32.394  1.00  0.00    -0.172 NA
HETATM   24  N   UNL     1      -8.028   1.218 -32.620  1.00  0.00    -0.230 N 
HETATM   25  C   UNL     1      -8.309  -0.053 -33.123  1.00  0.00     0.275 A 
HETATM   26  C   UNL     1      -7.157  -0.857 -33.566  1.00  0.00     0.046 A 
HETATM   27  O   UNL     1      -9.441  -0.522 -33.221  1.00  0.00    -0.266 OA
HETATM   28  C   UNL     1      -5.867  -0.362 -33.401  1.00  0.00     0.006 A 
HETATM   29  C   UNL     1      -7.361  -2.114 -34.153  1.00  0.00     0.018 A 
HETATM   30  C   UNL     1      -4.773  -1.116 -33.845  1.00  0.00     0.014 A 
HETATM   31  C   UNL     1      -4.980  -2.366 -34.435  1.00  0.00     0.001 A 
HETATM   32  C   UNL     1      -6.271  -2.867 -34.585  1.00  0.00     0.001 A 
BRANCH  24  33
HETATM   33  C   UNL     1      -9.130   2.036 -32.087  1.00  0.00     0.105 C 
HETATM   34  C   UNL     1      -9.682   3.022 -33.118  1.00  0.00     0.034 C 
HETATM   35  C   UNL     1      -8.685   2.768 -30.820  1.00  0.00     0.034 C 
ENDBRANCH  24  33
ENDBRANCH  21  22
ENDBRANCH   1  21
TORSDOF 5
ENDMDL
