MODEL 1
REMARK VINA RESULT:      -9.6      0.000      0.000
REMARK  6 active torsions:
REMARK  status: ('A' for Active; 'I' for Inactive)
REMARK    1  A    between atoms: C_7  and  S_8 
REMARK    2  A    between atoms: S_8  and  C_9 
REMARK    3  A    between atoms: C_9  and  C_10 
REMARK    4  A    between atoms: C_18  and  C_19 
REMARK    5  A    between atoms: C_29  and  C_30 
REMARK    6  A    between atoms: C_30  and  O_31 
ROOT
HETATM    1  C   UNL     1      -7.859   4.313 -29.047  1.00  0.00     0.070 C 
HETATM    2  C   UNL     1      -6.647   3.729 -29.727  1.00  0.00     0.037 A 
HETATM    3  N   UNL     1      -6.608   2.343 -29.796  1.00  0.00    -0.192 N 
HETATM    4  C   UNL     1      -5.611   1.656 -30.380  1.00  0.00     0.726 A 
HETATM    5  N   UNL     1      -4.541   2.328 -30.903  1.00  0.00    -0.082 N 
HETATM    6  N   UNL     1      -3.623   1.470 -31.402  1.00  0.00    -0.128 NA
HETATM    7  C   UNL     1      -4.250   0.298 -31.218  1.00  0.00     0.226 A 
HETATM    8  N   UNL     1      -5.460   0.374 -30.576  1.00  0.00    -0.035 NA
HETATM    9  C   UNL     1      -4.403   3.797 -30.883  1.00  0.00     0.204 A 
HETATM   10  C   UNL     1      -5.621   4.454 -30.236  1.00  0.00     0.070 A 
HETATM   11  H   UNL     1      -7.405   1.829 -29.428  1.00  0.00     0.184 HD
ENDROOT
BRANCH   9  12
HETATM   12  C   UNL     1      -4.125   4.333 -32.294  1.00  0.00    -0.017 A 
HETATM   13  C   UNL     1      -2.994   5.156 -32.597  1.00  0.00    -0.017 A 
HETATM   14  C   UNL     1      -2.858   5.662 -33.917  1.00  0.00    -0.025 A 
HETATM   15  C   UNL     1      -1.986   5.525 -31.669  1.00  0.00     0.013 A 
HETATM   16  C   UNL     1      -1.776   6.492 -34.256  1.00  0.00     0.012 A 
HETATM   17  C   UNL     1      -3.808   5.343 -34.896  1.00  0.00     0.012 A 
HETATM   18  C   UNL     1      -0.813   6.840 -33.314  1.00  0.00     0.001 A 
HETATM   19  C   UNL     1      -0.916   6.355 -32.021  1.00  0.00     0.001 A 
HETATM   20  C   UNL     1      -4.903   4.540 -34.599  1.00  0.00     0.002 A 
HETATM   21  C   UNL     1      -5.065   4.046 -33.312  1.00  0.00     0.010 A 
ENDBRANCH   9  12
BRANCH  10  22
HETATM   22  C   UNL     1      -5.668   5.928 -30.248  1.00  0.00     0.293 C 
HETATM   23  O   UNL     1      -6.471   6.583 -30.895  1.00  0.00    -0.259 OA
BRANCH  22  24
HETATM   24  O   UNL     1      -4.702   6.417 -29.435  1.00  0.00    -0.323 OA
HETATM   25  C   UNL     1      -5.176   6.745 -28.127  1.00  0.00     0.213 C 
ENDBRANCH  22  24
ENDBRANCH  10  22
BRANCH   7  26
HETATM   26  S   UNL     1      -3.643  -1.228 -31.793  1.00  0.00    -0.083 SA
BRANCH  26  27
HETATM   27  C   UNL     1      -4.059  -1.158 -33.556  1.00  0.00     0.123 C 
BRANCH  27  28
HETATM   28  C   UNL     1      -4.745  -2.433 -33.996  1.00  0.00    -0.027 A 
HETATM   29  C   UNL     1      -6.023  -2.451 -34.578  1.00  0.00     0.041 A 
HETATM   30 CL   UNL     1      -6.954  -1.011 -34.790  1.00  0.00    -0.084 Cl
HETATM   31  C   UNL     1      -6.591  -3.655 -35.013  1.00  0.00     0.024 A 
HETATM   32  C   UNL     1      -5.893  -4.853 -34.873  1.00  0.00     0.002 A 
HETATM   33  C   UNL     1      -4.625  -4.853 -34.298  1.00  0.00     0.001 A 
HETATM   34  C   UNL     1      -4.055  -3.654 -33.867  1.00  0.00     0.009 A 
ENDBRANCH  27  28
ENDBRANCH  26  27
ENDBRANCH   7  26
TORSDOF 6
ENDMDL
MODEL 2
REMARK VINA RESULT:      -9.5      3.481      7.807
REMARK  6 active torsions:
REMARK  status: ('A' for Active; 'I' for Inactive)
REMARK    1  A    between atoms: C_7  and  S_8 
REMARK    2  A    between atoms: S_8  and  C_9 
REMARK    3  A    between atoms: C_9  and  C_10 
REMARK    4  A    between atoms: C_18  and  C_19 
REMARK    5  A    between atoms: C_29  and  C_30 
REMARK    6  A    between atoms: C_30  and  O_31 
ROOT
HETATM    1  C   UNL     1      -7.666   3.664 -29.553  1.00  0.00     0.070 C 
HETATM    2  C   UNL     1      -6.610   3.476 -30.613  1.00  0.00     0.037 A 
HETATM    3  N   UNL     1      -5.670   4.493 -30.708  1.00  0.00    -0.192 N 
HETATM    4  C   UNL     1      -4.650   4.482 -31.585  1.00  0.00     0.726 A 
HETATM    5  N   UNL     1      -4.534   3.450 -32.475  1.00  0.00    -0.082 N 
HETATM    6  N   UNL     1      -3.482   3.636 -33.303  1.00  0.00    -0.128 NA
HETATM    7  C   UNL     1      -2.961   4.764 -32.796  1.00  0.00     0.226 A 
HETATM    8  N   UNL     1      -3.664   5.319 -31.756  1.00  0.00    -0.035 NA
HETATM    9  C   UNL     1      -5.466   2.308 -32.537  1.00  0.00     0.204 A 
HETATM   10  C   UNL     1      -6.544   2.420 -31.460  1.00  0.00     0.070 A 
HETATM   11  H   UNL     1      -5.731   5.258 -30.041  1.00  0.00     0.184 HD
ENDROOT
BRANCH   9  12
HETATM   12  C   UNL     1      -4.699   0.980 -32.464  1.00  0.00    -0.017 A 
HETATM   13  C   UNL     1      -5.046  -0.154 -33.267  1.00  0.00    -0.017 A 
HETATM   14  C   UNL     1      -4.322  -1.362 -33.081  1.00  0.00    -0.025 A 
HETATM   15  C   UNL     1      -6.078  -0.176 -34.240  1.00  0.00     0.013 A 
HETATM   16  C   UNL     1      -4.640  -2.508 -33.829  1.00  0.00     0.012 A 
HETATM   17  C   UNL     1      -3.285  -1.425 -32.141  1.00  0.00     0.012 A 
HETATM   18  C   UNL     1      -5.667  -2.492 -34.768  1.00  0.00     0.001 A 
HETATM   19  C   UNL     1      -6.385  -1.326 -34.975  1.00  0.00     0.001 A 
HETATM   20  C   UNL     1      -2.949  -0.321 -31.368  1.00  0.00     0.002 A 
HETATM   21  C   UNL     1      -3.652   0.866 -31.521  1.00  0.00     0.010 A 
ENDBRANCH   9  12
BRANCH  10  22
HETATM   22  C   UNL     1      -7.481   1.288 -31.333  1.00  0.00     0.293 C 
HETATM   23  O   UNL     1      -7.309   0.336 -30.587  1.00  0.00    -0.259 OA
BRANCH  22  24
HETATM   24  O   UNL     1      -8.539   1.484 -32.155  1.00  0.00    -0.323 OA
HETATM   25  C   UNL     1      -9.355   0.322 -32.314  1.00  0.00     0.213 C 
ENDBRANCH  22  24
ENDBRANCH  10  22
BRANCH   7  26
HETATM   26  S   UNL     1      -1.469   5.475 -33.339  1.00  0.00    -0.083 SA
BRANCH  26  27
HETATM   27  C   UNL     1      -1.307   6.902 -32.234  1.00  0.00     0.123 C 
BRANCH  27  28
HETATM   28  C   UNL     1      -0.583   6.516 -30.962  1.00  0.00    -0.027 A 
HETATM   29  C   UNL     1      -0.695   7.248 -29.768  1.00  0.00     0.041 A 
HETATM   30 CL   UNL     1      -1.630   8.697 -29.665  1.00  0.00    -0.084 Cl
HETATM   31  C   UNL     1      -0.042   6.818 -28.606  1.00  0.00     0.024 A 
HETATM   32  C   UNL     1       0.728   5.656 -28.620  1.00  0.00     0.002 A 
HETATM   33  C   UNL     1       0.848   4.920 -29.795  1.00  0.00     0.001 A 
HETATM   34  C   UNL     1       0.196   5.343 -30.954  1.00  0.00     0.009 A 
ENDBRANCH  27  28
ENDBRANCH  26  27
ENDBRANCH   7  26
TORSDOF 6
ENDMDL
MODEL 3
REMARK VINA RESULT:      -9.3      4.526      6.723
REMARK  6 active torsions:
REMARK  status: ('A' for Active; 'I' for Inactive)
REMARK    1  A    between atoms: C_7  and  S_8 
REMARK    2  A    between atoms: S_8  and  C_9 
REMARK    3  A    between atoms: C_9  and  C_10 
REMARK    4  A    between atoms: C_18  and  C_19 
REMARK    5  A    between atoms: C_29  and  C_30 
REMARK    6  A    between atoms: C_30  and  O_31 
ROOT
HETATM    1  C   UNL     1      -3.658   5.482 -34.567  1.00  0.00     0.070 C 
HETATM    2  C   UNL     1      -4.833   4.964 -33.778  1.00  0.00     0.037 A 
HETATM    3  N   UNL     1      -6.084   5.291 -34.283  1.00  0.00    -0.192 N 
HETATM    4  C   UNL     1      -7.239   4.899 -33.716  1.00  0.00     0.726 A 
HETATM    5  N   UNL     1      -7.213   4.179 -32.554  1.00  0.00    -0.082 N 
HETATM    6  N   UNL     1      -8.465   3.920 -32.113  1.00  0.00    -0.128 NA
HETATM    7  C   UNL     1      -9.195   4.445 -33.109  1.00  0.00     0.226 A 
HETATM    8  N   UNL     1      -8.476   5.071 -34.096  1.00  0.00    -0.035 NA
HETATM    9  C   UNL     1      -5.973   3.778 -31.863  1.00  0.00     0.204 A 
HETATM   10  C   UNL     1      -4.739   4.243 -32.634  1.00  0.00     0.070 A 
HETATM   11  H   UNL     1      -6.121   5.810 -35.157  1.00  0.00     0.184 HD
ENDROOT
BRANCH   9  12
HETATM   12  C   UNL     1      -5.966   2.266 -31.600  1.00  0.00    -0.017 A 
HETATM   13  C   UNL     1      -6.209   1.303 -32.631  1.00  0.00    -0.017 A 
HETATM   14  C   UNL     1      -6.251  -0.072 -32.278  1.00  0.00    -0.025 A 
HETATM   15  C   UNL     1      -6.427   1.615 -33.998  1.00  0.00     0.013 A 
HETATM   16  C   UNL     1      -6.508  -1.052 -33.252  1.00  0.00     0.012 A 
HETATM   17  C   UNL     1      -6.043  -0.466 -30.950  1.00  0.00     0.012 A 
HETATM   18  C   UNL     1      -6.727  -0.705 -34.582  1.00  0.00     0.001 A 
HETATM   19  C   UNL     1      -6.685   0.628 -34.956  1.00  0.00     0.001 A 
HETATM   20  C   UNL     1      -5.803   0.471 -29.953  1.00  0.00     0.002 A 
HETATM   21  C   UNL     1      -5.773   1.822 -30.271  1.00  0.00     0.010 A 
ENDBRANCH   9  12
BRANCH  10  22
HETATM   22  C   UNL     1      -3.427   3.815 -32.114  1.00  0.00     0.293 C 
HETATM   23  O   UNL     1      -2.846   2.802 -32.472  1.00  0.00    -0.259 OA
BRANCH  22  24
HETATM   24  O   UNL     1      -2.985   4.717 -31.206  1.00  0.00    -0.323 OA
HETATM   25  C   UNL     1      -1.577   4.950 -31.279  1.00  0.00     0.213 C 
ENDBRANCH  22  24
ENDBRANCH  10  22
BRANCH   7  26
HETATM   26  S   UNL     1     -10.926   4.311 -33.219  1.00  0.00    -0.083 SA
BRANCH  26  27
HETATM   27  C   UNL     1     -11.130   3.278 -34.693  1.00  0.00     0.123 C 
BRANCH  27  28
HETATM   28  C   UNL     1     -12.008   2.082 -34.393  1.00  0.00    -0.027 A 
HETATM   29  C   UNL     1     -11.541   0.945 -33.712  1.00  0.00     0.041 A 
HETATM   30 CL   UNL     1      -9.896   0.789 -33.206  1.00  0.00    -0.084 Cl
HETATM   31  C   UNL     1     -12.409  -0.113 -33.416  1.00  0.00     0.024 A 
HETATM   32  C   UNL     1     -13.749  -0.052 -33.795  1.00  0.00     0.002 A 
HETATM   33  C   UNL     1     -14.227   1.068 -34.470  1.00  0.00     0.001 A 
HETATM   34  C   UNL     1     -13.365   2.126 -34.763  1.00  0.00     0.009 A 
ENDBRANCH  27  28
ENDBRANCH  26  27
ENDBRANCH   7  26
TORSDOF 6
ENDMDL
MODEL 4
REMARK VINA RESULT:      -9.0      3.702      7.695
REMARK  6 active torsions:
REMARK  status: ('A' for Active; 'I' for Inactive)
REMARK    1  A    between atoms: C_7  and  S_8 
REMARK    2  A    between atoms: S_8  and  C_9 
REMARK    3  A    between atoms: C_9  and  C_10 
REMARK    4  A    between atoms: C_18  and  C_19 
REMARK    5  A    between atoms: C_29  and  C_30 
REMARK    6  A    between atoms: C_30  and  O_31 
ROOT
HETATM    1  C   UNL     1      -8.444   5.601 -30.393  1.00  0.00     0.070 C 
HETATM    2  C   UNL     1      -7.372   5.181 -31.366  1.00  0.00     0.037 A 
HETATM    3  N   UNL     1      -6.330   6.081 -31.536  1.00  0.00    -0.192 N 
HETATM    4  C   UNL     1      -5.283   5.861 -32.352  1.00  0.00     0.726 A 
HETATM    5  N   UNL     1      -5.239   4.719 -33.103  1.00  0.00    -0.082 N 
HETATM    6  N   UNL     1      -4.142   4.697 -33.892  1.00  0.00    -0.128 NA
HETATM    7  C   UNL     1      -3.529   5.824 -33.499  1.00  0.00     0.226 A 
HETATM    8  N   UNL     1      -4.211   6.571 -32.572  1.00  0.00    -0.035 NA
HETATM    9  C   UNL     1      -6.280   3.674 -33.073  1.00  0.00     0.204 A 
HETATM   10  C   UNL     1      -7.382   4.025 -32.075  1.00  0.00     0.070 A 
HETATM   11  H   UNL     1      -6.338   6.927 -30.971  1.00  0.00     0.184 HD
ENDROOT
BRANCH   9  12
HETATM   12  C   UNL     1      -5.656   2.298 -32.800  1.00  0.00    -0.017 A 
HETATM   13  C   UNL     1      -6.007   1.131 -33.553  1.00  0.00    -0.017 A 
HETATM   14  C   UNL     1      -5.429  -0.112 -33.182  1.00  0.00    -0.025 A 
HETATM   15  C   UNL     1      -6.908   1.111 -34.648  1.00  0.00     0.013 A 
HETATM   16  C   UNL     1      -5.759  -1.289 -33.876  1.00  0.00     0.012 A 
HETATM   17  C   UNL     1      -4.526  -0.180 -32.113  1.00  0.00     0.012 A 
HETATM   18  C   UNL     1      -6.656  -1.269 -34.940  1.00  0.00     0.001 A 
HETATM   19  C   UNL     1      -7.230  -0.069 -35.327  1.00  0.00     0.001 A 
HETATM   20  C   UNL     1      -4.185   0.956 -31.389  1.00  0.00     0.002 A 
HETATM   21  C   UNL     1      -4.749   2.180 -31.722  1.00  0.00     0.010 A 
ENDBRANCH   9  12
BRANCH  10  22
HETATM   22  C   UNL     1      -8.434   3.014 -31.860  1.00  0.00     0.293 C 
HETATM   23  O   UNL     1      -8.481   2.267 -30.894  1.00  0.00    -0.259 OA
BRANCH  22  24
HETATM   24  O   UNL     1      -9.320   3.060 -32.883  1.00  0.00    -0.323 OA
HETATM   25  C   UNL     1     -10.678   3.159 -32.451  1.00  0.00     0.213 C 
ENDBRANCH  22  24
ENDBRANCH  10  22
BRANCH   7  26
HETATM   26  S   UNL     1      -1.951   6.313 -34.047  1.00  0.00    -0.083 SA
BRANCH  26  27
HETATM   27  C   UNL     1      -1.531   7.621 -32.866  1.00  0.00     0.123 C 
BRANCH  27  28
HETATM   28  C   UNL     1      -0.864   7.041 -31.637  1.00  0.00    -0.027 A 
HETATM   29  C   UNL     1      -1.040   7.574 -30.349  1.00  0.00     0.041 A 
HETATM   30 CL   UNL     1      -1.996   8.985 -30.064  1.00  0.00    -0.084 Cl
HETATM   31  C   UNL     1      -0.440   6.968 -29.240  1.00  0.00     0.024 A 
HETATM   32  C   UNL     1       0.344   5.826 -29.400  1.00  0.00     0.002 A 
HETATM   33  C   UNL     1       0.528   5.285 -30.669  1.00  0.00     0.001 A 
HETATM   34  C   UNL     1      -0.073   5.885 -31.777  1.00  0.00     0.009 A 
ENDBRANCH  27  28
ENDBRANCH  26  27
ENDBRANCH   7  26
TORSDOF 6
ENDMDL
MODEL 5
REMARK VINA RESULT:      -9.0      1.922      2.243
REMARK  6 active torsions:
REMARK  status: ('A' for Active; 'I' for Inactive)
REMARK    1  A    between atoms: C_7  and  S_8 
REMARK    2  A    between atoms: S_8  and  C_9 
REMARK    3  A    between atoms: C_9  and  C_10 
REMARK    4  A    between atoms: C_18  and  C_19 
REMARK    5  A    between atoms: C_29  and  C_30 
REMARK    6  A    between atoms: C_30  and  O_31 
ROOT
HETATM    1  C   UNL     1      -8.948   5.959 -30.871  1.00  0.00     0.070 C 
HETATM    2  C   UNL     1      -7.938   4.912 -31.269  1.00  0.00     0.037 A 
HETATM    3  N   UNL     1      -8.464   3.675 -31.618  1.00  0.00    -0.192 N 
HETATM    4  C   UNL     1      -7.711   2.633 -32.013  1.00  0.00     0.726 A 
HETATM    5  N   UNL     1      -6.348   2.753 -32.038  1.00  0.00    -0.082 N 
HETATM    6  N   UNL     1      -5.764   1.593 -32.413  1.00  0.00    -0.128 NA
HETATM    7  C   UNL     1      -6.844   0.843 -32.679  1.00  0.00     0.226 A 
HETATM    8  N   UNL     1      -8.052   1.443 -32.424  1.00  0.00    -0.035 NA
HETATM    9  C   UNL     1      -5.624   3.983 -31.665  1.00  0.00     0.204 A 
HETATM   10  C   UNL     1      -6.596   5.098 -31.284  1.00  0.00     0.070 A 
HETATM   11  H   UNL     1      -9.476   3.575 -31.623  1.00  0.00     0.184 HD
ENDROOT
BRANCH   9  12
HETATM   12  C   UNL     1      -4.657   4.401 -32.781  1.00  0.00    -0.017 A 
HETATM   13  C   UNL     1      -3.281   4.707 -32.534  1.00  0.00    -0.017 A 
HETATM   14  C   UNL     1      -2.480   5.151 -33.619  1.00  0.00    -0.025 A 
HETATM   15  C   UNL     1      -2.642   4.612 -31.270  1.00  0.00     0.013 A 
HETATM   16  C   UNL     1      -1.129   5.485 -33.421  1.00  0.00     0.012 A 
HETATM   17  C   UNL     1      -3.032   5.270 -34.902  1.00  0.00     0.012 A 
HETATM   18  C   UNL     1      -0.541   5.388 -32.164  1.00  0.00     0.001 A 
HETATM   19  C   UNL     1      -1.296   4.951 -31.088  1.00  0.00     0.001 A 
HETATM   20  C   UNL     1      -4.368   4.968 -35.138  1.00  0.00     0.002 A 
HETATM   21  C   UNL     1      -5.174   4.546 -34.089  1.00  0.00     0.010 A 
ENDBRANCH   9  12
BRANCH  10  22
HETATM   22  C   UNL     1      -6.012   6.421 -30.994  1.00  0.00     0.293 C 
HETATM   23  O   UNL     1      -6.154   7.404 -31.705  1.00  0.00    -0.259 OA
BRANCH  22  24
HETATM   24  O   UNL     1      -5.319   6.364 -29.832  1.00  0.00    -0.323 OA
HETATM   25  C   UNL     1      -6.101   6.716 -28.689  1.00  0.00     0.213 C 
ENDBRANCH  22  24
ENDBRANCH  10  22
BRANCH   7  26
HETATM   26  S   UNL     1      -6.772  -0.756 -33.360  1.00  0.00    -0.083 SA
BRANCH  26  27
HETATM   27  C   UNL     1      -5.077  -0.818 -33.998  1.00  0.00     0.123 C 
BRANCH  27  28
HETATM   28  C   UNL     1      -4.389  -2.097 -33.572  1.00  0.00    -0.027 A 
HETATM   29  C   UNL     1      -3.625  -2.199 -32.398  1.00  0.00     0.041 A 
HETATM   30 CL   UNL     1      -3.354  -0.844 -31.360  1.00  0.00    -0.084 Cl
HETATM   31  C   UNL     1      -3.052  -3.421 -32.026  1.00  0.00     0.024 A 
HETATM   32  C   UNL     1      -3.232  -4.553 -32.818  1.00  0.00     0.002 A 
HETATM   33  C   UNL     1      -3.987  -4.469 -33.984  1.00  0.00     0.001 A 
HETATM   34  C   UNL     1      -4.563  -3.254 -34.356  1.00  0.00     0.009 A 
ENDBRANCH  27  28
ENDBRANCH  26  27
ENDBRANCH   7  26
TORSDOF 6
ENDMDL
MODEL 6
REMARK VINA RESULT:      -8.8      3.794      7.528
REMARK  6 active torsions:
REMARK  status: ('A' for Active; 'I' for Inactive)
REMARK    1  A    between atoms: C_7  and  S_8 
REMARK    2  A    between atoms: S_8  and  C_9 
REMARK    3  A    between atoms: C_9  and  C_10 
REMARK    4  A    between atoms: C_18  and  C_19 
REMARK    5  A    between atoms: C_29  and  C_30 
REMARK    6  A    between atoms: C_30  and  O_31 
ROOT
HETATM    1  C   UNL     1      -9.320   3.736 -30.465  1.00  0.00     0.070 C 
HETATM    2  C   UNL     1      -8.349   3.574 -31.607  1.00  0.00     0.037 A 
HETATM    3  N   UNL     1      -7.313   4.496 -31.647  1.00  0.00    -0.192 N 
HETATM    4  C   UNL     1      -6.350   4.490 -32.586  1.00  0.00     0.726 A 
HETATM    5  N   UNL     1      -6.393   3.567 -33.595  1.00  0.00    -0.082 N 
HETATM    6  N   UNL     1      -5.373   3.747 -34.464  1.00  0.00    -0.128 NA
HETATM    7  C   UNL     1      -4.708   4.748 -33.866  1.00  0.00     0.226 A 
HETATM    8  N   UNL     1      -5.291   5.240 -32.725  1.00  0.00    -0.035 NA
HETATM    9  C   UNL     1      -7.443   2.539 -33.724  1.00  0.00     0.204 A 
HETATM   10  C   UNL     1      -8.442   2.627 -32.573  1.00  0.00     0.070 A 
HETATM   11  H   UNL     1      -7.256   5.177 -30.895  1.00  0.00     0.184 HD
ENDROOT
BRANCH   9  12
HETATM   12  C   UNL     1      -6.819   1.142 -33.856  1.00  0.00    -0.017 A 
HETATM   13  C   UNL     1      -5.852   0.640 -32.927  1.00  0.00    -0.017 A 
HETATM   14  C   UNL     1      -5.279  -0.637 -33.170  1.00  0.00    -0.025 A 
HETATM   15  C   UNL     1      -5.402   1.328 -31.770  1.00  0.00     0.013 A 
HETATM   16  C   UNL     1      -4.311  -1.163 -32.299  1.00  0.00     0.012 A 
HETATM   17  C   UNL     1      -5.670  -1.384 -34.289  1.00  0.00     0.012 A 
HETATM   18  C   UNL     1      -3.888  -0.452 -31.179  1.00  0.00     0.001 A 
HETATM   19  C   UNL     1      -4.435   0.792 -30.914  1.00  0.00     0.001 A 
HETATM   20  C   UNL     1      -6.612  -0.894 -35.185  1.00  0.00     0.002 A 
HETATM   21  C   UNL     1      -7.175   0.358 -34.977  1.00  0.00     0.010 A 
ENDBRANCH   9  12
BRANCH  10  22
HETATM   22  C   UNL     1      -9.486   1.586 -32.515  1.00  0.00     0.293 C 
HETATM   23  O   UNL     1      -9.411   0.577 -31.830  1.00  0.00    -0.259 OA
BRANCH  22  24
HETATM   24  O   UNL     1     -10.517   1.936 -33.320  1.00  0.00    -0.323 OA
HETATM   25  C   UNL     1     -11.453   0.877 -33.533  1.00  0.00     0.213 C 
ENDBRANCH  22  24
ENDBRANCH  10  22
BRANCH   7  26
HETATM   26  S   UNL     1      -3.181   5.367 -34.422  1.00  0.00    -0.083 SA
BRANCH  26  27
HETATM   27  C   UNL     1      -2.946   6.810 -33.350  1.00  0.00     0.123 C 
BRANCH  27  28
HETATM   28  C   UNL     1      -1.765   6.606 -32.427  1.00  0.00    -0.027 A 
HETATM   29  C   UNL     1      -1.376   7.551 -31.463  1.00  0.00     0.041 A 
HETATM   30 CL   UNL     1      -2.187   9.068 -31.288  1.00  0.00    -0.084 Cl
HETATM   31  C   UNL     1      -0.305   7.290 -30.601  1.00  0.00     0.024 A 
HETATM   32  C   UNL     1       0.391   6.086 -30.688  1.00  0.00     0.002 A 
HETATM   33  C   UNL     1       0.019   5.138 -31.638  1.00  0.00     0.001 A 
HETATM   34  C   UNL     1      -1.051   5.394 -32.497  1.00  0.00     0.009 A 
ENDBRANCH  27  28
ENDBRANCH  26  27
ENDBRANCH   7  26
TORSDOF 6
ENDMDL
MODEL 7
REMARK VINA RESULT:      -8.3      2.089      3.038
REMARK  6 active torsions:
REMARK  status: ('A' for Active; 'I' for Inactive)
REMARK    1  A    between atoms: C_7  and  S_8 
REMARK    2  A    between atoms: S_8  and  C_9 
REMARK    3  A    between atoms: C_9  and  C_10 
REMARK    4  A    between atoms: C_18  and  C_19 
REMARK    5  A    between atoms: C_29  and  C_30 
REMARK    6  A    between atoms: C_30  and  O_31 
ROOT
HETATM    1  C   UNL     1      -7.327   7.179 -32.020  1.00  0.00     0.070 C 
HETATM    2  C   UNL     1      -6.189   6.243 -31.701  1.00  0.00     0.037 A 
HETATM    3  N   UNL     1      -6.325   4.948 -32.180  1.00  0.00    -0.192 N 
HETATM    4  C   UNL     1      -5.399   3.989 -32.001  1.00  0.00     0.726 A 
HETATM    5  N   UNL     1      -4.274   4.261 -31.273  1.00  0.00    -0.082 N 
HETATM    6  N   UNL     1      -3.488   3.166 -31.163  1.00  0.00    -0.128 NA
HETATM    7  C   UNL     1      -4.168   2.293 -31.922  1.00  0.00     0.226 A 
HETATM    8  N   UNL     1      -5.353   2.759 -32.434  1.00  0.00    -0.035 NA
HETATM    9  C   UNL     1      -3.987   5.573 -30.662  1.00  0.00     0.204 A 
HETATM   10  C   UNL     1      -5.091   6.580 -30.980  1.00  0.00     0.070 A 
HETATM   11  H   UNL     1      -7.147   4.734 -32.739  1.00  0.00     0.184 HD
ENDROOT
BRANCH   9  12
HETATM   12  C   UNL     1      -2.597   6.072 -31.081  1.00  0.00    -0.017 A 
HETATM   13  C   UNL     1      -1.653   6.597 -30.142  1.00  0.00    -0.017 A 
HETATM   14  C   UNL     1      -0.418   7.099 -30.633  1.00  0.00    -0.025 A 
HETATM   15  C   UNL     1      -1.855   6.671 -28.740  1.00  0.00     0.013 A 
HETATM   16  C   UNL     1       0.532   7.645 -29.753  1.00  0.00     0.012 A 
HETATM   17  C   UNL     1      -0.136   7.061 -32.005  1.00  0.00     0.012 A 
HETATM   18  C   UNL     1       0.292   7.709 -28.384  1.00  0.00     0.001 A 
HETATM   19  C   UNL     1      -0.901   7.221 -27.877  1.00  0.00     0.001 A 
HETATM   20  C   UNL     1      -1.054   6.546 -32.912  1.00  0.00     0.002 A 
HETATM   21  C   UNL     1      -2.274   6.064 -32.458  1.00  0.00     0.010 A 
ENDBRANCH   9  12
BRANCH  10  22
HETATM   22  C   UNL     1      -4.880   7.967 -30.524  1.00  0.00     0.293 C 
HETATM   23  O   UNL     1      -4.449   8.864 -31.233  1.00  0.00    -0.259 OA
BRANCH  22  24
HETATM   24  O   UNL     1      -5.245   8.074 -29.224  1.00  0.00    -0.323 OA
HETATM   25  C   UNL     1      -5.686   9.386 -28.868  1.00  0.00     0.213 C 
ENDBRANCH  22  24
ENDBRANCH  10  22
BRANCH   7  26
HETATM   26  S   UNL     1      -3.596   0.697 -32.314  1.00  0.00    -0.083 SA
BRANCH  26  27
HETATM   27  C   UNL     1      -5.033  -0.328 -31.905  1.00  0.00     0.123 C 
BRANCH  27  28
HETATM   28  C   UNL     1      -5.280  -1.360 -32.984  1.00  0.00    -0.027 A 
HETATM   29  C   UNL     1      -6.513  -1.495 -33.645  1.00  0.00     0.041 A 
HETATM   30 CL   UNL     1      -7.882  -0.522 -33.237  1.00  0.00    -0.084 Cl
HETATM   31  C   UNL     1      -6.672  -2.434 -34.671  1.00  0.00     0.024 A 
HETATM   32  C   UNL     1      -5.607  -3.249 -35.050  1.00  0.00     0.002 A 
HETATM   33  C   UNL     1      -4.379  -3.129 -34.405  1.00  0.00     0.001 A 
HETATM   34  C   UNL     1      -4.216  -2.191 -33.384  1.00  0.00     0.009 A 
ENDBRANCH  27  28
ENDBRANCH  26  27
ENDBRANCH   7  26
TORSDOF 6
ENDMDL
MODEL 8
REMARK VINA RESULT:      -8.3      2.874      4.002
REMARK  6 active torsions:
REMARK  status: ('A' for Active; 'I' for Inactive)
REMARK    1  A    between atoms: C_7  and  S_8 
REMARK    2  A    between atoms: S_8  and  C_9 
REMARK    3  A    between atoms: C_9  and  C_10 
REMARK    4  A    between atoms: C_18  and  C_19 
REMARK    5  A    between atoms: C_29  and  C_30 
REMARK    6  A    between atoms: C_30  and  O_31 
ROOT
HETATM    1  C   UNL     1      -7.146   9.662 -31.419  1.00  0.00     0.070 C 
HETATM    2  C   UNL     1      -6.443   8.340 -31.594  1.00  0.00     0.037 A 
HETATM    3  N   UNL     1      -7.132   7.389 -32.335  1.00  0.00    -0.192 N 
HETATM    4  C   UNL     1      -6.648   6.163 -32.602  1.00  0.00     0.726 A 
HETATM    5  N   UNL     1      -5.436   5.787 -32.091  1.00  0.00    -0.082 N 
HETATM    6  N   UNL     1      -5.141   4.511 -32.426  1.00  0.00    -0.128 NA
HETATM    7  C   UNL     1      -6.187   4.209 -33.210  1.00  0.00     0.226 A 
HETATM    8  N   UNL     1      -7.139   5.192 -33.323  1.00  0.00    -0.035 NA
HETATM    9  C   UNL     1      -4.590   6.659 -31.254  1.00  0.00     0.204 A 
HETATM   10  C   UNL     1      -5.232   8.033 -31.068  1.00  0.00     0.070 A 
HETATM   11  H   UNL     1      -8.026   7.659 -32.738  1.00  0.00     0.184 HD
ENDROOT
BRANCH   9  12
HETATM   12  C   UNL     1      -3.169   6.747 -31.829  1.00  0.00    -0.017 A 
HETATM   13  C   UNL     1      -2.003   6.757 -30.999  1.00  0.00    -0.017 A 
HETATM   14  C   UNL     1      -0.733   6.910 -31.618  1.00  0.00    -0.025 A 
HETATM   15  C   UNL     1      -2.009   6.636 -29.585  1.00  0.00     0.013 A 
HETATM   16  C   UNL     1       0.439   6.949 -30.844  1.00  0.00     0.012 A 
HETATM   17  C   UNL     1      -0.637   7.033 -33.010  1.00  0.00     0.012 A 
HETATM   18  C   UNL     1       0.390   6.837 -29.457  1.00  0.00     0.001 A 
HETATM   19  C   UNL     1      -0.834   6.679 -28.828  1.00  0.00     0.001 A 
HETATM   20  C   UNL     1      -1.772   7.019 -33.812  1.00  0.00     0.002 A 
HETATM   21  C   UNL     1      -3.025   6.885 -33.229  1.00  0.00     0.010 A 
ENDBRANCH   9  12
BRANCH  10  22
HETATM   22  C   UNL     1      -4.442   9.045 -30.343  1.00  0.00     0.293 C 
HETATM   23  O   UNL     1      -4.457   9.186 -29.129  1.00  0.00    -0.259 OA
BRANCH  22  24
HETATM   24  O   UNL     1      -3.712   9.765 -31.227  1.00  0.00    -0.323 OA
HETATM   25  C   UNL     1      -2.539  10.346 -30.651  1.00  0.00     0.213 C 
ENDBRANCH  22  24
ENDBRANCH  10  22
BRANCH   7  26
HETATM   26  S   UNL     1      -6.339   2.720 -34.095  1.00  0.00    -0.083 SA
BRANCH  26  27
HETATM   27  C   UNL     1      -5.601   1.524 -32.951  1.00  0.00     0.123 C 
BRANCH  27  28
HETATM   28  C   UNL     1      -5.639   0.128 -33.535  1.00  0.00    -0.027 A 
HETATM   29  C   UNL     1      -4.549  -0.757 -33.470  1.00  0.00     0.041 A 
HETATM   30 CL   UNL     1      -3.040  -0.301 -32.762  1.00  0.00    -0.084 Cl
HETATM   31  C   UNL     1      -4.655  -2.055 -33.982  1.00  0.00     0.024 A 
HETATM   32  C   UNL     1      -5.845  -2.486 -34.566  1.00  0.00     0.002 A 
HETATM   33  C   UNL     1      -6.934  -1.622 -34.638  1.00  0.00     0.001 A 
HETATM   34  C   UNL     1      -6.833  -0.328 -34.124  1.00  0.00     0.009 A 
ENDBRANCH  27  28
ENDBRANCH  26  27
ENDBRANCH   7  26
TORSDOF 6
ENDMDL
MODEL 9
REMARK VINA RESULT:      -8.2      3.776      7.413
REMARK  6 active torsions:
REMARK  status: ('A' for Active; 'I' for Inactive)
REMARK    1  A    between atoms: C_7  and  S_8 
REMARK    2  A    between atoms: S_8  and  C_9 
REMARK    3  A    between atoms: C_9  and  C_10 
REMARK    4  A    between atoms: C_18  and  C_19 
REMARK    5  A    between atoms: C_29  and  C_30 
REMARK    6  A    between atoms: C_30  and  O_31 
ROOT
HETATM    1  C   UNL     1      -5.509   0.933 -29.757  1.00  0.00     0.070 C 
HETATM    2  C   UNL     1      -5.596   2.338 -30.298  1.00  0.00     0.037 A 
HETATM    3  N   UNL     1      -5.696   3.342 -29.345  1.00  0.00    -0.192 N 
HETATM    4  C   UNL     1      -5.767   4.650 -29.649  1.00  0.00     0.726 A 
HETATM    5  N   UNL     1      -5.790   5.040 -30.959  1.00  0.00    -0.082 N 
HETATM    6  N   UNL     1      -5.911   6.383 -31.066  1.00  0.00    -0.128 NA
HETATM    7  C   UNL     1      -5.872   6.741 -29.774  1.00  0.00     0.226 A 
HETATM    8  N   UNL     1      -5.804   5.703 -28.879  1.00  0.00    -0.035 NA
HETATM    9  C   UNL     1      -5.728   4.104 -32.098  1.00  0.00     0.204 A 
HETATM   10  C   UNL     1      -5.603   2.660 -31.615  1.00  0.00     0.070 A 
HETATM   11  H   UNL     1      -5.661   3.070 -28.365  1.00  0.00     0.184 HD
ENDROOT
BRANCH   9  12
HETATM   12  C   UNL     1      -4.604   4.501 -33.064  1.00  0.00    -0.017 A 
HETATM   13  C   UNL     1      -3.251   4.693 -32.634  1.00  0.00    -0.017 A 
HETATM   14  C   UNL     1      -2.293   5.127 -33.588  1.00  0.00    -0.025 A 
HETATM   15  C   UNL     1      -2.783   4.493 -31.310  1.00  0.00     0.013 A 
HETATM   16  C   UNL     1      -0.958   5.350 -33.210  1.00  0.00     0.012 A 
HETATM   17  C   UNL     1      -2.671   5.344 -34.920  1.00  0.00     0.012 A 
HETATM   18  C   UNL     1      -0.540   5.153 -31.897  1.00  0.00     0.001 A 
HETATM   19  C   UNL     1      -1.452   4.723 -30.947  1.00  0.00     0.001 A 
HETATM   20  C   UNL     1      -3.984   5.152 -35.333  1.00  0.00     0.002 A 
HETATM   21  C   UNL     1      -4.942   4.743 -34.415  1.00  0.00     0.010 A 
ENDBRANCH   9  12
BRANCH  10  22
HETATM   22  C   UNL     1      -5.420   1.624 -32.649  1.00  0.00     0.293 C 
HETATM   23  O   UNL     1      -6.314   1.211 -33.371  1.00  0.00    -0.259 OA
BRANCH  22  24
HETATM   24  O   UNL     1      -4.125   1.228 -32.666  1.00  0.00    -0.323 OA
HETATM   25  C   UNL     1      -3.965  -0.171 -32.913  1.00  0.00     0.213 C 
ENDBRANCH  22  24
ENDBRANCH  10  22
BRANCH   7  26
HETATM   26  S   UNL     1      -5.838   8.392 -29.225  1.00  0.00    -0.083 SA
BRANCH  26  27
HETATM   27  C   UNL     1      -4.394   9.050 -30.099  1.00  0.00     0.123 C 
BRANCH  27  28
HETATM   28  C   UNL     1      -3.111   8.556 -29.464  1.00  0.00    -0.027 A 
HETATM   29  C   UNL     1      -1.934   8.330 -30.197  1.00  0.00     0.041 A 
HETATM   30 CL   UNL     1      -1.866   8.542 -31.910  1.00  0.00    -0.084 Cl
HETATM   31  C   UNL     1      -0.762   7.921 -29.551  1.00  0.00     0.024 A 
HETATM   32  C   UNL     1      -0.748   7.731 -28.170  1.00  0.00     0.002 A 
HETATM   33  C   UNL     1      -1.905   7.951 -27.430  1.00  0.00     0.001 A 
HETATM   34  C   UNL     1      -3.076   8.363 -28.070  1.00  0.00     0.009 A 
ENDBRANCH  27  28
ENDBRANCH  26  27
ENDBRANCH   7  26
TORSDOF 6
ENDMDL
MODEL 10
REMARK VINA RESULT:      -8.2      3.678      7.786
REMARK  6 active torsions:
REMARK  status: ('A' for Active; 'I' for Inactive)
REMARK    1  A    between atoms: C_7  and  S_8 
REMARK    2  A    between atoms: S_8  and  C_9 
REMARK    3  A    between atoms: C_9  and  C_10 
REMARK    4  A    between atoms: C_18  and  C_19 
REMARK    5  A    between atoms: C_29  and  C_30 
REMARK    6  A    between atoms: C_30  and  O_31 
ROOT
HETATM    1  C   UNL     1      -9.807   5.915 -32.636  1.00  0.00     0.070 C 
HETATM    2  C   UNL     1      -8.542   5.219 -33.070  1.00  0.00     0.037 A 
HETATM    3  N   UNL     1      -7.421   6.029 -33.185  1.00  0.00    -0.192 N 
HETATM    4  C   UNL     1      -6.209   5.572 -33.545  1.00  0.00     0.726 A 
HETATM    5  N   UNL     1      -6.051   4.252 -33.867  1.00  0.00    -0.082 N 
HETATM    6  N   UNL     1      -4.779   3.992 -34.247  1.00  0.00    -0.128 NA
HETATM    7  C   UNL     1      -4.209   5.191 -34.050  1.00  0.00     0.226 A 
HETATM    8  N   UNL     1      -5.061   6.185 -33.640  1.00  0.00    -0.035 NA
HETATM    9  C   UNL     1      -7.142   3.261 -33.834  1.00  0.00     0.204 A 
HETATM   10  C   UNL     1      -8.449   3.898 -33.365  1.00  0.00     0.070 A 
HETATM   11  H   UNL     1      -7.518   7.009 -32.932  1.00  0.00     0.184 HD
ENDROOT
BRANCH   9  12
HETATM   12  C   UNL     1      -6.744   2.045 -32.985  1.00  0.00    -0.017 A 
HETATM   13  C   UNL     1      -6.657   0.723 -33.527  1.00  0.00    -0.017 A 
HETATM   14  C   UNL     1      -6.347  -0.350 -32.649  1.00  0.00    -0.025 A 
HETATM   15  C   UNL     1      -6.869   0.387 -34.890  1.00  0.00     0.013 A 
HETATM   16  C   UNL     1      -6.273  -1.668 -33.130  1.00  0.00     0.012 A 
HETATM   17  C   UNL     1      -6.120  -0.105 -31.289  1.00  0.00     0.012 A 
HETATM   18  C   UNL     1      -6.498  -1.958 -34.473  1.00  0.00     0.001 A 
HETATM   19  C   UNL     1      -6.795  -0.931 -35.353  1.00  0.00     0.001 A 
HETATM   20  C   UNL     1      -6.201   1.181 -30.768  1.00  0.00     0.002 A 
HETATM   21  C   UNL     1      -6.517   2.243 -31.604  1.00  0.00     0.010 A 
ENDBRANCH   9  12
BRANCH  10  22
HETATM   22  C   UNL     1      -9.602   2.998 -33.178  1.00  0.00     0.293 C 
HETATM   23  O   UNL     1     -10.090   2.725 -32.092  1.00  0.00    -0.259 OA
BRANCH  22  24
HETATM   24  O   UNL     1     -10.020   2.545 -34.384  1.00  0.00    -0.323 OA
HETATM   25  C   UNL     1     -11.199   3.201 -34.856  1.00  0.00     0.213 C 
ENDBRANCH  22  24
ENDBRANCH  10  22
BRANCH   7  26
HETATM   26  S   UNL     1      -2.505   5.495 -34.223  1.00  0.00    -0.083 SA
BRANCH  26  27
HETATM   27  C   UNL     1      -1.856   4.925 -32.630  1.00  0.00     0.123 C 
BRANCH  27  28
HETATM   28  C   UNL     1      -2.042   5.985 -31.565  1.00  0.00    -0.027 A 
HETATM   29  C   UNL     1      -3.076   5.940 -30.615  1.00  0.00     0.041 A 
HETATM   30 CL   UNL     1      -4.269   4.690 -30.617  1.00  0.00    -0.084 Cl
HETATM   31  C   UNL     1      -3.171   6.920 -29.620  1.00  0.00     0.024 A 
HETATM   32  C   UNL     1      -2.240   7.956 -29.562  1.00  0.00     0.002 A 
HETATM   33  C   UNL     1      -1.210   8.015 -30.496  1.00  0.00     0.001 A 
HETATM   34  C   UNL     1      -1.110   7.037 -31.486  1.00  0.00     0.009 A 
ENDBRANCH  27  28
ENDBRANCH  26  27
ENDBRANCH   7  26
TORSDOF 6
ENDMDL
