MODEL 1
REMARK VINA RESULT:      -8.7      0.000      0.000
REMARK  6 active torsions:
REMARK  status: ('A' for Active; 'I' for Inactive)
REMARK    1  A    between atoms: C_2  and  O_3 
REMARK    2  A    between atoms: O_3  and  C_4 
REMARK    3  A    between atoms: C_7  and  C_8 
REMARK    4  A    between atoms: C_8  and  C_9 
REMARK       I    between atoms: C_9  and  N_10 
REMARK    5  A    between atoms: N_13  and  C_14 
REMARK    6  A    between atoms: C_18  and  C_19 
ROOT
HETATM    1  C   UNL     1      -6.063   3.086 -33.260  1.00  0.00     0.224 C 
HETATM    2  N   UNL     1      -5.418   3.993 -32.428  1.00  0.00    -0.349 N 
HETATM    3  C   UNL     1      -4.487   4.950 -33.048  1.00  0.00     0.145 C 
HETATM    4  C   UNL     1      -4.404   6.282 -32.282  1.00  0.00     0.144 C 
HETATM    5  N   UNL     1      -4.136   6.042 -30.851  1.00  0.00    -0.363 N 
HETATM    6  C   UNL     1      -5.154   5.178 -30.227  1.00  0.00     0.144 C 
HETATM    7  C   UNL     1      -5.269   3.832 -30.973  1.00  0.00     0.145 C 
HETATM    8  O   UNL     1      -6.006   3.183 -34.490  1.00  0.00    -0.273 OA
ENDROOT
BRANCH   5   9
HETATM    9  C   UNL     1      -2.884   6.221 -30.333  1.00  0.00     0.122 A 
HETATM   10  N   UNL     1      -1.782   5.522 -30.754  1.00  0.00    -0.262 N 
HETATM   11  H   UNL     1      -1.740   4.807 -31.467  1.00  0.00     0.191 HD
HETATM   12  N   UNL     1      -0.647   5.818 -30.105  1.00  0.00    -0.173 NA
HETATM   13  C   UNL     1      -1.013   6.719 -29.180  1.00  0.00     0.090 A 
HETATM   14  C   UNL     1      -2.403   7.006 -29.304  1.00  0.00     0.084 A 
BRANCH  13  15
HETATM   15  C   UNL     1      -0.049   7.258 -28.209  1.00  0.00    -0.005 A 
HETATM   16  C   UNL     1      -0.094   6.851 -26.865  1.00  0.00     0.015 A 
HETATM   17  C   UNL     1       0.801   7.369 -25.922  1.00  0.00     0.024 A 
HETATM   18  C   UNL     1       1.752   8.304 -26.317  1.00  0.00     0.034 A 
HETATM   19 CL   UNL     1       2.849   8.951 -25.162  1.00  0.00    -0.084 Cl
HETATM   20  C   UNL     1       1.818   8.720 -27.645  1.00  0.00     0.024 A 
HETATM   21  C   UNL     1       0.922   8.199 -28.587  1.00  0.00     0.015 A 
ENDBRANCH  13  15
ENDBRANCH   5   9
BRANCH   1  22
HETATM   22  C   UNL     1      -6.870   1.958 -32.635  1.00  0.00     0.141 C 
BRANCH  22  23
HETATM   23  C   UNL     1      -6.549   0.582 -33.173  1.00  0.00    -0.049 A 
HETATM   24  C   UNL     1      -7.413  -0.071 -34.063  1.00  0.00     0.010 A 
HETATM   25  C   UNL     1      -7.074  -1.312 -34.616  1.00  0.00     0.037 A 
HETATM   26  C   UNL     1      -5.857  -1.911 -34.300  1.00  0.00     0.068 A 
HETATM   27  C   UNL     1      -4.996  -1.272 -33.407  1.00  0.00     0.037 A 
HETATM   28  C   UNL     1      -5.330  -0.032 -32.855  1.00  0.00     0.010 A 
BRANCH  26  29
HETATM   29  O   UNL     1      -5.397  -3.102 -34.789  1.00  0.00    -0.352 OA
BRANCH  29  30
HETATM   30  C   UNL     1      -4.146  -3.565 -34.281  1.00  0.00     0.171 C 
HETATM   31  C   UNL     1      -4.273  -5.053 -34.004  1.00  0.00     0.034 C 
ENDBRANCH  29  30
ENDBRANCH  26  29
ENDBRANCH  22  23
ENDBRANCH   1  22
TORSDOF 6
ENDMDL
MODEL 2
REMARK VINA RESULT:      -8.6      4.772     11.349
REMARK  6 active torsions:
REMARK  status: ('A' for Active; 'I' for Inactive)
REMARK    1  A    between atoms: C_2  and  O_3 
REMARK    2  A    between atoms: O_3  and  C_4 
REMARK    3  A    between atoms: C_7  and  C_8 
REMARK    4  A    between atoms: C_8  and  C_9 
REMARK       I    between atoms: C_9  and  N_10 
REMARK    5  A    between atoms: N_13  and  C_14 
REMARK    6  A    between atoms: C_18  and  C_19 
ROOT
HETATM    1  C   UNL     1      -1.903   6.807 -29.912  1.00  0.00     0.224 C 
HETATM    2  N   UNL     1      -2.485   5.870 -30.757  1.00  0.00    -0.349 N 
HETATM    3  C   UNL     1      -3.867   5.452 -30.469  1.00  0.00     0.145 C 
HETATM    4  C   UNL     1      -4.644   5.050 -31.734  1.00  0.00     0.144 C 
HETATM    5  N   UNL     1      -3.882   4.061 -32.520  1.00  0.00    -0.363 N 
HETATM    6  C   UNL     1      -2.547   4.556 -32.899  1.00  0.00     0.144 C 
HETATM    7  C   UNL     1      -1.738   4.974 -31.653  1.00  0.00     0.145 C 
HETATM    8  O   UNL     1      -2.563   7.407 -29.059  1.00  0.00    -0.273 OA
ENDROOT
BRANCH   5   9
HETATM    9  C   UNL     1      -4.208   2.734 -32.482  1.00  0.00     0.122 A 
HETATM   10  N   UNL     1      -3.912   1.911 -31.427  1.00  0.00    -0.262 N 
HETATM   11  H   UNL     1      -3.432   2.152 -30.571  1.00  0.00     0.191 HD
HETATM   12  N   UNL     1      -4.288   0.634 -31.588  1.00  0.00    -0.173 NA
HETATM   13  C   UNL     1      -4.817   0.591 -32.822  1.00  0.00     0.090 A 
HETATM   14  C   UNL     1      -4.796   1.892 -33.404  1.00  0.00     0.084 A 
BRANCH  13  15
HETATM   15  C   UNL     1      -5.299  -0.668 -33.407  1.00  0.00    -0.005 A 
HETATM   16  C   UNL     1      -4.395  -1.698 -33.717  1.00  0.00     0.015 A 
HETATM   17  C   UNL     1      -4.833  -2.895 -34.295  1.00  0.00     0.024 A 
HETATM   18  C   UNL     1      -6.185  -3.072 -34.570  1.00  0.00     0.034 A 
HETATM   19 CL   UNL     1      -6.728  -4.537 -35.289  1.00  0.00    -0.084 Cl
HETATM   20  C   UNL     1      -7.100  -2.066 -34.269  1.00  0.00     0.024 A 
HETATM   21  C   UNL     1      -6.659  -0.870 -33.690  1.00  0.00     0.015 A 
ENDBRANCH  13  15
ENDBRANCH   5   9
BRANCH   1  22
HETATM   22  C   UNL     1      -0.418   7.107 -30.058  1.00  0.00     0.141 C 
BRANCH  22  23
HETATM   23  C   UNL     1       0.302   7.366 -28.754  1.00  0.00    -0.049 A 
HETATM   24  C   UNL     1       1.168   8.459 -28.606  1.00  0.00     0.010 A 
HETATM   25  C   UNL     1       1.773   8.736 -27.374  1.00  0.00     0.037 A 
HETATM   26  C   UNL     1       1.507   7.934 -26.266  1.00  0.00     0.068 A 
HETATM   27  C   UNL     1       0.655   6.838 -26.409  1.00  0.00     0.037 A 
HETATM   28  C   UNL     1       0.048   6.560 -27.637  1.00  0.00     0.010 A 
BRANCH  26  29
HETATM   29  O   UNL     1       2.011   8.110 -25.008  1.00  0.00    -0.352 OA
BRANCH  29  30
HETATM   30  C   UNL     1       2.889   9.221 -24.818  1.00  0.00     0.171 C 
HETATM   31  C   UNL     1       3.716   8.958 -23.573  1.00  0.00     0.034 C 
ENDBRANCH  29  30
ENDBRANCH  26  29
ENDBRANCH  22  23
ENDBRANCH   1  22
TORSDOF 6
ENDMDL
MODEL 3
REMARK VINA RESULT:      -8.6      4.586     10.853
REMARK  6 active torsions:
REMARK  status: ('A' for Active; 'I' for Inactive)
REMARK    1  A    between atoms: C_2  and  O_3 
REMARK    2  A    between atoms: O_3  and  C_4 
REMARK    3  A    between atoms: C_7  and  C_8 
REMARK    4  A    between atoms: C_8  and  C_9 
REMARK       I    between atoms: C_9  and  N_10 
REMARK    5  A    between atoms: N_13  and  C_14 
REMARK    6  A    between atoms: C_18  and  C_19 
ROOT
HETATM    1  C   UNL     1      -4.018   7.394 -30.349  1.00  0.00     0.224 C 
HETATM    2  N   UNL     1      -4.444   6.326 -31.130  1.00  0.00    -0.349 N 
HETATM    3  C   UNL     1      -5.397   5.376 -30.532  1.00  0.00     0.145 C 
HETATM    4  C   UNL     1      -6.327   4.731 -31.573  1.00  0.00     0.144 C 
HETATM    5  N   UNL     1      -5.544   4.158 -32.686  1.00  0.00    -0.363 N 
HETATM    6  C   UNL     1      -4.690   5.162 -33.345  1.00  0.00     0.144 C 
HETATM    7  C   UNL     1      -3.745   5.835 -32.328  1.00  0.00     0.145 C 
HETATM    8  O   UNL     1      -4.545   7.650 -29.262  1.00  0.00    -0.273 OA
ENDROOT
BRANCH   5   9
HETATM    9  C   UNL     1      -5.317   2.813 -32.763  1.00  0.00     0.122 A 
HETATM   10  N   UNL     1      -4.254   2.187 -32.167  1.00  0.00    -0.262 N 
HETATM   11  H   UNL     1      -3.519   2.609 -31.615  1.00  0.00     0.191 HD
HETATM   12  N   UNL     1      -4.186   0.866 -32.380  1.00  0.00    -0.173 NA
HETATM   13  C   UNL     1      -5.223   0.602 -33.192  1.00  0.00     0.090 A 
HETATM   14  C   UNL     1      -5.961   1.796 -33.440  1.00  0.00     0.084 A 
BRANCH  13  15
HETATM   15  C   UNL     1      -5.465  -0.750 -33.715  1.00  0.00    -0.005 A 
HETATM   16  C   UNL     1      -4.400  -1.657 -33.854  1.00  0.00     0.015 A 
HETATM   17  C   UNL     1      -4.608  -2.941 -34.370  1.00  0.00     0.024 A 
HETATM   18  C   UNL     1      -5.887  -3.331 -34.755  1.00  0.00     0.034 A 
HETATM   19 CL   UNL     1      -6.146  -4.905 -35.398  1.00  0.00    -0.084 Cl
HETATM   20  C   UNL     1      -6.957  -2.450 -34.623  1.00  0.00     0.024 A 
HETATM   21  C   UNL     1      -6.747  -1.166 -34.105  1.00  0.00     0.015 A 
ENDBRANCH  13  15
ENDBRANCH   5   9
BRANCH   1  22
HETATM   22  C   UNL     1      -2.887   8.274 -30.859  1.00  0.00     0.141 C 
BRANCH  22  23
HETATM   23  C   UNL     1      -1.665   8.306 -29.969  1.00  0.00    -0.049 A 
HETATM   24  C   UNL     1      -1.567   9.211 -28.902  1.00  0.00     0.010 A 
HETATM   25  C   UNL     1      -0.467   9.184 -28.036  1.00  0.00     0.037 A 
HETATM   26  C   UNL     1       0.543   8.241 -28.213  1.00  0.00     0.068 A 
HETATM   27  C   UNL     1       0.457   7.344 -29.279  1.00  0.00     0.037 A 
HETATM   28  C   UNL     1      -0.641   7.366 -30.144  1.00  0.00     0.010 A 
BRANCH  26  29
HETATM   29  O   UNL     1       1.652   8.094 -27.426  1.00  0.00    -0.352 OA
BRANCH  29  30
HETATM   30  C   UNL     1       1.425   7.844 -26.039  1.00  0.00     0.171 C 
HETATM   31  C   UNL     1       2.462   8.620 -25.246  1.00  0.00     0.034 C 
ENDBRANCH  29  30
ENDBRANCH  26  29
ENDBRANCH  22  23
ENDBRANCH   1  22
TORSDOF 6
ENDMDL
MODEL 4
REMARK VINA RESULT:      -8.4      1.690      2.533
REMARK  6 active torsions:
REMARK  status: ('A' for Active; 'I' for Inactive)
REMARK    1  A    between atoms: C_2  and  O_3 
REMARK    2  A    between atoms: O_3  and  C_4 
REMARK    3  A    between atoms: C_7  and  C_8 
REMARK    4  A    between atoms: C_8  and  C_9 
REMARK       I    between atoms: C_9  and  N_10 
REMARK    5  A    between atoms: N_13  and  C_14 
REMARK    6  A    between atoms: C_18  and  C_19 
ROOT
HETATM    1  C   UNL     1      -8.128   1.731 -33.190  1.00  0.00     0.224 C 
HETATM    2  N   UNL     1      -7.504   2.731 -32.454  1.00  0.00    -0.349 N 
HETATM    3  C   UNL     1      -7.320   4.042 -33.098  1.00  0.00     0.145 C 
HETATM    4  C   UNL     1      -7.328   5.206 -32.093  1.00  0.00     0.144 C 
HETATM    5  N   UNL     1      -6.376   4.951 -30.994  1.00  0.00    -0.363 N 
HETATM    6  C   UNL     1      -6.661   3.689 -30.288  1.00  0.00     0.144 C 
HETATM    7  C   UNL     1      -6.665   2.497 -31.268  1.00  0.00     0.145 C 
HETATM    8  O   UNL     1      -8.673   1.969 -34.272  1.00  0.00    -0.273 OA
ENDROOT
BRANCH   5   9
HETATM    9  C   UNL     1      -5.158   5.569 -30.965  1.00  0.00     0.122 A 
HETATM   10  N   UNL     1      -4.404   5.813 -32.084  1.00  0.00    -0.262 N 
HETATM   11  H   UNL     1      -4.628   5.580 -33.042  1.00  0.00     0.191 HD
HETATM   12  N   UNL     1      -3.225   6.404 -31.849  1.00  0.00    -0.173 NA
HETATM   13  C   UNL     1      -3.165   6.519 -30.513  1.00  0.00     0.090 A 
HETATM   14  C   UNL     1      -4.365   6.019 -29.928  1.00  0.00     0.084 A 
BRANCH  13  15
HETATM   15  C   UNL     1      -1.980   7.072 -29.842  1.00  0.00    -0.005 A 
HETATM   16  C   UNL     1      -0.694   6.818 -30.349  1.00  0.00     0.015 A 
HETATM   17  C   UNL     1       0.446   7.318 -29.711  1.00  0.00     0.024 A 
HETATM   18  C   UNL     1       0.311   8.080 -28.555  1.00  0.00     0.034 A 
HETATM   19 CL   UNL     1       1.710   8.690 -27.761  1.00  0.00    -0.084 Cl
HETATM   20  C   UNL     1      -0.953   8.348 -28.035  1.00  0.00     0.024 A 
HETATM   21  C   UNL     1      -2.094   7.847 -28.676  1.00  0.00     0.015 A 
ENDBRANCH  13  15
ENDBRANCH   5   9
BRANCH   1  22
HETATM   22  C   UNL     1      -8.152   0.314 -32.634  1.00  0.00     0.141 C 
BRANCH  22  23
HETATM   23  C   UNL     1      -7.150  -0.625 -33.265  1.00  0.00    -0.049 A 
HETATM   24  C   UNL     1      -5.814  -0.655 -32.840  1.00  0.00     0.010 A 
HETATM   25  C   UNL     1      -4.909  -1.579 -33.377  1.00  0.00     0.037 A 
HETATM   26  C   UNL     1      -5.331  -2.500 -34.333  1.00  0.00     0.068 A 
HETATM   27  C   UNL     1      -6.657  -2.470 -34.767  1.00  0.00     0.037 A 
HETATM   28  C   UNL     1      -7.564  -1.550 -34.233  1.00  0.00     0.010 A 
BRANCH  26  29
HETATM   29  O   UNL     1      -4.557  -3.467 -34.913  1.00  0.00    -0.352 OA
BRANCH  29  30
HETATM   30  C   UNL     1      -4.656  -4.782 -34.367  1.00  0.00     0.171 C 
HETATM   31  C   UNL     1      -3.628  -4.908 -33.257  1.00  0.00     0.034 C 
ENDBRANCH  29  30
ENDBRANCH  26  29
ENDBRANCH  22  23
ENDBRANCH   1  22
TORSDOF 6
ENDMDL
MODEL 5
REMARK VINA RESULT:      -8.3      1.859      2.059
REMARK  6 active torsions:
REMARK  status: ('A' for Active; 'I' for Inactive)
REMARK    1  A    between atoms: C_2  and  O_3 
REMARK    2  A    between atoms: O_3  and  C_4 
REMARK    3  A    between atoms: C_7  and  C_8 
REMARK    4  A    between atoms: C_8  and  C_9 
REMARK       I    between atoms: C_9  and  N_10 
REMARK    5  A    between atoms: N_13  and  C_14 
REMARK    6  A    between atoms: C_18  and  C_19 
ROOT
HETATM    1  C   UNL     1      -3.976   2.795 -32.076  1.00  0.00     0.224 C 
HETATM    2  N   UNL     1      -3.598   4.113 -31.850  1.00  0.00    -0.349 N 
HETATM    3  C   UNL     1      -2.161   4.430 -31.883  1.00  0.00     0.145 C 
HETATM    4  C   UNL     1      -1.878   5.868 -32.347  1.00  0.00     0.144 C 
HETATM    5  N   UNL     1      -2.676   6.833 -31.565  1.00  0.00    -0.363 N 
HETATM    6  C   UNL     1      -4.122   6.564 -31.652  1.00  0.00     0.144 C 
HETATM    7  C   UNL     1      -4.443   5.124 -31.197  1.00  0.00     0.145 C 
HETATM    8  O   UNL     1      -3.166   1.948 -32.467  1.00  0.00    -0.273 OA
ENDROOT
BRANCH   5   9
HETATM    9  C   UNL     1      -2.106   7.560 -30.558  1.00  0.00     0.122 A 
HETATM   10  N   UNL     1      -2.381   8.883 -30.329  1.00  0.00    -0.262 N 
HETATM   11  H   UNL     1      -3.009   9.482 -30.847  1.00  0.00     0.191 HD
HETATM   12  N   UNL     1      -1.702   9.430 -29.311  1.00  0.00    -0.173 NA
HETATM   13  C   UNL     1      -0.904   8.444 -28.870  1.00  0.00     0.090 A 
HETATM   14  C   UNL     1      -1.142   7.255 -29.618  1.00  0.00     0.084 A 
BRANCH  13  15
HETATM   15  C   UNL     1       0.059   8.665 -27.781  1.00  0.00    -0.005 A 
HETATM   16  C   UNL     1       0.987   7.666 -27.442  1.00  0.00     0.015 A 
HETATM   17  C   UNL     1       1.896   7.849 -26.394  1.00  0.00     0.024 A 
HETATM   18  C   UNL     1       1.884   9.038 -25.672  1.00  0.00     0.034 A 
HETATM   19 CL   UNL     1       2.993   9.266 -24.377  1.00  0.00    -0.084 Cl
HETATM   20  C   UNL     1       0.975  10.044 -25.991  1.00  0.00     0.024 A 
HETATM   21  C   UNL     1       0.066   9.858 -27.041  1.00  0.00     0.015 A 
ENDBRANCH  13  15
ENDBRANCH   5   9
BRANCH   1  22
HETATM   22  C   UNL     1      -5.427   2.395 -31.849  1.00  0.00     0.141 C 
BRANCH  22  23
HETATM   23  C   UNL     1      -5.892   1.220 -32.679  1.00  0.00    -0.049 A 
HETATM   24  C   UNL     1      -6.404   1.400 -33.972  1.00  0.00     0.010 A 
HETATM   25  C   UNL     1      -6.762   0.301 -34.762  1.00  0.00     0.037 A 
HETATM   26  C   UNL     1      -6.597  -0.995 -34.279  1.00  0.00     0.068 A 
HETATM   27  C   UNL     1      -6.098  -1.181 -32.989  1.00  0.00     0.037 A 
HETATM   28  C   UNL     1      -5.737  -0.087 -32.198  1.00  0.00     0.010 A 
BRANCH  26  29
HETATM   29  O   UNL     1      -6.883  -2.147 -34.957  1.00  0.00    -0.352 OA
BRANCH  29  30
HETATM   30  C   UNL     1      -5.885  -3.168 -34.938  1.00  0.00     0.171 C 
HETATM   31  C   UNL     1      -6.563  -4.494 -35.230  1.00  0.00     0.034 C 
ENDBRANCH  29  30
ENDBRANCH  26  29
ENDBRANCH  22  23
ENDBRANCH   1  22
TORSDOF 6
ENDMDL
MODEL 6
REMARK VINA RESULT:      -8.1      4.718     11.036
REMARK  6 active torsions:
REMARK  status: ('A' for Active; 'I' for Inactive)
REMARK    1  A    between atoms: C_2  and  O_3 
REMARK    2  A    between atoms: O_3  and  C_4 
REMARK    3  A    between atoms: C_7  and  C_8 
REMARK    4  A    between atoms: C_8  and  C_9 
REMARK       I    between atoms: C_9  and  N_10 
REMARK    5  A    between atoms: N_13  and  C_14 
REMARK    6  A    between atoms: C_18  and  C_19 
ROOT
HETATM    1  C   UNL     1      -2.624   7.838 -32.185  1.00  0.00     0.224 C 
HETATM    2  N   UNL     1      -2.913   6.488 -32.025  1.00  0.00    -0.349 N 
HETATM    3  C   UNL     1      -2.432   5.557 -33.059  1.00  0.00     0.145 C 
HETATM    4  C   UNL     1      -2.135   4.153 -32.506  1.00  0.00     0.144 C 
HETATM    5  N   UNL     1      -3.290   3.640 -31.743  1.00  0.00    -0.363 N 
HETATM    6  C   UNL     1      -3.671   4.535 -30.636  1.00  0.00     0.144 C 
HETATM    7  C   UNL     1      -3.972   5.957 -31.154  1.00  0.00     0.145 C 
HETATM    8  O   UNL     1      -1.845   8.234 -33.057  1.00  0.00    -0.273 OA
ENDROOT
BRANCH   5   9
HETATM    9  C   UNL     1      -4.138   2.719 -32.290  1.00  0.00     0.122 A 
HETATM   10  N   UNL     1      -5.486   2.921 -32.434  1.00  0.00    -0.262 N 
HETATM   11  H   UNL     1      -6.020   3.736 -32.166  1.00  0.00     0.191 HD
HETATM   12  N   UNL     1      -6.155   1.889 -32.967  1.00  0.00    -0.173 NA
HETATM   13  C   UNL     1      -5.224   0.939 -33.145  1.00  0.00     0.090 A 
HETATM   14  C   UNL     1      -3.947   1.430 -32.746  1.00  0.00     0.084 A 
BRANCH  13  15
HETATM   15  C   UNL     1      -5.573  -0.392 -33.662  1.00  0.00    -0.005 A 
HETATM   16  C   UNL     1      -4.601  -1.405 -33.728  1.00  0.00     0.015 A 
HETATM   17  C   UNL     1      -4.910  -2.671 -34.238  1.00  0.00     0.024 A 
HETATM   18  C   UNL     1      -6.199  -2.936 -34.689  1.00  0.00     0.034 A 
HETATM   19 CL   UNL     1      -6.582  -4.488 -35.325  1.00  0.00    -0.084 Cl
HETATM   20  C   UNL     1      -7.180  -1.949 -34.630  1.00  0.00     0.024 A 
HETATM   21  C   UNL     1      -6.868  -0.683 -34.119  1.00  0.00     0.015 A 
ENDBRANCH  13  15
ENDBRANCH   5   9
BRANCH   1  22
HETATM   22  C   UNL     1      -3.275   8.846 -31.248  1.00  0.00     0.141 C 
BRANCH  22  23
HETATM   23  C   UNL     1      -2.469   9.165 -30.010  1.00  0.00    -0.049 A 
HETATM   24  C   UNL     1      -1.491   8.281 -29.531  1.00  0.00     0.010 A 
HETATM   25  C   UNL     1      -0.696   8.616 -28.429  1.00  0.00     0.037 A 
HETATM   26  C   UNL     1      -0.855   9.849 -27.799  1.00  0.00     0.068 A 
HETATM   27  C   UNL     1      -1.833  10.729 -28.263  1.00  0.00     0.037 A 
HETATM   28  C   UNL     1      -2.627  10.399 -29.365  1.00  0.00     0.010 A 
BRANCH  26  29
HETATM   29  O   UNL     1      -0.129  10.305 -26.734  1.00  0.00    -0.352 OA
BRANCH  29  30
HETATM   30  C   UNL     1       0.241   9.340 -25.748  1.00  0.00     0.171 C 
HETATM   31  C   UNL     1       1.756   9.232 -25.742  1.00  0.00     0.034 C 
ENDBRANCH  29  30
ENDBRANCH  26  29
ENDBRANCH  22  23
ENDBRANCH   1  22
TORSDOF 6
ENDMDL
MODEL 7
REMARK VINA RESULT:      -8.1      2.554      3.856
REMARK  6 active torsions:
REMARK  status: ('A' for Active; 'I' for Inactive)
REMARK    1  A    between atoms: C_2  and  O_3 
REMARK    2  A    between atoms: O_3  and  C_4 
REMARK    3  A    between atoms: C_7  and  C_8 
REMARK    4  A    between atoms: C_8  and  C_9 
REMARK       I    between atoms: C_9  and  N_10 
REMARK    5  A    between atoms: N_13  and  C_14 
REMARK    6  A    between atoms: C_18  and  C_19 
ROOT
HETATM    1  C   UNL     1      -5.368   1.225 -31.910  1.00  0.00     0.224 C 
HETATM    2  N   UNL     1      -4.728   2.453 -31.798  1.00  0.00    -0.349 N 
HETATM    3  C   UNL     1      -3.358   2.564 -32.326  1.00  0.00     0.145 C 
HETATM    4  C   UNL     1      -3.023   3.980 -32.824  1.00  0.00     0.144 C 
HETATM    5  N   UNL     1      -3.337   4.982 -31.786  1.00  0.00    -0.363 N 
HETATM    6  C   UNL     1      -4.748   4.929 -31.365  1.00  0.00     0.144 C 
HETATM    7  C   UNL     1      -5.122   3.518 -30.863  1.00  0.00     0.145 C 
HETATM    8  O   UNL     1      -4.890   0.306 -32.583  1.00  0.00    -0.273 OA
ENDROOT
BRANCH   5   9
HETATM    9  C   UNL     1      -2.346   5.537 -31.026  1.00  0.00     0.122 A 
HETATM   10  N   UNL     1      -1.174   4.895 -30.722  1.00  0.00    -0.262 N 
HETATM   11  H   UNL     1      -0.890   3.965 -30.999  1.00  0.00     0.191 HD
HETATM   12  N   UNL     1      -0.338   5.591 -29.940  1.00  0.00    -0.173 NA
HETATM   13  C   UNL     1      -0.997   6.729 -29.670  1.00  0.00     0.090 A 
HETATM   14  C   UNL     1      -2.252   6.735 -30.346  1.00  0.00     0.084 A 
BRANCH  13  15
HETATM   15  C   UNL     1      -0.433   7.751 -28.777  1.00  0.00    -0.005 A 
HETATM   16  C   UNL     1       0.946   7.772 -28.507  1.00  0.00     0.015 A 
HETATM   17  C   UNL     1       1.499   8.724 -27.642  1.00  0.00     0.024 A 
HETATM   18  C   UNL     1       0.673   9.666 -27.037  1.00  0.00     0.034 A 
HETATM   19 CL   UNL     1       1.345  10.832 -25.966  1.00  0.00    -0.084 Cl
HETATM   20  C   UNL     1      -0.696   9.667 -27.293  1.00  0.00     0.024 A 
HETATM   21  C   UNL     1      -1.246   8.713 -28.159  1.00  0.00     0.015 A 
ENDBRANCH  13  15
ENDBRANCH   5   9
BRANCH   1  22
HETATM   22  C   UNL     1      -6.697   1.019 -31.198  1.00  0.00     0.141 C 
BRANCH  22  23
HETATM   23  C   UNL     1      -7.914   1.182 -32.079  1.00  0.00    -0.049 A 
HETATM   24  C   UNL     1      -7.940   2.128 -33.114  1.00  0.00     0.010 A 
HETATM   25  C   UNL     1      -9.041   2.223 -33.974  1.00  0.00     0.037 A 
HETATM   26  C   UNL     1     -10.125   1.361 -33.823  1.00  0.00     0.068 A 
HETATM   27  C   UNL     1     -10.110   0.424 -32.789  1.00  0.00     0.037 A 
HETATM   28  C   UNL     1      -9.012   0.325 -31.930  1.00  0.00     0.010 A 
BRANCH  26  29
HETATM   29  O   UNL     1     -11.244   1.334 -34.608  1.00  0.00    -0.352 OA
BRANCH  29  30
HETATM   30  C   UNL     1     -12.486   1.627 -33.966  1.00  0.00     0.171 C 
HETATM   31  C   UNL     1     -13.450   0.494 -34.269  1.00  0.00     0.034 C 
ENDBRANCH  29  30
ENDBRANCH  26  29
ENDBRANCH  22  23
ENDBRANCH   1  22
TORSDOF 6
ENDMDL
MODEL 8
REMARK VINA RESULT:      -8.1      4.428     10.485
REMARK  6 active torsions:
REMARK  status: ('A' for Active; 'I' for Inactive)
REMARK    1  A    between atoms: C_2  and  O_3 
REMARK    2  A    between atoms: O_3  and  C_4 
REMARK    3  A    between atoms: C_7  and  C_8 
REMARK    4  A    between atoms: C_8  and  C_9 
REMARK       I    between atoms: C_9  and  N_10 
REMARK    5  A    between atoms: N_13  and  C_14 
REMARK    6  A    between atoms: C_18  and  C_19 
ROOT
HETATM    1  C   UNL     1      -5.824   5.994 -30.617  1.00  0.00     0.224 C 
HETATM    2  N   UNL     1      -6.424   5.126 -31.521  1.00  0.00    -0.349 N 
HETATM    3  C   UNL     1      -7.167   3.976 -30.978  1.00  0.00     0.145 C 
HETATM    4  C   UNL     1      -8.330   3.536 -31.884  1.00  0.00     0.144 C 
HETATM    5  N   UNL     1      -7.861   3.333 -33.269  1.00  0.00    -0.363 N 
HETATM    6  C   UNL     1      -7.231   4.542 -33.829  1.00  0.00     0.144 C 
HETATM    7  C   UNL     1      -6.060   5.016 -32.942  1.00  0.00     0.145 C 
HETATM    8  O   UNL     1      -6.047   5.920 -29.404  1.00  0.00    -0.273 OA
ENDROOT
BRANCH   5   9
HETATM    9  C   UNL     1      -7.640   2.076 -33.756  1.00  0.00     0.122 A 
HETATM   10  N   UNL     1      -8.475   1.451 -34.647  1.00  0.00    -0.262 N 
HETATM   11  H   UNL     1      -9.331   1.809 -35.046  1.00  0.00     0.191 HD
HETATM   12  N   UNL     1      -8.105   0.209 -34.986  1.00  0.00    -0.173 NA
HETATM   13  C   UNL     1      -7.001  -0.026 -34.258  1.00  0.00     0.090 A 
HETATM   14  C   UNL     1      -6.674   1.128 -33.488  1.00  0.00     0.084 A 
BRANCH  13  15
HETATM   15  C   UNL     1      -6.314  -1.324 -34.301  1.00  0.00    -0.005 A 
HETATM   16  C   UNL     1      -6.981  -2.463 -34.785  1.00  0.00     0.015 A 
HETATM   17  C   UNL     1      -6.350  -3.712 -34.812  1.00  0.00     0.024 A 
HETATM   18  C   UNL     1      -5.042  -3.834 -34.354  1.00  0.00     0.034 A 
HETATM   19 CL   UNL     1      -4.265  -5.368 -34.378  1.00  0.00    -0.084 Cl
HETATM   20  C   UNL     1      -4.360  -2.719 -33.874  1.00  0.00     0.024 A 
HETATM   21  C   UNL     1      -4.993  -1.469 -33.848  1.00  0.00     0.015 A 
ENDBRANCH  13  15
ENDBRANCH   5   9
BRANCH   1  22
HETATM   22  C   UNL     1      -4.885   7.070 -31.142  1.00  0.00     0.141 C 
BRANCH  22  23
HETATM   23  C   UNL     1      -3.466   6.971 -30.627  1.00  0.00    -0.049 A 
HETATM   24  C   UNL     1      -2.557   6.054 -31.173  1.00  0.00     0.010 A 
HETATM   25  C   UNL     1      -1.225   6.020 -30.744  1.00  0.00     0.037 A 
HETATM   26  C   UNL     1      -0.777   6.914 -29.774  1.00  0.00     0.068 A 
HETATM   27  C   UNL     1      -1.679   7.823 -29.219  1.00  0.00     0.037 A 
HETATM   28  C   UNL     1      -3.009   7.862 -29.646  1.00  0.00     0.010 A 
BRANCH  26  29
HETATM   29  O   UNL     1       0.498   7.001 -29.289  1.00  0.00    -0.352 OA
BRANCH  29  30
HETATM   30  C   UNL     1       0.638   7.327 -27.906  1.00  0.00     0.171 C 
HETATM   31  C   UNL     1       1.549   8.537 -27.799  1.00  0.00     0.034 C 
ENDBRANCH  29  30
ENDBRANCH  26  29
ENDBRANCH  22  23
ENDBRANCH   1  22
TORSDOF 6
ENDMDL
MODEL 9
REMARK VINA RESULT:      -7.9      7.997     10.167
REMARK  6 active torsions:
REMARK  status: ('A' for Active; 'I' for Inactive)
REMARK    1  A    between atoms: C_2  and  O_3 
REMARK    2  A    between atoms: O_3  and  C_4 
REMARK    3  A    between atoms: C_7  and  C_8 
REMARK    4  A    between atoms: C_8  and  C_9 
REMARK       I    between atoms: C_9  and  N_10 
REMARK    5  A    between atoms: N_13  and  C_14 
REMARK    6  A    between atoms: C_18  and  C_19 
ROOT
HETATM    1  C   UNL     1      -9.617   0.777 -32.513  1.00  0.00     0.224 C 
HETATM    2  N   UNL     1     -10.306   1.968 -32.706  1.00  0.00    -0.349 N 
HETATM    3  C   UNL     1     -11.595   1.908 -33.415  1.00  0.00     0.145 C 
HETATM    4  C   UNL     1     -12.573   3.007 -32.969  1.00  0.00     0.144 C 
HETATM    5  N   UNL     1     -11.928   4.333 -33.032  1.00  0.00    -0.363 N 
HETATM    6  C   UNL     1     -10.705   4.400 -32.212  1.00  0.00     0.144 C 
HETATM    7  C   UNL     1      -9.700   3.306 -32.629  1.00  0.00     0.145 C 
HETATM    8  O   UNL     1     -10.135  -0.317 -32.760  1.00  0.00    -0.273 OA
ENDROOT
BRANCH   5   9
HETATM    9  C   UNL     1     -12.189   5.191 -34.062  1.00  0.00     0.122 A 
HETATM   10  N   UNL     1     -13.328   5.139 -34.822  1.00  0.00    -0.262 N 
HETATM   11  H   UNL     1     -14.098   4.490 -34.737  1.00  0.00     0.191 HD
HETATM   12  N   UNL     1     -13.390   6.047 -35.806  1.00  0.00    -0.173 NA
HETATM   13  C   UNL     1     -12.222   6.705 -35.731  1.00  0.00     0.090 A 
HETATM   14  C   UNL     1     -11.452   6.205 -34.642  1.00  0.00     0.084 A 
BRANCH  13  15
HETATM   15  C   UNL     1     -11.871   7.759 -36.695  1.00  0.00    -0.005 A 
HETATM   16  C   UNL     1     -12.861   8.330 -37.512  1.00  0.00     0.015 A 
HETATM   17  C   UNL     1     -12.542   9.318 -38.450  1.00  0.00     0.024 A 
HETATM   18  C   UNL     1     -11.225   9.745 -38.580  1.00  0.00     0.034 A 
HETATM   19 CL   UNL     1     -10.825  10.953 -39.737  1.00  0.00    -0.084 Cl
HETATM   20  C   UNL     1     -10.227   9.196 -37.778  1.00  0.00     0.024 A 
HETATM   21  C   UNL     1     -10.549   8.207 -36.840  1.00  0.00     0.015 A 
ENDBRANCH  13  15
ENDBRANCH   5   9
BRANCH   1  22
HETATM   22  C   UNL     1      -8.197   0.827 -31.968  1.00  0.00     0.141 C 
BRANCH  22  23
HETATM   23  C   UNL     1      -7.210  -0.052 -32.702  1.00  0.00    -0.049 A 
HETATM   24  C   UNL     1      -5.993  -0.426 -32.115  1.00  0.00     0.010 A 
HETATM   25  C   UNL     1      -5.118  -1.302 -32.769  1.00  0.00     0.037 A 
HETATM   26  C   UNL     1      -5.455  -1.831 -34.013  1.00  0.00     0.068 A 
HETATM   27  C   UNL     1      -6.660  -1.455 -34.608  1.00  0.00     0.037 A 
HETATM   28  C   UNL     1      -7.537  -0.583 -33.957  1.00  0.00     0.010 A 
BRANCH  26  29
HETATM   29  O   UNL     1      -4.704  -2.711 -34.741  1.00  0.00    -0.352 OA
BRANCH  29  30
HETATM   30  C   UNL     1      -4.948  -4.100 -34.519  1.00  0.00     0.171 C 
HETATM   31  C   UNL     1      -3.769  -4.665 -33.746  1.00  0.00     0.034 C 
ENDBRANCH  29  30
ENDBRANCH  26  29
ENDBRANCH  22  23
ENDBRANCH   1  22
TORSDOF 6
ENDMDL
MODEL 10
REMARK VINA RESULT:      -7.8      5.255     11.269
REMARK  6 active torsions:
REMARK  status: ('A' for Active; 'I' for Inactive)
REMARK    1  A    between atoms: C_2  and  O_3 
REMARK    2  A    between atoms: O_3  and  C_4 
REMARK    3  A    between atoms: C_7  and  C_8 
REMARK    4  A    between atoms: C_8  and  C_9 
REMARK       I    between atoms: C_9  and  N_10 
REMARK    5  A    between atoms: N_13  and  C_14 
REMARK    6  A    between atoms: C_18  and  C_19 
ROOT
HETATM    1  C   UNL     1      -1.699   5.232 -31.699  1.00  0.00     0.224 C 
HETATM    2  N   UNL     1      -3.004   4.770 -31.586  1.00  0.00    -0.349 N 
HETATM    3  C   UNL     1      -3.225   3.316 -31.647  1.00  0.00     0.145 C 
HETATM    4  C   UNL     1      -4.448   2.864 -30.831  1.00  0.00     0.144 C 
HETATM    5  N   UNL     1      -5.638   3.656 -31.198  1.00  0.00    -0.363 N 
HETATM    6  C   UNL     1      -5.429   5.102 -31.009  1.00  0.00     0.144 C 
HETATM    7  C   UNL     1      -4.204   5.591 -31.811  1.00  0.00     0.145 C 
HETATM    8  O   UNL     1      -0.735   4.460 -31.671  1.00  0.00    -0.273 OA
ENDROOT
BRANCH   5   9
HETATM    9  C   UNL     1      -6.599   3.137 -32.020  1.00  0.00     0.122 A 
HETATM   10  N   UNL     1      -6.398   2.875 -33.350  1.00  0.00    -0.262 N 
HETATM   11  H   UNL     1      -5.555   3.024 -33.888  1.00  0.00     0.191 HD
HETATM   12  N   UNL     1      -7.469   2.395 -33.997  1.00  0.00    -0.173 NA
HETATM   13  C   UNL     1      -8.441   2.378 -33.072  1.00  0.00     0.090 A 
HETATM   14  C   UNL     1      -7.928   2.822 -31.819  1.00  0.00     0.084 A 
BRANCH  13  15
HETATM   15  C   UNL     1      -9.812   1.965 -33.406  1.00  0.00    -0.005 A 
HETATM   16  C   UNL     1     -10.266   0.678 -33.072  1.00  0.00     0.015 A 
HETATM   17  C   UNL     1     -11.560   0.260 -33.403  1.00  0.00     0.024 A 
HETATM   18  C   UNL     1     -12.415   1.129 -34.073  1.00  0.00     0.034 A 
HETATM   19 CL   UNL     1     -14.004   0.618 -34.488  1.00  0.00    -0.084 Cl
HETATM   20  C   UNL     1     -11.988   2.411 -34.410  1.00  0.00     0.024 A 
HETATM   21  C   UNL     1     -10.693   2.827 -34.078  1.00  0.00     0.015 A 
ENDBRANCH  13  15
ENDBRANCH   5   9
BRANCH   1  22
HETATM   22  C   UNL     1      -1.457   6.728 -31.844  1.00  0.00     0.141 C 
BRANCH  22  23
HETATM   23  C   UNL     1      -0.958   7.408 -30.589  1.00  0.00    -0.049 A 
HETATM   24  C   UNL     1      -1.784   8.269 -29.853  1.00  0.00     0.010 A 
HETATM   25  C   UNL     1      -1.342   8.837 -28.652  1.00  0.00     0.037 A 
HETATM   26  C   UNL     1      -0.074   8.538 -28.159  1.00  0.00     0.068 A 
HETATM   27  C   UNL     1       0.758   7.689 -28.892  1.00  0.00     0.037 A 
HETATM   28  C   UNL     1       0.319   7.119 -30.091  1.00  0.00     0.010 A 
BRANCH  26  29
HETATM   29  O   UNL     1       0.465   9.004 -26.992  1.00  0.00    -0.352 OA
BRANCH  29  30
HETATM   30  C   UNL     1       1.848   8.726 -26.768  1.00  0.00     0.171 C 
HETATM   31  C   UNL     1       2.033   8.428 -25.291  1.00  0.00     0.034 C 
ENDBRANCH  29  30
ENDBRANCH  26  29
ENDBRANCH  22  23
ENDBRANCH   1  22
TORSDOF 6
ENDMDL
