MODEL 1
REMARK VINA RESULT:      -9.0      0.000      0.000
REMARK  8 active torsions:
REMARK  status: ('A' for Active; 'I' for Inactive)
REMARK    1  A    between atoms: C_2  and  C_3 
REMARK    2  A    between atoms: C_3  and  C_4 
REMARK       I    between atoms: C_4  and  N_5 
REMARK    3  A    between atoms: N_8  and  C_9 
REMARK    4  A    between atoms: C_13  and  N_14 
REMARK    5  A    between atoms: N_14  and  C_15 
REMARK    6  A    between atoms: C_15  and  N_16 
REMARK       I    between atoms: N_16  and  C_17 
REMARK    7  A    between atoms: C_17  and  C_18 
REMARK    8  A    between atoms: C_19  and  O_20 
ROOT
HETATM    1  C   UNL     1      -4.970   4.139 -32.445  1.00  0.00     0.052 A 
HETATM    2  C   UNL     1      -5.255   4.087 -33.827  1.00  0.00     0.062 A 
HETATM    3 CL   UNL     1      -4.388   4.986 -35.032  1.00  0.00    -0.082 Cl
HETATM    4  C   UNL     1      -6.321   3.318 -34.326  1.00  0.00     0.055 A 
HETATM    5  C   UNL     1      -7.170   2.621 -33.469  1.00  0.00     0.036 A 
HETATM    6  C   UNL     1      -6.965   2.722 -32.097  1.00  0.00     0.032 A 
HETATM    7  C   UNL     1      -5.878   3.458 -31.603  1.00  0.00     0.033 A 
ENDROOT
BRANCH   5   8
HETATM    8  N   UNL     1      -8.125   1.758 -34.053  1.00  0.00    -0.333 N 
HETATM    9  H   UNL     1      -8.239   1.873 -35.054  1.00  0.00     0.168 HD
BRANCH   8  10
HETATM   10  C   UNL     1      -8.590   0.586 -33.559  1.00  0.00     0.179 C 
HETATM   11  S   UNL     1     -10.142   0.493 -32.946  1.00  0.00    -0.040 SA
BRANCH  10  12
HETATM   12  N   UNL     1      -7.788  -0.514 -33.479  1.00  0.00    -0.299 N 
HETATM   13  C   UNL     1      -6.677  -0.722 -34.294  1.00  0.00     0.260 C 
HETATM   14  O   UNL     1      -6.563  -0.382 -35.463  1.00  0.00    -0.267 OA
HETATM   15  H   UNL     1      -7.677  -0.818 -32.521  1.00  0.00     0.171 HD
BRANCH  13  16
HETATM   16  C   UNL     1      -5.568  -1.461 -33.630  1.00  0.00     0.066 A 
HETATM   17  C   UNL     1      -5.110  -2.711 -34.079  1.00  0.00     0.089 A 
HETATM   18  C   UNL     1      -3.994  -3.307 -33.454  1.00  0.00    -0.028 A 
HETATM   19  C   UNL     1      -3.449  -4.622 -33.943  1.00  0.00     0.051 C 
HETATM   20  C   UNL     1      -3.370  -2.661 -32.376  1.00  0.00     0.009 A 
HETATM   21  C   UNL     1      -3.828  -1.424 -31.930  1.00  0.00     0.002 A 
HETATM   22  C   UNL     1      -4.913  -0.820 -32.560  1.00  0.00     0.020 A 
BRANCH  17  23
HETATM   23  O   UNL     1      -5.617  -3.399 -35.150  1.00  0.00    -0.354 OA
HETATM   24  C   UNL     1      -6.757  -4.207 -34.871  1.00  0.00     0.210 C 
ENDBRANCH  17  23
ENDBRANCH  13  16
ENDBRANCH  10  12
ENDBRANCH   8  10
ENDBRANCH   5   8
BRANCH   1  25
HETATM   25  N   UNL     1      -3.848   4.709 -31.833  1.00  0.00    -0.376 N 
HETATM   26  C   UNL     1      -2.581   3.951 -31.904  1.00  0.00     0.143 C 
HETATM   27  C   UNL     1      -1.380   4.911 -31.768  1.00  0.00     0.145 C 
HETATM   28  N   UNL     1      -1.484   5.827 -30.622  1.00  0.00    -0.349 N 
HETATM   29  C   UNL     1      -0.302   6.384 -30.138  1.00  0.00     0.219 C 
HETATM   30  C   UNL     1      -2.794   6.472 -30.461  1.00  0.00     0.145 C 
HETATM   31  O   UNL     1       0.804   6.023 -30.540  1.00  0.00    -0.273 OA
HETATM   32  C   UNL     1      -3.972   5.492 -30.594  1.00  0.00     0.143 C 
BRANCH  29  33
HETATM   33  C   UNL     1      -0.446   7.449 -29.057  1.00  0.00     0.103 C 
BRANCH  33  34
HETATM   34  C   UNL     1       0.898   7.974 -28.558  1.00  0.00     0.005 C 
HETATM   35  C   UNL     1       1.159   7.550 -27.121  1.00  0.00     0.005 C 
ENDBRANCH  33  34
ENDBRANCH  29  33
ENDBRANCH   1  25
TORSDOF 8
ENDMDL
MODEL 2
REMARK VINA RESULT:      -8.6      1.240      1.975
REMARK  8 active torsions:
REMARK  status: ('A' for Active; 'I' for Inactive)
REMARK    1  A    between atoms: C_2  and  C_3 
REMARK    2  A    between atoms: C_3  and  C_4 
REMARK       I    between atoms: C_4  and  N_5 
REMARK    3  A    between atoms: N_8  and  C_9 
REMARK    4  A    between atoms: C_13  and  N_14 
REMARK    5  A    between atoms: N_14  and  C_15 
REMARK    6  A    between atoms: C_15  and  N_16 
REMARK       I    between atoms: N_16  and  C_17 
REMARK    7  A    between atoms: C_17  and  C_18 
REMARK    8  A    between atoms: C_19  and  O_20 
ROOT
HETATM    1  C   UNL     1      -5.294   3.993 -31.379  1.00  0.00     0.052 A 
HETATM    2  C   UNL     1      -5.965   3.835 -32.611  1.00  0.00     0.062 A 
HETATM    3 CL   UNL     1      -5.599   4.748 -34.040  1.00  0.00    -0.082 Cl
HETATM    4  C   UNL     1      -7.036   2.934 -32.750  1.00  0.00     0.055 A 
HETATM    5  C   UNL     1      -7.510   2.205 -31.662  1.00  0.00     0.036 A 
HETATM    6  C   UNL     1      -6.923   2.403 -30.417  1.00  0.00     0.032 A 
HETATM    7  C   UNL     1      -5.830   3.273 -30.288  1.00  0.00     0.033 A 
ENDROOT
BRANCH   5   8
HETATM    8  N   UNL     1      -8.490   1.218 -31.914  1.00  0.00    -0.333 N 
HETATM    9  H   UNL     1      -9.216   1.155 -31.208  1.00  0.00     0.168 HD
BRANCH   8  10
HETATM   10  C   UNL     1      -8.805   0.652 -33.104  1.00  0.00     0.179 C 
HETATM   11  S   UNL     1     -10.107   1.221 -33.983  1.00  0.00    -0.040 SA
BRANCH  10  12
HETATM   12  N   UNL     1      -8.123  -0.432 -33.573  1.00  0.00    -0.299 N 
HETATM   13  C   UNL     1      -7.067  -0.349 -34.478  1.00  0.00     0.260 C 
HETATM   14  O   UNL     1      -6.953   0.462 -35.386  1.00  0.00    -0.267 OA
HETATM   15  H   UNL     1      -8.017  -1.137 -32.855  1.00  0.00     0.171 HD
BRANCH  13  16
HETATM   16  C   UNL     1      -6.024  -1.395 -34.289  1.00  0.00     0.066 A 
HETATM   17  C   UNL     1      -5.076  -1.346 -33.252  1.00  0.00     0.089 A 
HETATM   18  C   UNL     1      -4.178  -2.421 -33.081  1.00  0.00    -0.028 A 
HETATM   19  C   UNL     1      -3.184  -2.421 -31.951  1.00  0.00     0.051 C 
HETATM   20  C   UNL     1      -4.220  -3.512 -33.962  1.00  0.00     0.009 A 
HETATM   21  C   UNL     1      -5.157  -3.557 -34.991  1.00  0.00     0.002 A 
HETATM   22  C   UNL     1      -6.062  -2.510 -35.148  1.00  0.00     0.020 A 
BRANCH  17  23
HETATM   23  O   UNL     1      -4.984  -0.352 -32.313  1.00  0.00    -0.354 OA
HETATM   24  C   UNL     1      -4.079   0.702 -32.628  1.00  0.00     0.210 C 
ENDBRANCH  17  23
ENDBRANCH  13  16
ENDBRANCH  10  12
ENDBRANCH   8  10
ENDBRANCH   5   8
BRANCH   1  25
HETATM   25  N   UNL     1      -4.115   4.708 -31.143  1.00  0.00    -0.376 N 
HETATM   26  C   UNL     1      -2.841   4.043 -31.490  1.00  0.00     0.143 C 
HETATM   27  C   UNL     1      -1.749   5.099 -31.765  1.00  0.00     0.145 C 
HETATM   28  N   UNL     1      -1.640   6.123 -30.715  1.00  0.00    -0.349 N 
HETATM   29  C   UNL     1      -0.435   6.816 -30.617  1.00  0.00     0.219 C 
HETATM   30  C   UNL     1      -2.921   6.683 -30.260  1.00  0.00     0.145 C 
HETATM   31  O   UNL     1       0.557   6.497 -31.271  1.00  0.00    -0.273 OA
HETATM   32  C   UNL     1      -3.988   5.609 -29.987  1.00  0.00     0.143 C 
BRANCH  29  33
HETATM   33  C   UNL     1      -0.398   7.978 -29.631  1.00  0.00     0.103 C 
BRANCH  33  34
HETATM   34  C   UNL     1       0.228   7.599 -28.291  1.00  0.00     0.005 C 
HETATM   35  C   UNL     1       1.437   8.468 -27.979  1.00  0.00     0.005 C 
ENDBRANCH  33  34
ENDBRANCH  29  33
ENDBRANCH   1  25
TORSDOF 8
ENDMDL
MODEL 3
REMARK VINA RESULT:      -7.9      4.044     10.347
REMARK  8 active torsions:
REMARK  status: ('A' for Active; 'I' for Inactive)
REMARK    1  A    between atoms: C_2  and  C_3 
REMARK    2  A    between atoms: C_3  and  C_4 
REMARK       I    between atoms: C_4  and  N_5 
REMARK    3  A    between atoms: N_8  and  C_9 
REMARK    4  A    between atoms: C_13  and  N_14 
REMARK    5  A    between atoms: N_14  and  C_15 
REMARK    6  A    between atoms: C_15  and  N_16 
REMARK       I    between atoms: N_16  and  C_17 
REMARK    7  A    between atoms: C_17  and  C_18 
REMARK    8  A    between atoms: C_19  and  O_20 
ROOT
HETATM    1  C   UNL     1      -7.280   3.074 -33.009  1.00  0.00     0.052 A 
HETATM    2  C   UNL     1      -6.586   4.283 -32.789  1.00  0.00     0.062 A 
HETATM    3 CL   UNL     1      -7.312   5.855 -32.907  1.00  0.00    -0.082 Cl
HETATM    4  C   UNL     1      -5.210   4.295 -32.500  1.00  0.00     0.055 A 
HETATM    5  C   UNL     1      -4.469   3.115 -32.473  1.00  0.00     0.036 A 
HETATM    6  C   UNL     1      -5.110   1.917 -32.769  1.00  0.00     0.032 A 
HETATM    7  C   UNL     1      -6.490   1.903 -33.019  1.00  0.00     0.033 A 
ENDROOT
BRANCH   5   8
HETATM    8  N   UNL     1      -3.128   3.196 -32.033  1.00  0.00    -0.333 N 
HETATM    9  H   UNL     1      -2.644   2.305 -31.993  1.00  0.00     0.168 HD
BRANCH   8  10
HETATM   10  C   UNL     1      -2.319   4.282 -32.046  1.00  0.00     0.179 C 
HETATM   11  S   UNL     1      -1.798   4.920 -33.500  1.00  0.00    -0.040 SA
BRANCH  10  12
HETATM   12  N   UNL     1      -1.853   4.829 -30.887  1.00  0.00    -0.299 N 
HETATM   13  C   UNL     1      -0.523   5.195 -30.686  1.00  0.00     0.260 C 
HETATM   14  O   UNL     1       0.461   4.629 -31.140  1.00  0.00    -0.267 OA
HETATM   15  H   UNL     1      -2.534   5.451 -30.474  1.00  0.00     0.171 HD
BRANCH  13  16
HETATM   16  C   UNL     1      -0.348   6.379 -29.799  1.00  0.00     0.066 A 
HETATM   17  C   UNL     1      -1.176   7.512 -29.870  1.00  0.00     0.089 A 
HETATM   18  C   UNL     1      -1.007   8.555 -28.935  1.00  0.00    -0.028 A 
HETATM   19  C   UNL     1      -1.909   9.760 -28.954  1.00  0.00     0.051 C 
HETATM   20  C   UNL     1      -0.000   8.464 -27.963  1.00  0.00     0.009 A 
HETATM   21  C   UNL     1       0.821   7.342 -27.896  1.00  0.00     0.002 A 
HETATM   22  C   UNL     1       0.642   6.299 -28.802  1.00  0.00     0.020 A 
BRANCH  17  23
HETATM   23  O   UNL     1      -2.216   7.676 -30.749  1.00  0.00    -0.354 OA
HETATM   24  C   UNL     1      -1.873   8.276 -31.994  1.00  0.00     0.210 C 
ENDBRANCH  17  23
ENDBRANCH  13  16
ENDBRANCH  10  12
ENDBRANCH   8  10
ENDBRANCH   5   8
BRANCH   1  25
HETATM   25  N   UNL     1      -8.664   2.901 -33.126  1.00  0.00    -0.376 N 
HETATM   26  C   UNL     1      -9.466   3.013 -31.889  1.00  0.00     0.143 C 
HETATM   27  C   UNL     1     -10.916   3.415 -32.232  1.00  0.00     0.145 C 
HETATM   28  N   UNL     1     -11.525   2.588 -33.285  1.00  0.00    -0.349 N 
HETATM   29  C   UNL     1     -12.916   2.544 -33.343  1.00  0.00     0.219 C 
HETATM   30  C   UNL     1     -10.670   2.349 -34.458  1.00  0.00     0.145 C 
HETATM   31  O   UNL     1     -13.622   3.046 -32.469  1.00  0.00    -0.273 OA
HETATM   32  C   UNL     1      -9.233   1.944 -34.087  1.00  0.00     0.143 C 
BRANCH  29  33
HETATM   33  C   UNL     1     -13.524   1.812 -34.533  1.00  0.00     0.103 C 
BRANCH  33  34
HETATM   34  C   UNL     1     -14.298   0.560 -34.128  1.00  0.00     0.005 C 
HETATM   35  C   UNL     1     -13.364  -0.529 -33.621  1.00  0.00     0.005 C 
ENDBRANCH  33  34
ENDBRANCH  29  33
ENDBRANCH   1  25
TORSDOF 8
ENDMDL
MODEL 4
REMARK VINA RESULT:      -7.9      2.544      9.103
REMARK  8 active torsions:
REMARK  status: ('A' for Active; 'I' for Inactive)
REMARK    1  A    between atoms: C_2  and  C_3 
REMARK    2  A    between atoms: C_3  and  C_4 
REMARK       I    between atoms: C_4  and  N_5 
REMARK    3  A    between atoms: N_8  and  C_9 
REMARK    4  A    between atoms: C_13  and  N_14 
REMARK    5  A    between atoms: N_14  and  C_15 
REMARK    6  A    between atoms: C_15  and  N_16 
REMARK       I    between atoms: N_16  and  C_17 
REMARK    7  A    between atoms: C_17  and  C_18 
REMARK    8  A    between atoms: C_19  and  O_20 
ROOT
HETATM    1  C   UNL     1      -6.073   2.178 -32.670  1.00  0.00     0.052 A 
HETATM    2  C   UNL     1      -6.122   2.690 -31.356  1.00  0.00     0.062 A 
HETATM    3 CL   UNL     1      -6.198   1.703 -29.931  1.00  0.00    -0.082 Cl
HETATM    4  C   UNL     1      -6.163   4.074 -31.111  1.00  0.00     0.055 A 
HETATM    5  C   UNL     1      -6.211   4.990 -32.159  1.00  0.00     0.036 A 
HETATM    6  C   UNL     1      -6.249   4.511 -33.465  1.00  0.00     0.032 A 
HETATM    7  C   UNL     1      -6.169   3.132 -33.707  1.00  0.00     0.033 A 
ENDROOT
BRANCH   5   8
HETATM    8  N   UNL     1      -6.104   6.362 -31.835  1.00  0.00    -0.333 N 
HETATM    9  H   UNL     1      -6.896   6.926 -32.123  1.00  0.00     0.168 HD
BRANCH   8  10
HETATM   10  C   UNL     1      -5.320   6.926 -30.885  1.00  0.00     0.179 C 
HETATM   11  S   UNL     1      -5.965   8.040 -29.820  1.00  0.00    -0.040 SA
BRANCH  10  12
HETATM   12  N   UNL     1      -3.983   6.662 -30.824  1.00  0.00    -0.299 N 
HETATM   13  C   UNL     1      -2.996   7.639 -30.940  1.00  0.00     0.260 C 
HETATM   14  O   UNL     1      -3.048   8.642 -31.639  1.00  0.00    -0.267 OA
HETATM   15  H   UNL     1      -3.783   5.931 -30.155  1.00  0.00     0.171 HD
BRANCH  13  16
HETATM   16  C   UNL     1      -1.773   7.363 -30.137  1.00  0.00     0.066 A 
HETATM   17  C   UNL     1      -1.047   6.165 -30.242  1.00  0.00     0.089 A 
HETATM   18  C   UNL     1       0.153   6.014 -29.515  1.00  0.00    -0.028 A 
HETATM   19  C   UNL     1       0.979   4.762 -29.644  1.00  0.00     0.051 C 
HETATM   20  C   UNL     1       0.595   7.047 -28.676  1.00  0.00     0.009 A 
HETATM   21  C   UNL     1      -0.128   8.232 -28.570  1.00  0.00     0.002 A 
HETATM   22  C   UNL     1      -1.300   8.396 -29.305  1.00  0.00     0.020 A 
BRANCH  17  23
HETATM   23  O   UNL     1      -1.367   5.118 -31.067  1.00  0.00    -0.354 OA
HETATM   24  C   UNL     1      -1.001   5.285 -32.433  1.00  0.00     0.210 C 
ENDBRANCH  17  23
ENDBRANCH  13  16
ENDBRANCH  10  12
ENDBRANCH   8  10
ENDBRANCH   5   8
BRANCH   1  25
HETATM   25  N   UNL     1      -5.851   0.851 -33.054  1.00  0.00    -0.376 N 
HETATM   26  C   UNL     1      -7.001  -0.075 -32.981  1.00  0.00     0.143 C 
HETATM   27  C   UNL     1      -6.801  -1.248 -33.965  1.00  0.00     0.145 C 
HETATM   28  N   UNL     1      -5.485  -1.894 -33.854  1.00  0.00    -0.349 N 
HETATM   29  C   UNL     1      -5.369  -3.199 -34.328  1.00  0.00     0.219 C 
HETATM   30  C   UNL     1      -4.345  -0.970 -33.776  1.00  0.00     0.145 C 
HETATM   31  O   UNL     1      -6.348  -3.852 -34.691  1.00  0.00    -0.273 OA
HETATM   32  C   UNL     1      -4.568   0.184 -32.783  1.00  0.00     0.143 C 
BRANCH  29  33
HETATM   33  C   UNL     1      -3.966  -3.792 -34.349  1.00  0.00     0.103 C 
BRANCH  33  34
HETATM   34  C   UNL     1      -3.655  -4.626 -33.109  1.00  0.00     0.005 C 
HETATM   35  C   UNL     1      -3.052  -3.772 -32.004  1.00  0.00     0.005 C 
ENDBRANCH  33  34
ENDBRANCH  29  33
ENDBRANCH   1  25
TORSDOF 8
ENDMDL
MODEL 5
REMARK VINA RESULT:      -7.8      3.080      9.961
REMARK  8 active torsions:
REMARK  status: ('A' for Active; 'I' for Inactive)
REMARK    1  A    between atoms: C_2  and  C_3 
REMARK    2  A    between atoms: C_3  and  C_4 
REMARK       I    between atoms: C_4  and  N_5 
REMARK    3  A    between atoms: N_8  and  C_9 
REMARK    4  A    between atoms: C_13  and  N_14 
REMARK    5  A    between atoms: N_14  and  C_15 
REMARK    6  A    between atoms: C_15  and  N_16 
REMARK       I    between atoms: N_16  and  C_17 
REMARK    7  A    between atoms: C_17  and  C_18 
REMARK    8  A    between atoms: C_19  and  O_20 
ROOT
HETATM    1  C   UNL     1      -4.996   3.680 -31.297  1.00  0.00     0.052 A 
HETATM    2  C   UNL     1      -4.488   4.866 -31.869  1.00  0.00     0.062 A 
HETATM    3 CL   UNL     1      -3.457   4.908 -33.264  1.00  0.00    -0.082 Cl
HETATM    4  C   UNL     1      -4.752   6.124 -31.299  1.00  0.00     0.055 A 
HETATM    5  C   UNL     1      -5.481   6.242 -30.117  1.00  0.00     0.036 A 
HETATM    6  C   UNL     1      -5.922   5.084 -29.486  1.00  0.00     0.032 A 
HETATM    7  C   UNL     1      -5.691   3.832 -30.076  1.00  0.00     0.033 A 
ENDROOT
BRANCH   5   8
HETATM    8  N   UNL     1      -5.826   7.544 -29.689  1.00  0.00    -0.333 N 
HETATM    9  H   UNL     1      -6.702   7.891 -30.063  1.00  0.00     0.168 HD
BRANCH   8  10
HETATM   10  C   UNL     1      -5.379   8.197 -28.590  1.00  0.00     0.179 C 
HETATM   11  S   UNL     1      -6.467   8.809 -27.480  1.00  0.00    -0.040 SA
BRANCH  10  12
HETATM   12  N   UNL     1      -4.049   8.437 -28.403  1.00  0.00    -0.299 N 
HETATM   13  C   UNL     1      -3.179   7.533 -27.796  1.00  0.00     0.260 C 
HETATM   14  O   UNL     1      -3.452   6.766 -26.884  1.00  0.00    -0.267 OA
HETATM   15  H   UNL     1      -3.656   8.952 -29.180  1.00  0.00     0.171 HD
BRANCH  13  16
HETATM   16  C   UNL     1      -1.790   7.576 -28.333  1.00  0.00     0.066 A 
HETATM   17  C   UNL     1      -0.733   8.209 -27.658  1.00  0.00     0.089 A 
HETATM   18  C   UNL     1       0.574   8.128 -28.184  1.00  0.00    -0.028 A 
HETATM   19  C   UNL     1       1.736   8.753 -27.460  1.00  0.00     0.051 C 
HETATM   20  C   UNL     1       0.800   7.441 -29.387  1.00  0.00     0.009 A 
HETATM   21  C   UNL     1      -0.250   6.819 -30.056  1.00  0.00     0.002 A 
HETATM   22  C   UNL     1      -1.537   6.875 -29.527  1.00  0.00     0.020 A 
BRANCH  17  23
HETATM   23  O   UNL     1      -0.840   8.860 -26.457  1.00  0.00    -0.354 OA
HETATM   24  C   UNL     1      -1.348  10.190 -26.528  1.00  0.00     0.210 C 
ENDBRANCH  17  23
ENDBRANCH  13  16
ENDBRANCH  10  12
ENDBRANCH   8  10
ENDBRANCH   5   8
BRANCH   1  25
HETATM   25  N   UNL     1      -4.965   2.394 -31.848  1.00  0.00    -0.376 N 
HETATM   26  C   UNL     1      -3.679   1.666 -31.790  1.00  0.00     0.143 C 
HETATM   27  C   UNL     1      -3.929   0.143 -31.842  1.00  0.00     0.145 C 
HETATM   28  N   UNL     1      -4.822  -0.272 -32.934  1.00  0.00    -0.349 N 
HETATM   29  C   UNL     1      -4.745  -1.598 -33.356  1.00  0.00     0.219 C 
HETATM   30  C   UNL     1      -6.034   0.545 -33.089  1.00  0.00     0.145 C 
HETATM   31  O   UNL     1      -3.872  -2.364 -32.949  1.00  0.00    -0.273 OA
HETATM   32  C   UNL     1      -5.755   2.057 -33.042  1.00  0.00     0.143 C 
BRANCH  29  33
HETATM   33  C   UNL     1      -5.785  -2.048 -34.376  1.00  0.00     0.103 C 
BRANCH  33  34
HETATM   34  C   UNL     1      -5.404  -3.349 -35.077  1.00  0.00     0.005 C 
HETATM   35  C   UNL     1      -6.568  -4.328 -35.097  1.00  0.00     0.005 C 
ENDBRANCH  33  34
ENDBRANCH  29  33
ENDBRANCH   1  25
TORSDOF 8
ENDMDL
MODEL 6
REMARK VINA RESULT:      -7.8      2.995      9.317
REMARK  8 active torsions:
REMARK  status: ('A' for Active; 'I' for Inactive)
REMARK    1  A    between atoms: C_2  and  C_3 
REMARK    2  A    between atoms: C_3  and  C_4 
REMARK       I    between atoms: C_4  and  N_5 
REMARK    3  A    between atoms: N_8  and  C_9 
REMARK    4  A    between atoms: C_13  and  N_14 
REMARK    5  A    between atoms: N_14  and  C_15 
REMARK    6  A    between atoms: C_15  and  N_16 
REMARK       I    between atoms: N_16  and  C_17 
REMARK    7  A    between atoms: C_17  and  C_18 
REMARK    8  A    between atoms: C_19  and  O_20 
ROOT
HETATM    1  C   UNL     1      -5.801   3.915 -32.238  1.00  0.00     0.052 A 
HETATM    2  C   UNL     1      -6.235   4.383 -30.979  1.00  0.00     0.062 A 
HETATM    3 CL   UNL     1      -6.907   3.365 -29.745  1.00  0.00    -0.082 Cl
HETATM    4  C   UNL     1      -6.195   5.750 -30.652  1.00  0.00     0.055 A 
HETATM    5  C   UNL     1      -5.775   6.701 -31.580  1.00  0.00     0.036 A 
HETATM    6  C   UNL     1      -5.422   6.278 -32.857  1.00  0.00     0.032 A 
HETATM    7  C   UNL     1      -5.426   4.910 -33.168  1.00  0.00     0.033 A 
ENDROOT
BRANCH   5   8
HETATM    8  N   UNL     1      -5.625   8.032 -31.129  1.00  0.00    -0.333 N 
HETATM    9  H   UNL     1      -5.981   8.735 -31.768  1.00  0.00     0.168 HD
BRANCH   8  10
HETATM   10  C   UNL     1      -5.452   8.457 -29.855  1.00  0.00     0.179 C 
HETATM   11  S   UNL     1      -6.769   8.950 -28.951  1.00  0.00    -0.040 SA
BRANCH  10  12
HETATM   12  N   UNL     1      -4.207   8.567 -29.310  1.00  0.00    -0.299 N 
HETATM   13  C   UNL     1      -3.597   7.557 -28.567  1.00  0.00     0.260 C 
HETATM   14  O   UNL     1      -4.158   6.768 -27.820  1.00  0.00    -0.267 OA
HETATM   15  H   UNL     1      -3.586   9.087 -29.915  1.00  0.00     0.171 HD
BRANCH  13  16
HETATM   16  C   UNL     1      -2.117   7.505 -28.718  1.00  0.00     0.066 A 
HETATM   17  C   UNL     1      -1.485   7.089 -29.902  1.00  0.00     0.089 A 
HETATM   18  C   UNL     1      -0.080   7.155 -30.001  1.00  0.00    -0.028 A 
HETATM   19  C   UNL     1       0.623   6.763 -31.273  1.00  0.00     0.051 C 
HETATM   20  C   UNL     1       0.675   7.608 -28.908  1.00  0.00     0.009 A 
HETATM   21  C   UNL     1       0.049   8.016 -27.734  1.00  0.00     0.002 A 
HETATM   22  C   UNL     1      -1.340   7.976 -27.642  1.00  0.00     0.020 A 
BRANCH  17  23
HETATM   23  O   UNL     1      -2.133   6.678 -31.039  1.00  0.00    -0.354 OA
HETATM   24  C   UNL     1      -2.363   5.275 -31.135  1.00  0.00     0.210 C 
ENDBRANCH  17  23
ENDBRANCH  13  16
ENDBRANCH  10  12
ENDBRANCH   8  10
ENDBRANCH   5   8
BRANCH   1  25
HETATM   25  N   UNL     1      -5.618   2.585 -32.630  1.00  0.00    -0.376 N 
HETATM   26  C   UNL     1      -4.263   2.016 -32.477  1.00  0.00     0.143 C 
HETATM   27  C   UNL     1      -4.344   0.480 -32.347  1.00  0.00     0.145 C 
HETATM   28  N   UNL     1      -5.163  -0.159 -33.388  1.00  0.00    -0.349 N 
HETATM   29  C   UNL     1      -4.933  -1.508 -33.647  1.00  0.00     0.219 C 
HETATM   30  C   UNL     1      -6.454   0.495 -33.649  1.00  0.00     0.145 C 
HETATM   31  O   UNL     1      -3.990  -2.119 -33.145  1.00  0.00    -0.273 OA
HETATM   32  C   UNL     1      -6.342   2.024 -33.781  1.00  0.00     0.143 C 
BRANCH  29  33
HETATM   33  C   UNL     1      -5.896  -2.188 -34.613  1.00  0.00     0.103 C 
BRANCH  33  34
HETATM   34  C   UNL     1      -5.456  -3.599 -34.996  1.00  0.00     0.005 C 
HETATM   35  C   UNL     1      -6.652  -4.500 -35.263  1.00  0.00     0.005 C 
ENDBRANCH  33  34
ENDBRANCH  29  33
ENDBRANCH   1  25
TORSDOF 8
ENDMDL
MODEL 7
REMARK VINA RESULT:      -7.6      4.907      9.103
REMARK  8 active torsions:
REMARK  status: ('A' for Active; 'I' for Inactive)
REMARK    1  A    between atoms: C_2  and  C_3 
REMARK    2  A    between atoms: C_3  and  C_4 
REMARK       I    between atoms: C_4  and  N_5 
REMARK    3  A    between atoms: N_8  and  C_9 
REMARK    4  A    between atoms: C_13  and  N_14 
REMARK    5  A    between atoms: N_14  and  C_15 
REMARK    6  A    between atoms: C_15  and  N_16 
REMARK       I    between atoms: N_16  and  C_17 
REMARK    7  A    between atoms: C_17  and  C_18 
REMARK    8  A    between atoms: C_19  and  O_20 
ROOT
HETATM    1  C   UNL     1     -10.046   3.138 -32.267  1.00  0.00     0.052 A 
HETATM    2  C   UNL     1      -9.188   3.858 -33.125  1.00  0.00     0.062 A 
HETATM    3 CL   UNL     1      -9.675   4.520 -34.653  1.00  0.00    -0.082 Cl
HETATM    4  C   UNL     1      -7.831   4.050 -32.810  1.00  0.00     0.055 A 
HETATM    5  C   UNL     1      -7.271   3.489 -31.665  1.00  0.00     0.036 A 
HETATM    6  C   UNL     1      -8.073   2.704 -30.844  1.00  0.00     0.032 A 
HETATM    7  C   UNL     1      -9.435   2.545 -31.139  1.00  0.00     0.033 A 
ENDROOT
BRANCH   5   8
HETATM    8  N   UNL     1      -5.941   3.848 -31.344  1.00  0.00    -0.333 N 
HETATM    9  H   UNL     1      -5.802   4.130 -30.380  1.00  0.00     0.168 HD
BRANCH   8  10
HETATM   10  C   UNL     1      -4.811   3.498 -32.003  1.00  0.00     0.179 C 
HETATM   11  S   UNL     1      -3.571   4.603 -32.183  1.00  0.00    -0.040 SA
BRANCH  10  12
HETATM   12  N   UNL     1      -4.689   2.276 -32.596  1.00  0.00    -0.299 N 
HETATM   13  C   UNL     1      -5.028   1.076 -31.973  1.00  0.00     0.260 C 
HETATM   14  O   UNL     1      -4.906   0.819 -30.783  1.00  0.00    -0.267 OA
HETATM   15  H   UNL     1      -4.911   2.323 -33.582  1.00  0.00     0.171 HD
BRANCH  13  16
HETATM   16  C   UNL     1      -5.553   0.038 -32.902  1.00  0.00     0.066 A 
HETATM   17  C   UNL     1      -4.760  -1.012 -33.397  1.00  0.00     0.089 A 
HETATM   18  C   UNL     1      -5.352  -2.010 -34.199  1.00  0.00    -0.028 A 
HETATM   19  C   UNL     1      -4.541  -3.173 -34.704  1.00  0.00     0.051 C 
HETATM   20  C   UNL     1      -6.716  -1.931 -34.518  1.00  0.00     0.009 A 
HETATM   21  C   UNL     1      -7.499  -0.888 -34.030  1.00  0.00     0.002 A 
HETATM   22  C   UNL     1      -6.924   0.086 -33.216  1.00  0.00     0.020 A 
BRANCH  17  23
HETATM   23  O   UNL     1      -3.435  -1.205 -33.105  1.00  0.00    -0.354 OA
HETATM   24  C   UNL     1      -3.173  -1.959 -31.926  1.00  0.00     0.210 C 
ENDBRANCH  17  23
ENDBRANCH  13  16
ENDBRANCH  10  12
ENDBRANCH   8  10
ENDBRANCH   5   8
BRANCH   1  25
HETATM   25  N   UNL     1     -11.438   3.023 -32.362  1.00  0.00    -0.376 N 
HETATM   26  C   UNL     1     -11.976   2.275 -33.518  1.00  0.00     0.143 C 
HETATM   27  C   UNL     1     -13.375   1.715 -33.182  1.00  0.00     0.145 C 
HETATM   28  N   UNL     1     -14.292   2.716 -32.617  1.00  0.00    -0.349 N 
HETATM   29  C   UNL     1     -15.658   2.462 -32.716  1.00  0.00     0.219 C 
HETATM   30  C   UNL     1     -13.713   3.565 -31.566  1.00  0.00     0.145 C 
HETATM   31  O   UNL     1     -16.103   1.522 -33.374  1.00  0.00    -0.273 OA
HETATM   32  C   UNL     1     -12.323   4.115 -31.930  1.00  0.00     0.143 C 
BRANCH  29  33
HETATM   33  C   UNL     1     -16.584   3.429 -31.987  1.00  0.00     0.103 C 
BRANCH  33  34
HETATM   34  C   UNL     1     -18.038   2.964 -31.976  1.00  0.00     0.005 C 
HETATM   35  C   UNL     1     -18.996   4.137 -32.117  1.00  0.00     0.005 C 
ENDBRANCH  33  34
ENDBRANCH  29  33
ENDBRANCH   1  25
TORSDOF 8
ENDMDL
MODEL 8
REMARK VINA RESULT:      -7.6      4.189     10.795
REMARK  8 active torsions:
REMARK  status: ('A' for Active; 'I' for Inactive)
REMARK    1  A    between atoms: C_2  and  C_3 
REMARK    2  A    between atoms: C_3  and  C_4 
REMARK       I    between atoms: C_4  and  N_5 
REMARK    3  A    between atoms: N_8  and  C_9 
REMARK    4  A    between atoms: C_13  and  N_14 
REMARK    5  A    between atoms: N_14  and  C_15 
REMARK    6  A    between atoms: C_15  and  N_16 
REMARK       I    between atoms: N_16  and  C_17 
REMARK    7  A    between atoms: C_17  and  C_18 
REMARK    8  A    between atoms: C_19  and  O_20 
ROOT
HETATM    1  C   UNL     1      -5.554   3.672 -32.306  1.00  0.00     0.052 A 
HETATM    2  C   UNL     1      -5.038   4.985 -32.261  1.00  0.00     0.062 A 
HETATM    3 CL   UNL     1      -5.921   6.393 -32.759  1.00  0.00    -0.082 Cl
HETATM    4  C   UNL     1      -3.720   5.239 -31.842  1.00  0.00     0.055 A 
HETATM    5  C   UNL     1      -2.857   4.198 -31.507  1.00  0.00     0.036 A 
HETATM    6  C   UNL     1      -3.312   2.888 -31.623  1.00  0.00     0.032 A 
HETATM    7  C   UNL     1      -4.639   2.639 -32.004  1.00  0.00     0.033 A 
ENDROOT
BRANCH   5   8
HETATM    8  N   UNL     1      -1.600   4.541 -30.959  1.00  0.00    -0.333 N 
HETATM    9  H   UNL     1      -0.901   3.808 -31.017  1.00  0.00     0.168 HD
BRANCH   8  10
HETATM   10  C   UNL     1      -1.105   5.783 -30.745  1.00  0.00     0.179 C 
HETATM   11  S   UNL     1      -0.427   6.643 -32.007  1.00  0.00    -0.040 SA
BRANCH  10  12
HETATM   12  N   UNL     1      -1.077   6.326 -29.494  1.00  0.00    -0.299 N 
HETATM   13  C   UNL     1       0.044   6.301 -28.666  1.00  0.00     0.260 C 
HETATM   14  O   UNL     1       0.874   5.405 -28.596  1.00  0.00    -0.267 OA
HETATM   15  H   UNL     1      -1.620   7.178 -29.451  1.00  0.00     0.171 HD
BRANCH  13  16
HETATM   16  C   UNL     1       0.171   7.493 -27.782  1.00  0.00     0.066 A 
HETATM   17  C   UNL     1      -0.820   7.864 -26.857  1.00  0.00     0.089 A 
HETATM   18  C   UNL     1      -0.588   8.952 -25.989  1.00  0.00    -0.028 A 
HETATM   19  C   UNL     1      -1.608   9.344 -24.955  1.00  0.00     0.051 C 
HETATM   20  C   UNL     1       0.615   9.670 -26.077  1.00  0.00     0.009 A 
HETATM   21  C   UNL     1       1.594   9.303 -26.997  1.00  0.00     0.002 A 
HETATM   22  C   UNL     1       1.379   8.214 -27.838  1.00  0.00     0.020 A 
BRANCH  17  23
HETATM   23  O   UNL     1      -2.004   7.201 -26.660  1.00  0.00    -0.354 OA
HETATM   24  C   UNL     1      -1.939   6.087 -25.776  1.00  0.00     0.210 C 
ENDBRANCH  17  23
ENDBRANCH  13  16
ENDBRANCH  10  12
ENDBRANCH   8  10
ENDBRANCH   5   8
BRANCH   1  25
HETATM   25  N   UNL     1      -6.883   3.292 -32.526  1.00  0.00    -0.376 N 
HETATM   26  C   UNL     1      -7.888   3.747 -31.542  1.00  0.00     0.143 C 
HETATM   27  C   UNL     1      -9.284   3.803 -32.197  1.00  0.00     0.145 C 
HETATM   28  N   UNL     1      -9.647   2.576 -32.922  1.00  0.00    -0.349 N 
HETATM   29  C   UNL     1     -11.002   2.336 -33.138  1.00  0.00     0.219 C 
HETATM   30  C   UNL     1      -8.593   2.036 -33.792  1.00  0.00     0.145 C 
HETATM   31  O   UNL     1     -11.879   3.029 -32.622  1.00  0.00    -0.273 OA
HETATM   32  C   UNL     1      -7.214   1.984 -33.112  1.00  0.00     0.143 C 
BRANCH  29  33
HETATM   33  C   UNL     1     -11.348   1.146 -34.025  1.00  0.00     0.103 C 
BRANCH  33  34
HETATM   34  C   UNL     1     -12.820   1.116 -34.430  1.00  0.00     0.005 C 
HETATM   35  C   UNL     1     -13.551  -0.045 -33.773  1.00  0.00     0.005 C 
ENDBRANCH  33  34
ENDBRANCH  29  33
ENDBRANCH   1  25
TORSDOF 8
ENDMDL
MODEL 9
REMARK VINA RESULT:      -7.6     16.908     18.595
REMARK  8 active torsions:
REMARK  status: ('A' for Active; 'I' for Inactive)
REMARK    1  A    between atoms: C_2  and  C_3 
REMARK    2  A    between atoms: C_3  and  C_4 
REMARK       I    between atoms: C_4  and  N_5 
REMARK    3  A    between atoms: N_8  and  C_9 
REMARK    4  A    between atoms: C_13  and  N_14 
REMARK    5  A    between atoms: N_14  and  C_15 
REMARK    6  A    between atoms: C_15  and  N_16 
REMARK       I    between atoms: N_16  and  C_17 
REMARK    7  A    between atoms: C_17  and  C_18 
REMARK    8  A    between atoms: C_19  and  O_20 
ROOT
HETATM    1  C   UNL     1      -6.379 -15.400 -34.762  1.00  0.00     0.052 A 
HETATM    2  C   UNL     1      -6.708 -14.105 -35.218  1.00  0.00     0.062 A 
HETATM    3 CL   UNL     1      -7.217 -12.811 -34.180  1.00  0.00    -0.082 Cl
HETATM    4  C   UNL     1      -6.691 -13.785 -36.587  1.00  0.00     0.055 A 
HETATM    5  C   UNL     1      -6.400 -14.750 -37.549  1.00  0.00     0.036 A 
HETATM    6  C   UNL     1      -6.155 -16.055 -37.134  1.00  0.00     0.032 A 
HETATM    7  C   UNL     1      -6.135 -16.363 -35.766  1.00  0.00     0.033 A 
ENDROOT
BRANCH   5   8
HETATM    8  N   UNL     1      -6.261 -14.317 -38.887  1.00  0.00    -0.333 N 
HETATM    9  H   UNL     1      -7.080 -14.468 -39.466  1.00  0.00     0.168 HD
BRANCH   8  10
HETATM   10  C   UNL     1      -5.381 -13.410 -39.373  1.00  0.00     0.179 C 
HETATM   11  S   UNL     1      -5.924 -12.134 -40.306  1.00  0.00    -0.040 SA
BRANCH  10  12
HETATM   12  N   UNL     1      -4.038 -13.555 -39.182  1.00  0.00    -0.299 N 
HETATM   13  C   UNL     1      -3.357 -13.054 -38.074  1.00  0.00     0.260 C 
HETATM   14  O   UNL     1      -3.611 -12.019 -37.475  1.00  0.00    -0.267 OA
HETATM   15  H   UNL     1      -3.716 -14.456 -39.510  1.00  0.00     0.171 HD
BRANCH  13  16
HETATM   16  C   UNL     1      -2.200 -13.889 -37.646  1.00  0.00     0.066 A 
HETATM   17  C   UNL     1      -1.012 -13.983 -38.392  1.00  0.00     0.089 A 
HETATM   18  C   UNL     1       0.074 -14.720 -37.876  1.00  0.00    -0.028 A 
HETATM   19  C   UNL     1       1.376 -14.800 -38.627  1.00  0.00     0.051 C 
HETATM   20  C   UNL     1      -0.049 -15.373 -36.641  1.00  0.00     0.009 A 
HETATM   21  C   UNL     1      -1.228 -15.282 -35.905  1.00  0.00     0.002 A 
HETATM   22  C   UNL     1      -2.295 -14.534 -36.399  1.00  0.00     0.020 A 
BRANCH  17  23
HETATM   23  O   UNL     1      -0.775 -13.346 -39.582  1.00  0.00    -0.354 OA
HETATM   24  C   UNL     1      -1.052 -14.113 -40.750  1.00  0.00     0.210 C 
ENDBRANCH  17  23
ENDBRANCH  13  16
ENDBRANCH  10  12
ENDBRANCH   8  10
ENDBRANCH   5   8
BRANCH   1  25
HETATM   25  N   UNL     1      -6.182 -15.807 -33.437  1.00  0.00    -0.376 N 
HETATM   26  C   UNL     1      -5.056 -15.193 -32.703  1.00  0.00     0.143 C 
HETATM   27  C   UNL     1      -5.325 -15.240 -31.184  1.00  0.00     0.145 C 
HETATM   28  N   UNL     1      -5.724 -16.569 -30.695  1.00  0.00    -0.349 N 
HETATM   29  C   UNL     1      -5.538 -16.837 -29.341  1.00  0.00     0.219 C 
HETATM   30  C   UNL     1      -6.741 -17.249 -31.511  1.00  0.00     0.145 C 
HETATM   31  O   UNL     1      -4.930 -16.065 -28.599  1.00  0.00    -0.273 OA
HETATM   32  C   UNL     1      -6.443 -17.193 -33.019  1.00  0.00     0.143 C 
BRANCH  29  33
HETATM   33  C   UNL     1      -6.102 -18.156 -28.826  1.00  0.00     0.103 C 
BRANCH  33  34
HETATM   34  C   UNL     1      -7.054 -17.974 -27.646  1.00  0.00     0.005 C 
HETATM   35  C   UNL     1      -8.343 -17.290 -28.075  1.00  0.00     0.005 C 
ENDBRANCH  33  34
ENDBRANCH  29  33
ENDBRANCH   1  25
TORSDOF 8
ENDMDL
MODEL 10
REMARK VINA RESULT:      -7.5      5.922      8.837
REMARK  8 active torsions:
REMARK  status: ('A' for Active; 'I' for Inactive)
REMARK    1  A    between atoms: C_2  and  C_3 
REMARK    2  A    between atoms: C_3  and  C_4 
REMARK       I    between atoms: C_4  and  N_5 
REMARK    3  A    between atoms: N_8  and  C_9 
REMARK    4  A    between atoms: C_13  and  N_14 
REMARK    5  A    between atoms: N_14  and  C_15 
REMARK    6  A    between atoms: C_15  and  N_16 
REMARK       I    between atoms: N_16  and  C_17 
REMARK    7  A    between atoms: C_17  and  C_18 
REMARK    8  A    between atoms: C_19  and  O_20 
ROOT
HETATM    1  C   UNL     1     -11.595   5.124 -34.355  1.00  0.00     0.052 A 
HETATM    2  C   UNL     1     -12.311   4.483 -33.320  1.00  0.00     0.062 A 
HETATM    3 CL   UNL     1     -13.832   5.042 -32.702  1.00  0.00    -0.082 Cl
HETATM    4  C   UNL     1     -11.799   3.344 -32.673  1.00  0.00     0.055 A 
HETATM    5  C   UNL     1     -10.541   2.838 -32.991  1.00  0.00     0.036 A 
HETATM    6  C   UNL     1      -9.777   3.499 -33.948  1.00  0.00     0.032 A 
HETATM    7  C   UNL     1     -10.305   4.612 -34.620  1.00  0.00     0.033 A 
ENDROOT
BRANCH   5   8
HETATM    8  N   UNL     1     -10.161   1.612 -32.401  1.00  0.00    -0.333 N 
HETATM    9  H   UNL     1     -10.786   0.838 -32.599  1.00  0.00     0.168 HD
BRANCH   8  10
HETATM   10  C   UNL     1      -8.929   1.250 -31.968  1.00  0.00     0.179 C 
HETATM   11  S   UNL     1      -8.066   2.264 -30.959  1.00  0.00    -0.040 SA
BRANCH  10  12
HETATM   12  N   UNL     1      -8.337   0.101 -32.402  1.00  0.00    -0.299 N 
HETATM   13  C   UNL     1      -7.869  -0.084 -33.702  1.00  0.00     0.260 C 
HETATM   14  O   UNL     1      -8.363   0.374 -34.722  1.00  0.00    -0.267 OA
HETATM   15  H   UNL     1      -7.764  -0.312 -31.679  1.00  0.00     0.171 HD
BRANCH  13  16
HETATM   16  C   UNL     1      -6.666  -0.958 -33.794  1.00  0.00     0.066 A 
HETATM   17  C   UNL     1      -5.508  -0.743 -33.027  1.00  0.00     0.089 A 
HETATM   18  C   UNL     1      -4.445  -1.667 -33.101  1.00  0.00    -0.028 A 
HETATM   19  C   UNL     1      -3.212  -1.491 -32.256  1.00  0.00     0.051 C 
HETATM   20  C   UNL     1      -4.541  -2.774 -33.957  1.00  0.00     0.009 A 
HETATM   21  C   UNL     1      -5.688  -2.984 -34.719  1.00  0.00     0.002 A 
HETATM   22  C   UNL     1      -6.750  -2.087 -34.630  1.00  0.00     0.020 A 
BRANCH  17  23
HETATM   23  O   UNL     1      -5.336   0.278 -32.128  1.00  0.00    -0.354 OA
HETATM   24  C   UNL     1      -4.824   1.490 -32.673  1.00  0.00     0.210 C 
ENDBRANCH  17  23
ENDBRANCH  13  16
ENDBRANCH  10  12
ENDBRANCH   8  10
ENDBRANCH   5   8
BRANCH   1  25
HETATM   25  N   UNL     1     -12.054   6.141 -35.198  1.00  0.00    -0.376 N 
HETATM   26  C   UNL     1     -13.174   5.812 -36.106  1.00  0.00     0.143 C 
HETATM   27  C   UNL     1     -13.945   7.095 -36.483  1.00  0.00     0.145 C 
HETATM   28  N   UNL     1     -13.080   8.190 -36.947  1.00  0.00    -0.349 N 
HETATM   29  C   UNL     1     -13.666   9.182 -37.730  1.00  0.00     0.219 C 
HETATM   30  C   UNL     1     -11.883   8.424 -36.127  1.00  0.00     0.145 C 
HETATM   31  O   UNL     1     -14.818   9.087 -38.151  1.00  0.00    -0.273 OA
HETATM   32  C   UNL     1     -11.129   7.130 -35.772  1.00  0.00     0.143 C 
BRANCH  29  33
HETATM   33  C   UNL     1     -12.793  10.385 -38.067  1.00  0.00     0.103 C 
BRANCH  33  34
HETATM   34  C   UNL     1     -12.043  10.224 -39.386  1.00  0.00     0.005 C 
HETATM   35  C   UNL     1     -10.538  10.180 -39.167  1.00  0.00     0.005 C 
ENDBRANCH  33  34
ENDBRANCH  29  33
ENDBRANCH   1  25
TORSDOF 8
ENDMDL
