MODEL 1
REMARK VINA RESULT:      -8.7      0.000      0.000
REMARK  5 active torsions:
REMARK  status: ('A' for Active; 'I' for Inactive)
REMARK    1  A    between atoms: C_2  and  N_3 
REMARK    2  A    between atoms: C_6  and  C_7 
REMARK    3  A    between atoms: C_7  and  N_8 
REMARK    4  A    between atoms: C_11  and  O_12 
REMARK    5  A    between atoms: C_13  and  N_14 
ROOT
HETATM    1  N   UNL     1      -6.031   3.457 -33.216  1.00  0.00    -0.065 N 
HETATM    2  H   UNL     1      -5.395   2.648 -33.169  1.00  0.00     0.280 HD
HETATM    3  C   UNL     1      -5.493   4.442 -34.236  1.00  0.00     0.268 C 
HETATM    4  C   UNL     1      -4.092   4.917 -33.811  1.00  0.00     0.174 C 
HETATM    5  C   UNL     1      -4.153   5.496 -32.378  1.00  0.00     0.220 C 
HETATM    6  C   UNL     1      -4.747   4.508 -31.377  1.00  0.00     0.063 C 
HETATM    7  C   UNL     1      -6.134   4.048 -31.833  1.00  0.00     0.237 C 
ENDROOT
BRANCH   1   8
HETATM    8  C   UNL     1      -7.350   2.820 -33.675  1.00  0.00     0.276 C 
BRANCH   8   9
HETATM    9  C   UNL     1      -7.131   1.398 -34.032  1.00  0.00     0.004 A 
HETATM   10  C   UNL     1      -7.830   0.627 -34.979  1.00  0.00     0.149 A 
HETATM   11  N   UNL     1      -7.311  -0.587 -35.126  1.00  0.00    -0.180 NA
HETATM   12  N   UNL     1      -6.319  -0.679 -34.209  1.00  0.00    -0.245 N 
HETATM   13  C   UNL     1      -6.187   0.521 -33.527  1.00  0.00     0.129 A 
BRANCH  12  14
HETATM   14  C   UNL     1      -5.523  -1.852 -34.089  1.00  0.00     0.058 A 
HETATM   15  C   UNL     1      -4.399  -1.837 -33.245  1.00  0.00     0.034 A 
HETATM   16  C   UNL     1      -3.622  -2.986 -33.087  1.00  0.00     0.044 A 
HETATM   17  C   UNL     1      -3.965  -4.145 -33.771  1.00  0.00     0.116 A 
HETATM   18  C   UNL     1      -5.068  -4.176 -34.616  1.00  0.00     0.044 A 
HETATM   19  F   UNL     1      -3.227  -5.251 -33.613  1.00  0.00    -0.206 F 
HETATM   20  C   UNL     1      -5.851  -3.029 -34.782  1.00  0.00     0.034 A 
ENDBRANCH  12  14
ENDBRANCH   8   9
ENDBRANCH   1   8
BRANCH   4  21
HETATM   21  O   UNL     1      -3.575   5.946 -34.649  1.00  0.00    -0.392 OA
HETATM   22  H   UNL     1      -2.617   5.806 -34.809  1.00  0.00     0.210 HD
ENDBRANCH   4  21
BRANCH   5  23
HETATM   23  N   UNL     1      -2.752   6.009 -31.972  1.00  0.00    -0.064 N 
HETATM   24  H   UNL     1      -2.386   6.384 -32.869  1.00  0.00     0.280 HD
HETATM   25  C   UNL     1      -2.826   7.215 -31.052  1.00  0.00     0.235 C 
HETATM   26  C   UNL     1      -1.493   7.946 -30.926  1.00  0.00     0.028 C 
HETATM   27  C   UNL     1      -0.478   7.207 -30.060  1.00  0.00     0.002 C 
HETATM   28  C   UNL     1       0.368   6.181 -30.804  1.00  0.00     0.002 C 
HETATM   29  C   UNL     1      -0.340   5.349 -31.867  1.00  0.00     0.028 C 
HETATM   30  C   UNL     1      -1.765   4.946 -31.517  1.00  0.00     0.235 C 
ENDBRANCH   5  23
TORSDOF 5
ENDMDL
MODEL 2
REMARK VINA RESULT:      -8.5      1.500      2.144
REMARK  5 active torsions:
REMARK  status: ('A' for Active; 'I' for Inactive)
REMARK    1  A    between atoms: C_2  and  N_3 
REMARK    2  A    between atoms: C_6  and  C_7 
REMARK    3  A    between atoms: C_7  and  N_8 
REMARK    4  A    between atoms: C_11  and  O_12 
REMARK    5  A    between atoms: C_13  and  N_14 
ROOT
HETATM    1  N   UNL     1      -5.622   3.855 -32.957  1.00  0.00    -0.065 N 
HETATM    2  H   UNL     1      -6.177   4.195 -32.159  1.00  0.00     0.280 HD
HETATM    3  C   UNL     1      -4.604   2.851 -32.451  1.00  0.00     0.268 C 
HETATM    4  C   UNL     1      -3.671   3.526 -31.431  1.00  0.00     0.174 C 
HETATM    5  C   UNL     1      -3.025   4.780 -32.069  1.00  0.00     0.220 C 
HETATM    6  C   UNL     1      -4.066   5.752 -32.619  1.00  0.00     0.063 C 
HETATM    7  C   UNL     1      -4.983   5.047 -33.622  1.00  0.00     0.237 C 
ENDROOT
BRANCH   1   8
HETATM    8  C   UNL     1      -6.685   3.194 -33.847  1.00  0.00     0.276 C 
BRANCH   8   9
HETATM    9  C   UNL     1      -6.741   1.738 -33.575  1.00  0.00     0.004 A 
HETATM   10  C   UNL     1      -7.525   1.067 -32.619  1.00  0.00     0.149 A 
HETATM   11  N   UNL     1      -7.413  -0.254 -32.707  1.00  0.00    -0.180 NA
HETATM   12  N   UNL     1      -6.478  -0.482 -33.660  1.00  0.00    -0.245 N 
HETATM   13  C   UNL     1      -6.051   0.719 -34.207  1.00  0.00     0.129 A 
BRANCH  12  14
HETATM   14  C   UNL     1      -6.107  -1.803 -34.037  1.00  0.00     0.058 A 
HETATM   15  C   UNL     1      -4.767  -2.206 -33.902  1.00  0.00     0.034 A 
HETATM   16  C   UNL     1      -4.387  -3.507 -34.237  1.00  0.00     0.044 A 
HETATM   17  C   UNL     1      -5.340  -4.401 -34.706  1.00  0.00     0.116 A 
HETATM   18  C   UNL     1      -6.668  -4.017 -34.854  1.00  0.00     0.044 A 
HETATM   19  F   UNL     1      -4.980  -5.652 -35.017  1.00  0.00    -0.206 F 
HETATM   20  C   UNL     1      -7.057  -2.715 -34.524  1.00  0.00     0.034 A 
ENDBRANCH  12  14
ENDBRANCH   8   9
ENDBRANCH   1   8
BRANCH   4  21
HETATM   21  O   UNL     1      -2.602   2.683 -31.009  1.00  0.00    -0.392 OA
HETATM   22  H   UNL     1      -2.722   2.425 -30.070  1.00  0.00     0.210 HD
ENDBRANCH   4  21
BRANCH   5  23
HETATM   23  N   UNL     1      -2.057   5.431 -31.054  1.00  0.00    -0.064 N 
HETATM   24  H   UNL     1      -2.133   4.794 -30.237  1.00  0.00     0.280 HD
HETATM   25  C   UNL     1      -0.608   5.326 -31.494  1.00  0.00     0.235 C 
HETATM   26  C   UNL     1       0.375   5.633 -30.368  1.00  0.00     0.028 C 
HETATM   27  C   UNL     1       0.468   7.118 -30.036  1.00  0.00     0.002 C 
HETATM   28  C   UNL     1      -0.557   7.611 -29.022  1.00  0.00     0.002 C 
HETATM   29  C   UNL     1      -1.964   7.033 -29.134  1.00  0.00     0.028 C 
HETATM   30  C   UNL     1      -2.452   6.813 -30.557  1.00  0.00     0.235 C 
ENDBRANCH   5  23
TORSDOF 5
ENDMDL
MODEL 3
REMARK VINA RESULT:      -8.4      3.327      9.105
REMARK  5 active torsions:
REMARK  status: ('A' for Active; 'I' for Inactive)
REMARK    1  A    between atoms: C_2  and  N_3 
REMARK    2  A    between atoms: C_6  and  C_7 
REMARK    3  A    between atoms: C_7  and  N_8 
REMARK    4  A    between atoms: C_11  and  O_12 
REMARK    5  A    between atoms: C_13  and  N_14 
ROOT
HETATM    1  N   UNL     1      -5.817   2.482 -33.389  1.00  0.00    -0.065 N 
HETATM    2  H   UNL     1      -4.907   2.441 -33.870  1.00  0.00     0.280 HD
HETATM    3  C   UNL     1      -5.716   1.710 -32.087  1.00  0.00     0.268 C 
HETATM    4  C   UNL     1      -5.360   0.242 -32.380  1.00  0.00     0.174 C 
HETATM    5  C   UNL     1      -6.392  -0.356 -33.364  1.00  0.00     0.220 C 
HETATM    6  C   UNL     1      -6.518   0.465 -34.645  1.00  0.00     0.063 C 
HETATM    7  C   UNL     1      -6.862   1.921 -34.318  1.00  0.00     0.237 C 
ENDROOT
BRANCH   1   8
HETATM    8  C   UNL     1      -6.000   3.987 -33.149  1.00  0.00     0.276 C 
BRANCH   8   9
HETATM    9  C   UNL     1      -4.679   4.653 -33.059  1.00  0.00     0.004 A 
HETATM   10  C   UNL     1      -3.879   5.133 -34.112  1.00  0.00     0.149 A 
HETATM   11  N   UNL     1      -2.798   5.770 -33.677  1.00  0.00    -0.180 NA
HETATM   12  N   UNL     1      -2.808   5.639 -32.330  1.00  0.00    -0.245 N 
HETATM   13  C   UNL     1      -3.948   4.960 -31.925  1.00  0.00     0.129 A 
BRANCH  12  14
HETATM   14  C   UNL     1      -1.794   6.219 -31.518  1.00  0.00     0.058 A 
HETATM   15  C   UNL     1      -2.140   6.764 -30.270  1.00  0.00     0.034 A 
HETATM   16  C   UNL     1      -1.156   7.310 -29.442  1.00  0.00     0.044 A 
HETATM   17  C   UNL     1       0.168   7.312 -29.861  1.00  0.00     0.116 A 
HETATM   18  C   UNL     1       0.527   6.784 -31.096  1.00  0.00     0.044 A 
HETATM   19  F   UNL     1       1.114   7.825 -29.065  1.00  0.00    -0.206 F 
HETATM   20  C   UNL     1      -0.452   6.238 -31.931  1.00  0.00     0.034 A 
ENDBRANCH  12  14
ENDBRANCH   8   9
ENDBRANCH   1   8
BRANCH   4  21
HETATM   21  O   UNL     1      -5.378  -0.579 -31.215  1.00  0.00    -0.392 OA
HETATM   22  H   UNL     1      -6.256  -0.533 -30.779  1.00  0.00     0.210 HD
ENDBRANCH   4  21
BRANCH   5  23
HETATM   23  N   UNL     1      -6.054  -1.843 -33.622  1.00  0.00    -0.064 N 
HETATM   24  H   UNL     1      -6.159  -2.260 -32.677  1.00  0.00     0.280 HD
HETATM   25  C   UNL     1      -7.108  -2.534 -34.469  1.00  0.00     0.235 C 
HETATM   26  C   UNL     1      -6.986  -4.054 -34.439  1.00  0.00     0.028 C 
HETATM   27  C   UNL     1      -5.818  -4.583 -35.265  1.00  0.00     0.002 C 
HETATM   28  C   UNL     1      -4.489  -4.650 -34.520  1.00  0.00     0.002 C 
HETATM   29  C   UNL     1      -4.176  -3.497 -33.572  1.00  0.00     0.028 C 
HETATM   30  C   UNL     1      -4.626  -2.129 -34.060  1.00  0.00     0.235 C 
ENDBRANCH   5  23
TORSDOF 5
ENDMDL
MODEL 4
REMARK VINA RESULT:      -8.1      1.832      2.555
REMARK  5 active torsions:
REMARK  status: ('A' for Active; 'I' for Inactive)
REMARK    1  A    between atoms: C_2  and  N_3 
REMARK    2  A    between atoms: C_6  and  C_7 
REMARK    3  A    between atoms: C_7  and  N_8 
REMARK    4  A    between atoms: C_11  and  O_12 
REMARK    5  A    between atoms: C_13  and  N_14 
ROOT
HETATM    1  N   UNL     1      -4.683   4.456 -31.990  1.00  0.00    -0.065 N 
HETATM    2  H   UNL     1      -4.091   3.726 -31.568  1.00  0.00     0.280 HD
HETATM    3  C   UNL     1      -3.838   5.277 -32.945  1.00  0.00     0.268 C 
HETATM    4  C   UNL     1      -2.681   5.940 -32.177  1.00  0.00     0.174 C 
HETATM    5  C   UNL     1      -3.247   6.767 -30.998  1.00  0.00     0.220 C 
HETATM    6  C   UNL     1      -4.137   5.934 -30.079  1.00  0.00     0.063 C 
HETATM    7  C   UNL     1      -5.271   5.281 -30.875  1.00  0.00     0.237 C 
ENDROOT
BRANCH   1   8
HETATM    8  C   UNL     1      -5.749   3.635 -32.729  1.00  0.00     0.276 C 
BRANCH   8   9
HETATM    9  C   UNL     1      -5.307   2.226 -32.859  1.00  0.00     0.004 A 
HETATM   10  C   UNL     1      -4.199   1.608 -32.252  1.00  0.00     0.149 A 
HETATM   11  N   UNL     1      -4.148   0.304 -32.498  1.00  0.00    -0.180 NA
HETATM   12  N   UNL     1      -5.166   0.050 -33.354  1.00  0.00    -0.245 N 
HETATM   13  C   UNL     1      -5.891   1.207 -33.591  1.00  0.00     0.129 A 
BRANCH  12  14
HETATM   14  C   UNL     1      -5.428  -1.266 -33.828  1.00  0.00     0.058 A 
HETATM   15  C   UNL     1      -6.748  -1.633 -34.143  1.00  0.00     0.034 A 
HETATM   16  C   UNL     1      -7.024  -2.909 -34.640  1.00  0.00     0.044 A 
HETATM   17  C   UNL     1      -5.987  -3.815 -34.819  1.00  0.00     0.116 A 
HETATM   18  C   UNL     1      -4.677  -3.472 -34.504  1.00  0.00     0.044 A 
HETATM   19  F   UNL     1      -6.248  -5.034 -35.305  1.00  0.00    -0.206 F 
HETATM   20  C   UNL     1      -4.392  -2.198 -34.004  1.00  0.00     0.034 A 
ENDBRANCH  12  14
ENDBRANCH   8   9
ENDBRANCH   1   8
BRANCH   4  21
HETATM   21  O   UNL     1      -1.920   6.837 -32.980  1.00  0.00    -0.392 OA
HETATM   22  H   UNL     1      -1.048   7.009 -32.566  1.00  0.00     0.210 HD
ENDBRANCH   4  21
BRANCH   5  23
HETATM   23  N   UNL     1      -2.084   7.464 -30.255  1.00  0.00    -0.064 N 
HETATM   24  H   UNL     1      -1.646   8.027 -31.010  1.00  0.00     0.280 HD
HETATM   25  C   UNL     1      -2.576   8.486 -29.247  1.00  0.00     0.235 C 
HETATM   26  C   UNL     1      -1.472   9.424 -28.767  1.00  0.00     0.028 C 
HETATM   27  C   UNL     1      -0.502   8.765 -27.792  1.00  0.00     0.002 C 
HETATM   28  C   UNL     1       0.663   8.032 -28.448  1.00  0.00     0.002 C 
HETATM   29  C   UNL     1       0.352   7.249 -29.718  1.00  0.00     0.028 C 
HETATM   30  C   UNL     1      -0.996   6.545 -29.720  1.00  0.00     0.235 C 
ENDBRANCH   5  23
TORSDOF 5
ENDMDL
MODEL 5
REMARK VINA RESULT:      -7.9      3.175      8.607
REMARK  5 active torsions:
REMARK  status: ('A' for Active; 'I' for Inactive)
REMARK    1  A    between atoms: C_2  and  N_3 
REMARK    2  A    between atoms: C_6  and  C_7 
REMARK    3  A    between atoms: C_7  and  N_8 
REMARK    4  A    between atoms: C_11  and  O_12 
REMARK    5  A    between atoms: C_13  and  N_14 
ROOT
HETATM    1  N   UNL     1      -7.015   2.577 -33.372  1.00  0.00    -0.065 N 
HETATM    2  H   UNL     1      -6.032   2.749 -33.624  1.00  0.00     0.280 HD
HETATM    3  C   UNL     1      -7.057   1.799 -32.070  1.00  0.00     0.268 C 
HETATM    4  C   UNL     1      -6.334   0.453 -32.247  1.00  0.00     0.174 C 
HETATM    5  C   UNL     1      -6.954  -0.317 -33.438  1.00  0.00     0.220 C 
HETATM    6  C   UNL     1      -6.950   0.504 -34.725  1.00  0.00     0.063 C 
HETATM    7  C   UNL     1      -7.668   1.840 -34.513  1.00  0.00     0.237 C 
ENDROOT
BRANCH   1   8
HETATM    8  C   UNL     1      -7.571   3.999 -33.206  1.00  0.00     0.276 C 
BRANCH   8   9
HETATM    9  C   UNL     1      -6.467   4.946 -32.921  1.00  0.00     0.004 A 
HETATM   10  C   UNL     1      -6.562   6.308 -32.581  1.00  0.00     0.149 A 
HETATM   11  N   UNL     1      -5.380   6.841 -32.289  1.00  0.00    -0.180 NA
HETATM   12  N   UNL     1      -4.468   5.869 -32.525  1.00  0.00    -0.245 N 
HETATM   13  C   UNL     1      -5.105   4.700 -32.912  1.00  0.00     0.129 A 
BRANCH  12  14
HETATM   14  C   UNL     1      -3.079   6.083 -32.303  1.00  0.00     0.058 A 
HETATM   15  C   UNL     1      -2.577   7.396 -32.295  1.00  0.00     0.034 A 
HETATM   16  C   UNL     1      -1.223   7.631 -32.047  1.00  0.00     0.044 A 
HETATM   17  C   UNL     1      -0.374   6.559 -31.809  1.00  0.00     0.116 A 
HETATM   18  C   UNL     1      -0.850   5.253 -31.821  1.00  0.00     0.044 A 
HETATM   19  F   UNL     1       0.923   6.782 -31.561  1.00  0.00    -0.206 F 
HETATM   20  C   UNL     1      -2.204   5.008 -32.071  1.00  0.00     0.034 A 
ENDBRANCH  12  14
ENDBRANCH   8   9
ENDBRANCH   1   8
BRANCH   4  21
HETATM   21  O   UNL     1      -6.446  -0.394 -31.107  1.00  0.00    -0.392 OA
HETATM   22  H   UNL     1      -6.905  -1.228 -31.346  1.00  0.00     0.210 HD
ENDBRANCH   4  21
BRANCH   5  23
HETATM   23  N   UNL     1      -6.251  -1.687 -33.585  1.00  0.00    -0.064 N 
HETATM   24  H   UNL     1      -6.382  -2.103 -32.642  1.00  0.00     0.280 HD
HETATM   25  C   UNL     1      -6.996  -2.617 -34.525  1.00  0.00     0.235 C 
HETATM   26  C   UNL     1      -6.533  -4.067 -34.413  1.00  0.00     0.028 C 
HETATM   27  C   UNL     1      -5.176  -4.319 -35.061  1.00  0.00     0.002 C 
HETATM   28  C   UNL     1      -3.979  -4.063 -34.153  1.00  0.00     0.002 C 
HETATM   29  C   UNL     1      -4.067  -2.856 -33.226  1.00  0.00     0.028 C 
HETATM   30  C   UNL     1      -4.751  -1.637 -33.827  1.00  0.00     0.235 C 
ENDBRANCH   5  23
TORSDOF 5
ENDMDL
MODEL 6
REMARK VINA RESULT:      -7.9      4.236      7.680
REMARK  5 active torsions:
REMARK  status: ('A' for Active; 'I' for Inactive)
REMARK    1  A    between atoms: C_2  and  N_3 
REMARK    2  A    between atoms: C_6  and  C_7 
REMARK    3  A    between atoms: C_7  and  N_8 
REMARK    4  A    between atoms: C_11  and  O_12 
REMARK    5  A    between atoms: C_13  and  N_14 
ROOT
HETATM    1  N   UNL     1      -8.108   3.505 -32.951  1.00  0.00    -0.065 N 
HETATM    2  H   UNL     1      -8.305   4.503 -32.788  1.00  0.00     0.280 HD
HETATM    3  C   UNL     1      -8.729   3.095 -34.272  1.00  0.00     0.268 C 
HETATM    4  C   UNL     1     -10.251   3.312 -34.221  1.00  0.00     0.174 C 
HETATM    5  C   UNL     1     -10.843   2.555 -33.008  1.00  0.00     0.220 C 
HETATM    6  C   UNL     1     -10.168   2.944 -31.695  1.00  0.00     0.063 C 
HETATM    7  C   UNL     1      -8.655   2.725 -31.783  1.00  0.00     0.237 C 
ENDROOT
BRANCH   1   8
HETATM    8  C   UNL     1      -6.574   3.472 -33.004  1.00  0.00     0.276 C 
BRANCH   8   9
HETATM    9  C   UNL     1      -6.090   2.076 -32.881  1.00  0.00     0.004 A 
HETATM   10  C   UNL     1      -5.416   1.487 -31.796  1.00  0.00     0.149 A 
HETATM   11  N   UNL     1      -5.216   0.185 -31.970  1.00  0.00    -0.180 NA
HETATM   12  N   UNL     1      -5.667  -0.094 -33.215  1.00  0.00    -0.245 N 
HETATM   13  C   UNL     1      -6.208   1.043 -33.794  1.00  0.00     0.129 A 
BRANCH  12  14
HETATM   14  C   UNL     1      -5.626  -1.416 -33.742  1.00  0.00     0.058 A 
HETATM   15  C   UNL     1      -6.811  -2.004 -34.217  1.00  0.00     0.034 A 
HETATM   16  C   UNL     1      -6.788  -3.288 -34.767  1.00  0.00     0.044 A 
HETATM   17  C   UNL     1      -5.588  -3.981 -34.840  1.00  0.00     0.116 A 
HETATM   18  C   UNL     1      -4.408  -3.419 -34.367  1.00  0.00     0.044 A 
HETATM   19  F   UNL     1      -5.562  -5.207 -35.376  1.00  0.00    -0.206 F 
HETATM   20  C   UNL     1      -4.422  -2.135 -33.813  1.00  0.00     0.034 A 
ENDBRANCH  12  14
ENDBRANCH   8   9
ENDBRANCH   1   8
BRANCH   4  21
HETATM   21  O   UNL     1     -10.923   2.824 -35.378  1.00  0.00    -0.392 OA
HETATM   22  H   UNL     1     -11.885   3.010 -35.317  1.00  0.00     0.210 HD
ENDBRANCH   4  21
BRANCH   5  23
HETATM   23  N   UNL     1     -12.378   2.743 -32.985  1.00  0.00    -0.064 N 
HETATM   24  H   UNL     1     -12.543   3.308 -33.840  1.00  0.00     0.280 HD
HETATM   25  C   UNL     1     -13.119   1.441 -33.233  1.00  0.00     0.235 C 
HETATM   26  C   UNL     1     -14.593   1.655 -33.566  1.00  0.00     0.028 C 
HETATM   27  C   UNL     1     -15.437   2.033 -32.353  1.00  0.00     0.002 C 
HETATM   28  C   UNL     1     -15.483   3.526 -32.049  1.00  0.00     0.002 C 
HETATM   29  C   UNL     1     -14.184   4.304 -32.234  1.00  0.00     0.028 C 
HETATM   30  C   UNL     1     -12.927   3.554 -31.822  1.00  0.00     0.235 C 
ENDBRANCH   5  23
TORSDOF 5
ENDMDL
MODEL 7
REMARK VINA RESULT:      -7.8      3.863      9.549
REMARK  5 active torsions:
REMARK  status: ('A' for Active; 'I' for Inactive)
REMARK    1  A    between atoms: C_2  and  N_3 
REMARK    2  A    between atoms: C_6  and  C_7 
REMARK    3  A    between atoms: C_7  and  N_8 
REMARK    4  A    between atoms: C_11  and  O_12 
REMARK    5  A    between atoms: C_13  and  N_14 
ROOT
HETATM    1  N   UNL     1      -4.518   5.239 -32.281  1.00  0.00    -0.065 N 
HETATM    2  H   UNL     1      -3.610   4.800 -32.487  1.00  0.00     0.280 HD
HETATM    3  C   UNL     1      -5.159   4.512 -31.114  1.00  0.00     0.268 C 
HETATM    4  C   UNL     1      -5.378   3.034 -31.481  1.00  0.00     0.174 C 
HETATM    5  C   UNL     1      -6.204   2.939 -32.785  1.00  0.00     0.220 C 
HETATM    6  C   UNL     1      -5.570   3.721 -33.933  1.00  0.00     0.063 C 
HETATM    7  C   UNL     1      -5.356   5.184 -33.533  1.00  0.00     0.237 C 
ENDROOT
BRANCH   1   8
HETATM    8  C   UNL     1      -4.119   6.675 -31.912  1.00  0.00     0.276 C 
BRANCH   8   9
HETATM    9  C   UNL     1      -2.786   6.682 -31.266  1.00  0.00     0.004 A 
HETATM   10  C   UNL     1      -1.535   6.436 -31.861  1.00  0.00     0.149 A 
HETATM   11  N   UNL     1      -0.526   6.623 -31.017  1.00  0.00    -0.180 NA
HETATM   12  N   UNL     1      -1.094   6.903 -29.819  1.00  0.00    -0.245 N 
HETATM   13  C   UNL     1      -2.474   6.946 -29.943  1.00  0.00     0.129 A 
BRANCH  12  14
HETATM   14  C   UNL     1      -0.304   7.180 -28.669  1.00  0.00     0.058 A 
HETATM   15  C   UNL     1      -0.550   6.472 -27.479  1.00  0.00     0.034 A 
HETATM   16  C   UNL     1       0.233   6.705 -26.347  1.00  0.00     0.044 A 
HETATM   17  C   UNL     1       1.257   7.642 -26.402  1.00  0.00     0.116 A 
HETATM   18  C   UNL     1       1.509   8.357 -27.567  1.00  0.00     0.044 A 
HETATM   19  F   UNL     1       2.016   7.859 -25.321  1.00  0.00    -0.206 F 
HETATM   20  C   UNL     1       0.728   8.132 -28.705  1.00  0.00     0.034 A 
ENDBRANCH  12  14
ENDBRANCH   8   9
ENDBRANCH   1   8
BRANCH   4  21
HETATM   21  O   UNL     1      -6.098   2.313 -30.484  1.00  0.00    -0.392 OA
HETATM   22  H   UNL     1      -6.586   2.934 -29.902  1.00  0.00     0.210 HD
ENDBRANCH   4  21
BRANCH   5  23
HETATM   23  N   UNL     1      -6.457   1.452 -33.126  1.00  0.00    -0.064 N 
HETATM   24  H   UNL     1      -7.064   1.146 -32.341  1.00  0.00     0.280 HD
HETATM   25  C   UNL     1      -7.315   1.284 -34.367  1.00  0.00     0.235 C 
HETATM   26  C   UNL     1      -7.866  -0.130 -34.518  1.00  0.00     0.028 C 
HETATM   27  C   UNL     1      -6.819  -1.142 -34.970  1.00  0.00     0.002 C 
HETATM   28  C   UNL     1      -6.016  -1.777 -33.841  1.00  0.00     0.002 C 
HETATM   29  C   UNL     1      -5.615  -0.864 -32.687  1.00  0.00     0.028 C 
HETATM   30  C   UNL     1      -5.233   0.550 -33.096  1.00  0.00     0.235 C 
ENDBRANCH   5  23
TORSDOF 5
ENDMDL
MODEL 8
REMARK VINA RESULT:      -7.6      2.616      4.020
REMARK  5 active torsions:
REMARK  status: ('A' for Active; 'I' for Inactive)
REMARK    1  A    between atoms: C_2  and  N_3 
REMARK    2  A    between atoms: C_6  and  C_7 
REMARK    3  A    between atoms: C_7  and  N_8 
REMARK    4  A    between atoms: C_11  and  O_12 
REMARK    5  A    between atoms: C_13  and  N_14 
ROOT
HETATM    1  N   UNL     1      -4.056   5.578 -30.568  1.00  0.00    -0.065 N 
HETATM    2  H   UNL     1      -3.809   4.767 -29.983  1.00  0.00     0.280 HD
HETATM    3  C   UNL     1      -2.847   5.968 -31.397  1.00  0.00     0.268 C 
HETATM    4  C   UNL     1      -1.680   6.344 -30.468  1.00  0.00     0.174 C 
HETATM    5  C   UNL     1      -2.131   7.455 -29.490  1.00  0.00     0.220 C 
HETATM    6  C   UNL     1      -3.380   7.064 -28.704  1.00  0.00     0.063 C 
HETATM    7  C   UNL     1      -4.518   6.686 -29.657  1.00  0.00     0.237 C 
ENDROOT
BRANCH   1   8
HETATM    8  C   UNL     1      -5.195   5.029 -31.439  1.00  0.00     0.276 C 
BRANCH   8   9
HETATM    9  C   UNL     1      -5.107   3.552 -31.518  1.00  0.00     0.004 A 
HETATM   10  C   UNL     1      -4.874   2.641 -30.471  1.00  0.00     0.149 A 
HETATM   11  N   UNL     1      -4.959   1.377 -30.871  1.00  0.00    -0.180 NA
HETATM   12  N   UNL     1      -5.152   1.425 -32.210  1.00  0.00    -0.245 N 
HETATM   13  C   UNL     1      -5.247   2.742 -32.632  1.00  0.00     0.129 A 
BRANCH  12  14
HETATM   14  C   UNL     1      -5.306   0.240 -32.982  1.00  0.00     0.058 A 
HETATM   15  C   UNL     1      -6.369   0.148 -33.896  1.00  0.00     0.034 A 
HETATM   16  C   UNL     1      -6.522  -0.993 -34.687  1.00  0.00     0.044 A 
HETATM   17  C   UNL     1      -5.615  -2.038 -34.564  1.00  0.00     0.116 A 
HETATM   18  C   UNL     1      -4.563  -1.968 -33.659  1.00  0.00     0.044 A 
HETATM   19  F   UNL     1      -5.753  -3.129 -35.329  1.00  0.00    -0.206 F 
HETATM   20  C   UNL     1      -4.404  -0.831 -32.862  1.00  0.00     0.034 A 
ENDBRANCH  12  14
ENDBRANCH   8   9
ENDBRANCH   1   8
BRANCH   4  21
HETATM   21  O   UNL     1      -0.548   6.850 -31.172  1.00  0.00    -0.392 OA
HETATM   22  H   UNL     1       0.179   7.053 -30.546  1.00  0.00     0.210 HD
ENDBRANCH   4  21
BRANCH   5  23
HETATM   23  N   UNL     1      -0.942   7.859 -28.588  1.00  0.00    -0.064 N 
HETATM   24  H   UNL     1      -0.213   8.110 -29.283  1.00  0.00     0.280 HD
HETATM   25  C   UNL     1      -1.209   9.145 -27.826  1.00  0.00     0.235 C 
HETATM   26  C   UNL     1       0.054   9.745 -27.217  1.00  0.00     0.028 C 
HETATM   27  C   UNL     1       0.550   8.990 -25.989  1.00  0.00     0.002 C 
HETATM   28  C   UNL     1       1.478   7.819 -26.291  1.00  0.00     0.002 C 
HETATM   29  C   UNL     1       1.133   6.969 -27.509  1.00  0.00     0.028 C 
HETATM   30  C   UNL     1      -0.354   6.747 -27.733  1.00  0.00     0.235 C 
ENDBRANCH   5  23
TORSDOF 5
ENDMDL
MODEL 9
REMARK VINA RESULT:      -7.5      3.911      9.355
REMARK  5 active torsions:
REMARK  status: ('A' for Active; 'I' for Inactive)
REMARK    1  A    between atoms: C_2  and  N_3 
REMARK    2  A    between atoms: C_6  and  C_7 
REMARK    3  A    between atoms: C_7  and  N_8 
REMARK    4  A    between atoms: C_11  and  O_12 
REMARK    5  A    between atoms: C_13  and  N_14 
ROOT
HETATM    1  N   UNL     1      -6.155   4.478 -31.281  1.00  0.00    -0.065 N 
HETATM    2  H   UNL     1      -5.127   4.421 -31.240  1.00  0.00     0.280 HD
HETATM    3  C   UNL     1      -6.739   3.443 -30.339  1.00  0.00     0.268 C 
HETATM    4  C   UNL     1      -6.289   2.036 -30.770  1.00  0.00     0.174 C 
HETATM    5  C   UNL     1      -6.672   1.798 -32.250  1.00  0.00     0.220 C 
HETATM    6  C   UNL     1      -6.119   2.880 -33.174  1.00  0.00     0.063 C 
HETATM    7  C   UNL     1      -6.577   4.267 -32.712  1.00  0.00     0.237 C 
ENDROOT
BRANCH   1   8
HETATM    8  C   UNL     1      -6.429   5.910 -30.799  1.00  0.00     0.276 C 
BRANCH   8   9
HETATM    9  C   UNL     1      -5.363   6.346 -29.867  1.00  0.00     0.004 A 
HETATM   10  C   UNL     1      -5.417   6.418 -28.463  1.00  0.00     0.149 A 
HETATM   11  N   UNL     1      -4.249   6.754 -27.927  1.00  0.00    -0.180 NA
HETATM   12  N   UNL     1      -3.423   7.007 -28.970  1.00  0.00    -0.245 N 
HETATM   13  C   UNL     1      -4.078   6.765 -30.168  1.00  0.00     0.129 A 
BRANCH  12  14
HETATM   14  C   UNL     1      -2.066   7.384 -28.770  1.00  0.00     0.058 A 
HETATM   15  C   UNL     1      -1.067   6.813 -29.576  1.00  0.00     0.034 A 
HETATM   16  C   UNL     1       0.268   7.191 -29.419  1.00  0.00     0.044 A 
HETATM   17  C   UNL     1       0.603   8.136 -28.458  1.00  0.00     0.116 A 
HETATM   18  C   UNL     1      -0.370   8.705 -27.645  1.00  0.00     0.044 A 
HETATM   19  F   UNL     1       1.881   8.508 -28.311  1.00  0.00    -0.206 F 
HETATM   20  C   UNL     1      -1.709   8.330 -27.795  1.00  0.00     0.034 A 
ENDBRANCH  12  14
ENDBRANCH   8   9
ENDBRANCH   1   8
BRANCH   4  21
HETATM   21  O   UNL     1      -6.905   0.997 -30.013  1.00  0.00    -0.392 OA
HETATM   22  H   UNL     1      -6.289   0.666 -29.325  1.00  0.00     0.210 HD
ENDBRANCH   4  21
BRANCH   5  23
HETATM   23  N   UNL     1      -6.255   0.368 -32.665  1.00  0.00    -0.064 N 
HETATM   24  H   UNL     1      -6.498  -0.186 -31.820  1.00  0.00     0.280 HD
HETATM   25  C   UNL     1      -7.141  -0.193 -33.763  1.00  0.00     0.235 C 
HETATM   26  C   UNL     1      -6.982  -1.700 -33.938  1.00  0.00     0.028 C 
HETATM   27  C   UNL     1      -5.683  -2.094 -34.632  1.00  0.00     0.002 C 
HETATM   28  C   UNL     1      -4.489  -2.266 -33.700  1.00  0.00     0.002 C 
HETATM   29  C   UNL     1      -4.364  -1.267 -32.555  1.00  0.00     0.028 C 
HETATM   30  C   UNL     1      -4.768   0.157 -32.903  1.00  0.00     0.235 C 
ENDBRANCH   5  23
TORSDOF 5
ENDMDL
MODEL 10
REMARK VINA RESULT:      -7.2      4.195      9.080
REMARK  5 active torsions:
REMARK  status: ('A' for Active; 'I' for Inactive)
REMARK    1  A    between atoms: C_2  and  N_3 
REMARK    2  A    between atoms: C_6  and  C_7 
REMARK    3  A    between atoms: C_7  and  N_8 
REMARK    4  A    between atoms: C_11  and  O_12 
REMARK    5  A    between atoms: C_13  and  N_14 
ROOT
HETATM    1  N   UNL     1      -6.077   2.495 -33.002  1.00  0.00    -0.065 N 
HETATM    2  H   UNL     1      -5.929   3.286 -33.644  1.00  0.00     0.280 HD
HETATM    3  C   UNL     1      -6.747   1.367 -33.764  1.00  0.00     0.268 C 
HETATM    4  C   UNL     1      -8.105   1.844 -34.308  1.00  0.00     0.174 C 
HETATM    5  C   UNL     1      -8.968   2.391 -33.146  1.00  0.00     0.220 C 
HETATM    6  C   UNL     1      -8.254   3.487 -32.360  1.00  0.00     0.063 C 
HETATM    7  C   UNL     1      -6.903   2.985 -31.841  1.00  0.00     0.237 C 
ENDROOT
BRANCH   1   8
HETATM    8  C   UNL     1      -4.645   2.131 -32.584  1.00  0.00     0.276 C 
BRANCH   8   9
HETATM    9  C   UNL     1      -3.806   3.352 -32.528  1.00  0.00     0.004 A 
HETATM   10  C   UNL     1      -3.788   4.430 -33.430  1.00  0.00     0.149 A 
HETATM   11  N   UNL     1      -2.989   5.413 -33.029  1.00  0.00    -0.180 NA
HETATM   12  N   UNL     1      -2.388   4.964 -31.902  1.00  0.00    -0.245 N 
HETATM   13  C   UNL     1      -2.870   3.706 -31.573  1.00  0.00     0.129 A 
BRANCH  12  14
HETATM   14  C   UNL     1      -1.466   5.771 -31.179  1.00  0.00     0.058 A 
HETATM   15  C   UNL     1      -1.923   6.528 -30.086  1.00  0.00     0.034 A 
HETATM   16  C   UNL     1      -1.029   7.302 -29.343  1.00  0.00     0.044 A 
HETATM   17  C   UNL     1       0.315   7.320 -29.690  1.00  0.00     0.116 A 
HETATM   18  C   UNL     1       0.784   6.585 -30.773  1.00  0.00     0.044 A 
HETATM   19  F   UNL     1       1.175   8.054 -28.973  1.00  0.00    -0.206 F 
HETATM   20  C   UNL     1      -0.105   5.809 -31.524  1.00  0.00     0.034 A 
ENDBRANCH  12  14
ENDBRANCH   8   9
ENDBRANCH   1   8
BRANCH   4  21
HETATM   21  O   UNL     1      -8.857   0.800 -34.922  1.00  0.00    -0.392 OA
HETATM   22  H   UNL     1      -9.704   1.151 -35.271  1.00  0.00     0.210 HD
ENDBRANCH   4  21
BRANCH   5  23
HETATM   23  N   UNL     1     -10.346   2.829 -33.692  1.00  0.00    -0.064 N 
HETATM   24  H   UNL     1     -10.667   1.976 -34.190  1.00  0.00     0.280 HD
HETATM   25  C   UNL     1     -11.364   3.036 -32.585  1.00  0.00     0.235 C 
HETATM   26  C   UNL     1     -12.796   3.118 -33.105  1.00  0.00     0.028 C 
HETATM   27  C   UNL     1     -13.113   4.440 -33.795  1.00  0.00     0.002 C 
HETATM   28  C   UNL     1     -12.770   4.484 -35.280  1.00  0.00     0.002 C 
HETATM   29  C   UNL     1     -11.477   3.797 -35.705  1.00  0.00     0.028 C 
HETATM   30  C   UNL     1     -10.323   3.945 -34.725  1.00  0.00     0.235 C 
ENDBRANCH   5  23
TORSDOF 5
ENDMDL
