MODEL 1
REMARK VINA RESULT:      -8.7      0.000      0.000
REMARK  7 active torsions:
REMARK  status: ('A' for Active; 'I' for Inactive)
REMARK    1  A    between atoms: C_7  and  C_8 
REMARK    2  A    between atoms: N_9  and  N_10 
REMARK       I    between atoms: N_10  and  C_11 
REMARK    3  A    between atoms: C_11  and  C_12 
REMARK    4  A    between atoms: C_12  and  N_13 
REMARK       I    between atoms: N_13  and  C_14 
REMARK    5  A    between atoms: C_14  and  C_15 
REMARK    6  A    between atoms: C_16  and  C_17 
REMARK    7  A    between atoms: C_18  and  O_19 
ROOT
HETATM    1  N   UNL     1      -5.811   3.964 -32.322  1.00  0.00    -0.246 N 
HETATM    2  C   UNL     1      -6.877   3.971 -33.211  1.00  0.00     0.255 C 
HETATM    3  O   UNL     1      -6.950   4.634 -34.243  1.00  0.00    -0.270 OA
HETATM    4  H   UNL     1      -5.891   3.429 -31.453  1.00  0.00     0.192 HD
ENDROOT
BRANCH   2   5
HETATM    5  C   UNL     1      -7.999   3.024 -32.785  1.00  0.00     0.227 C 
BRANCH   5   6
HETATM    6  N   UNL     1      -7.609   1.629 -32.909  1.00  0.00    -0.349 N 
HETATM    7  C   UNL     1      -8.329   0.752 -33.675  1.00  0.00     0.241 C 
HETATM    8  O   UNL     1      -9.316   1.087 -34.322  1.00  0.00    -0.269 OA
HETATM    9  H   UNL     1      -6.727   1.349 -32.501  1.00  0.00     0.163 HD
BRANCH   7  10
HETATM   10  C   UNL     1      -7.757  -0.612 -33.704  1.00  0.00     0.075 C 
HETATM   11  C   UNL     1      -6.647  -0.853 -34.417  1.00  0.00     0.020 C 
BRANCH  11  12
HETATM   12  C   UNL     1      -6.020  -2.180 -34.422  1.00  0.00    -0.003 A 
HETATM   13  C   UNL     1      -4.672  -2.378 -34.067  1.00  0.00     0.078 A 
HETATM   14  C   UNL     1      -4.142  -3.674 -34.107  1.00  0.00     0.037 A 
HETATM   15  C   UNL     1      -4.938  -4.755 -34.493  1.00  0.00     0.003 A 
HETATM   16  C   UNL     1      -6.270  -4.556 -34.843  1.00  0.00     0.001 A 
HETATM   17  C   UNL     1      -6.810  -3.273 -34.808  1.00  0.00     0.014 A 
BRANCH  13  18
HETATM   18  O   UNL     1      -3.965  -1.259 -33.706  1.00  0.00    -0.355 OA
HETATM   19  C   UNL     1      -3.565  -1.149 -32.345  1.00  0.00     0.210 C 
ENDBRANCH  13  18
ENDBRANCH  11  12
ENDBRANCH   7  10
ENDBRANCH   5   6
ENDBRANCH   2   5
BRANCH   1  20
HETATM   20  N   UNL     1      -4.729   4.767 -32.538  1.00  0.00    -0.184 NA
HETATM   21  C   UNL     1      -3.596   4.290 -32.137  1.00  0.00     0.153 C 
BRANCH  21  22
HETATM   22  C   UNL     1      -2.378   5.060 -32.313  1.00  0.00     0.018 A 
HETATM   23  C   UNL     1      -1.784   5.313 -33.545  1.00  0.00     0.018 A 
HETATM   24  C   UNL     1      -2.181   4.913 -34.920  1.00  0.00     0.069 C 
HETATM   25  N   UNL     1      -0.660   6.067 -33.320  1.00  0.00    -0.358 N 
HETATM   26  H   UNL     1      -0.029   6.403 -34.035  1.00  0.00     0.166 HD
HETATM   27  C   UNL     1      -0.498   6.313 -31.978  1.00  0.00     0.043 A 
HETATM   28  C   UNL     1      -1.560   5.694 -31.317  1.00  0.00     0.004 A 
HETATM   29  C   UNL     1       0.502   7.032 -31.310  1.00  0.00     0.030 A 
HETATM   30  C   UNL     1      -1.618   5.804 -29.910  1.00  0.00     0.014 A 
HETATM   31  C   UNL     1      -0.628   6.519 -29.225  1.00  0.00     0.001 A 
HETATM   32  C   UNL     1       0.417   7.123 -29.918  1.00  0.00     0.002 A 
ENDBRANCH  21  22
ENDBRANCH   1  20
TORSDOF 7
ENDMDL
MODEL 2
REMARK VINA RESULT:      -8.6      1.527      2.184
REMARK  7 active torsions:
REMARK  status: ('A' for Active; 'I' for Inactive)
REMARK    1  A    between atoms: C_7  and  C_8 
REMARK    2  A    between atoms: N_9  and  N_10 
REMARK       I    between atoms: N_10  and  C_11 
REMARK    3  A    between atoms: C_11  and  C_12 
REMARK    4  A    between atoms: C_12  and  N_13 
REMARK       I    between atoms: N_13  and  C_14 
REMARK    5  A    between atoms: C_14  and  C_15 
REMARK    6  A    between atoms: C_16  and  C_17 
REMARK    7  A    between atoms: C_18  and  O_19 
ROOT
HETATM    1  N   UNL     1      -6.256   4.519 -32.272  1.00  0.00    -0.246 N 
HETATM    2  C   UNL     1      -6.546   4.221 -33.596  1.00  0.00     0.255 C 
HETATM    3  O   UNL     1      -5.946   4.649 -34.579  1.00  0.00    -0.270 OA
HETATM    4  H   UNL     1      -6.873   4.165 -31.535  1.00  0.00     0.192 HD
ENDROOT
BRANCH   2   5
HETATM    5  C   UNL     1      -7.723   3.254 -33.734  1.00  0.00     0.227 C 
BRANCH   5   6
HETATM    6  N   UNL     1      -7.284   1.909 -34.068  1.00  0.00    -0.349 N 
HETATM    7  C   UNL     1      -8.176   0.938 -34.437  1.00  0.00     0.241 C 
HETATM    8  O   UNL     1      -9.381   1.145 -34.541  1.00  0.00    -0.269 OA
HETATM    9  H   UNL     1      -6.288   1.739 -34.126  1.00  0.00     0.163 HD
BRANCH   7  10
HETATM   10  C   UNL     1      -7.537  -0.353 -34.772  1.00  0.00     0.075 C 
HETATM   11  C   UNL     1      -6.707  -0.933 -33.891  1.00  0.00     0.020 C 
BRANCH  11  12
HETATM   12  C   UNL     1      -6.102  -2.241 -34.167  1.00  0.00    -0.003 A 
HETATM   13  C   UNL     1      -4.740  -2.506 -33.926  1.00  0.00     0.078 A 
HETATM   14  C   UNL     1      -4.232  -3.776 -34.226  1.00  0.00     0.037 A 
HETATM   15  C   UNL     1      -5.063  -4.768 -34.755  1.00  0.00     0.003 A 
HETATM   16  C   UNL     1      -6.408  -4.502 -34.991  1.00  0.00     0.001 A 
HETATM   17  C   UNL     1      -6.927  -3.243 -34.699  1.00  0.00     0.014 A 
BRANCH  13  18
HETATM   18  O   UNL     1      -3.998  -1.473 -33.410  1.00  0.00    -0.355 OA
HETATM   19  C   UNL     1      -3.383  -1.679 -32.144  1.00  0.00     0.210 C 
ENDBRANCH  13  18
ENDBRANCH  11  12
ENDBRANCH   7  10
ENDBRANCH   5   6
ENDBRANCH   2   5
BRANCH   1  20
HETATM   20  N   UNL     1      -5.245   5.383 -31.965  1.00  0.00    -0.184 NA
HETATM   21  C   UNL     1      -4.722   5.231 -30.792  1.00  0.00     0.153 C 
BRANCH  21  22
HETATM   22  C   UNL     1      -3.641   6.098 -30.359  1.00  0.00     0.018 A 
HETATM   23  C   UNL     1      -3.806   7.188 -29.511  1.00  0.00     0.018 A 
HETATM   24  C   UNL     1      -5.019   7.739 -28.854  1.00  0.00     0.069 C 
HETATM   25  N   UNL     1      -2.573   7.762 -29.325  1.00  0.00    -0.358 N 
HETATM   26  H   UNL     1      -2.387   8.573 -28.752  1.00  0.00     0.166 HD
HETATM   27  C   UNL     1      -1.608   7.082 -30.028  1.00  0.00     0.043 A 
HETATM   28  C   UNL     1      -2.245   6.031 -30.688  1.00  0.00     0.004 A 
HETATM   29  C   UNL     1      -0.230   7.321 -30.123  1.00  0.00     0.030 A 
HETATM   30  C   UNL     1      -1.455   5.176 -31.487  1.00  0.00     0.014 A 
HETATM   31  C   UNL     1      -0.077   5.399 -31.595  1.00  0.00     0.001 A 
HETATM   32  C   UNL     1       0.525   6.457 -30.921  1.00  0.00     0.002 A 
ENDBRANCH  21  22
ENDBRANCH   1  20
TORSDOF 7
ENDMDL
MODEL 3
REMARK VINA RESULT:      -8.5      4.255      8.455
REMARK  7 active torsions:
REMARK  status: ('A' for Active; 'I' for Inactive)
REMARK    1  A    between atoms: C_7  and  C_8 
REMARK    2  A    between atoms: N_9  and  N_10 
REMARK       I    between atoms: N_10  and  C_11 
REMARK    3  A    between atoms: C_11  and  C_12 
REMARK    4  A    between atoms: C_12  and  N_13 
REMARK       I    between atoms: N_13  and  C_14 
REMARK    5  A    between atoms: C_14  and  C_15 
REMARK    6  A    between atoms: C_16  and  C_17 
REMARK    7  A    between atoms: C_18  and  O_19 
ROOT
HETATM    1  N   UNL     1      -7.051   2.509 -33.864  1.00  0.00    -0.246 N 
HETATM    2  C   UNL     1      -6.562   3.797 -34.033  1.00  0.00     0.255 C 
HETATM    3  O   UNL     1      -5.426   4.095 -34.395  1.00  0.00    -0.270 OA
HETATM    4  H   UNL     1      -7.992   2.381 -33.483  1.00  0.00     0.192 HD
ENDROOT
BRANCH   2   5
HETATM    5  C   UNL     1      -7.613   4.866 -33.733  1.00  0.00     0.227 C 
BRANCH   5   6
HETATM    6  N   UNL     1      -8.964   4.334 -33.807  1.00  0.00    -0.349 N 
HETATM    7  C   UNL     1      -9.887   4.848 -34.678  1.00  0.00     0.241 C 
HETATM    8  O   UNL     1      -9.630   5.754 -35.465  1.00  0.00    -0.269 OA
HETATM    9  H   UNL     1      -9.172   3.501 -33.272  1.00  0.00     0.163 HD
BRANCH   7  10
HETATM   10  C   UNL     1     -11.192   4.154 -34.630  1.00  0.00     0.075 C 
HETATM   11  C   UNL     1     -11.370   3.126 -33.787  1.00  0.00     0.020 C 
BRANCH  11  12
HETATM   12  C   UNL     1     -12.668   2.453 -33.672  1.00  0.00    -0.003 A 
HETATM   13  C   UNL     1     -13.644   2.850 -32.738  1.00  0.00     0.078 A 
HETATM   14  C   UNL     1     -14.855   2.150 -32.680  1.00  0.00     0.037 A 
HETATM   15  C   UNL     1     -15.095   1.073 -33.538  1.00  0.00     0.003 A 
HETATM   16  C   UNL     1     -14.129   0.682 -34.460  1.00  0.00     0.001 A 
HETATM   17  C   UNL     1     -12.919   1.369 -34.528  1.00  0.00     0.014 A 
BRANCH  13  18
HETATM   18  O   UNL     1     -13.321   3.915 -31.934  1.00  0.00    -0.355 OA
HETATM   19  C   UNL     1     -14.073   5.110 -32.100  1.00  0.00     0.210 C 
ENDBRANCH  13  18
ENDBRANCH  11  12
ENDBRANCH   7  10
ENDBRANCH   5   6
ENDBRANCH   2   5
BRANCH   1  20
HETATM   20  N   UNL     1      -6.240   1.432 -34.070  1.00  0.00    -0.184 NA
HETATM   21  C   UNL     1      -6.214   0.565 -33.111  1.00  0.00     0.153 C 
BRANCH  21  22
HETATM   22  C   UNL     1      -5.383  -0.620 -33.222  1.00  0.00     0.018 A 
HETATM   23  C   UNL     1      -4.096  -0.723 -32.707  1.00  0.00     0.018 A 
HETATM   24  C   UNL     1      -3.263   0.254 -31.957  1.00  0.00     0.069 C 
HETATM   25  N   UNL     1      -3.627  -1.979 -33.000  1.00  0.00    -0.358 N 
HETATM   26  H   UNL     1      -2.717  -2.337 -32.746  1.00  0.00     0.166 HD
HETATM   27  C   UNL     1      -4.568  -2.700 -33.694  1.00  0.00     0.043 A 
HETATM   28  C   UNL     1      -5.684  -1.876 -33.850  1.00  0.00     0.004 A 
HETATM   29  C   UNL     1      -4.512  -4.010 -34.188  1.00  0.00     0.030 A 
HETATM   30  C   UNL     1      -6.800  -2.397 -34.541  1.00  0.00     0.014 A 
HETATM   31  C   UNL     1      -6.761  -3.704 -35.042  1.00  0.00     0.001 A 
HETATM   32  C   UNL     1      -5.632  -4.497 -34.867  1.00  0.00     0.002 A 
ENDBRANCH  21  22
ENDBRANCH   1  20
TORSDOF 7
ENDMDL
MODEL 4
REMARK VINA RESULT:      -8.5      1.601      2.500
REMARK  7 active torsions:
REMARK  status: ('A' for Active; 'I' for Inactive)
REMARK    1  A    between atoms: C_7  and  C_8 
REMARK    2  A    between atoms: N_9  and  N_10 
REMARK       I    between atoms: N_10  and  C_11 
REMARK    3  A    between atoms: C_11  and  C_12 
REMARK    4  A    between atoms: C_12  and  N_13 
REMARK       I    between atoms: N_13  and  C_14 
REMARK    5  A    between atoms: C_14  and  C_15 
REMARK    6  A    between atoms: C_16  and  C_17 
REMARK    7  A    between atoms: C_18  and  O_19 
ROOT
HETATM    1  N   UNL     1      -7.363   3.406 -31.731  1.00  0.00    -0.246 N 
HETATM    2  C   UNL     1      -8.553   3.461 -32.443  1.00  0.00     0.255 C 
HETATM    3  O   UNL     1      -8.887   4.352 -33.220  1.00  0.00    -0.270 OA
HETATM    4  H   UNL     1      -7.224   2.652 -31.052  1.00  0.00     0.192 HD
ENDROOT
BRANCH   2   5
HETATM    5  C   UNL     1      -9.448   2.249 -32.180  1.00  0.00     0.227 C 
BRANCH   5   6
HETATM    6  N   UNL     1      -8.719   0.998 -32.307  1.00  0.00    -0.349 N 
HETATM    7  C   UNL     1      -8.543   0.395 -33.524  1.00  0.00     0.241 C 
HETATM    8  O   UNL     1      -8.953   0.880 -34.574  1.00  0.00    -0.269 OA
HETATM    9  H   UNL     1      -8.252   0.639 -31.485  1.00  0.00     0.163 HD
BRANCH   7  10
HETATM   10  C   UNL     1      -7.747  -0.850 -33.455  1.00  0.00     0.075 C 
HETATM   11  C   UNL     1      -7.036  -1.246 -34.521  1.00  0.00     0.020 C 
BRANCH  11  12
HETATM   12  C   UNL     1      -6.191  -2.444 -34.468  1.00  0.00    -0.003 A 
HETATM   13  C   UNL     1      -4.855  -2.406 -34.025  1.00  0.00     0.078 A 
HETATM   14  C   UNL     1      -4.108  -3.590 -34.015  1.00  0.00     0.037 A 
HETATM   15  C   UNL     1      -4.679  -4.794 -34.436  1.00  0.00     0.003 A 
HETATM   16  C   UNL     1      -6.000  -4.829 -34.873  1.00  0.00     0.001 A 
HETATM   17  C   UNL     1      -6.754  -3.658 -34.889  1.00  0.00     0.014 A 
BRANCH  13  18
HETATM   18  O   UNL     1      -4.377  -1.180 -33.635  1.00  0.00    -0.355 OA
HETATM   19  C   UNL     1      -4.107  -0.995 -32.251  1.00  0.00     0.210 C 
ENDBRANCH  13  18
ENDBRANCH  11  12
ENDBRANCH   7  10
ENDBRANCH   5   6
ENDBRANCH   2   5
BRANCH   1  20
HETATM   20  N   UNL     1      -6.452   4.417 -31.832  1.00  0.00    -0.184 NA
HETATM   21  C   UNL     1      -5.229   4.090 -31.572  1.00  0.00     0.153 C 
BRANCH  21  22
HETATM   22  C   UNL     1      -4.176   5.087 -31.645  1.00  0.00     0.018 A 
HETATM   23  C   UNL     1      -3.940   6.047 -30.667  1.00  0.00     0.018 A 
HETATM   24  C   UNL     1      -4.624   6.314 -29.375  1.00  0.00     0.069 C 
HETATM   25  N   UNL     1      -2.873   6.807 -31.077  1.00  0.00    -0.358 N 
HETATM   26  H   UNL     1      -2.475   7.581 -30.563  1.00  0.00     0.166 HD
HETATM   27  C   UNL     1      -2.407   6.375 -32.295  1.00  0.00     0.043 A 
HETATM   28  C   UNL     1      -3.203   5.296 -32.680  1.00  0.00     0.004 A 
HETATM   29  C   UNL     1      -1.347   6.858 -33.074  1.00  0.00     0.030 A 
HETATM   30  C   UNL     1      -2.919   4.671 -33.914  1.00  0.00     0.014 A 
HETATM   31  C   UNL     1      -1.864   5.140 -34.706  1.00  0.00     0.001 A 
HETATM   32  C   UNL     1      -1.090   6.219 -34.290  1.00  0.00     0.002 A 
ENDBRANCH  21  22
ENDBRANCH   1  20
TORSDOF 7
ENDMDL
MODEL 5
REMARK VINA RESULT:      -8.5      2.407      8.703
REMARK  7 active torsions:
REMARK  status: ('A' for Active; 'I' for Inactive)
REMARK    1  A    between atoms: C_7  and  C_8 
REMARK    2  A    between atoms: N_9  and  N_10 
REMARK       I    between atoms: N_10  and  C_11 
REMARK    3  A    between atoms: C_11  and  C_12 
REMARK    4  A    between atoms: C_12  and  N_13 
REMARK       I    between atoms: N_13  and  C_14 
REMARK    5  A    between atoms: C_14  and  C_15 
REMARK    6  A    between atoms: C_16  and  C_17 
REMARK    7  A    between atoms: C_18  and  O_19 
ROOT
HETATM    1  N   UNL     1      -6.720   1.513 -32.245  1.00  0.00    -0.246 N 
HETATM    2  C   UNL     1      -8.053   1.803 -31.988  1.00  0.00     0.255 C 
HETATM    3  O   UNL     1      -8.933   0.983 -31.738  1.00  0.00    -0.270 OA
HETATM    4  H   UNL     1      -6.090   2.272 -32.518  1.00  0.00     0.192 HD
ENDROOT
BRANCH   2   5
HETATM    5  C   UNL     1      -8.343   3.304 -32.027  1.00  0.00     0.227 C 
BRANCH   5   6
HETATM    6  N   UNL     1      -7.159   4.077 -32.366  1.00  0.00    -0.349 N 
HETATM    7  C   UNL     1      -7.106   4.840 -33.501  1.00  0.00     0.241 C 
HETATM    8  O   UNL     1      -8.051   4.946 -34.278  1.00  0.00    -0.269 OA
HETATM    9  H   UNL     1      -6.414   4.122 -31.683  1.00  0.00     0.163 HD
BRANCH   7  10
HETATM   10  C   UNL     1      -5.834   5.579 -33.656  1.00  0.00     0.075 C 
HETATM   11  C   UNL     1      -4.751   5.192 -32.966  1.00  0.00     0.020 C 
BRANCH  11  12
HETATM   12  C   UNL     1      -3.460   5.866 -33.139  1.00  0.00    -0.003 A 
HETATM   13  C   UNL     1      -3.069   6.961 -32.345  1.00  0.00     0.078 A 
HETATM   14  C   UNL     1      -1.825   7.560 -32.577  1.00  0.00     0.037 A 
HETATM   15  C   UNL     1      -0.981   7.078 -33.582  1.00  0.00     0.003 A 
HETATM   16  C   UNL     1      -1.370   5.996 -34.365  1.00  0.00     0.001 A 
HETATM   17  C   UNL     1      -2.605   5.391 -34.145  1.00  0.00     0.014 A 
BRANCH  13  18
HETATM   18  O   UNL     1      -3.962   7.369 -31.386  1.00  0.00    -0.355 OA
HETATM   19  C   UNL     1      -3.541   7.299 -30.029  1.00  0.00     0.210 C 
ENDBRANCH  13  18
ENDBRANCH  11  12
ENDBRANCH   7  10
ENDBRANCH   5   6
ENDBRANCH   2   5
BRANCH   1  20
HETATM   20  N   UNL     1      -6.289   0.219 -32.269  1.00  0.00    -0.184 NA
HETATM   21  C   UNL     1      -5.362  -0.040 -33.133  1.00  0.00     0.153 C 
BRANCH  21  22
HETATM   22  C   UNL     1      -4.830  -1.386 -33.247  1.00  0.00     0.018 A 
HETATM   23  C   UNL     1      -3.649  -1.813 -32.650  1.00  0.00     0.018 A 
HETATM   24  C   UNL     1      -2.671  -1.091 -31.794  1.00  0.00     0.069 C 
HETATM   25  N   UNL     1      -3.469  -3.134 -32.976  1.00  0.00    -0.358 N 
HETATM   26  H   UNL     1      -2.693  -3.708 -32.679  1.00  0.00     0.166 HD
HETATM   27  C   UNL     1      -4.496  -3.583 -33.771  1.00  0.00     0.043 A 
HETATM   28  C   UNL     1      -5.368  -2.511 -33.960  1.00  0.00     0.004 A 
HETATM   29  C   UNL     1      -4.712  -4.851 -34.328  1.00  0.00     0.030 A 
HETATM   30  C   UNL     1      -6.516  -2.724 -34.753  1.00  0.00     0.014 A 
HETATM   31  C   UNL     1      -6.749  -3.984 -35.319  1.00  0.00     0.001 A 
HETATM   32  C   UNL     1      -5.858  -5.031 -35.107  1.00  0.00     0.002 A 
ENDBRANCH  21  22
ENDBRANCH   1  20
TORSDOF 7
ENDMDL
MODEL 6
REMARK VINA RESULT:      -8.5      3.192     10.327
REMARK  7 active torsions:
REMARK  status: ('A' for Active; 'I' for Inactive)
REMARK    1  A    between atoms: C_7  and  C_8 
REMARK    2  A    between atoms: N_9  and  N_10 
REMARK       I    between atoms: N_10  and  C_11 
REMARK    3  A    between atoms: C_11  and  C_12 
REMARK    4  A    between atoms: C_12  and  N_13 
REMARK       I    between atoms: N_13  and  C_14 
REMARK    5  A    between atoms: C_14  and  C_15 
REMARK    6  A    between atoms: C_16  and  C_17 
REMARK    7  A    between atoms: C_18  and  O_19 
ROOT
HETATM    1  N   UNL     1      -4.764   2.536 -31.880  1.00  0.00    -0.246 N 
HETATM    2  C   UNL     1      -3.699   3.426 -31.883  1.00  0.00     0.255 C 
HETATM    3  O   UNL     1      -2.589   3.218 -32.368  1.00  0.00    -0.270 OA
HETATM    4  H   UNL     1      -5.620   2.787 -31.377  1.00  0.00     0.192 HD
ENDROOT
BRANCH   2   5
HETATM    5  C   UNL     1      -4.046   4.756 -31.215  1.00  0.00     0.227 C 
BRANCH   5   6
HETATM    6  N   UNL     1      -2.910   5.317 -30.500  1.00  0.00    -0.349 N 
HETATM    7  C   UNL     1      -2.240   6.413 -30.974  1.00  0.00     0.241 C 
HETATM    8  O   UNL     1      -2.568   7.005 -31.998  1.00  0.00    -0.269 OA
HETATM    9  H   UNL     1      -2.696   4.941 -29.586  1.00  0.00     0.163 HD
BRANCH   7  10
HETATM   10  C   UNL     1      -1.138   6.856 -30.092  1.00  0.00     0.075 C 
HETATM   11  C   UNL     1      -1.410   7.298 -28.856  1.00  0.00     0.020 C 
BRANCH  11  12
HETATM   12  C   UNL     1      -0.337   7.690 -27.935  1.00  0.00    -0.003 A 
HETATM   13  C   UNL     1      -0.429   7.498 -26.543  1.00  0.00     0.078 A 
HETATM   14  C   UNL     1       0.632   7.909 -25.728  1.00  0.00     0.037 A 
HETATM   15  C   UNL     1       1.768   8.501 -26.286  1.00  0.00     0.003 A 
HETATM   16  C   UNL     1       1.857   8.690 -27.662  1.00  0.00     0.001 A 
HETATM   17  C   UNL     1       0.808   8.286 -28.485  1.00  0.00     0.014 A 
BRANCH  13  18
HETATM   18  O   UNL     1      -1.583   6.913 -26.084  1.00  0.00    -0.355 OA
HETATM   19  C   UNL     1      -2.439   7.708 -25.272  1.00  0.00     0.210 C 
ENDBRANCH  13  18
ENDBRANCH  11  12
ENDBRANCH   7  10
ENDBRANCH   5   6
ENDBRANCH   2   5
BRANCH   1  20
HETATM   20  N   UNL     1      -4.624   1.290 -32.418  1.00  0.00    -0.184 NA
HETATM   21  C   UNL     1      -5.669   0.826 -33.020  1.00  0.00     0.153 C 
BRANCH  21  22
HETATM   22  C   UNL     1      -5.634  -0.492 -33.629  1.00  0.00     0.018 A 
HETATM   23  C   UNL     1      -6.451  -0.889 -34.681  1.00  0.00     0.018 A 
HETATM   24  C   UNL     1      -7.504  -0.155 -35.431  1.00  0.00     0.069 C 
HETATM   25  N   UNL     1      -6.136  -2.189 -34.988  1.00  0.00    -0.358 N 
HETATM   26  H   UNL     1      -6.569  -2.739 -35.716  1.00  0.00     0.166 HD
HETATM   27  C   UNL     1      -5.138  -2.655 -34.167  1.00  0.00     0.043 A 
HETATM   28  C   UNL     1      -4.800  -1.614 -33.301  1.00  0.00     0.004 A 
HETATM   29  C   UNL     1      -4.517  -3.911 -34.130  1.00  0.00     0.030 A 
HETATM   30  C   UNL     1      -3.785  -1.850 -32.348  1.00  0.00     0.014 A 
HETATM   31  C   UNL     1      -3.154  -3.099 -32.296  1.00  0.00     0.001 A 
HETATM   32  C   UNL     1      -3.517  -4.113 -33.176  1.00  0.00     0.002 A 
ENDBRANCH  21  22
ENDBRANCH   1  20
TORSDOF 7
ENDMDL
MODEL 7
REMARK VINA RESULT:      -8.4      3.088      9.820
REMARK  7 active torsions:
REMARK  status: ('A' for Active; 'I' for Inactive)
REMARK    1  A    between atoms: C_7  and  C_8 
REMARK    2  A    between atoms: N_9  and  N_10 
REMARK       I    between atoms: N_10  and  C_11 
REMARK    3  A    between atoms: C_11  and  C_12 
REMARK    4  A    between atoms: C_12  and  N_13 
REMARK       I    between atoms: N_13  and  C_14 
REMARK    5  A    between atoms: C_14  and  C_15 
REMARK    6  A    between atoms: C_16  and  C_17 
REMARK    7  A    between atoms: C_18  and  O_19 
ROOT
HETATM    1  N   UNL     1      -3.428   4.376 -33.447  1.00  0.00    -0.246 N 
HETATM    2  C   UNL     1      -3.156   5.080 -34.611  1.00  0.00     0.255 C 
HETATM    3  O   UNL     1      -3.971   5.377 -35.481  1.00  0.00    -0.270 OA
HETATM    4  H   UNL     1      -2.654   4.117 -32.829  1.00  0.00     0.192 HD
ENDROOT
BRANCH   2   5
HETATM    5  C   UNL     1      -1.686   5.490 -34.717  1.00  0.00     0.227 C 
BRANCH   5   6
HETATM    6  N   UNL     1      -1.124   5.833 -33.421  1.00  0.00    -0.349 N 
HETATM    7  C   UNL     1      -1.126   7.123 -32.961  1.00  0.00     0.241 C 
HETATM    8  O   UNL     1      -1.624   8.053 -33.588  1.00  0.00    -0.269 OA
HETATM    9  H   UNL     1      -0.829   5.075 -32.820  1.00  0.00     0.163 HD
BRANCH   7  10
HETATM   10  C   UNL     1      -0.542   7.267 -31.610  1.00  0.00     0.075 C 
HETATM   11  C   UNL     1      -1.299   7.729 -30.603  1.00  0.00     0.020 C 
BRANCH  11  12
HETATM   12  C   UNL     1      -0.769   7.831 -29.239  1.00  0.00    -0.003 A 
HETATM   13  C   UNL     1      -1.599   8.039 -28.121  1.00  0.00     0.078 A 
HETATM   14  C   UNL     1      -1.017   8.137 -26.851  1.00  0.00     0.037 A 
HETATM   15  C   UNL     1       0.367   8.030 -26.693  1.00  0.00     0.003 A 
HETATM   16  C   UNL     1       1.185   7.825 -27.800  1.00  0.00     0.001 A 
HETATM   17  C   UNL     1       0.620   7.726 -29.070  1.00  0.00     0.014 A 
BRANCH  13  18
HETATM   18  O   UNL     1      -2.945   8.136 -28.371  1.00  0.00    -0.355 OA
HETATM   19  C   UNL     1      -3.795   7.179 -27.750  1.00  0.00     0.210 C 
ENDBRANCH  13  18
ENDBRANCH  11  12
ENDBRANCH   7  10
ENDBRANCH   5   6
ENDBRANCH   2   5
BRANCH   1  20
HETATM   20  N   UNL     1      -4.689   3.915 -33.199  1.00  0.00    -0.184 NA
HETATM   21  C   UNL     1      -4.816   3.196 -32.132  1.00  0.00     0.153 C 
BRANCH  21  22
HETATM   22  C   UNL     1      -6.113   2.651 -31.772  1.00  0.00     0.018 A 
HETATM   23  C   UNL     1      -6.849   3.054 -30.663  1.00  0.00     0.018 A 
HETATM   24  C   UNL     1      -6.561   4.068 -29.615  1.00  0.00     0.069 C 
HETATM   25  N   UNL     1      -8.012   2.325 -30.647  1.00  0.00    -0.358 N 
HETATM   26  H   UNL     1      -8.743   2.407 -29.954  1.00  0.00     0.166 HD
HETATM   27  C   UNL     1      -8.057   1.456 -31.710  1.00  0.00     0.043 A 
HETATM   28  C   UNL     1      -6.880   1.635 -32.437  1.00  0.00     0.004 A 
HETATM   29  C   UNL     1      -9.048   0.535 -32.076  1.00  0.00     0.030 A 
HETATM   30  C   UNL     1      -6.688   0.845 -33.591  1.00  0.00     0.014 A 
HETATM   31  C   UNL     1      -7.667  -0.081 -33.972  1.00  0.00     0.001 A 
HETATM   32  C   UNL     1      -8.830  -0.232 -33.223  1.00  0.00     0.002 A 
ENDBRANCH  21  22
ENDBRANCH   1  20
TORSDOF 7
ENDMDL
MODEL 8
REMARK VINA RESULT:      -8.2      3.355      7.666
REMARK  7 active torsions:
REMARK  status: ('A' for Active; 'I' for Inactive)
REMARK    1  A    between atoms: C_7  and  C_8 
REMARK    2  A    between atoms: N_9  and  N_10 
REMARK       I    between atoms: N_10  and  C_11 
REMARK    3  A    between atoms: C_11  and  C_12 
REMARK    4  A    between atoms: C_12  and  N_13 
REMARK       I    between atoms: N_13  and  C_14 
REMARK    5  A    between atoms: C_14  and  C_15 
REMARK    6  A    between atoms: C_16  and  C_17 
REMARK    7  A    between atoms: C_18  and  O_19 
ROOT
HETATM    1  N   UNL     1      -6.792   2.549 -32.522  1.00  0.00    -0.246 N 
HETATM    2  C   UNL     1      -5.879   3.516 -32.124  1.00  0.00     0.255 C 
HETATM    3  O   UNL     1      -6.134   4.695 -31.889  1.00  0.00    -0.270 OA
HETATM    4  H   UNL     1      -6.452   1.615 -32.765  1.00  0.00     0.192 HD
ENDROOT
BRANCH   2   5
HETATM    5  C   UNL     1      -4.463   2.959 -31.979  1.00  0.00     0.227 C 
BRANCH   5   6
HETATM    6  N   UNL     1      -4.406   1.536 -32.274  1.00  0.00    -0.349 N 
HETATM    7  C   UNL     1      -3.446   0.731 -31.723  1.00  0.00     0.241 C 
HETATM    8  O   UNL     1      -2.603   1.143 -30.932  1.00  0.00    -0.269 OA
HETATM    9  H   UNL     1      -5.164   1.136 -32.812  1.00  0.00     0.163 HD
BRANCH   7  10
HETATM   10  C   UNL     1      -3.573  -0.690 -32.115  1.00  0.00     0.075 C 
HETATM   11  C   UNL     1      -4.396  -1.033 -33.116  1.00  0.00     0.020 C 
BRANCH  11  12
HETATM   12  C   UNL     1      -4.503  -2.425 -33.568  1.00  0.00    -0.003 A 
HETATM   13  C   UNL     1      -5.491  -2.849 -34.478  1.00  0.00     0.078 A 
HETATM   14  C   UNL     1      -5.537  -4.197 -34.853  1.00  0.00     0.037 A 
HETATM   15  C   UNL     1      -4.615  -5.111 -34.334  1.00  0.00     0.003 A 
HETATM   16  C   UNL     1      -3.640  -4.689 -33.435  1.00  0.00     0.001 A 
HETATM   17  C   UNL     1      -3.583  -3.351 -33.053  1.00  0.00     0.014 A 
BRANCH  13  18
HETATM   18  O   UNL     1      -6.356  -1.885 -34.931  1.00  0.00    -0.355 OA
HETATM   19  C   UNL     1      -7.471  -1.567 -34.106  1.00  0.00     0.210 C 
ENDBRANCH  13  18
ENDBRANCH  11  12
ENDBRANCH   7  10
ENDBRANCH   5   6
ENDBRANCH   2   5
BRANCH   1  20
HETATM   20  N   UNL     1      -8.101   2.878 -32.720  1.00  0.00    -0.184 NA
HETATM   21  C   UNL     1      -8.662   2.328 -33.747  1.00  0.00     0.153 C 
BRANCH  21  22
HETATM   22  C   UNL     1     -10.053   2.609 -34.055  1.00  0.00     0.018 A 
HETATM   23  C   UNL     1     -10.518   3.834 -34.519  1.00  0.00     0.018 A 
HETATM   24  C   UNL     1      -9.802   5.102 -34.815  1.00  0.00     0.069 C 
HETATM   25  N   UNL     1     -11.875   3.725 -34.700  1.00  0.00    -0.358 N 
HETATM   26  H   UNL     1     -12.480   4.461 -35.033  1.00  0.00     0.166 HD
HETATM   27  C   UNL     1     -12.310   2.466 -34.364  1.00  0.00     0.043 A 
HETATM   28  C   UNL     1     -11.191   1.739 -33.956  1.00  0.00     0.004 A 
HETATM   29  C   UNL     1     -13.602   1.925 -34.395  1.00  0.00     0.030 A 
HETATM   30  C   UNL     1     -11.383   0.399 -33.555  1.00  0.00     0.014 A 
HETATM   31  C   UNL     1     -12.667  -0.159 -33.579  1.00  0.00     0.001 A 
HETATM   32  C   UNL     1     -13.760   0.595 -33.993  1.00  0.00     0.002 A 
ENDBRANCH  21  22
ENDBRANCH   1  20
TORSDOF 7
ENDMDL
MODEL 9
REMARK VINA RESULT:      -8.2      3.290     10.562
REMARK  7 active torsions:
REMARK  status: ('A' for Active; 'I' for Inactive)
REMARK    1  A    between atoms: C_7  and  C_8 
REMARK    2  A    between atoms: N_9  and  N_10 
REMARK       I    between atoms: N_10  and  C_11 
REMARK    3  A    between atoms: C_11  and  C_12 
REMARK    4  A    between atoms: C_12  and  N_13 
REMARK       I    between atoms: N_13  and  C_14 
REMARK    5  A    between atoms: C_14  and  C_15 
REMARK    6  A    between atoms: C_16  and  C_17 
REMARK    7  A    between atoms: C_18  and  O_19 
ROOT
HETATM    1  N   UNL     1      -4.511   2.729 -32.112  1.00  0.00    -0.246 N 
HETATM    2  C   UNL     1      -3.596   3.595 -31.530  1.00  0.00     0.255 C 
HETATM    3  O   UNL     1      -2.392   3.389 -31.398  1.00  0.00    -0.270 OA
HETATM    4  H   UNL     1      -5.505   2.973 -32.099  1.00  0.00     0.192 HD
ENDROOT
BRANCH   2   5
HETATM    5  C   UNL     1      -4.242   4.898 -31.059  1.00  0.00     0.227 C 
BRANCH   5   6
HETATM    6  N   UNL     1      -3.295   5.753 -30.361  1.00  0.00    -0.349 N 
HETATM    7  C   UNL     1      -2.799   6.890 -30.940  1.00  0.00     0.241 C 
HETATM    8  O   UNL     1      -3.141   7.275 -32.053  1.00  0.00    -0.269 OA
HETATM    9  H   UNL     1      -3.094   5.541 -29.393  1.00  0.00     0.163 HD
BRANCH   7  10
HETATM   10  C   UNL     1      -1.876   7.643 -30.063  1.00  0.00     0.075 C 
HETATM   11  C   UNL     1      -1.495   7.118 -28.889  1.00  0.00     0.020 C 
BRANCH  11  12
HETATM   12  C   UNL     1      -0.537   7.811 -28.021  1.00  0.00    -0.003 A 
HETATM   13  C   UNL     1      -0.889   8.299 -26.748  1.00  0.00     0.078 A 
HETATM   14  C   UNL     1       0.079   8.961 -25.983  1.00  0.00     0.037 A 
HETATM   15  C   UNL     1       1.376   9.136 -26.473  1.00  0.00     0.003 A 
HETATM   16  C   UNL     1       1.720   8.654 -27.732  1.00  0.00     0.001 A 
HETATM   17  C   UNL     1       0.768   7.993 -28.504  1.00  0.00     0.014 A 
BRANCH  13  18
HETATM   18  O   UNL     1      -2.185   8.086 -26.350  1.00  0.00    -0.355 OA
HETATM   19  C   UNL     1      -2.449   8.095 -24.952  1.00  0.00     0.210 C 
ENDBRANCH  13  18
ENDBRANCH  11  12
ENDBRANCH   7  10
ENDBRANCH   5   6
ENDBRANCH   2   5
BRANCH   1  20
HETATM   20  N   UNL     1      -4.109   1.509 -32.572  1.00  0.00    -0.184 NA
HETATM   21  C   UNL     1      -4.887   0.520 -32.273  1.00  0.00     0.153 C 
BRANCH  21  22
HETATM   22  C   UNL     1      -4.555  -0.825 -32.707  1.00  0.00     0.018 A 
HETATM   23  C   UNL     1      -3.380  -1.487 -32.371  1.00  0.00     0.018 A 
HETATM   24  C   UNL     1      -2.221  -1.061 -31.543  1.00  0.00     0.069 C 
HETATM   25  N   UNL     1      -3.417  -2.728 -32.957  1.00  0.00    -0.358 N 
HETATM   26  H   UNL     1      -2.695  -3.431 -32.883  1.00  0.00     0.166 HD
HETATM   27  C   UNL     1      -4.580  -2.896 -33.668  1.00  0.00     0.043 A 
HETATM   28  C   UNL     1      -5.318  -1.719 -33.532  1.00  0.00     0.004 A 
HETATM   29  C   UNL     1      -5.027  -3.995 -34.414  1.00  0.00     0.030 A 
HETATM   30  C   UNL     1      -6.570  -1.644 -34.181  1.00  0.00     0.014 A 
HETATM   31  C   UNL     1      -7.032  -2.733 -34.931  1.00  0.00     0.001 A 
HETATM   32  C   UNL     1      -6.270  -3.891 -35.044  1.00  0.00     0.002 A 
ENDBRANCH  21  22
ENDBRANCH   1  20
TORSDOF 7
ENDMDL
MODEL 10
REMARK VINA RESULT:      -8.2      1.736      1.842
REMARK  7 active torsions:
REMARK  status: ('A' for Active; 'I' for Inactive)
REMARK    1  A    between atoms: C_7  and  C_8 
REMARK    2  A    between atoms: N_9  and  N_10 
REMARK       I    between atoms: N_10  and  C_11 
REMARK    3  A    between atoms: C_11  and  C_12 
REMARK    4  A    between atoms: C_12  and  N_13 
REMARK       I    between atoms: N_13  and  C_14 
REMARK    5  A    between atoms: C_14  and  C_15 
REMARK    6  A    between atoms: C_16  and  C_17 
REMARK    7  A    between atoms: C_18  and  O_19 
ROOT
HETATM    1  N   UNL     1      -6.556   4.422 -33.905  1.00  0.00    -0.246 N 
HETATM    2  C   UNL     1      -7.504   3.788 -33.116  1.00  0.00     0.255 C 
HETATM    3  O   UNL     1      -7.598   3.872 -31.893  1.00  0.00    -0.270 OA
HETATM    4  H   UNL     1      -6.525   4.217 -34.908  1.00  0.00     0.192 HD
ENDROOT
BRANCH   2   5
HETATM    5  C   UNL     1      -8.482   2.947 -33.938  1.00  0.00     0.227 C 
BRANCH   5   6
HETATM    6  N   UNL     1      -8.026   1.574 -34.085  1.00  0.00    -0.349 N 
HETATM    7  C   UNL     1      -8.627   0.546 -33.408  1.00  0.00     0.241 C 
HETATM    8  O   UNL     1      -9.593   0.709 -32.670  1.00  0.00    -0.269 OA
HETATM    9  H   UNL     1      -7.322   1.384 -34.786  1.00  0.00     0.163 HD
BRANCH   7  10
HETATM   10  C   UNL     1      -8.046  -0.779 -33.713  1.00  0.00     0.075 C 
HETATM   11  C   UNL     1      -6.727  -0.895 -33.924  1.00  0.00     0.020 C 
BRANCH  11  12
HETATM   12  C   UNL     1      -6.110  -2.203 -34.173  1.00  0.00    -0.003 A 
HETATM   13  C   UNL     1      -4.740  -2.445 -33.951  1.00  0.00     0.078 A 
HETATM   14  C   UNL     1      -4.221  -3.717 -34.222  1.00  0.00     0.037 A 
HETATM   15  C   UNL     1      -5.050  -4.733 -34.707  1.00  0.00     0.003 A 
HETATM   16  C   UNL     1      -6.402  -4.491 -34.925  1.00  0.00     0.001 A 
HETATM   17  C   UNL     1      -6.931  -3.231 -34.660  1.00  0.00     0.014 A 
BRANCH  13  18
HETATM   18  O   UNL     1      -4.003  -1.388 -33.479  1.00  0.00    -0.355 OA
HETATM   19  C   UNL     1      -3.439  -1.514 -32.179  1.00  0.00     0.210 C 
ENDBRANCH  13  18
ENDBRANCH  11  12
ENDBRANCH   7  10
ENDBRANCH   5   6
ENDBRANCH   2   5
BRANCH   1  20
HETATM   20  N   UNL     1      -5.591   5.199 -33.332  1.00  0.00    -0.184 NA
HETATM   21  C   UNL     1      -4.500   5.322 -34.015  1.00  0.00     0.153 C 
BRANCH  21  22
HETATM   22  C   UNL     1      -3.405   6.124 -33.500  1.00  0.00     0.018 A 
HETATM   23  C   UNL     1      -2.090   6.026 -33.942  1.00  0.00     0.018 A 
HETATM   24  C   UNL     1      -1.469   5.158 -34.977  1.00  0.00     0.069 C 
HETATM   25  N   UNL     1      -1.342   6.934 -33.233  1.00  0.00    -0.358 N 
HETATM   26  H   UNL     1      -0.350   7.086 -33.345  1.00  0.00     0.166 HD
HETATM   27  C   UNL     1      -2.128   7.619 -32.340  1.00  0.00     0.043 A 
HETATM   28  C   UNL     1      -3.429   7.136 -32.481  1.00  0.00     0.004 A 
HETATM   29  C   UNL     1      -1.783   8.624 -31.426  1.00  0.00     0.030 A 
HETATM   30  C   UNL     1      -4.435   7.691 -31.660  1.00  0.00     0.014 A 
HETATM   31  C   UNL     1      -4.109   8.695 -30.741  1.00  0.00     0.001 A 
HETATM   32  C   UNL     1      -2.800   9.154 -30.628  1.00  0.00     0.002 A 
ENDBRANCH  21  22
ENDBRANCH   1  20
TORSDOF 7
ENDMDL
