MODEL 1
REMARK VINA RESULT:      -8.7      0.000      0.000
REMARK  5 active torsions:
REMARK  status: ('A' for Active; 'I' for Inactive)
REMARK    1  A    between atoms: C_3  and  O_4 
REMARK    2  A    between atoms: O_4  and  C_5 
REMARK    3  A    between atoms: C_5  and  C_6 
REMARK       I    between atoms: C_6  and  N_7 
REMARK    4  A    between atoms: N_7  and  N_8 
REMARK    5  A    between atoms: C_9  and  C_10 
ROOT
HETATM    1  C   UNL     1      -4.135  -0.489 -31.522  1.00  0.00     0.261 C 
HETATM    2  N   UNL     1      -3.081   0.406 -31.675  1.00  0.00    -0.246 N 
HETATM    3  O   UNL     1      -5.205  -0.253 -30.962  1.00  0.00    -0.269 OA
HETATM    4  H   UNL     1      -2.387   0.170 -32.384  1.00  0.00     0.192 HD
ENDROOT
BRANCH   2   5
HETATM    5  N   UNL     1      -3.111   1.738 -31.325  1.00  0.00    -0.184 NA
HETATM    6  C   UNL     1      -3.443   2.595 -32.240  1.00  0.00     0.152 C 
BRANCH   6   7
HETATM    7  C   UNL     1      -3.444   4.014 -31.943  1.00  0.00     0.011 A 
HETATM    8  C   UNL     1      -2.704   5.029 -32.634  1.00  0.00     0.004 A 
HETATM    9  C   UNL     1      -3.003   6.250 -32.029  1.00  0.00     0.043 A 
HETATM   10  C   UNL     1      -1.798   5.019 -33.717  1.00  0.00     0.014 A 
HETATM   11  C   UNL     1      -2.449   7.463 -32.458  1.00  0.00     0.030 A 
HETATM   12  N   UNL     1      -3.886   5.989 -31.007  1.00  0.00    -0.364 N 
HETATM   13  C   UNL     1      -1.557   7.426 -33.535  1.00  0.00     0.002 A 
HETATM   14  C   UNL     1      -1.234   6.223 -34.156  1.00  0.00     0.001 A 
HETATM   15  H   UNL     1      -4.273   6.692 -30.391  1.00  0.00     0.165 HD
HETATM   16  C   UNL     1      -4.155   4.649 -30.943  1.00  0.00     0.102 A 
ENDBRANCH   6   7
ENDBRANCH   2   5
BRANCH   1  17
HETATM   17  C   UNL     1      -3.830  -1.880 -32.067  1.00  0.00     0.280 C 
BRANCH  17  18
HETATM   18  O   UNL     1      -3.724  -1.893 -33.494  1.00  0.00    -0.341 OA
BRANCH  18  19
HETATM   19  C   UNL     1      -4.716  -2.691 -34.015  1.00  0.00     0.081 A 
HETATM   20  C   UNL     1      -4.507  -4.073 -34.157  1.00  0.00    -0.028 A 
HETATM   21  C   UNL     1      -3.212  -4.732 -33.779  1.00  0.00     0.051 C 
HETATM   22  C   UNL     1      -5.563  -4.865 -34.631  1.00  0.00     0.009 A 
HETATM   23  C   UNL     1      -6.773  -4.283 -35.009  1.00  0.00     0.001 A 
HETATM   24  C   UNL     1      -6.943  -2.902 -34.925  1.00  0.00     0.009 A 
HETATM   25  C   UNL     1      -5.917  -2.088 -34.426  1.00  0.00    -0.028 A 
HETATM   26  C   UNL     1      -6.102  -0.597 -34.394  1.00  0.00     0.051 C 
ENDBRANCH  18  19
ENDBRANCH  17  18
ENDBRANCH   1  17
TORSDOF 5
ENDMDL
MODEL 2
REMARK VINA RESULT:      -8.6      0.807      1.945
REMARK  5 active torsions:
REMARK  status: ('A' for Active; 'I' for Inactive)
REMARK    1  A    between atoms: C_3  and  O_4 
REMARK    2  A    between atoms: O_4  and  C_5 
REMARK    3  A    between atoms: C_5  and  C_6 
REMARK       I    between atoms: C_6  and  N_7 
REMARK    4  A    between atoms: N_7  and  N_8 
REMARK    5  A    between atoms: C_9  and  C_10 
ROOT
HETATM    1  C   UNL     1      -3.234  -0.334 -31.855  1.00  0.00     0.261 C 
HETATM    2  N   UNL     1      -3.841   0.806 -32.371  1.00  0.00    -0.246 N 
HETATM    3  O   UNL     1      -2.224  -0.357 -31.152  1.00  0.00    -0.269 OA
HETATM    4  H   UNL     1      -4.802   0.699 -32.695  1.00  0.00     0.192 HD
ENDROOT
BRANCH   2   5
HETATM    5  N   UNL     1      -3.475   2.103 -32.082  1.00  0.00    -0.184 NA
HETATM    6  C   UNL     1      -4.320   3.045 -32.364  1.00  0.00     0.152 C 
BRANCH   6   7
HETATM    7  C   UNL     1      -3.970   4.432 -32.128  1.00  0.00     0.011 A 
HETATM    8  C   UNL     1      -2.990   5.196 -32.842  1.00  0.00     0.004 A 
HETATM    9  C   UNL     1      -2.983   6.481 -32.297  1.00  0.00     0.043 A 
HETATM   10  C   UNL     1      -2.100   4.911 -33.900  1.00  0.00     0.014 A 
HETATM   11  C   UNL     1      -2.137   7.496 -32.763  1.00  0.00     0.030 A 
HETATM   12  N   UNL     1      -3.917   6.497 -31.288  1.00  0.00    -0.364 N 
HETATM   13  C   UNL     1      -1.269   7.187 -33.814  1.00  0.00     0.002 A 
HETATM   14  C   UNL     1      -1.248   5.914 -34.376  1.00  0.00     0.001 A 
HETATM   15  H   UNL     1      -4.124   7.302 -30.711  1.00  0.00     0.165 HD
HETATM   16  C   UNL     1      -4.514   5.271 -31.174  1.00  0.00     0.102 A 
ENDBRANCH   6   7
ENDBRANCH   2   5
BRANCH   1  17
HETATM   17  C   UNL     1      -3.904  -1.629 -32.301  1.00  0.00     0.280 C 
BRANCH  17  18
HETATM   18  O   UNL     1      -3.732  -1.875 -33.700  1.00  0.00    -0.341 OA
BRANCH  18  19
HETATM   19  C   UNL     1      -4.734  -2.709 -34.139  1.00  0.00     0.081 A 
HETATM   20  C   UNL     1      -5.980  -2.178 -34.514  1.00  0.00    -0.028 A 
HETATM   21  C   UNL     1      -6.283  -0.711 -34.432  1.00  0.00     0.051 C 
HETATM   22  C   UNL     1      -6.955  -3.050 -35.018  1.00  0.00     0.009 A 
HETATM   23  C   UNL     1      -6.714  -4.422 -35.089  1.00  0.00     0.001 A 
HETATM   24  C   UNL     1      -5.496  -4.942 -34.652  1.00  0.00     0.009 A 
HETATM   25  C   UNL     1      -4.491  -4.093 -34.172  1.00  0.00    -0.028 A 
HETATM   26  C   UNL     1      -3.207  -4.680 -33.657  1.00  0.00     0.051 C 
ENDBRANCH  18  19
ENDBRANCH  17  18
ENDBRANCH   1  17
TORSDOF 5
ENDMDL
MODEL 3
REMARK VINA RESULT:      -8.3      3.119      9.682
REMARK  5 active torsions:
REMARK  status: ('A' for Active; 'I' for Inactive)
REMARK    1  A    between atoms: C_3  and  O_4 
REMARK    2  A    between atoms: O_4  and  C_5 
REMARK    3  A    between atoms: C_5  and  C_6 
REMARK       I    between atoms: C_6  and  N_7 
REMARK    4  A    between atoms: N_7  and  N_8 
REMARK    5  A    between atoms: C_9  and  C_10 
ROOT
HETATM    1  C   UNL     1      -2.484   4.557 -31.858  1.00  0.00     0.261 C 
HETATM    2  N   UNL     1      -2.998   3.491 -31.128  1.00  0.00    -0.246 N 
HETATM    3  O   UNL     1      -1.811   4.468 -32.886  1.00  0.00    -0.269 OA
HETATM    4  H   UNL     1      -3.749   3.711 -30.475  1.00  0.00     0.192 HD
ENDROOT
BRANCH   2   5
HETATM    5  N   UNL     1      -2.934   2.165 -31.501  1.00  0.00    -0.184 NA
HETATM    6  C   UNL     1      -4.014   1.617 -31.964  1.00  0.00     0.152 C 
BRANCH   6   7
HETATM    7  C   UNL     1      -4.020   0.212 -32.327  1.00  0.00     0.011 A 
HETATM    8  C   UNL     1      -4.911  -0.424 -33.251  1.00  0.00     0.004 A 
HETATM    9  C   UNL     1      -4.562  -1.774 -33.307  1.00  0.00     0.043 A 
HETATM   10  C   UNL     1      -5.990   0.024 -34.044  1.00  0.00     0.014 A 
HETATM   11  C   UNL     1      -5.232  -2.696 -34.121  1.00  0.00     0.030 A 
HETATM   12  N   UNL     1      -3.504  -1.954 -32.446  1.00  0.00    -0.364 N 
HETATM   13  C   UNL     1      -6.295  -2.225 -34.898  1.00  0.00     0.002 A 
HETATM   14  C   UNL     1      -6.671  -0.886 -34.861  1.00  0.00     0.001 A 
HETATM   15  H   UNL     1      -3.045  -2.839 -32.279  1.00  0.00     0.165 HD
HETATM   16  C   UNL     1      -3.172  -0.768 -31.848  1.00  0.00     0.102 A 
ENDBRANCH   6   7
ENDBRANCH   2   5
BRANCH   1  17
HETATM   17  C   UNL     1      -2.770   5.915 -31.228  1.00  0.00     0.280 C 
BRANCH  17  18
HETATM   18  O   UNL     1      -1.832   6.913 -31.639  1.00  0.00    -0.341 OA
BRANCH  18  19
HETATM   19  C   UNL     1      -1.247   7.472 -30.527  1.00  0.00     0.081 A 
HETATM   20  C   UNL     1      -1.864   8.553 -29.874  1.00  0.00    -0.028 A 
HETATM   21  C   UNL     1      -3.150   9.154 -30.359  1.00  0.00     0.051 C 
HETATM   22  C   UNL     1      -1.273   9.055 -28.706  1.00  0.00     0.009 A 
HETATM   23  C   UNL     1      -0.068   8.531 -28.237  1.00  0.00     0.001 A 
HETATM   24  C   UNL     1       0.566   7.503 -28.932  1.00  0.00     0.009 A 
HETATM   25  C   UNL     1      -0.015   6.960 -30.086  1.00  0.00    -0.028 A 
HETATM   26  C   UNL     1       0.712   5.889 -30.850  1.00  0.00     0.051 C 
ENDBRANCH  18  19
ENDBRANCH  17  18
ENDBRANCH   1  17
TORSDOF 5
ENDMDL
MODEL 4
REMARK VINA RESULT:      -8.2      1.877      2.083
REMARK  5 active torsions:
REMARK  status: ('A' for Active; 'I' for Inactive)
REMARK    1  A    between atoms: C_3  and  O_4 
REMARK    2  A    between atoms: O_4  and  C_5 
REMARK    3  A    between atoms: C_5  and  C_6 
REMARK       I    between atoms: C_6  and  N_7 
REMARK    4  A    between atoms: N_7  and  N_8 
REMARK    5  A    between atoms: C_9  and  C_10 
ROOT
HETATM    1  C   UNL     1      -3.243   0.442 -32.085  1.00  0.00     0.261 C 
HETATM    2  N   UNL     1      -3.653   1.746 -32.343  1.00  0.00    -0.246 N 
HETATM    3  O   UNL     1      -2.522   0.084 -31.154  1.00  0.00    -0.269 OA
HETATM    4  H   UNL     1      -4.452   1.855 -32.966  1.00  0.00     0.192 HD
ENDROOT
BRANCH   2   5
HETATM    5  N   UNL     1      -3.410   2.832 -31.528  1.00  0.00    -0.184 NA
HETATM    6  C   UNL     1      -3.343   4.000 -32.086  1.00  0.00     0.152 C 
BRANCH   6   7
HETATM    7  C   UNL     1      -3.041   5.173 -31.288  1.00  0.00     0.011 A 
HETATM    8  C   UNL     1      -1.738   5.700 -31.008  1.00  0.00     0.004 A 
HETATM    9  C   UNL     1      -1.907   6.835 -30.214  1.00  0.00     0.043 A 
HETATM   10  C   UNL     1      -0.425   5.311 -31.353  1.00  0.00     0.014 A 
HETATM   11  C   UNL     1      -0.831   7.605 -29.755  1.00  0.00     0.030 A 
HETATM   12  N   UNL     1      -3.259   6.989 -30.013  1.00  0.00    -0.364 N 
HETATM   13  C   UNL     1       0.458   7.199 -30.114  1.00  0.00     0.002 A 
HETATM   14  C   UNL     1       0.661   6.068 -30.900  1.00  0.00     0.001 A 
HETATM   15  H   UNL     1      -3.676   7.731 -29.467  1.00  0.00     0.165 HD
HETATM   16  C   UNL     1      -3.950   5.995 -30.650  1.00  0.00     0.102 A 
ENDBRANCH   6   7
ENDBRANCH   2   5
BRANCH   1  17
HETATM   17  C   UNL     1      -3.721  -0.558 -33.132  1.00  0.00     0.280 C 
BRANCH  17  18
HETATM   18  O   UNL     1      -4.762  -1.405 -32.639  1.00  0.00    -0.341 OA
BRANCH  18  19
HETATM   19  C   UNL     1      -4.744  -2.595 -33.329  1.00  0.00     0.081 A 
HETATM   20  C   UNL     1      -3.839  -3.606 -32.967  1.00  0.00    -0.028 A 
HETATM   21  C   UNL     1      -2.851  -3.436 -31.850  1.00  0.00     0.051 C 
HETATM   22  C   UNL     1      -3.893  -4.829 -33.650  1.00  0.00     0.009 A 
HETATM   23  C   UNL     1      -4.786  -5.015 -34.706  1.00  0.00     0.001 A 
HETATM   24  C   UNL     1      -5.633  -3.980 -35.097  1.00  0.00     0.009 A 
HETATM   25  C   UNL     1      -5.624  -2.756 -34.414  1.00  0.00    -0.028 A 
HETATM   26  C   UNL     1      -6.507  -1.636 -34.885  1.00  0.00     0.051 C 
ENDBRANCH  18  19
ENDBRANCH  17  18
ENDBRANCH   1  17
TORSDOF 5
ENDMDL
MODEL 5
REMARK VINA RESULT:      -8.2      4.696      7.313
REMARK  5 active torsions:
REMARK  status: ('A' for Active; 'I' for Inactive)
REMARK    1  A    between atoms: C_3  and  O_4 
REMARK    2  A    between atoms: O_4  and  C_5 
REMARK    3  A    between atoms: C_5  and  C_6 
REMARK       I    between atoms: C_6  and  N_7 
REMARK    4  A    between atoms: N_7  and  N_8 
REMARK    5  A    between atoms: C_9  and  C_10 
ROOT
HETATM    1  C   UNL     1      -5.866   0.284 -32.091  1.00  0.00     0.261 C 
HETATM    2  N   UNL     1      -7.186  -0.063 -32.360  1.00  0.00    -0.246 N 
HETATM    3  O   UNL     1      -5.424   1.430 -32.012  1.00  0.00    -0.269 OA
HETATM    4  H   UNL     1      -7.460  -1.017 -32.126  1.00  0.00     0.192 HD
ENDROOT
BRANCH   2   5
HETATM    5  N   UNL     1      -8.236   0.824 -32.467  1.00  0.00    -0.184 NA
HETATM    6  C   UNL     1      -9.307   0.419 -33.074  1.00  0.00     0.152 C 
BRANCH   6   7
HETATM    7  C   UNL     1     -10.425   1.324 -33.261  1.00  0.00     0.011 A 
HETATM    8  C   UNL     1     -11.797   0.954 -33.447  1.00  0.00     0.004 A 
HETATM    9  C   UNL     1     -12.534   2.133 -33.579  1.00  0.00     0.043 A 
HETATM   10  C   UNL     1     -12.482  -0.278 -33.523  1.00  0.00     0.014 A 
HETATM   11  C   UNL     1     -13.921   2.140 -33.773  1.00  0.00     0.030 A 
HETATM   12  N   UNL     1     -11.645   3.177 -33.482  1.00  0.00    -0.364 N 
HETATM   13  C   UNL     1     -14.575   0.905 -33.841  1.00  0.00     0.002 A 
HETATM   14  C   UNL     1     -13.868  -0.287 -33.719  1.00  0.00     0.001 A 
HETATM   15  H   UNL     1     -11.899   4.154 -33.547  1.00  0.00     0.165 HD
HETATM   16  C   UNL     1     -10.374   2.704 -33.295  1.00  0.00     0.102 A 
ENDBRANCH   6   7
ENDBRANCH   2   5
BRANCH   1  17
HETATM   17  C   UNL     1      -4.940  -0.920 -31.960  1.00  0.00     0.280 C 
BRANCH  17  18
HETATM   18  O   UNL     1      -4.218  -1.183 -33.166  1.00  0.00    -0.341 OA
BRANCH  18  19
HETATM   19  C   UNL     1      -4.437  -2.486 -33.551  1.00  0.00     0.081 A 
HETATM   20  C   UNL     1      -5.424  -2.783 -34.506  1.00  0.00    -0.028 A 
HETATM   21  C   UNL     1      -6.287  -1.721 -35.123  1.00  0.00     0.051 C 
HETATM   22  C   UNL     1      -5.575  -4.113 -34.921  1.00  0.00     0.009 A 
HETATM   23  C   UNL     1      -4.803  -5.127 -34.354  1.00  0.00     0.001 A 
HETATM   24  C   UNL     1      -3.873  -4.826 -33.360  1.00  0.00     0.009 A 
HETATM   25  C   UNL     1      -3.677  -3.502 -32.946  1.00  0.00    -0.028 A 
HETATM   26  C   UNL     1      -2.708  -3.207 -31.836  1.00  0.00     0.051 C 
ENDBRANCH  18  19
ENDBRANCH  17  18
ENDBRANCH   1  17
TORSDOF 5
ENDMDL
MODEL 6
REMARK VINA RESULT:      -8.1      2.210      8.928
REMARK  5 active torsions:
REMARK  status: ('A' for Active; 'I' for Inactive)
REMARK    1  A    between atoms: C_3  and  O_4 
REMARK    2  A    between atoms: O_4  and  C_5 
REMARK    3  A    between atoms: C_5  and  C_6 
REMARK       I    between atoms: C_6  and  N_7 
REMARK    4  A    between atoms: N_7  and  N_8 
REMARK    5  A    between atoms: C_9  and  C_10 
ROOT
HETATM    1  C   UNL     1      -4.673   3.049 -31.608  1.00  0.00     0.261 C 
HETATM    2  N   UNL     1      -4.328   2.143 -32.606  1.00  0.00    -0.246 N 
HETATM    3  O   UNL     1      -5.794   3.188 -31.118  1.00  0.00    -0.269 OA
HETATM    4  H   UNL     1      -3.333   1.949 -32.716  1.00  0.00     0.192 HD
ENDROOT
BRANCH   2   5
HETATM    5  N   UNL     1      -5.161   1.176 -33.126  1.00  0.00    -0.184 NA
HETATM    6  C   UNL     1      -4.688  -0.025 -33.246  1.00  0.00     0.152 C 
BRANCH   6   7
HETATM    7  C   UNL     1      -5.501  -1.073 -33.833  1.00  0.00     0.011 A 
HETATM    8  C   UNL     1      -5.130  -2.448 -33.993  1.00  0.00     0.004 A 
HETATM    9  C   UNL     1      -6.207  -3.105 -34.592  1.00  0.00     0.043 A 
HETATM   10  C   UNL     1      -3.972  -3.197 -33.690  1.00  0.00     0.014 A 
HETATM   11  C   UNL     1      -6.186  -4.473 -34.894  1.00  0.00     0.030 A 
HETATM   12  N   UNL     1      -7.191  -2.166 -34.792  1.00  0.00    -0.364 N 
HETATM   13  C   UNL     1      -5.028  -5.190 -34.580  1.00  0.00     0.002 A 
HETATM   14  C   UNL     1      -3.935  -4.564 -33.988  1.00  0.00     0.001 A 
HETATM   15  H   UNL     1      -8.089  -2.358 -35.216  1.00  0.00     0.165 HD
HETATM   16  C   UNL     1      -6.777  -0.941 -34.344  1.00  0.00     0.102 A 
ENDBRANCH   6   7
ENDBRANCH   2   5
BRANCH   1  17
HETATM   17  C   UNL     1      -3.520   3.953 -31.188  1.00  0.00     0.280 C 
BRANCH  17  18
HETATM   18  O   UNL     1      -2.381   3.813 -32.042  1.00  0.00    -0.341 OA
BRANCH  18  19
HETATM   19  C   UNL     1      -1.921   5.061 -32.392  1.00  0.00     0.081 A 
HETATM   20  C   UNL     1      -2.417   5.699 -33.542  1.00  0.00    -0.028 A 
HETATM   21  C   UNL     1      -3.433   5.056 -34.440  1.00  0.00     0.051 C 
HETATM   22  C   UNL     1      -1.974   6.997 -33.831  1.00  0.00     0.009 A 
HETATM   23  C   UNL     1      -1.016   7.617 -33.028  1.00  0.00     0.001 A 
HETATM   24  C   UNL     1      -0.484   6.946 -31.928  1.00  0.00     0.009 A 
HETATM   25  C   UNL     1      -0.930   5.660 -31.595  1.00  0.00    -0.028 A 
HETATM   26  C   UNL     1      -0.305   4.934 -30.437  1.00  0.00     0.051 C 
ENDBRANCH  18  19
ENDBRANCH  17  18
ENDBRANCH   1  17
TORSDOF 5
ENDMDL
MODEL 7
REMARK VINA RESULT:      -8.0      6.054      9.232
REMARK  5 active torsions:
REMARK  status: ('A' for Active; 'I' for Inactive)
REMARK    1  A    between atoms: C_3  and  O_4 
REMARK    2  A    between atoms: O_4  and  C_5 
REMARK    3  A    between atoms: C_5  and  C_6 
REMARK       I    between atoms: C_6  and  N_7 
REMARK    4  A    between atoms: N_7  and  N_8 
REMARK    5  A    between atoms: C_9  and  C_10 
ROOT
HETATM    1  C   UNL     1     -10.062   1.131 -33.340  1.00  0.00     0.261 C 
HETATM    2  N   UNL     1      -8.839   1.453 -33.919  1.00  0.00    -0.246 N 
HETATM    3  O   UNL     1     -10.453  -0.004 -33.067  1.00  0.00    -0.269 OA
HETATM    4  H   UNL     1      -8.541   2.424 -33.835  1.00  0.00     0.192 HD
ENDROOT
BRANCH   2   5
HETATM    5  N   UNL     1      -7.820   0.561 -34.175  1.00  0.00    -0.184 NA
HETATM    6  C   UNL     1      -7.047   0.230 -33.188  1.00  0.00     0.152 C 
BRANCH   6   7
HETATM    7  C   UNL     1      -5.928  -0.666 -33.407  1.00  0.00     0.011 A 
HETATM    8  C   UNL     1      -5.988  -1.979 -33.977  1.00  0.00     0.004 A 
HETATM    9  C   UNL     1      -4.686  -2.481 -34.011  1.00  0.00     0.043 A 
HETATM   10  C   UNL     1      -7.034  -2.793 -34.464  1.00  0.00     0.014 A 
HETATM   11  C   UNL     1      -4.377  -3.752 -34.514  1.00  0.00     0.030 A 
HETATM   12  N   UNL     1      -3.867  -1.514 -33.477  1.00  0.00    -0.364 N 
HETATM   13  C   UNL     1      -5.432  -4.535 -34.992  1.00  0.00     0.002 A 
HETATM   14  C   UNL     1      -6.742  -4.066 -34.968  1.00  0.00     0.001 A 
HETATM   15  H   UNL     1      -2.865  -1.606 -33.371  1.00  0.00     0.165 HD
HETATM   16  C   UNL     1      -4.602  -0.421 -33.107  1.00  0.00     0.102 A 
ENDBRANCH   6   7
ENDBRANCH   2   5
BRANCH   1  17
HETATM   17  C   UNL     1     -10.962   2.341 -33.116  1.00  0.00     0.280 C 
BRANCH  17  18
HETATM   18  O   UNL     1     -12.007   2.428 -34.089  1.00  0.00    -0.341 OA
BRANCH  18  19
HETATM   19  C   UNL     1     -13.205   2.641 -33.449  1.00  0.00     0.081 A 
HETATM   20  C   UNL     1     -14.124   1.588 -33.301  1.00  0.00    -0.028 A 
HETATM   21  C   UNL     1     -13.861   0.214 -33.843  1.00  0.00     0.051 C 
HETATM   22  C   UNL     1     -15.306   1.826 -32.586  1.00  0.00     0.009 A 
HETATM   23  C   UNL     1     -15.591   3.097 -32.085  1.00  0.00     0.001 A 
HETATM   24  C   UNL     1     -14.700   4.148 -32.296  1.00  0.00     0.009 A 
HETATM   25  C   UNL     1     -13.496   3.935 -32.980  1.00  0.00    -0.028 A 
HETATM   26  C   UNL     1     -12.576   5.093 -33.243  1.00  0.00     0.051 C 
ENDBRANCH  18  19
ENDBRANCH  17  18
ENDBRANCH   1  17
TORSDOF 5
ENDMDL
MODEL 8
REMARK VINA RESULT:      -8.0      1.294      2.134
REMARK  5 active torsions:
REMARK  status: ('A' for Active; 'I' for Inactive)
REMARK    1  A    between atoms: C_3  and  O_4 
REMARK    2  A    between atoms: O_4  and  C_5 
REMARK    3  A    between atoms: C_5  and  C_6 
REMARK       I    between atoms: C_6  and  N_7 
REMARK    4  A    between atoms: N_7  and  N_8 
REMARK    5  A    between atoms: C_9  and  C_10 
ROOT
HETATM    1  C   UNL     1      -6.586   0.090 -32.709  1.00  0.00     0.261 C 
HETATM    2  N   UNL     1      -5.585   0.923 -33.197  1.00  0.00    -0.246 N 
HETATM    3  O   UNL     1      -7.344   0.346 -31.773  1.00  0.00    -0.269 OA
HETATM    4  H   UNL     1      -5.229   0.705 -34.128  1.00  0.00     0.192 HD
ENDROOT
BRANCH   2   5
HETATM    5  N   UNL     1      -5.357   2.219 -32.787  1.00  0.00    -0.184 NA
HETATM    6  C   UNL     1      -4.127   2.623 -32.721  1.00  0.00     0.152 C 
BRANCH   6   7
HETATM    7  C   UNL     1      -3.823   3.960 -32.248  1.00  0.00     0.011 A 
HETATM    8  C   UNL     1      -2.924   4.894 -32.858  1.00  0.00     0.004 A 
HETATM    9  C   UNL     1      -2.937   6.055 -32.082  1.00  0.00     0.043 A 
HETATM   10  C   UNL     1      -2.091   4.858 -33.997  1.00  0.00     0.014 A 
HETATM   11  C   UNL     1      -2.168   7.183 -32.395  1.00  0.00     0.030 A 
HETATM   12  N   UNL     1      -3.806   5.834 -31.040  1.00  0.00    -0.364 N 
HETATM   13  C   UNL     1      -1.354   7.120 -33.531  1.00  0.00     0.002 A 
HETATM   14  C   UNL     1      -1.314   5.976 -34.321  1.00  0.00     0.001 A 
HETATM   15  H   UNL     1      -4.011   6.506 -30.312  1.00  0.00     0.165 HD
HETATM   16  C   UNL     1      -4.341   4.577 -31.126  1.00  0.00     0.102 A 
ENDBRANCH   6   7
ENDBRANCH   2   5
BRANCH   1  17
HETATM   17  C   UNL     1      -6.638  -1.265 -33.406  1.00  0.00     0.280 C 
BRANCH  17  18
HETATM   18  O   UNL     1      -5.525  -1.467 -34.282  1.00  0.00    -0.341 OA
BRANCH  18  19
HETATM   19  C   UNL     1      -4.914  -2.660 -33.970  1.00  0.00     0.081 A 
HETATM   20  C   UNL     1      -3.837  -2.686 -33.069  1.00  0.00    -0.028 A 
HETATM   21  C   UNL     1      -3.294  -1.439 -32.433  1.00  0.00     0.051 C 
HETATM   22  C   UNL     1      -3.281  -3.926 -32.725  1.00  0.00     0.009 A 
HETATM   23  C   UNL     1      -3.749  -5.102 -33.311  1.00  0.00     0.001 A 
HETATM   24  C   UNL     1      -4.775  -5.054 -34.254  1.00  0.00     0.009 A 
HETATM   25  C   UNL     1      -5.371  -3.833 -34.596  1.00  0.00    -0.028 A 
HETATM   26  C   UNL     1      -6.439  -3.798 -35.653  1.00  0.00     0.051 C 
ENDBRANCH  18  19
ENDBRANCH  17  18
ENDBRANCH   1  17
TORSDOF 5
ENDMDL
MODEL 9
REMARK VINA RESULT:      -7.9      5.114      7.387
REMARK  5 active torsions:
REMARK  status: ('A' for Active; 'I' for Inactive)
REMARK    1  A    between atoms: C_3  and  O_4 
REMARK    2  A    between atoms: O_4  and  C_5 
REMARK    3  A    between atoms: C_5  and  C_6 
REMARK       I    between atoms: C_6  and  N_7 
REMARK    4  A    between atoms: N_7  and  N_8 
REMARK    5  A    between atoms: C_9  and  C_10 
ROOT
HETATM    1  C   UNL     1      -6.735   0.538 -31.274  1.00  0.00     0.261 C 
HETATM    2  N   UNL     1      -7.851   0.287 -32.064  1.00  0.00    -0.246 N 
HETATM    3  O   UNL     1      -6.608   1.473 -30.483  1.00  0.00    -0.269 OA
HETATM    4  H   UNL     1      -7.927  -0.652 -32.455  1.00  0.00     0.192 HD
ENDROOT
BRANCH   2   5
HETATM    5  N   UNL     1      -9.041   0.979 -32.004  1.00  0.00    -0.184 NA
HETATM    6  C   UNL     1      -9.673   1.189 -33.117  1.00  0.00     0.152 C 
BRANCH   6   7
HETATM    7  C   UNL     1     -10.905   1.955 -33.122  1.00  0.00     0.011 A 
HETATM    8  C   UNL     1     -12.222   1.446 -33.366  1.00  0.00     0.004 A 
HETATM    9  C   UNL     1     -13.110   2.519 -33.267  1.00  0.00     0.043 A 
HETATM   10  C   UNL     1     -12.743   0.169 -33.669  1.00  0.00     0.014 A 
HETATM   11  C   UNL     1     -14.492   2.376 -33.448  1.00  0.00     0.030 A 
HETATM   12  N   UNL     1     -12.362   3.637 -32.980  1.00  0.00    -0.364 N 
HETATM   13  C   UNL     1     -14.981   1.100 -33.744  1.00  0.00     0.002 A 
HETATM   14  C   UNL     1     -14.121   0.011 -33.855  1.00  0.00     0.001 A 
HETATM   15  H   UNL     1     -12.744   4.565 -32.857  1.00  0.00     0.165 HD
HETATM   16  C   UNL     1     -11.036   3.311 -32.894  1.00  0.00     0.102 A 
ENDBRANCH   6   7
ENDBRANCH   2   5
BRANCH   1  17
HETATM   17  C   UNL     1      -5.590  -0.439 -31.517  1.00  0.00     0.280 C 
BRANCH  17  18
HETATM   18  O   UNL     1      -5.037  -0.312 -32.830  1.00  0.00    -0.341 OA
BRANCH  18  19
HETATM   19  C   UNL     1      -4.935  -1.559 -33.402  1.00  0.00     0.081 A 
HETATM   20  C   UNL     1      -3.932  -2.448 -32.980  1.00  0.00    -0.028 A 
HETATM   21  C   UNL     1      -2.928  -2.083 -31.926  1.00  0.00     0.051 C 
HETATM   22  C   UNL     1      -3.898  -3.733 -33.539  1.00  0.00     0.009 A 
HETATM   23  C   UNL     1      -4.804  -4.099 -34.535  1.00  0.00     0.001 A 
HETATM   24  C   UNL     1      -5.752  -3.184 -34.990  1.00  0.00     0.009 A 
HETATM   25  C   UNL     1      -5.831  -1.902 -34.429  1.00  0.00    -0.028 A 
HETATM   26  C   UNL     1      -6.824  -0.914 -34.971  1.00  0.00     0.051 C 
ENDBRANCH  18  19
ENDBRANCH  17  18
ENDBRANCH   1  17
TORSDOF 5
ENDMDL
MODEL 10
REMARK VINA RESULT:      -7.9      6.027      9.093
REMARK  5 active torsions:
REMARK  status: ('A' for Active; 'I' for Inactive)
REMARK    1  A    between atoms: C_3  and  O_4 
REMARK    2  A    between atoms: O_4  and  C_5 
REMARK    3  A    between atoms: C_5  and  C_6 
REMARK       I    between atoms: C_6  and  N_7 
REMARK    4  A    between atoms: N_7  and  N_8 
REMARK    5  A    between atoms: C_9  and  C_10 
ROOT
HETATM    1  C   UNL     1      -9.701   3.148 -33.043  1.00  0.00     0.261 C 
HETATM    2  N   UNL     1      -9.205   1.896 -32.697  1.00  0.00    -0.246 N 
HETATM    3  O   UNL     1      -9.127   3.982 -33.743  1.00  0.00    -0.269 OA
HETATM    4  H   UNL     1      -9.886   1.219 -32.354  1.00  0.00     0.192 HD
ENDROOT
BRANCH   2   5
HETATM    5  N   UNL     1      -8.038   1.341 -33.176  1.00  0.00    -0.184 NA
HETATM    6  C   UNL     1      -7.677   0.191 -32.700  1.00  0.00     0.152 C 
BRANCH   6   7
HETATM    7  C   UNL     1      -6.433  -0.418 -33.130  1.00  0.00     0.011 A 
HETATM    8  C   UNL     1      -6.290  -1.671 -33.811  1.00  0.00     0.004 A 
HETATM    9  C   UNL     1      -4.928  -1.869 -34.042  1.00  0.00     0.043 A 
HETATM   10  C   UNL     1      -7.196  -2.662 -34.249  1.00  0.00     0.014 A 
HETATM   11  C   UNL     1      -4.427  -3.003 -34.695  1.00  0.00     0.030 A 
HETATM   12  N   UNL     1      -4.267  -0.782 -33.517  1.00  0.00    -0.364 N 
HETATM   13  C   UNL     1      -5.347  -3.966 -35.120  1.00  0.00     0.002 A 
HETATM   14  C   UNL     1      -6.711  -3.801 -34.901  1.00  0.00     0.001 A 
HETATM   15  H   UNL     1      -3.264  -0.658 -33.535  1.00  0.00     0.165 HD
HETATM   16  C   UNL     1      -5.161   0.094 -32.963  1.00  0.00     0.102 A 
ENDBRANCH   6   7
ENDBRANCH   2   5
BRANCH   1  17
HETATM   17  C   UNL     1     -11.051   3.460 -32.407  1.00  0.00     0.280 C 
BRANCH  17  18
HETATM   18  O   UNL     1     -12.029   3.854 -33.373  1.00  0.00    -0.341 OA
BRANCH  18  19
HETATM   19  C   UNL     1     -13.118   3.019 -33.283  1.00  0.00     0.081 A 
HETATM   20  C   UNL     1     -14.016   3.145 -32.209  1.00  0.00    -0.028 A 
HETATM   21  C   UNL     1     -13.824   4.157 -31.118  1.00  0.00     0.051 C 
HETATM   22  C   UNL     1     -15.149   2.320 -32.184  1.00  0.00     0.009 A 
HETATM   23  C   UNL     1     -15.349   1.356 -33.172  1.00  0.00     0.001 A 
HETATM   24  C   UNL     1     -14.416   1.198 -34.195  1.00  0.00     0.009 A 
HETATM   25  C   UNL     1     -13.289   2.028 -34.265  1.00  0.00    -0.028 A 
HETATM   26  C   UNL     1     -12.268   1.806 -35.346  1.00  0.00     0.051 C 
ENDBRANCH  18  19
ENDBRANCH  17  18
ENDBRANCH   1  17
TORSDOF 5
ENDMDL
