MODEL 1
REMARK VINA RESULT:      -9.8      0.000      0.000
REMARK  6 active torsions:
REMARK  status: ('A' for Active; 'I' for Inactive)
REMARK    1  A    between atoms: C_2  and  O_3 
REMARK    2  A    between atoms: O_3  and  C_4 
REMARK    3  A    between atoms: C_5  and  C_6 
REMARK    4  A    between atoms: N_7  and  N_8 
REMARK       I    between atoms: N_8  and  C_9 
REMARK    5  A    between atoms: C_9  and  C_10 
REMARK    6  A    between atoms: C_14  and  C_15 
ROOT
HETATM    1  C   UNL     1      -3.436   4.250 -31.440  1.00  0.00     0.121 A 
HETATM    2  N   UNL     1      -4.379   3.793 -30.560  1.00  0.00    -0.272 N 
HETATM    3  H   UNL     1      -4.744   4.287 -29.751  1.00  0.00     0.189 HD
HETATM    4  N   UNL     1      -4.817   2.551 -30.817  1.00  0.00    -0.174 NA
HETATM    5  C   UNL     1      -4.125   2.168 -31.901  1.00  0.00     0.090 A 
HETATM    6  C   UNL     1      -3.296   3.228 -32.359  1.00  0.00     0.071 A 
ENDROOT
BRANCH   1   7
HETATM    7  C   UNL     1      -2.806   5.540 -31.269  1.00  0.00     0.289 C 
HETATM    8  N   UNL     1      -1.747   5.530 -30.371  1.00  0.00    -0.242 N 
HETATM    9  H   UNL     1      -1.486   4.646 -29.953  1.00  0.00     0.192 HD
HETATM   10  O   UNL     1      -3.233   6.518 -31.870  1.00  0.00    -0.264 OA
BRANCH   8  11
HETATM   11  N   UNL     1      -1.052   6.578 -29.828  1.00  0.00    -0.183 NA
HETATM   12  C   UNL     1      -1.100   6.840 -28.561  1.00  0.00     0.153 C 
BRANCH  12  13
HETATM   13  C   UNL     1      -0.290   7.944 -27.985  1.00  0.00     0.016 A 
HETATM   14  C   UNL     1      -0.866   9.205 -27.751  1.00  0.00     0.080 A 
HETATM   15  C   UNL     1      -0.078  10.211 -27.178  1.00  0.00     0.037 A 
HETATM   16  C   UNL     1       1.261   9.968 -26.850  1.00  0.00     0.003 A 
HETATM   17  C   UNL     1       1.826   8.719 -27.091  1.00  0.00     0.001 A 
HETATM   18  C   UNL     1       1.054   7.708 -27.656  1.00  0.00     0.016 A 
BRANCH  14  19
HETATM   19  O   UNL     1      -2.182   9.361 -28.098  1.00  0.00    -0.351 OA
BRANCH  19  20
HETATM   20  C   UNL     1      -2.522  10.433 -28.975  1.00  0.00     0.171 C 
HETATM   21  C   UNL     1      -2.497   9.899 -30.395  1.00  0.00     0.034 C 
ENDBRANCH  19  20
ENDBRANCH  14  19
ENDBRANCH  12  13
ENDBRANCH   8  11
ENDBRANCH   1   7
BRANCH   5  22
HETATM   22  C   UNL     1      -4.284   0.837 -32.488  1.00  0.00     0.005 A 
HETATM   23  C   UNL     1      -5.356   0.523 -33.377  1.00  0.00    -0.012 A 
HETATM   24  C   UNL     1      -5.418  -0.782 -33.800  1.00  0.00    -0.012 A 
HETATM   25  C   UNL     1      -6.365   1.369 -33.913  1.00  0.00     0.013 A 
HETATM   26  C   UNL     1      -6.388  -1.283 -34.650  1.00  0.00    -0.046 A 
HETATM   27  C   UNL     1      -4.510  -1.762 -33.446  1.00  0.00    -0.046 A 
HETATM   28  C   UNL     1      -7.394  -0.476 -35.158  1.00  0.00     0.008 A 
HETATM   29  C   UNL     1      -6.155  -2.731 -34.906  1.00  0.00     0.044 A 
HETATM   30  C   UNL     1      -7.361   0.871 -34.777  1.00  0.00     0.001 A 
HETATM   31  C   UNL     1      -4.864  -3.056 -34.094  1.00  0.00     0.044 A 
HETATM   32  C   UNL     1      -3.438  -1.486 -32.612  1.00  0.00     0.009 A 
HETATM   33  C   UNL     1      -3.344  -0.167 -32.139  1.00  0.00     0.015 A 
ENDBRANCH   5  22
TORSDOF 6
ENDMDL
MODEL 2
REMARK VINA RESULT:      -9.5      1.094      2.373
REMARK  6 active torsions:
REMARK  status: ('A' for Active; 'I' for Inactive)
REMARK    1  A    between atoms: C_2  and  O_3 
REMARK    2  A    between atoms: O_3  and  C_4 
REMARK    3  A    between atoms: C_5  and  C_6 
REMARK    4  A    between atoms: N_7  and  N_8 
REMARK       I    between atoms: N_8  and  C_9 
REMARK    5  A    between atoms: C_9  and  C_10 
REMARK    6  A    between atoms: C_14  and  C_15 
ROOT
HETATM    1  C   UNL     1      -3.046   4.004 -31.582  1.00  0.00     0.121 A 
HETATM    2  N   UNL     1      -4.157   3.895 -30.793  1.00  0.00    -0.272 N 
HETATM    3  H   UNL     1      -4.373   4.448 -29.967  1.00  0.00     0.189 HD
HETATM    4  N   UNL     1      -5.009   2.929 -31.169  1.00  0.00    -0.174 NA
HETATM    5  C   UNL     1      -4.430   2.368 -32.241  1.00  0.00     0.090 A 
HETATM    6  C   UNL     1      -3.229   3.056 -32.570  1.00  0.00     0.071 A 
ENDROOT
BRANCH   1   7
HETATM    7  C   UNL     1      -1.992   4.945 -31.278  1.00  0.00     0.289 C 
HETATM    8  N   UNL     1      -2.222   5.689 -30.128  1.00  0.00    -0.242 N 
HETATM    9  H   UNL     1      -3.059   5.492 -29.594  1.00  0.00     0.192 HD
HETATM   10  O   UNL     1      -1.025   5.048 -32.022  1.00  0.00    -0.264 OA
BRANCH   8  11
HETATM   11  N   UNL     1      -1.551   6.781 -29.645  1.00  0.00    -0.183 NA
HETATM   12  C   UNL     1      -1.086   6.809 -28.437  1.00  0.00     0.153 C 
BRANCH  12  13
HETATM   13  C   UNL     1      -0.308   7.980 -27.952  1.00  0.00     0.016 A 
HETATM   14  C   UNL     1      -0.966   9.099 -27.411  1.00  0.00     0.080 A 
HETATM   15  C   UNL     1      -0.197  10.169 -26.938  1.00  0.00     0.037 A 
HETATM   16  C   UNL     1       1.200  10.128 -27.008  1.00  0.00     0.003 A 
HETATM   17  C   UNL     1       1.844   9.021 -27.551  1.00  0.00     0.001 A 
HETATM   18  C   UNL     1       1.093   7.947 -28.023  1.00  0.00     0.016 A 
BRANCH  14  19
HETATM   19  O   UNL     1      -2.334   9.058 -27.377  1.00  0.00    -0.351 OA
BRANCH  19  20
HETATM   20  C   UNL     1      -2.980   9.263 -26.122  1.00  0.00     0.171 C 
HETATM   21  C   UNL     1      -2.799   8.004 -25.294  1.00  0.00     0.034 C 
ENDBRANCH  19  20
ENDBRANCH  14  19
ENDBRANCH  12  13
ENDBRANCH   8  11
ENDBRANCH   1   7
BRANCH   5  22
HETATM   22  C   UNL     1      -5.031   1.231 -32.939  1.00  0.00     0.005 A 
HETATM   23  C   UNL     1      -4.505  -0.092 -32.827  1.00  0.00    -0.012 A 
HETATM   24  C   UNL     1      -5.130  -1.049 -33.588  1.00  0.00    -0.012 A 
HETATM   25  C   UNL     1      -3.437  -0.576 -32.024  1.00  0.00     0.013 A 
HETATM   26  C   UNL     1      -4.760  -2.381 -33.627  1.00  0.00    -0.046 A 
HETATM   27  C   UNL     1      -6.222  -0.810 -34.401  1.00  0.00    -0.046 A 
HETATM   28  C   UNL     1      -3.703  -2.863 -32.871  1.00  0.00     0.008 A 
HETATM   29  C   UNL     1      -5.650  -3.140 -34.548  1.00  0.00     0.044 A 
HETATM   30  C   UNL     1      -3.047  -1.930 -32.057  1.00  0.00     0.001 A 
HETATM   31  C   UNL     1      -6.658  -2.069 -35.067  1.00  0.00     0.044 A 
HETATM   32  C   UNL     1      -6.779   0.454 -34.508  1.00  0.00     0.009 A 
HETATM   33  C   UNL     1      -6.162   1.471 -33.762  1.00  0.00     0.015 A 
ENDBRANCH   5  22
TORSDOF 6
ENDMDL
MODEL 3
REMARK VINA RESULT:      -9.4      1.428      3.221
REMARK  6 active torsions:
REMARK  status: ('A' for Active; 'I' for Inactive)
REMARK    1  A    between atoms: C_2  and  O_3 
REMARK    2  A    between atoms: O_3  and  C_4 
REMARK    3  A    between atoms: C_5  and  C_6 
REMARK    4  A    between atoms: N_7  and  N_8 
REMARK       I    between atoms: N_8  and  C_9 
REMARK    5  A    between atoms: C_9  and  C_10 
REMARK    6  A    between atoms: C_14  and  C_15 
ROOT
HETATM    1  C   UNL     1      -3.725   2.972 -31.821  1.00  0.00     0.121 A 
HETATM    2  N   UNL     1      -4.932   2.791 -31.204  1.00  0.00    -0.272 N 
HETATM    3  H   UNL     1      -5.333   3.371 -30.472  1.00  0.00     0.189 HD
HETATM    4  N   UNL     1      -5.609   1.710 -31.621  1.00  0.00    -0.174 NA
HETATM    5  C   UNL     1      -4.810   1.147 -32.541  1.00  0.00     0.090 A 
HETATM    6  C   UNL     1      -3.649   1.944 -32.740  1.00  0.00     0.071 A 
ENDROOT
BRANCH   1   7
HETATM    7  C   UNL     1      -2.836   4.047 -31.441  1.00  0.00     0.289 C 
HETATM    8  N   UNL     1      -3.476   5.103 -30.807  1.00  0.00    -0.242 N 
HETATM    9  H   UNL     1      -4.470   5.021 -30.632  1.00  0.00     0.192 HD
HETATM   10  O   UNL     1      -1.643   3.983 -31.710  1.00  0.00    -0.264 OA
BRANCH   8  11
HETATM   11  N   UNL     1      -3.000   6.346 -30.483  1.00  0.00    -0.183 NA
HETATM   12  C   UNL     1      -3.368   6.950 -29.399  1.00  0.00     0.153 C 
BRANCH  12  13
HETATM   13  C   UNL     1      -2.793   8.272 -29.036  1.00  0.00     0.016 A 
HETATM   14  C   UNL     1      -1.835   8.376 -28.011  1.00  0.00     0.080 A 
HETATM   15  C   UNL     1      -1.294   9.634 -27.719  1.00  0.00     0.037 A 
HETATM   16  C   UNL     1      -1.703  10.768 -28.430  1.00  0.00     0.003 A 
HETATM   17  C   UNL     1      -2.656  10.659 -29.438  1.00  0.00     0.001 A 
HETATM   18  C   UNL     1      -3.201   9.413 -29.742  1.00  0.00     0.016 A 
BRANCH  14  19
HETATM   19  O   UNL     1      -1.488   7.219 -27.366  1.00  0.00    -0.351 OA
BRANCH  19  20
HETATM   20  C   UNL     1      -0.108   6.861 -27.327  1.00  0.00     0.171 C 
HETATM   21  C   UNL     1       0.217   6.119 -28.610  1.00  0.00     0.034 C 
ENDBRANCH  19  20
ENDBRANCH  14  19
ENDBRANCH  12  13
ENDBRANCH   8  11
ENDBRANCH   1   7
BRANCH   5  22
HETATM   22  C   UNL     1      -5.171  -0.097 -33.221  1.00  0.00     0.005 A 
HETATM   23  C   UNL     1      -4.498  -1.329 -32.957  1.00  0.00    -0.012 A 
HETATM   24  C   UNL     1      -4.898  -2.402 -33.716  1.00  0.00    -0.012 A 
HETATM   25  C   UNL     1      -3.485  -1.621 -32.004  1.00  0.00     0.013 A 
HETATM   26  C   UNL     1      -4.360  -3.672 -33.618  1.00  0.00    -0.046 A 
HETATM   27  C   UNL     1      -5.902  -2.356 -34.664  1.00  0.00    -0.046 A 
HETATM   28  C   UNL     1      -3.352  -3.965 -32.713  1.00  0.00     0.008 A 
HETATM   29  C   UNL     1      -5.026  -4.593 -34.580  1.00  0.00     0.044 A 
HETATM   30  C   UNL     1      -2.925  -2.910 -31.896  1.00  0.00     0.001 A 
HETATM   31  C   UNL     1      -6.090  -3.697 -35.286  1.00  0.00     0.044 A 
HETATM   32  C   UNL     1      -6.599  -1.186 -34.923  1.00  0.00     0.009 A 
HETATM   33  C   UNL     1      -6.212  -0.057 -34.184  1.00  0.00     0.015 A 
ENDBRANCH   5  22
TORSDOF 6
ENDMDL
MODEL 4
REMARK VINA RESULT:      -9.1      0.885      2.091
REMARK  6 active torsions:
REMARK  status: ('A' for Active; 'I' for Inactive)
REMARK    1  A    between atoms: C_2  and  O_3 
REMARK    2  A    between atoms: O_3  and  C_4 
REMARK    3  A    between atoms: C_5  and  C_6 
REMARK    4  A    between atoms: N_7  and  N_8 
REMARK       I    between atoms: N_8  and  C_9 
REMARK    5  A    between atoms: C_9  and  C_10 
REMARK    6  A    between atoms: C_14  and  C_15 
ROOT
HETATM    1  C   UNL     1      -3.431   4.218 -31.611  1.00  0.00     0.121 A 
HETATM    2  N   UNL     1      -4.218   3.731 -30.603  1.00  0.00    -0.272 N 
HETATM    3  H   UNL     1      -4.541   4.240 -29.785  1.00  0.00     0.189 HD
HETATM    4  N   UNL     1      -4.549   2.438 -30.737  1.00  0.00    -0.174 NA
HETATM    5  C   UNL     1      -3.945   2.052 -31.872  1.00  0.00     0.090 A 
HETATM    6  C   UNL     1      -3.288   3.156 -32.482  1.00  0.00     0.071 A 
ENDROOT
BRANCH   1   7
HETATM    7  C   UNL     1      -2.925   5.572 -31.587  1.00  0.00     0.289 C 
HETATM    8  N   UNL     1      -2.305   5.916 -30.393  1.00  0.00    -0.242 N 
HETATM    9  H   UNL     1      -2.225   5.204 -29.677  1.00  0.00     0.192 HD
HETATM   10  O   UNL     1      -3.087   6.306 -32.554  1.00  0.00    -0.264 OA
BRANCH   8  11
HETATM   11  N   UNL     1      -1.883   7.140 -29.948  1.00  0.00    -0.183 NA
HETATM   12  C   UNL     1      -2.434   7.717 -28.928  1.00  0.00     0.153 C 
BRANCH  12  13
HETATM   13  C   UNL     1      -1.921   9.018 -28.425  1.00  0.00     0.016 A 
HETATM   14  C   UNL     1      -0.864   9.058 -27.499  1.00  0.00     0.080 A 
HETATM   15  C   UNL     1      -0.389  10.304 -27.072  1.00  0.00     0.037 A 
HETATM   16  C   UNL     1      -0.958  11.488 -27.554  1.00  0.00     0.003 A 
HETATM   17  C   UNL     1      -2.009  11.440 -28.466  1.00  0.00     0.001 A 
HETATM   18  C   UNL     1      -2.490  10.209 -28.902  1.00  0.00     0.016 A 
BRANCH  14  19
HETATM   19  O   UNL     1      -0.361   7.856 -27.078  1.00  0.00    -0.351 OA
BRANCH  19  20
HETATM   20  C   UNL     1       0.981   7.529 -27.435  1.00  0.00     0.171 C 
HETATM   21  C   UNL     1       1.860   7.788 -26.226  1.00  0.00     0.034 C 
ENDBRANCH  19  20
ENDBRANCH  14  19
ENDBRANCH  12  13
ENDBRANCH   8  11
ENDBRANCH   1   7
BRANCH   5  22
HETATM   22  C   UNL     1      -4.027   0.676 -32.362  1.00  0.00     0.005 A 
HETATM   23  C   UNL     1      -5.048   0.253 -33.267  1.00  0.00    -0.012 A 
HETATM   24  C   UNL     1      -5.041  -1.082 -33.591  1.00  0.00    -0.012 A 
HETATM   25  C   UNL     1      -6.063   1.014 -33.906  1.00  0.00     0.013 A 
HETATM   26  C   UNL     1      -5.953  -1.685 -34.439  1.00  0.00    -0.046 A 
HETATM   27  C   UNL     1      -4.113  -1.994 -33.127  1.00  0.00    -0.046 A 
HETATM   28  C   UNL     1      -6.967  -0.960 -35.047  1.00  0.00     0.008 A 
HETATM   29  C   UNL     1      -5.655  -3.137 -34.574  1.00  0.00     0.044 A 
HETATM   30  C   UNL     1      -7.001   0.412 -34.769  1.00  0.00     0.001 A 
HETATM   31  C   UNL     1      -4.389  -3.347 -33.688  1.00  0.00     0.044 A 
HETATM   32  C   UNL     1      -3.090  -1.613 -32.274  1.00  0.00     0.009 A 
HETATM   33  C   UNL     1      -3.066  -0.260 -31.899  1.00  0.00     0.015 A 
ENDBRANCH   5  22
TORSDOF 6
ENDMDL
MODEL 5
REMARK VINA RESULT:      -9.0      2.388     10.722
REMARK  6 active torsions:
REMARK  status: ('A' for Active; 'I' for Inactive)
REMARK    1  A    between atoms: C_2  and  O_3 
REMARK    2  A    between atoms: O_3  and  C_4 
REMARK    3  A    between atoms: C_5  and  C_6 
REMARK    4  A    between atoms: N_7  and  N_8 
REMARK       I    between atoms: N_8  and  C_9 
REMARK    5  A    between atoms: C_9  and  C_10 
REMARK    6  A    between atoms: C_14  and  C_15 
ROOT
HETATM    1  C   UNL     1      -3.118   6.466 -33.330  1.00  0.00     0.121 A 
HETATM    2  N   UNL     1      -2.081   7.211 -33.820  1.00  0.00    -0.272 N 
HETATM    3  H   UNL     1      -1.713   7.191 -34.767  1.00  0.00     0.189 HD
HETATM    4  N   UNL     1      -1.502   8.016 -32.915  1.00  0.00    -0.174 NA
HETATM    5  C   UNL     1      -2.177   7.783 -31.778  1.00  0.00     0.090 A 
HETATM    6  C   UNL     1      -3.238   6.865 -32.012  1.00  0.00     0.071 A 
ENDROOT
BRANCH   1   7
HETATM    7  C   UNL     1      -3.805   5.496 -34.151  1.00  0.00     0.289 C 
HETATM    8  N   UNL     1      -4.478   4.523 -33.423  1.00  0.00    -0.242 N 
HETATM    9  H   UNL     1      -4.466   4.593 -32.413  1.00  0.00     0.192 HD
HETATM   10  O   UNL     1      -3.737   5.564 -35.372  1.00  0.00    -0.264 OA
BRANCH   8  11
HETATM   11  N   UNL     1      -5.068   3.363 -33.850  1.00  0.00    -0.183 NA
HETATM   12  C   UNL     1      -5.379   2.417 -33.022  1.00  0.00     0.153 C 
BRANCH  12  13
HETATM   13  C   UNL     1      -6.073   1.193 -33.499  1.00  0.00     0.016 A 
HETATM   14  C   UNL     1      -5.638  -0.080 -33.088  1.00  0.00     0.080 A 
HETATM   15  C   UNL     1      -6.337  -1.208 -33.534  1.00  0.00     0.037 A 
HETATM   16  C   UNL     1      -7.445  -1.072 -34.379  1.00  0.00     0.003 A 
HETATM   17  C   UNL     1      -7.865   0.190 -34.787  1.00  0.00     0.001 A 
HETATM   18  C   UNL     1      -7.182   1.322 -34.348  1.00  0.00     0.016 A 
BRANCH  14  19
HETATM   19  O   UNL     1      -4.548  -0.126 -32.260  1.00  0.00    -0.351 OA
BRANCH  19  20
HETATM   20  C   UNL     1      -3.362  -0.750 -32.747  1.00  0.00     0.171 C 
HETATM   21  C   UNL     1      -3.121  -2.001 -31.923  1.00  0.00     0.034 C 
ENDBRANCH  19  20
ENDBRANCH  14  19
ENDBRANCH  12  13
ENDBRANCH   8  11
ENDBRANCH   1   7
BRANCH   5  22
HETATM   22  C   UNL     1      -1.826   8.446 -30.522  1.00  0.00     0.005 A 
HETATM   23  C   UNL     1      -0.924   7.861 -29.582  1.00  0.00    -0.012 A 
HETATM   24  C   UNL     1      -0.738   8.565 -28.417  1.00  0.00    -0.012 A 
HETATM   25  C   UNL     1      -0.166   6.663 -29.679  1.00  0.00     0.013 A 
HETATM   26  C   UNL     1       0.084   8.158 -27.381  1.00  0.00    -0.046 A 
HETATM   27  C   UNL     1      -1.334   9.779 -28.134  1.00  0.00    -0.046 A 
HETATM   28  C   UNL     1       0.808   6.977 -27.450  1.00  0.00     0.008 A 
HETATM   29  C   UNL     1       0.057   9.155 -26.276  1.00  0.00     0.044 A 
HETATM   30  C   UNL     1       0.672   6.235 -28.630  1.00  0.00     0.001 A 
HETATM   31  C   UNL     1      -0.901  10.270 -26.796  1.00  0.00     0.044 A 
HETATM   32  C   UNL     1      -2.188  10.392 -29.037  1.00  0.00     0.009 A 
HETATM   33  C   UNL     1      -2.424   9.700 -30.236  1.00  0.00     0.015 A 
ENDBRANCH   5  22
TORSDOF 6
ENDMDL
MODEL 6
REMARK VINA RESULT:      -8.9      7.362     11.268
REMARK  6 active torsions:
REMARK  status: ('A' for Active; 'I' for Inactive)
REMARK    1  A    between atoms: C_2  and  O_3 
REMARK    2  A    between atoms: O_3  and  C_4 
REMARK    3  A    between atoms: C_5  and  C_6 
REMARK    4  A    between atoms: N_7  and  N_8 
REMARK       I    between atoms: N_8  and  C_9 
REMARK    5  A    between atoms: C_9  and  C_10 
REMARK    6  A    between atoms: C_14  and  C_15 
ROOT
HETATM    1  C   UNL     1     -10.916   1.333 -33.383  1.00  0.00     0.121 A 
HETATM    2  N   UNL     1     -11.030   0.034 -32.973  1.00  0.00    -0.272 N 
HETATM    3  H   UNL     1     -11.884  -0.517 -32.928  1.00  0.00     0.189 HD
HETATM    4  N   UNL     1      -9.877  -0.522 -32.571  1.00  0.00    -0.174 NA
HETATM    5  C   UNL     1      -8.967   0.455 -32.709  1.00  0.00     0.090 A 
HETATM    6  C   UNL     1      -9.568   1.612 -33.276  1.00  0.00     0.071 A 
ENDROOT
BRANCH   1   7
HETATM    7  C   UNL     1     -12.072   2.104 -33.780  1.00  0.00     0.289 C 
HETATM    8  N   UNL     1     -13.058   2.177 -32.805  1.00  0.00    -0.242 N 
HETATM    9  H   UNL     1     -12.877   1.734 -31.913  1.00  0.00     0.192 HD
HETATM   10  O   UNL     1     -12.128   2.598 -34.900  1.00  0.00    -0.264 OA
BRANCH   8  11
HETATM   11  N   UNL     1     -14.340   2.651 -32.891  1.00  0.00    -0.183 NA
HETATM   12  C   UNL     1     -14.958   3.123 -31.857  1.00  0.00     0.153 C 
BRANCH  12  13
HETATM   13  C   UNL     1     -16.327   3.688 -31.986  1.00  0.00     0.016 A 
HETATM   14  C   UNL     1     -16.555   5.061 -31.786  1.00  0.00     0.080 A 
HETATM   15  C   UNL     1     -17.853   5.560 -31.946  1.00  0.00     0.037 A 
HETATM   16  C   UNL     1     -18.907   4.706 -32.293  1.00  0.00     0.003 A 
HETATM   17  C   UNL     1     -18.676   3.347 -32.482  1.00  0.00     0.001 A 
HETATM   18  C   UNL     1     -17.389   2.837 -32.330  1.00  0.00     0.016 A 
BRANCH  14  19
HETATM   19  O   UNL     1     -15.470   5.828 -31.451  1.00  0.00    -0.351 OA
BRANCH  19  20
HETATM   20  C   UNL     1     -15.475   6.477 -30.181  1.00  0.00     0.171 C 
HETATM   21  C   UNL     1     -14.276   5.978 -29.398  1.00  0.00     0.034 C 
ENDBRANCH  19  20
ENDBRANCH  14  19
ENDBRANCH  12  13
ENDBRANCH   8  11
ENDBRANCH   1   7
BRANCH   5  22
HETATM   22  C   UNL     1      -7.565   0.263 -32.336  1.00  0.00     0.005 A 
HETATM   23  C   UNL     1      -6.708  -0.635 -33.042  1.00  0.00    -0.012 A 
HETATM   24  C   UNL     1      -5.436  -0.762 -32.542  1.00  0.00    -0.012 A 
HETATM   25  C   UNL     1      -6.968  -1.406 -34.207  1.00  0.00     0.013 A 
HETATM   26  C   UNL     1      -4.465  -1.590 -33.076  1.00  0.00    -0.046 A 
HETATM   27  C   UNL     1      -4.953  -0.067 -31.449  1.00  0.00    -0.046 A 
HETATM   28  C   UNL     1      -4.713  -2.370 -34.195  1.00  0.00     0.008 A 
HETATM   29  C   UNL     1      -3.203  -1.483 -32.293  1.00  0.00     0.044 A 
HETATM   30  C   UNL     1      -5.990  -2.257 -34.760  1.00  0.00     0.001 A 
HETATM   31  C   UNL     1      -3.531  -0.431 -31.189  1.00  0.00     0.044 A 
HETATM   32  C   UNL     1      -5.745   0.837 -30.761  1.00  0.00     0.009 A 
HETATM   33  C   UNL     1      -7.062   0.988 -31.225  1.00  0.00     0.015 A 
ENDBRANCH   5  22
TORSDOF 6
ENDMDL
MODEL 7
REMARK VINA RESULT:      -8.8      2.473     10.558
REMARK  6 active torsions:
REMARK  status: ('A' for Active; 'I' for Inactive)
REMARK    1  A    between atoms: C_2  and  O_3 
REMARK    2  A    between atoms: O_3  and  C_4 
REMARK    3  A    between atoms: C_5  and  C_6 
REMARK    4  A    between atoms: N_7  and  N_8 
REMARK       I    between atoms: N_8  and  C_9 
REMARK    5  A    between atoms: C_9  and  C_10 
REMARK    6  A    between atoms: C_14  and  C_15 
ROOT
HETATM    1  C   UNL     1      -3.283   6.386 -33.391  1.00  0.00     0.121 A 
HETATM    2  N   UNL     1      -2.310   7.163 -33.957  1.00  0.00    -0.272 N 
HETATM    3  H   UNL     1      -1.991   7.130 -34.921  1.00  0.00     0.189 HD
HETATM    4  N   UNL     1      -1.726   8.022 -33.108  1.00  0.00    -0.174 NA
HETATM    5  C   UNL     1      -2.329   7.794 -31.931  1.00  0.00     0.090 A 
HETATM    6  C   UNL     1      -3.354   6.821 -32.082  1.00  0.00     0.071 A 
ENDROOT
BRANCH   1   7
HETATM    7  C   UNL     1      -3.964   5.359 -34.146  1.00  0.00     0.289 C 
HETATM    8  N   UNL     1      -4.648   4.445 -33.356  1.00  0.00    -0.242 N 
HETATM    9  H   UNL     1      -4.649   4.590 -32.354  1.00  0.00     0.192 HD
HETATM   10  O   UNL     1      -3.881   5.336 -35.368  1.00  0.00    -0.264 OA
BRANCH   8  11
HETATM   11  N   UNL     1      -5.237   3.258 -33.702  1.00  0.00    -0.183 NA
HETATM   12  C   UNL     1      -5.353   2.287 -32.854  1.00  0.00     0.153 C 
BRANCH  12  13
HETATM   13  C   UNL     1      -6.049   1.030 -33.233  1.00  0.00     0.016 A 
HETATM   14  C   UNL     1      -7.451   0.993 -33.337  1.00  0.00     0.080 A 
HETATM   15  C   UNL     1      -8.068  -0.202 -33.726  1.00  0.00     0.037 A 
HETATM   16  C   UNL     1      -7.303  -1.341 -34.002  1.00  0.00     0.003 A 
HETATM   17  C   UNL     1      -5.917  -1.300 -33.890  1.00  0.00     0.001 A 
HETATM   18  C   UNL     1      -5.289  -0.118 -33.507  1.00  0.00     0.016 A 
BRANCH  14  19
HETATM   19  O   UNL     1      -8.125   2.151 -33.052  1.00  0.00    -0.351 OA
BRANCH  19  20
HETATM   20  C   UNL     1      -9.086   2.126 -31.999  1.00  0.00     0.171 C 
HETATM   21  C   UNL     1      -8.445   2.739 -30.768  1.00  0.00     0.034 C 
ENDBRANCH  19  20
ENDBRANCH  14  19
ENDBRANCH  12  13
ENDBRANCH   8  11
ENDBRANCH   1   7
BRANCH   5  22
HETATM   22  C   UNL     1      -1.947   8.513 -30.715  1.00  0.00     0.005 A 
HETATM   23  C   UNL     1      -1.032   7.964 -29.766  1.00  0.00    -0.012 A 
HETATM   24  C   UNL     1      -0.816   8.721 -28.640  1.00  0.00    -0.012 A 
HETATM   25  C   UNL     1      -0.288   6.755 -29.820  1.00  0.00     0.013 A 
HETATM   26  C   UNL     1       0.022   8.355 -27.602  1.00  0.00    -0.046 A 
HETATM   27  C   UNL     1      -1.394   9.954 -28.404  1.00  0.00    -0.046 A 
HETATM   28  C   UNL     1       0.733   7.165 -27.628  1.00  0.00     0.008 A 
HETATM   29  C   UNL     1       0.027   9.404 -26.545  1.00  0.00     0.044 A 
HETATM   30  C   UNL     1       0.566   6.368 -28.768  1.00  0.00     0.001 A 
HETATM   31  C   UNL     1      -0.930  10.503 -27.099  1.00  0.00     0.044 A 
HETATM   32  C   UNL     1      -2.260  10.532 -29.319  1.00  0.00     0.009 A 
HETATM   33  C   UNL     1      -2.527   9.786 -30.478  1.00  0.00     0.015 A 
ENDBRANCH   5  22
TORSDOF 6
ENDMDL
MODEL 8
REMARK VINA RESULT:      -8.7      7.448     10.450
REMARK  6 active torsions:
REMARK  status: ('A' for Active; 'I' for Inactive)
REMARK    1  A    between atoms: C_2  and  O_3 
REMARK    2  A    between atoms: O_3  and  C_4 
REMARK    3  A    between atoms: C_5  and  C_6 
REMARK    4  A    between atoms: N_7  and  N_8 
REMARK       I    between atoms: N_8  and  C_9 
REMARK    5  A    between atoms: C_9  and  C_10 
REMARK    6  A    between atoms: C_14  and  C_15 
ROOT
HETATM    1  C   UNL     1      -9.324   1.035 -33.814  1.00  0.00     0.121 A 
HETATM    2  N   UNL     1      -8.668   1.265 -34.991  1.00  0.00    -0.272 N 
HETATM    3  H   UNL     1      -8.863   2.004 -35.661  1.00  0.00     0.189 HD
HETATM    4  N   UNL     1      -7.692   0.385 -35.262  1.00  0.00    -0.174 NA
HETATM    5  C   UNL     1      -7.714  -0.470 -34.227  1.00  0.00     0.090 A 
HETATM    6  C   UNL     1      -8.681  -0.059 -33.268  1.00  0.00     0.071 A 
ENDROOT
BRANCH   1   7
HETATM    7  C   UNL     1     -10.448   1.845 -33.404  1.00  0.00     0.289 C 
HETATM    8  N   UNL     1     -11.661   1.169 -33.421  1.00  0.00    -0.242 N 
HETATM    9  H   UNL     1     -11.654   0.188 -33.671  1.00  0.00     0.192 HD
HETATM   10  O   UNL     1     -10.283   3.023 -33.109  1.00  0.00    -0.264 OA
BRANCH   8  11
HETATM   11  N   UNL     1     -12.934   1.653 -33.280  1.00  0.00    -0.183 NA
HETATM   12  C   UNL     1     -13.259   2.428 -32.295  1.00  0.00     0.153 C 
BRANCH  12  13
HETATM   13  C   UNL     1     -14.631   2.991 -32.196  1.00  0.00     0.016 A 
HETATM   14  C   UNL     1     -14.824   4.371 -32.004  1.00  0.00     0.080 A 
HETATM   15  C   UNL     1     -16.132   4.867 -31.946  1.00  0.00     0.037 A 
HETATM   16  C   UNL     1     -17.228   4.005 -32.070  1.00  0.00     0.003 A 
HETATM   17  C   UNL     1     -17.029   2.639 -32.252  1.00  0.00     0.001 A 
HETATM   18  C   UNL     1     -15.734   2.132 -32.316  1.00  0.00     0.016 A 
BRANCH  14  19
HETATM   19  O   UNL     1     -13.700   5.146 -31.895  1.00  0.00    -0.351 OA
BRANCH  19  20
HETATM   20  C   UNL     1     -13.327   5.607 -30.598  1.00  0.00     0.171 C 
HETATM   21  C   UNL     1     -13.750   7.059 -30.480  1.00  0.00     0.034 C 
ENDBRANCH  19  20
ENDBRANCH  14  19
ENDBRANCH  12  13
ENDBRANCH   8  11
ENDBRANCH   1   7
BRANCH   5  22
HETATM   22  C   UNL     1      -6.814  -1.621 -34.156  1.00  0.00     0.005 A 
HETATM   23  C   UNL     1      -5.625  -1.607 -33.365  1.00  0.00    -0.012 A 
HETATM   24  C   UNL     1      -4.842  -2.732 -33.444  1.00  0.00    -0.012 A 
HETATM   25  C   UNL     1      -5.137  -0.605 -32.483  1.00  0.00     0.013 A 
HETATM   26  C   UNL     1      -3.649  -2.904 -32.765  1.00  0.00    -0.046 A 
HETATM   27  C   UNL     1      -5.152  -3.848 -34.199  1.00  0.00    -0.046 A 
HETATM   28  C   UNL     1      -3.146  -1.923 -31.924  1.00  0.00     0.008 A 
HETATM   29  C   UNL     1      -3.064  -4.237 -33.074  1.00  0.00     0.044 A 
HETATM   30  C   UNL     1      -3.922  -0.764 -31.789  1.00  0.00     0.001 A 
HETATM   31  C   UNL     1      -4.098  -4.889 -34.043  1.00  0.00     0.044 A 
HETATM   32  C   UNL     1      -6.314  -3.910 -34.952  1.00  0.00     0.009 A 
HETATM   33  C   UNL     1      -7.138  -2.774 -34.917  1.00  0.00     0.015 A 
ENDBRANCH   5  22
TORSDOF 6
ENDMDL
MODEL 9
REMARK VINA RESULT:      -8.7      1.529      2.071
REMARK  6 active torsions:
REMARK  status: ('A' for Active; 'I' for Inactive)
REMARK    1  A    between atoms: C_2  and  O_3 
REMARK    2  A    between atoms: O_3  and  C_4 
REMARK    3  A    between atoms: C_5  and  C_6 
REMARK    4  A    between atoms: N_7  and  N_8 
REMARK       I    between atoms: N_8  and  C_9 
REMARK    5  A    between atoms: C_9  and  C_10 
REMARK    6  A    between atoms: C_14  and  C_15 
ROOT
HETATM    1  C   UNL     1      -3.906   3.772 -31.579  1.00  0.00     0.121 A 
HETATM    2  N   UNL     1      -4.491   3.201 -30.482  1.00  0.00    -0.272 N 
HETATM    3  H   UNL     1      -4.795   3.678 -29.638  1.00  0.00     0.189 HD
HETATM    4  N   UNL     1      -4.634   1.869 -30.564  1.00  0.00    -0.174 NA
HETATM    5  C   UNL     1      -4.110   1.547 -31.756  1.00  0.00     0.090 A 
HETATM    6  C   UNL     1      -3.701   2.720 -32.449  1.00  0.00     0.071 A 
ENDROOT
BRANCH   1   7
HETATM    7  C   UNL     1      -3.613   5.187 -31.627  1.00  0.00     0.289 C 
HETATM    8  N   UNL     1      -2.639   5.587 -30.722  1.00  0.00    -0.242 N 
HETATM    9  H   UNL     1      -2.200   4.876 -30.150  1.00  0.00     0.192 HD
HETATM   10  O   UNL     1      -4.223   5.916 -32.399  1.00  0.00    -0.264 OA
BRANCH   8  11
HETATM   11  N   UNL     1      -2.247   6.848 -30.361  1.00  0.00    -0.183 NA
HETATM   12  C   UNL     1      -3.033   7.640 -29.704  1.00  0.00     0.153 C 
BRANCH  12  13
HETATM   13  C   UNL     1      -2.565   8.982 -29.270  1.00  0.00     0.016 A 
HETATM   14  C   UNL     1      -2.951  10.135 -29.976  1.00  0.00     0.080 A 
HETATM   15  C   UNL     1      -2.515  11.384 -29.517  1.00  0.00     0.037 A 
HETATM   16  C   UNL     1      -1.704  11.483 -28.381  1.00  0.00     0.003 A 
HETATM   17  C   UNL     1      -1.320  10.337 -27.691  1.00  0.00     0.001 A 
HETATM   18  C   UNL     1      -1.750   9.088 -28.132  1.00  0.00     0.016 A 
BRANCH  14  19
HETATM   19  O   UNL     1      -3.747   9.953 -31.076  1.00  0.00    -0.351 OA
BRANCH  19  20
HETATM   20  C   UNL     1      -5.157  10.086 -30.912  1.00  0.00     0.171 C 
HETATM   21  C   UNL     1      -5.543  11.495 -31.321  1.00  0.00     0.034 C 
ENDBRANCH  19  20
ENDBRANCH  14  19
ENDBRANCH  12  13
ENDBRANCH   8  11
ENDBRANCH   1   7
BRANCH   5  22
HETATM   22  C   UNL     1      -4.036   0.161 -32.219  1.00  0.00     0.005 A 
HETATM   23  C   UNL     1      -4.943  -0.364 -33.189  1.00  0.00    -0.012 A 
HETATM   24  C   UNL     1      -4.797  -1.698 -33.482  1.00  0.00    -0.012 A 
HETATM   25  C   UNL     1      -5.967   0.295 -33.921  1.00  0.00     0.013 A 
HETATM   26  C   UNL     1      -5.585  -2.392 -34.382  1.00  0.00    -0.046 A 
HETATM   27  C   UNL     1      -3.833  -2.518 -32.927  1.00  0.00    -0.046 A 
HETATM   28  C   UNL     1      -6.607  -1.768 -35.082  1.00  0.00     0.008 A 
HETATM   29  C   UNL     1      -5.154  -3.815 -34.461  1.00  0.00     0.044 A 
HETATM   30  C   UNL     1      -6.780  -0.400 -34.838  1.00  0.00     0.001 A 
HETATM   31  C   UNL     1      -3.947  -3.899 -33.477  1.00  0.00     0.044 A 
HETATM   32  C   UNL     1      -2.915  -2.035 -32.008  1.00  0.00     0.009 A 
HETATM   33  C   UNL     1      -3.036  -0.680 -31.664  1.00  0.00     0.015 A 
ENDBRANCH   5  22
TORSDOF 6
ENDMDL
MODEL 10
REMARK VINA RESULT:      -8.6      7.289     11.262
REMARK  6 active torsions:
REMARK  status: ('A' for Active; 'I' for Inactive)
REMARK    1  A    between atoms: C_2  and  O_3 
REMARK    2  A    between atoms: O_3  and  C_4 
REMARK    3  A    between atoms: C_5  and  C_6 
REMARK    4  A    between atoms: N_7  and  N_8 
REMARK       I    between atoms: N_8  and  C_9 
REMARK    5  A    between atoms: C_9  and  C_10 
REMARK    6  A    between atoms: C_14  and  C_15 
ROOT
HETATM    1  C   UNL     1     -10.911   1.395 -33.578  1.00  0.00     0.121 A 
HETATM    2  N   UNL     1     -11.171   0.228 -32.913  1.00  0.00    -0.272 N 
HETATM    3  H   UNL     1     -12.063  -0.062 -32.522  1.00  0.00     0.189 HD
HETATM    4  N   UNL     1     -10.104  -0.571 -32.761  1.00  0.00    -0.174 NA
HETATM    5  C   UNL     1      -9.096   0.102 -33.337  1.00  0.00     0.090 A 
HETATM    6  C   UNL     1      -9.575   1.309 -33.917  1.00  0.00     0.071 A 
ENDROOT
BRANCH   1   7
HETATM    7  C   UNL     1     -11.931   2.401 -33.766  1.00  0.00     0.289 C 
HETATM    8  N   UNL     1     -13.054   2.215 -32.970  1.00  0.00    -0.242 N 
HETATM    9  H   UNL     1     -13.050   1.441 -32.317  1.00  0.00     0.192 HD
HETATM   10  O   UNL     1     -11.771   3.294 -34.589  1.00  0.00    -0.264 OA
BRANCH   8  11
HETATM   11  N   UNL     1     -14.269   2.845 -33.011  1.00  0.00    -0.183 NA
HETATM   12  C   UNL     1     -15.086   2.807 -32.007  1.00  0.00     0.153 C 
BRANCH  12  13
HETATM   13  C   UNL     1     -16.373   3.549 -32.050  1.00  0.00     0.016 A 
HETATM   14  C   UNL     1     -16.399   4.944 -31.880  1.00  0.00     0.080 A 
HETATM   15  C   UNL     1     -17.628   5.610 -31.958  1.00  0.00     0.037 A 
HETATM   16  C   UNL     1     -18.810   4.899 -32.194  1.00  0.00     0.003 A 
HETATM   17  C   UNL     1     -18.778   3.517 -32.354  1.00  0.00     0.001 A 
HETATM   18  C   UNL     1     -17.562   2.842 -32.283  1.00  0.00     0.016 A 
BRANCH  14  19
HETATM   19  O   UNL     1     -15.199   5.565 -31.655  1.00  0.00    -0.351 OA
BRANCH  19  20
HETATM   20  C   UNL     1     -15.013   6.234 -30.409  1.00  0.00     0.171 C 
HETATM   21  C   UNL     1     -13.834   5.589 -29.705  1.00  0.00     0.034 C 
ENDBRANCH  19  20
ENDBRANCH  14  19
ENDBRANCH  12  13
ENDBRANCH   8  11
ENDBRANCH   1   7
BRANCH   5  22
HETATM   22  C   UNL     1      -7.728  -0.419 -33.352  1.00  0.00     0.005 A 
HETATM   23  C   UNL     1      -6.798  -0.136 -32.307  1.00  0.00    -0.012 A 
HETATM   24  C   UNL     1      -5.531  -0.636 -32.485  1.00  0.00    -0.012 A 
HETATM   25  C   UNL     1      -6.991   0.571 -31.089  1.00  0.00     0.013 A 
HETATM   26  C   UNL     1      -4.488  -0.459 -31.593  1.00  0.00    -0.046 A 
HETATM   27  C   UNL     1      -5.137  -1.397 -33.569  1.00  0.00    -0.046 A 
HETATM   28  C   UNL     1      -4.654   0.253 -30.415  1.00  0.00     0.008 A 
HETATM   29  C   UNL     1      -3.259  -1.135 -32.091  1.00  0.00     0.044 A 
HETATM   30  C   UNL     1      -5.937   0.763 -30.174  1.00  0.00     0.001 A 
HETATM   31  C   UNL     1      -3.705  -1.788 -33.436  1.00  0.00     0.044 A 
HETATM   32  C   UNL     1      -6.022  -1.719 -34.585  1.00  0.00     0.009 A 
HETATM   33  C   UNL     1      -7.325  -1.214 -34.456  1.00  0.00     0.015 A 
ENDBRANCH   5  22
TORSDOF 6
ENDMDL
