MODEL 1
REMARK VINA RESULT:      -9.3      0.000      0.000
REMARK  4 active torsions:
REMARK  status: ('A' for Active; 'I' for Inactive)
REMARK    1  A    between atoms: C_2  and  N_3 
REMARK    2  A    between atoms: N_7  and  C_9 
REMARK    3  A    between atoms: C_9  and  C_10 
REMARK    4  A    between atoms: C_13  and  C_14 
ROOT
HETATM    1  N   UNL     1      -2.515   6.135 -32.824  1.00  0.00    -0.398 N 
HETATM    2  C   UNL     1      -3.368   5.525 -31.724  1.00  0.00     0.075 C 
HETATM    3  C   UNL     1      -3.084   4.050 -31.330  1.00  0.00     0.065 C 
HETATM    4  C   UNL     1      -3.450   2.978 -32.341  1.00  0.00     0.238 C 
HETATM    5  N   UNL     1      -4.794   3.199 -32.993  1.00  0.00    -0.065 N 
HETATM    6  H   UNL     1      -4.712   2.715 -33.899  1.00  0.00     0.280 HD
HETATM    7  C   UNL     1      -5.085   4.628 -33.378  1.00  0.00     0.238 C 
HETATM    8  C   UNL     1      -4.833   5.583 -32.218  1.00  0.00     0.065 C 
HETATM    9  C   UNL     1      -3.238   6.330 -30.432  1.00  0.00     0.061 A 
HETATM   10  C   UNL     1      -2.291   7.306 -30.209  1.00  0.00     0.037 A 
HETATM   11  N   UNL     1      -2.503   7.793 -28.942  1.00  0.00    -0.354 N 
HETATM   12  H   UNL     1      -1.963   8.534 -28.491  1.00  0.00     0.166 HD
HETATM   13  C   UNL     1      -3.551   7.186 -28.378  1.00  0.00     0.181 A 
HETATM   14  N   UNL     1      -4.006   6.294 -29.274  1.00  0.00    -0.352 N 
HETATM   15  H   UNL     1      -4.816   5.708 -29.093  1.00  0.00     0.166 HD
HETATM   16  C   UNL     1      -1.341   7.760 -31.229  1.00  0.00     0.078 C 
HETATM   17  C   UNL     1      -2.058   7.541 -32.578  1.00  0.00     0.124 C 
ENDROOT
BRANCH   5  18
HETATM   18  C   UNL     1      -5.966   2.448 -32.345  1.00  0.00     0.301 C 
BRANCH  18  19
HETATM   19  C   UNL     1      -6.289   1.219 -33.103  1.00  0.00     0.107 C 
HETATM   20  O   UNL     1      -7.518   0.697 -32.875  1.00  0.00    -0.216 OA
HETATM   21  N   UNL     1      -7.545  -0.606 -33.309  1.00  0.00    -0.128 NA
HETATM   22  C   UNL     1      -6.341  -0.865 -33.844  1.00  0.00     0.097 C 
HETATM   23  C   UNL     1      -5.543   0.317 -33.827  1.00  0.00     0.071 C 
BRANCH  22  24
HETATM   24  C   UNL     1      -5.917  -2.220 -34.202  1.00  0.00    -0.005 A 
HETATM   25  C   UNL     1      -6.853  -3.138 -34.707  1.00  0.00     0.014 A 
HETATM   26  C   UNL     1      -6.497  -4.470 -34.932  1.00  0.00     0.001 A 
HETATM   27  C   UNL     1      -5.201  -4.898 -34.662  1.00  0.00     0.000 A 
HETATM   28  C   UNL     1      -4.255  -3.994 -34.181  1.00  0.00     0.001 A 
HETATM   29  C   UNL     1      -4.610  -2.661 -33.953  1.00  0.00     0.014 A 
ENDBRANCH  22  24
ENDBRANCH  18  19
ENDBRANCH   5  18
BRANCH   1  30
HETATM   30  C   UNL     1      -1.470   5.309 -33.446  1.00  0.00     0.113 C 
HETATM   31  C   UNL     1      -1.521   5.185 -34.972  1.00  0.00     0.026 C 
ENDBRANCH   1  30
TORSDOF 4
ENDMDL
MODEL 2
REMARK VINA RESULT:      -9.2      1.724      1.956
REMARK  4 active torsions:
REMARK  status: ('A' for Active; 'I' for Inactive)
REMARK    1  A    between atoms: C_2  and  N_3 
REMARK    2  A    between atoms: N_7  and  C_9 
REMARK    3  A    between atoms: C_9  and  C_10 
REMARK    4  A    between atoms: C_13  and  C_14 
ROOT
HETATM    1  N   UNL     1      -2.666   6.243 -33.235  1.00  0.00    -0.398 N 
HETATM    2  C   UNL     1      -2.640   5.455 -31.935  1.00  0.00     0.075 C 
HETATM    3  C   UNL     1      -2.475   3.914 -32.033  1.00  0.00     0.065 C 
HETATM    4  C   UNL     1      -3.644   3.125 -32.598  1.00  0.00     0.238 C 
HETATM    5  N   UNL     1      -4.986   3.575 -32.071  1.00  0.00    -0.065 N 
HETATM    6  H   UNL     1      -5.647   3.305 -32.814  1.00  0.00     0.280 HD
HETATM    7  C   UNL     1      -5.158   5.070 -31.967  1.00  0.00     0.238 C 
HETATM    8  C   UNL     1      -3.992   5.718 -31.231  1.00  0.00     0.065 C 
HETATM    9  C   UNL     1      -1.500   5.935 -31.038  1.00  0.00     0.061 A 
HETATM   10  C   UNL     1      -0.483   6.772 -31.444  1.00  0.00     0.037 A 
HETATM   11  N   UNL     1       0.335   6.971 -30.357  1.00  0.00    -0.354 N 
HETATM   12  H   UNL     1       1.173   7.553 -30.342  1.00  0.00     0.166 HD
HETATM   13  C   UNL     1      -0.141   6.320 -29.291  1.00  0.00     0.181 A 
HETATM   14  N   UNL     1      -1.255   5.686 -29.693  1.00  0.00    -0.352 N 
HETATM   15  H   UNL     1      -1.820   5.129 -29.058  1.00  0.00     0.166 HD
HETATM   16  C   UNL     1      -0.419   7.383 -32.774  1.00  0.00     0.078 C 
HETATM   17  C   UNL     1      -1.888   7.523 -33.227  1.00  0.00     0.124 C 
ENDROOT
BRANCH   5  18
HETATM   18  C   UNL     1      -5.519   2.774 -30.875  1.00  0.00     0.301 C 
BRANCH  18  19
HETATM   19  C   UNL     1      -5.582   1.330 -31.193  1.00  0.00     0.107 C 
HETATM   20  O   UNL     1      -4.645   0.557 -30.591  1.00  0.00    -0.216 OA
HETATM   21  N   UNL     1      -4.558  -0.645 -31.250  1.00  0.00    -0.128 NA
HETATM   22  C   UNL     1      -5.476  -0.621 -32.229  1.00  0.00     0.097 C 
HETATM   23  C   UNL     1      -6.227   0.589 -32.155  1.00  0.00     0.071 C 
BRANCH  22  24
HETATM   24  C   UNL     1      -5.521  -1.634 -33.285  1.00  0.00    -0.005 A 
HETATM   25  C   UNL     1      -6.741  -1.947 -33.907  1.00  0.00     0.014 A 
HETATM   26  C   UNL     1      -6.827  -2.997 -34.823  1.00  0.00     0.001 A 
HETATM   27  C   UNL     1      -5.695  -3.744 -35.133  1.00  0.00     0.000 A 
HETATM   28  C   UNL     1      -4.472  -3.432 -34.541  1.00  0.00     0.001 A 
HETATM   29  C   UNL     1      -4.384  -2.383 -33.622  1.00  0.00     0.014 A 
ENDBRANCH  22  24
ENDBRANCH  18  19
ENDBRANCH   5  18
BRANCH   1  30
HETATM   30  C   UNL     1      -2.529   5.514 -34.504  1.00  0.00     0.113 C 
HETATM   31  C   UNL     1      -3.812   5.319 -35.318  1.00  0.00     0.026 C 
ENDBRANCH   1  30
TORSDOF 4
ENDMDL
MODEL 3
REMARK VINA RESULT:      -8.6      4.717      7.217
REMARK  4 active torsions:
REMARK  status: ('A' for Active; 'I' for Inactive)
REMARK    1  A    between atoms: C_2  and  N_3 
REMARK    2  A    between atoms: N_7  and  C_9 
REMARK    3  A    between atoms: C_9  and  C_10 
REMARK    4  A    between atoms: C_13  and  C_14 
ROOT
HETATM    1  N   UNL     1     -10.340   4.211 -34.741  1.00  0.00    -0.398 N 
HETATM    2  C   UNL     1     -10.546   3.235 -33.593  1.00  0.00     0.075 C 
HETATM    3  C   UNL     1     -10.496   3.804 -32.149  1.00  0.00     0.065 C 
HETATM    4  C   UNL     1      -9.146   4.273 -31.634  1.00  0.00     0.238 C 
HETATM    5  N   UNL     1      -8.013   3.334 -31.973  1.00  0.00    -0.065 N 
HETATM    6  H   UNL     1      -7.181   3.942 -31.978  1.00  0.00     0.280 HD
HETATM    7  C   UNL     1      -8.051   2.771 -33.371  1.00  0.00     0.238 C 
HETATM    8  C   UNL     1      -9.417   2.182 -33.701  1.00  0.00     0.065 C 
HETATM    9  C   UNL     1     -11.901   2.538 -33.715  1.00  0.00     0.061 A 
HETATM   10  C   UNL     1     -12.903   2.921 -34.580  1.00  0.00     0.037 A 
HETATM   11  N   UNL     1     -13.951   2.052 -34.394  1.00  0.00    -0.354 N 
HETATM   12  H   UNL     1     -14.838   2.073 -34.898  1.00  0.00     0.166 HD
HETATM   13  C   UNL     1     -13.637   1.133 -33.475  1.00  0.00     0.181 A 
HETATM   14  N   UNL     1     -12.394   1.419 -33.055  1.00  0.00    -0.352 N 
HETATM   15  H   UNL     1     -11.912   0.854 -32.361  1.00  0.00     0.166 HD
HETATM   16  C   UNL     1     -12.756   3.997 -35.564  1.00  0.00     0.078 C 
HETATM   17  C   UNL     1     -11.253   4.026 -35.914  1.00  0.00     0.124 C 
ENDROOT
BRANCH   5  18
HETATM   18  C   UNL     1      -7.651   2.324 -30.874  1.00  0.00     0.301 C 
BRANCH  18  19
HETATM   19  C   UNL     1      -6.758   1.269 -31.400  1.00  0.00     0.107 C 
HETATM   20  O   UNL     1      -5.574   1.700 -31.900  1.00  0.00    -0.216 OA
HETATM   21  N   UNL     1      -5.031   0.716 -32.690  1.00  0.00    -0.128 NA
HETATM   22  C   UNL     1      -5.865  -0.335 -32.635  1.00  0.00     0.097 C 
HETATM   23  C   UNL     1      -6.931  -0.055 -31.730  1.00  0.00     0.071 C 
BRANCH  22  24
HETATM   24  C   UNL     1      -5.737  -1.485 -33.531  1.00  0.00    -0.005 A 
HETATM   25  C   UNL     1      -6.885  -2.084 -34.074  1.00  0.00     0.014 A 
HETATM   26  C   UNL     1      -6.791  -3.258 -34.825  1.00  0.00     0.001 A 
HETATM   27  C   UNL     1      -5.549  -3.843 -35.049  1.00  0.00     0.000 A 
HETATM   28  C   UNL     1      -4.397  -3.248 -34.536  1.00  0.00     0.001 A 
HETATM   29  C   UNL     1      -4.489  -2.075 -33.781  1.00  0.00     0.014 A 
ENDBRANCH  22  24
ENDBRANCH  18  19
ENDBRANCH   5  18
BRANCH   1  30
HETATM   30  C   UNL     1     -10.114   5.629 -34.428  1.00  0.00     0.113 C 
HETATM   31  C   UNL     1     -10.240   6.611 -35.597  1.00  0.00     0.026 C 
ENDBRANCH   1  30
TORSDOF 4
ENDMDL
MODEL 4
REMARK VINA RESULT:      -8.6      2.727      4.437
REMARK  4 active torsions:
REMARK  status: ('A' for Active; 'I' for Inactive)
REMARK    1  A    between atoms: C_2  and  N_3 
REMARK    2  A    between atoms: N_7  and  C_9 
REMARK    3  A    between atoms: C_9  and  C_10 
REMARK    4  A    between atoms: C_13  and  C_14 
ROOT
HETATM    1  N   UNL     1      -7.476   4.200 -30.614  1.00  0.00    -0.398 N 
HETATM    2  C   UNL     1      -7.070   3.170 -31.656  1.00  0.00     0.075 C 
HETATM    3  C   UNL     1      -7.448   3.459 -33.135  1.00  0.00     0.065 C 
HETATM    4  C   UNL     1      -8.920   3.391 -33.501  1.00  0.00     0.238 C 
HETATM    5  N   UNL     1      -9.638   2.209 -32.895  1.00  0.00    -0.065 N 
HETATM    6  H   UNL     1     -10.620   2.516 -32.842  1.00  0.00     0.280 HD
HETATM    7  C   UNL     1      -9.278   1.914 -31.461  1.00  0.00     0.238 C 
HETATM    8  C   UNL     1      -7.769   1.846 -31.265  1.00  0.00     0.065 C 
HETATM    9  C   UNL     1      -5.556   2.965 -31.650  1.00  0.00     0.061 A 
HETATM   10  C   UNL     1      -4.659   3.775 -30.989  1.00  0.00     0.037 A 
HETATM   11  N   UNL     1      -3.405   3.263 -31.221  1.00  0.00    -0.354 N 
HETATM   12  H   UNL     1      -2.530   3.642 -30.856  1.00  0.00     0.166 HD
HETATM   13  C   UNL     1      -3.484   2.159 -31.971  1.00  0.00     0.181 A 
HETATM   14  N   UNL     1      -4.786   1.969 -32.239  1.00  0.00    -0.352 N 
HETATM   15  H   UNL     1      -5.118   1.178 -32.785  1.00  0.00     0.166 HD
HETATM   16  C   UNL     1      -5.058   4.892 -30.127  1.00  0.00     0.078 C 
HETATM   17  C   UNL     1      -6.443   4.500 -29.571  1.00  0.00     0.124 C 
ENDROOT
BRANCH   5  18
HETATM   18  C   UNL     1      -9.749   0.976 -33.804  1.00  0.00     0.301 C 
BRANCH  18  19
HETATM   19  C   UNL     1      -8.428   0.336 -33.989  1.00  0.00     0.107 C 
HETATM   20  O   UNL     1      -7.724   0.745 -35.072  1.00  0.00    -0.216 OA
HETATM   21  N   UNL     1      -6.739  -0.172 -35.346  1.00  0.00    -0.128 NA
HETATM   22  C   UNL     1      -6.814  -1.121 -34.399  1.00  0.00     0.097 C 
HETATM   23  C   UNL     1      -7.818  -0.772 -33.447  1.00  0.00     0.071 C 
BRANCH  22  24
HETATM   24  C   UNL     1      -6.076  -2.381 -34.493  1.00  0.00    -0.005 A 
HETATM   25  C   UNL     1      -6.716  -3.536 -34.971  1.00  0.00     0.014 A 
HETATM   26  C   UNL     1      -6.069  -4.774 -34.947  1.00  0.00     0.001 A 
HETATM   27  C   UNL     1      -4.773  -4.871 -34.451  1.00  0.00     0.000 A 
HETATM   28  C   UNL     1      -4.116  -3.730 -33.993  1.00  0.00     0.001 A 
HETATM   29  C   UNL     1      -4.763  -2.491 -34.014  1.00  0.00     0.014 A 
ENDBRANCH  22  24
ENDBRANCH  18  19
ENDBRANCH   5  18
BRANCH   1  30
HETATM   30  C   UNL     1      -8.190   5.406 -31.055  1.00  0.00     0.113 C 
HETATM   31  C   UNL     1      -9.239   5.966 -30.089  1.00  0.00     0.026 C 
ENDBRANCH   1  30
TORSDOF 4
ENDMDL
MODEL 5
REMARK VINA RESULT:      -8.5      3.018      5.535
REMARK  4 active torsions:
REMARK  status: ('A' for Active; 'I' for Inactive)
REMARK    1  A    between atoms: C_2  and  N_3 
REMARK    2  A    between atoms: N_7  and  C_9 
REMARK    3  A    between atoms: C_9  and  C_10 
REMARK    4  A    between atoms: C_13  and  C_14 
ROOT
HETATM    1  N   UNL     1      -7.744   4.136 -30.873  1.00  0.00    -0.398 N 
HETATM    2  C   UNL     1      -7.263   2.895 -31.608  1.00  0.00     0.075 C 
HETATM    3  C   UNL     1      -6.413   1.871 -30.807  1.00  0.00     0.065 C 
HETATM    4  C   UNL     1      -5.011   2.294 -30.407  1.00  0.00     0.238 C 
HETATM    5  N   UNL     1      -4.257   3.002 -31.508  1.00  0.00    -0.065 N 
HETATM    6  H   UNL     1      -3.576   3.589 -31.005  1.00  0.00     0.280 HD
HETATM    7  C   UNL     1      -5.072   3.996 -32.297  1.00  0.00     0.238 C 
HETATM    8  C   UNL     1      -6.383   3.390 -32.780  1.00  0.00     0.065 C 
HETATM    9  C   UNL     1      -8.447   2.105 -32.162  1.00  0.00     0.061 A 
HETATM   10  C   UNL     1      -9.765   2.330 -31.827  1.00  0.00     0.037 A 
HETATM   11  N   UNL     1     -10.522   1.424 -32.531  1.00  0.00    -0.354 N 
HETATM   12  H   UNL     1     -11.539   1.348 -32.500  1.00  0.00     0.166 HD
HETATM   13  C   UNL     1      -9.740   0.667 -33.306  1.00  0.00     0.181 A 
HETATM   14  N   UNL     1      -8.477   1.070 -33.089  1.00  0.00    -0.352 N 
HETATM   15  H   UNL     1      -7.685   0.659 -33.576  1.00  0.00     0.166 HD
HETATM   16  C   UNL     1     -10.203   3.427 -30.959  1.00  0.00     0.078 C 
HETATM   17  C   UNL     1      -9.157   4.544 -31.156  1.00  0.00     0.124 C 
ENDROOT
BRANCH   5  18
HETATM   18  C   UNL     1      -3.335   2.106 -32.347  1.00  0.00     0.301 C 
BRANCH  18  19
HETATM   19  C   UNL     1      -3.810   0.705 -32.341  1.00  0.00     0.107 C 
HETATM   20  O   UNL     1      -2.987  -0.191 -31.744  1.00  0.00    -0.216 OA
HETATM   21  N   UNL     1      -3.333  -1.459 -32.142  1.00  0.00    -0.128 NA
HETATM   22  C   UNL     1      -4.399  -1.339 -32.949  1.00  0.00     0.097 C 
HETATM   23  C   UNL     1      -4.801   0.028 -33.014  1.00  0.00     0.071 C 
BRANCH  22  24
HETATM   24  C   UNL     1      -4.906  -2.455 -33.749  1.00  0.00    -0.005 A 
HETATM   25  C   UNL     1      -6.190  -2.389 -34.314  1.00  0.00     0.014 A 
HETATM   26  C   UNL     1      -6.740  -3.492 -34.970  1.00  0.00     0.001 A 
HETATM   27  C   UNL     1      -6.011  -4.673 -35.075  1.00  0.00     0.000 A 
HETATM   28  C   UNL     1      -4.727  -4.748 -34.539  1.00  0.00     0.001 A 
HETATM   29  C   UNL     1      -4.175  -3.646 -33.879  1.00  0.00     0.014 A 
ENDBRANCH  22  24
ENDBRANCH  18  19
ENDBRANCH   5  18
BRANCH   1  30
HETATM   30  C   UNL     1      -7.390   4.297 -29.455  1.00  0.00     0.113 C 
HETATM   31  C   UNL     1      -7.334   5.735 -28.928  1.00  0.00     0.026 C 
ENDBRANCH   1  30
TORSDOF 4
ENDMDL
MODEL 6
REMARK VINA RESULT:      -8.4      1.639      3.378
REMARK  4 active torsions:
REMARK  status: ('A' for Active; 'I' for Inactive)
REMARK    1  A    between atoms: C_2  and  N_3 
REMARK    2  A    between atoms: N_7  and  C_9 
REMARK    3  A    between atoms: C_9  and  C_10 
REMARK    4  A    between atoms: C_13  and  C_14 
ROOT
HETATM    1  N   UNL     1      -3.895   5.870 -30.559  1.00  0.00    -0.398 N 
HETATM    2  C   UNL     1      -4.658   5.138 -31.651  1.00  0.00     0.075 C 
HETATM    3  C   UNL     1      -6.167   5.467 -31.817  1.00  0.00     0.065 C 
HETATM    4  C   UNL     1      -7.104   5.000 -30.717  1.00  0.00     0.238 C 
HETATM    5  N   UNL     1      -6.823   3.595 -30.241  1.00  0.00    -0.065 N 
HETATM    6  H   UNL     1      -7.184   3.583 -29.276  1.00  0.00     0.280 HD
HETATM    7  C   UNL     1      -5.361   3.260 -30.080  1.00  0.00     0.238 C 
HETATM    8  C   UNL     1      -4.561   3.629 -31.323  1.00  0.00     0.065 C 
HETATM    9  C   UNL     1      -4.026   5.401 -33.017  1.00  0.00     0.061 A 
HETATM   10  C   UNL     1      -3.072   6.363 -33.267  1.00  0.00     0.037 A 
HETATM   11  N   UNL     1      -2.758   6.283 -34.603  1.00  0.00    -0.354 N 
HETATM   12  H   UNL     1      -2.073   6.864 -35.088  1.00  0.00     0.166 HD
HETATM   13  C   UNL     1      -3.451   5.302 -35.187  1.00  0.00     0.181 A 
HETATM   14  N   UNL     1      -4.226   4.759 -34.234  1.00  0.00    -0.352 N 
HETATM   15  H   UNL     1      -4.844   3.973 -34.419  1.00  0.00     0.166 HD
HETATM   16  C   UNL     1      -2.473   7.199 -32.223  1.00  0.00     0.078 C 
HETATM   17  C   UNL     1      -2.526   6.346 -30.938  1.00  0.00     0.124 C 
ENDROOT
BRANCH   5  18
HETATM   18  C   UNL     1      -7.672   2.500 -30.903  1.00  0.00     0.301 C 
BRANCH  18  19
HETATM   19  C   UNL     1      -6.867   1.718 -31.867  1.00  0.00     0.107 C 
HETATM   20  O   UNL     1      -6.814   2.216 -33.126  1.00  0.00    -0.216 OA
HETATM   21  N   UNL     1      -6.391   1.232 -33.986  1.00  0.00    -0.128 NA
HETATM   22  C   UNL     1      -6.142   0.143 -33.242  1.00  0.00     0.097 C 
HETATM   23  C   UNL     1      -6.333   0.450 -31.862  1.00  0.00     0.071 C 
BRANCH  22  24
HETATM   24  C   UNL     1      -5.894  -1.172 -33.835  1.00  0.00    -0.005 A 
HETATM   25  C   UNL     1      -6.970  -1.951 -34.290  1.00  0.00     0.014 A 
HETATM   26  C   UNL     1      -6.767  -3.258 -34.739  1.00  0.00     0.001 A 
HETATM   27  C   UNL     1      -5.484  -3.799 -34.745  1.00  0.00     0.000 A 
HETATM   28  C   UNL     1      -4.403  -3.031 -34.317  1.00  0.00     0.001 A 
HETATM   29  C   UNL     1      -4.605  -1.724 -33.864  1.00  0.00     0.014 A 
ENDBRANCH  22  24
ENDBRANCH  18  19
ENDBRANCH   5  18
BRANCH   1  30
HETATM   30  C   UNL     1      -4.615   6.847 -29.729  1.00  0.00     0.113 C 
HETATM   31  C   UNL     1      -4.754   6.504 -28.242  1.00  0.00     0.026 C 
ENDBRANCH   1  30
TORSDOF 4
ENDMDL
MODEL 7
REMARK VINA RESULT:      -8.3      2.927      9.163
REMARK  4 active torsions:
REMARK  status: ('A' for Active; 'I' for Inactive)
REMARK    1  A    between atoms: C_2  and  N_3 
REMARK    2  A    between atoms: N_7  and  C_9 
REMARK    3  A    between atoms: C_9  and  C_10 
REMARK    4  A    between atoms: C_13  and  C_14 
ROOT
HETATM    1  N   UNL     1      -7.016   2.782 -31.425  1.00  0.00    -0.398 N 
HETATM    2  C   UNL     1      -5.736   2.396 -32.150  1.00  0.00     0.075 C 
HETATM    3  C   UNL     1      -4.417   2.403 -31.330  1.00  0.00     0.065 C 
HETATM    4  C   UNL     1      -3.877   3.755 -30.895  1.00  0.00     0.238 C 
HETATM    5  N   UNL     1      -3.942   4.806 -31.977  1.00  0.00    -0.065 N 
HETATM    6  H   UNL     1      -3.982   5.695 -31.456  1.00  0.00     0.280 HD
HETATM    7  C   UNL     1      -5.216   4.808 -32.784  1.00  0.00     0.238 C 
HETATM    8  C   UNL     1      -5.555   3.415 -33.300  1.00  0.00     0.065 C 
HETATM    9  C   UNL     1      -5.852   0.989 -32.734  1.00  0.00     0.061 A 
HETATM   10  C   UNL     1      -6.856   0.095 -32.431  1.00  0.00     0.037 A 
HETATM   11  N   UNL     1      -6.611  -1.048 -33.154  1.00  0.00    -0.354 N 
HETATM   12  H   UNL     1      -7.187  -1.890 -33.148  1.00  0.00     0.166 HD
HETATM   13  C   UNL     1      -5.520  -0.895 -33.910  1.00  0.00     0.181 A 
HETATM   14  N   UNL     1      -5.049   0.338 -33.663  1.00  0.00    -0.352 N 
HETATM   15  H   UNL     1      -4.226   0.708 -34.130  1.00  0.00     0.166 HD
HETATM   16  C   UNL     1      -7.998   0.421 -31.573  1.00  0.00     0.078 C 
HETATM   17  C   UNL     1      -8.214   1.940 -31.743  1.00  0.00     0.124 C 
ENDROOT
BRANCH   5  18
HETATM   18  C   UNL     1      -2.654   4.983 -32.794  1.00  0.00     0.301 C 
BRANCH  18  19
HETATM   19  C   UNL     1      -1.537   5.422 -31.929  1.00  0.00     0.107 C 
HETATM   20  O   UNL     1      -0.617   4.471 -31.633  1.00  0.00    -0.216 OA
HETATM   21  N   UNL     1       0.118   4.875 -30.545  1.00  0.00    -0.128 NA
HETATM   22  C   UNL     1      -0.326   6.096 -30.205  1.00  0.00     0.097 C 
HETATM   23  C   UNL     1      -1.315   6.525 -31.138  1.00  0.00     0.071 C 
BRANCH  22  24
HETATM   24  C   UNL     1       0.060   6.748 -28.953  1.00  0.00    -0.005 A 
HETATM   25  C   UNL     1       0.908   7.867 -28.976  1.00  0.00     0.014 A 
HETATM   26  C   UNL     1       1.390   8.424 -27.789  1.00  0.00     0.001 A 
HETATM   27  C   UNL     1       1.025   7.872 -26.564  1.00  0.00     0.000 A 
HETATM   28  C   UNL     1       0.166   6.775 -26.524  1.00  0.00     0.001 A 
HETATM   29  C   UNL     1      -0.315   6.215 -27.711  1.00  0.00     0.014 A 
ENDBRANCH  22  24
ENDBRANCH  18  19
ENDBRANCH   5  18
BRANCH   1  30
HETATM   30  C   UNL     1      -6.941   3.131 -29.999  1.00  0.00     0.113 C 
HETATM   31  C   UNL     1      -7.570   4.468 -29.593  1.00  0.00     0.026 C 
ENDBRANCH   1  30
TORSDOF 4
ENDMDL
MODEL 8
REMARK VINA RESULT:      -8.2      4.967      8.840
REMARK  4 active torsions:
REMARK  status: ('A' for Active; 'I' for Inactive)
REMARK    1  A    between atoms: C_2  and  N_3 
REMARK    2  A    between atoms: N_7  and  C_9 
REMARK    3  A    between atoms: C_9  and  C_10 
REMARK    4  A    between atoms: C_13  and  C_14 
ROOT
HETATM    1  N   UNL     1      -5.837  -2.070 -34.449  1.00  0.00    -0.398 N 
HETATM    2  C   UNL     1      -5.964  -0.842 -33.563  1.00  0.00     0.075 C 
HETATM    3  C   UNL     1      -7.227  -0.731 -32.666  1.00  0.00     0.065 C 
HETATM    4  C   UNL     1      -8.554  -0.484 -33.363  1.00  0.00     0.238 C 
HETATM    5  N   UNL     1      -8.475   0.554 -34.458  1.00  0.00    -0.065 N 
HETATM    6  H   UNL     1      -9.248   0.304 -35.091  1.00  0.00     0.280 HD
HETATM    7  C   UNL     1      -7.251   0.461 -35.334  1.00  0.00     0.238 C 
HETATM    8  C   UNL     1      -5.974   0.384 -34.506  1.00  0.00     0.065 C 
HETATM    9  C   UNL     1      -4.772  -0.739 -32.612  1.00  0.00     0.061 A 
HETATM   10  C   UNL     1      -3.852  -1.742 -32.398  1.00  0.00     0.037 A 
HETATM   11  N   UNL     1      -2.941  -1.266 -31.485  1.00  0.00    -0.354 N 
HETATM   12  H   UNL     1      -2.132  -1.777 -31.130  1.00  0.00     0.166 HD
HETATM   13  C   UNL     1      -3.238  -0.009 -31.143  1.00  0.00     0.181 A 
HETATM   14  N   UNL     1      -4.349   0.323 -31.820  1.00  0.00    -0.352 N 
HETATM   15  H   UNL     1      -4.775   1.243 -31.748  1.00  0.00     0.166 HD
HETATM   16  C   UNL     1      -3.851  -3.009 -33.133  1.00  0.00     0.078 C 
HETATM   17  C   UNL     1      -4.471  -2.683 -34.508  1.00  0.00     0.124 C 
ENDROOT
BRANCH   5  18
HETATM   18  C   UNL     1      -8.868   1.977 -34.037  1.00  0.00     0.301 C 
BRANCH  18  19
HETATM   19  C   UNL     1     -10.312   2.057 -33.725  1.00  0.00     0.107 C 
HETATM   20  O   UNL     1     -11.138   1.461 -34.619  1.00  0.00    -0.216 OA
HETATM   21  N   UNL     1     -12.416   1.931 -34.439  1.00  0.00    -0.128 NA
HETATM   22  C   UNL     1     -12.376   2.783 -33.402  1.00  0.00     0.097 C 
HETATM   23  C   UNL     1     -11.061   2.807 -32.848  1.00  0.00     0.071 C 
BRANCH  22  24
HETATM   24  C   UNL     1     -13.501   3.656 -33.061  1.00  0.00    -0.005 A 
HETATM   25  C   UNL     1     -13.457   5.020 -33.395  1.00  0.00     0.014 A 
HETATM   26  C   UNL     1     -14.460   5.892 -32.966  1.00  0.00     0.001 A 
HETATM   27  C   UNL     1     -15.521   5.411 -32.204  1.00  0.00     0.000 A 
HETATM   28  C   UNL     1     -15.590   4.057 -31.884  1.00  0.00     0.001 A 
HETATM   29  C   UNL     1     -14.586   3.182 -32.310  1.00  0.00     0.014 A 
ENDBRANCH  22  24
ENDBRANCH  18  19
ENDBRANCH   5  18
BRANCH   1  30
HETATM   30  C   UNL     1      -6.901  -3.083 -34.407  1.00  0.00     0.113 C 
HETATM   31  C   UNL     1      -6.631  -4.385 -35.170  1.00  0.00     0.026 C 
ENDBRANCH   1  30
TORSDOF 4
ENDMDL
MODEL 9
REMARK VINA RESULT:      -8.1      3.829      8.109
REMARK  4 active torsions:
REMARK  status: ('A' for Active; 'I' for Inactive)
REMARK    1  A    between atoms: C_2  and  N_3 
REMARK    2  A    between atoms: N_7  and  C_9 
REMARK    3  A    between atoms: C_9  and  C_10 
REMARK    4  A    between atoms: C_13  and  C_14 
ROOT
HETATM    1  N   UNL     1      -5.891  -1.899 -34.344  1.00  0.00    -0.398 N 
HETATM    2  C   UNL     1      -6.072  -0.640 -33.510  1.00  0.00     0.075 C 
HETATM    3  C   UNL     1      -7.361  -0.528 -32.651  1.00  0.00     0.065 C 
HETATM    4  C   UNL     1      -8.675  -0.342 -33.391  1.00  0.00     0.238 C 
HETATM    5  N   UNL     1      -8.593   0.653 -34.523  1.00  0.00    -0.065 N 
HETATM    6  H   UNL     1      -9.343   0.359 -35.166  1.00  0.00     0.280 HD
HETATM    7  C   UNL     1      -7.344   0.558 -35.363  1.00  0.00     0.238 C 
HETATM    8  C   UNL     1      -6.088   0.547 -34.502  1.00  0.00     0.065 C 
HETATM    9  C   UNL     1      -4.909  -0.470 -32.534  1.00  0.00     0.061 A 
HETATM   10  C   UNL     1      -3.970  -1.439 -32.258  1.00  0.00     0.037 A 
HETATM   11  N   UNL     1      -3.096  -0.905 -31.341  1.00  0.00    -0.354 N 
HETATM   12  H   UNL     1      -2.284  -1.381 -30.946  1.00  0.00     0.166 HD
HETATM   13  C   UNL     1      -3.433   0.356 -31.056  1.00  0.00     0.181 A 
HETATM   14  N   UNL     1      -4.534   0.632 -31.775  1.00  0.00    -0.352 N 
HETATM   15  H   UNL     1      -4.984   1.543 -31.749  1.00  0.00     0.166 HD
HETATM   16  C   UNL     1      -3.917  -2.734 -32.942  1.00  0.00     0.078 C 
HETATM   17  C   UNL     1      -4.509  -2.477 -34.344  1.00  0.00     0.124 C 
ENDROOT
BRANCH   5  18
HETATM   18  C   UNL     1      -9.032   2.082 -34.169  1.00  0.00     0.301 C 
BRANCH  18  19
HETATM   19  C   UNL     1      -8.713   2.398 -32.759  1.00  0.00     0.107 C 
HETATM   20  O   UNL     1      -9.741   2.277 -31.885  1.00  0.00    -0.216 OA
HETATM   21  N   UNL     1      -9.436   2.956 -30.730  1.00  0.00    -0.128 NA
HETATM   22  C   UNL     1      -8.200   3.455 -30.885  1.00  0.00     0.097 C 
HETATM   23  C   UNL     1      -7.660   3.025 -32.134  1.00  0.00     0.071 C 
BRANCH  22  24
HETATM   24  C   UNL     1      -7.627   4.432 -29.957  1.00  0.00    -0.005 A 
HETATM   25  C   UNL     1      -6.266   4.364 -29.617  1.00  0.00     0.014 A 
HETATM   26  C   UNL     1      -5.731   5.203 -28.638  1.00  0.00     0.001 A 
HETATM   27  C   UNL     1      -6.548   6.125 -27.990  1.00  0.00     0.000 A 
HETATM   28  C   UNL     1      -7.896   6.220 -28.331  1.00  0.00     0.001 A 
HETATM   29  C   UNL     1      -8.434   5.378 -29.310  1.00  0.00     0.014 A 
ENDBRANCH  22  24
ENDBRANCH  18  19
ENDBRANCH   5  18
BRANCH   1  30
HETATM   30  C   UNL     1      -6.931  -2.937 -34.289  1.00  0.00     0.113 C 
HETATM   31  C   UNL     1      -6.647  -4.225 -35.068  1.00  0.00     0.026 C 
ENDBRANCH   1  30
TORSDOF 4
ENDMDL
MODEL 10
REMARK VINA RESULT:      -8.1      4.907      6.990
REMARK  4 active torsions:
REMARK  status: ('A' for Active; 'I' for Inactive)
REMARK    1  A    between atoms: C_2  and  N_3 
REMARK    2  A    between atoms: N_7  and  C_9 
REMARK    3  A    between atoms: C_9  and  C_10 
REMARK    4  A    between atoms: C_13  and  C_14 
ROOT
HETATM    1  N   UNL     1     -11.851   2.905 -33.686  1.00  0.00    -0.398 N 
HETATM    2  C   UNL     1     -10.480   3.554 -33.790  1.00  0.00     0.075 C 
HETATM    3  C   UNL     1      -9.397   2.813 -34.621  1.00  0.00     0.065 C 
HETATM    4  C   UNL     1      -8.847   1.519 -34.048  1.00  0.00     0.238 C 
HETATM    5  N   UNL     1      -8.554   1.591 -32.568  1.00  0.00    -0.065 N 
HETATM    6  H   UNL     1      -8.629   0.613 -32.253  1.00  0.00     0.280 HD
HETATM    7  C   UNL     1      -9.596   2.311 -31.749  1.00  0.00     0.238 C 
HETATM    8  C   UNL     1      -9.936   3.671 -32.346  1.00  0.00     0.065 C 
HETATM    9  C   UNL     1     -10.589   4.949 -34.404  1.00  0.00     0.061 A 
HETATM   10  C   UNL     1     -11.718   5.448 -35.017  1.00  0.00     0.037 A 
HETATM   11  N   UNL     1     -11.421   6.724 -35.432  1.00  0.00    -0.354 N 
HETATM   12  H   UNL     1     -12.060   7.357 -35.914  1.00  0.00     0.166 HD
HETATM   13  C   UNL     1     -10.172   7.049 -35.082  1.00  0.00     0.181 A 
HETATM   14  N   UNL     1      -9.657   5.978 -34.458  1.00  0.00    -0.352 N 
HETATM   15  H   UNL     1      -8.715   5.974 -34.075  1.00  0.00     0.166 HD
HETATM   16  C   UNL     1     -12.993   4.729 -35.075  1.00  0.00     0.078 C 
HETATM   17  C   UNL     1     -13.015   3.839 -33.814  1.00  0.00     0.124 C 
ENDROOT
BRANCH   5  18
HETATM   18  C   UNL     1      -7.099   1.921 -32.206  1.00  0.00     0.301 C 
BRANCH  18  19
HETATM   19  C   UNL     1      -6.223   0.746 -32.411  1.00  0.00     0.107 C 
HETATM   20  O   UNL     1      -4.985   1.014 -32.891  1.00  0.00    -0.216 OA
HETATM   21  N   UNL     1      -4.436  -0.138 -33.397  1.00  0.00    -0.128 NA
HETATM   22  C   UNL     1      -5.324  -1.122 -33.184  1.00  0.00     0.097 C 
HETATM   23  C   UNL     1      -6.440  -0.612 -32.455  1.00  0.00     0.071 C 
BRANCH  22  24
HETATM   24  C   UNL     1      -5.189  -2.446 -33.792  1.00  0.00    -0.005 A 
HETATM   25  C   UNL     1      -6.246  -2.986 -34.542  1.00  0.00     0.014 A 
HETATM   26  C   UNL     1      -6.186  -4.297 -35.020  1.00  0.00     0.001 A 
HETATM   27  C   UNL     1      -5.066  -5.081 -34.760  1.00  0.00     0.000 A 
HETATM   28  C   UNL     1      -3.999  -4.552 -34.037  1.00  0.00     0.001 A 
HETATM   29  C   UNL     1      -4.058  -3.241 -33.555  1.00  0.00     0.014 A 
ENDBRANCH  22  24
ENDBRANCH  18  19
ENDBRANCH   5  18
BRANCH   1  30
HETATM   30  C   UNL     1     -12.081   1.628 -34.376  1.00  0.00     0.113 C 
HETATM   31  C   UNL     1     -12.412   0.425 -33.487  1.00  0.00     0.026 C 
ENDBRANCH   1  30
TORSDOF 4
ENDMDL
