MODEL 1
REMARK VINA RESULT:     -10.5      0.000      0.000
REMARK  2 active torsions:
REMARK  status: ('A' for Active; 'I' for Inactive)
REMARK    1  A    between atoms: C_7  and  C_8 
REMARK    2  A    between atoms: C_13  and  C_18 
ROOT
HETATM    1  C   UNL     1      -5.432  -1.845 -34.160  1.00  0.00    -0.020 A 
HETATM    2  C   UNL     1      -6.509  -1.603 -35.029  1.00  0.00     0.015 A 
HETATM    3  C   UNL     1      -7.111  -0.338 -35.115  1.00  0.00     0.035 A 
HETATM    4  C   UNL     1      -6.613   0.698 -34.315  1.00  0.00     0.085 A 
HETATM    5  N   UNL     1      -7.015   2.007 -34.215  1.00  0.00    -0.233 NA
HETATM    6  C   UNL     1      -6.209   2.564 -33.334  1.00  0.00     0.111 A 
HETATM    7  N   UNL     1      -5.304   1.644 -32.855  1.00  0.00    -0.342 N 
HETATM    8  H   UNL     1      -4.572   1.839 -32.184  1.00  0.00     0.167 HD
HETATM    9  C   UNL     1      -5.546   0.442 -33.463  1.00  0.00     0.063 A 
HETATM   10  C   UNL     1      -4.935  -0.811 -33.348  1.00  0.00     0.044 A 
ENDROOT
BRANCH   6  11
HETATM   11  C   UNL     1      -6.225   4.013 -32.925  1.00  0.00     0.084 C 
HETATM   12  C   UNL     1      -5.545   4.277 -31.583  1.00  0.00     0.188 C 
HETATM   13  O   UNL     1      -4.132   4.020 -31.594  1.00  0.00    -0.350 OA
HETATM   14  C   UNL     1      -3.459   4.538 -32.668  1.00  0.00     0.075 A 
HETATM   15  C   UNL     1      -2.069   4.577 -32.558  1.00  0.00     0.037 A 
HETATM   16  C   UNL     1      -4.086   4.949 -33.849  1.00  0.00    -0.024 A 
HETATM   17  C   UNL     1      -1.296   5.052 -33.616  1.00  0.00     0.003 A 
HETATM   18  C   UNL     1      -1.913   5.486 -34.788  1.00  0.00     0.001 A 
HETATM   19  C   UNL     1      -3.302   5.437 -34.904  1.00  0.00     0.010 A 
HETATM   20  C   UNL     1      -5.582   4.899 -33.993  1.00  0.00     0.056 C 
ENDBRANCH   6  11
BRANCH   1  21
HETATM   21  C   UNL     1      -4.858  -3.179 -34.091  1.00  0.00     0.017 A 
HETATM   22  C   UNL     1      -5.390  -4.332 -34.643  1.00  0.00     0.036 A 
HETATM   23  C   UNL     1      -6.617  -4.613 -35.426  1.00  0.00     0.070 C 
HETATM   24  N   UNL     1      -4.516  -5.335 -34.312  1.00  0.00    -0.282 N 
HETATM   25  H   UNL     1      -4.579  -6.321 -34.546  1.00  0.00     0.189 HD
HETATM   26  N   UNL     1      -3.472  -4.929 -33.575  1.00  0.00    -0.186 NA
HETATM   27  C   UNL     1      -3.682  -3.618 -33.437  1.00  0.00     0.153 A 
ENDBRANCH   1  21
TORSDOF 2
ENDMDL
MODEL 2
REMARK VINA RESULT:      -9.7      5.017      7.138
REMARK  2 active torsions:
REMARK  status: ('A' for Active; 'I' for Inactive)
REMARK    1  A    between atoms: C_7  and  C_8 
REMARK    2  A    between atoms: C_13  and  C_18 
ROOT
HETATM    1  C   UNL     1      -7.144  -0.679 -33.686  1.00  0.00    -0.020 A 
HETATM    2  C   UNL     1      -7.164  -0.221 -32.358  1.00  0.00     0.015 A 
HETATM    3  C   UNL     1      -7.949   0.877 -31.973  1.00  0.00     0.035 A 
HETATM    4  C   UNL     1      -8.728   1.518 -32.945  1.00  0.00     0.085 A 
HETATM    5  N   UNL     1      -9.572   2.595 -32.828  1.00  0.00    -0.233 NA
HETATM    6  C   UNL     1     -10.075   2.789 -34.031  1.00  0.00     0.111 A 
HETATM    7  N   UNL     1      -9.567   1.871 -34.922  1.00  0.00    -0.342 N 
HETATM    8  H   UNL     1      -9.816   1.805 -35.901  1.00  0.00     0.167 HD
HETATM    9  C   UNL     1      -8.699   1.051 -34.252  1.00  0.00     0.063 A 
HETATM   10  C   UNL     1      -7.918  -0.033 -34.665  1.00  0.00     0.044 A 
ENDROOT
BRANCH   6  11
HETATM   11  C   UNL     1     -11.097   3.832 -34.397  1.00  0.00     0.084 C 
HETATM   12  C   UNL     1     -11.892   3.494 -35.657  1.00  0.00     0.188 C 
HETATM   13  O   UNL     1     -12.732   2.338 -35.514  1.00  0.00    -0.350 OA
HETATM   14  C   UNL     1     -13.474   2.303 -34.363  1.00  0.00     0.075 A 
HETATM   15  C   UNL     1     -14.513   1.372 -34.334  1.00  0.00     0.037 A 
HETATM   16  C   UNL     1     -13.196   3.087 -33.238  1.00  0.00    -0.024 A 
HETATM   17  C   UNL     1     -15.299   1.236 -33.190  1.00  0.00     0.003 A 
HETATM   18  C   UNL     1     -15.044   2.029 -32.073  1.00  0.00     0.001 A 
HETATM   19  C   UNL     1     -13.999   2.952 -32.097  1.00  0.00     0.010 A 
HETATM   20  C   UNL     1     -12.070   4.084 -33.245  1.00  0.00     0.056 C 
ENDBRANCH   6  11
BRANCH   1  21
HETATM   21  C   UNL     1      -6.298  -1.807 -34.039  1.00  0.00     0.017 A 
HETATM   22  C   UNL     1      -4.921  -1.873 -33.906  1.00  0.00     0.036 A 
HETATM   23  C   UNL     1      -3.899  -0.920 -33.410  1.00  0.00     0.070 C 
HETATM   24  N   UNL     1      -4.566  -3.112 -34.374  1.00  0.00    -0.282 N 
HETATM   25  H   UNL     1      -3.636  -3.514 -34.432  1.00  0.00     0.189 HD
HETATM   26  N   UNL     1      -5.598  -3.844 -34.817  1.00  0.00    -0.186 NA
HETATM   27  C   UNL     1      -6.651  -3.049 -34.618  1.00  0.00     0.153 A 
ENDBRANCH   1  21
TORSDOF 2
ENDMDL
MODEL 3
REMARK VINA RESULT:      -9.0     15.031     16.680
REMARK  2 active torsions:
REMARK  status: ('A' for Active; 'I' for Inactive)
REMARK    1  A    between atoms: C_7  and  C_8 
REMARK    2  A    between atoms: C_13  and  C_18 
ROOT
HETATM    1  C   UNL     1      -8.129 -13.217 -40.037  1.00  0.00    -0.020 A 
HETATM    2  C   UNL     1      -7.442 -12.328 -40.880  1.00  0.00     0.015 A 
HETATM    3  C   UNL     1      -6.129 -11.920 -40.600  1.00  0.00     0.035 A 
HETATM    4  C   UNL     1      -5.500 -12.424 -39.454  1.00  0.00     0.085 A 
HETATM    5  N   UNL     1      -4.238 -12.189 -38.966  1.00  0.00    -0.233 NA
HETATM    6  C   UNL     1      -4.135 -12.918 -37.873  1.00  0.00     0.111 A 
HETATM    7  N   UNL     1      -5.303 -13.609 -37.638  1.00  0.00    -0.342 N 
HETATM    8  H   UNL     1      -5.460 -14.249 -36.871  1.00  0.00     0.167 HD
HETATM    9  C   UNL     1      -6.193 -13.304 -38.634  1.00  0.00     0.063 A 
HETATM   10  C   UNL     1      -7.505 -13.718 -38.882  1.00  0.00     0.044 A 
ENDROOT
BRANCH   6  11
HETATM   11  C   UNL     1      -2.908 -13.033 -37.008  1.00  0.00     0.084 C 
HETATM   12  C   UNL     1      -2.799 -14.370 -36.276  1.00  0.00     0.188 C 
HETATM   13  O   UNL     1      -2.612 -15.492 -37.152  1.00  0.00    -0.350 OA
HETATM   14  C   UNL     1      -1.665 -15.313 -38.124  1.00  0.00     0.075 A 
HETATM   15  C   UNL     1      -1.242 -16.467 -38.786  1.00  0.00     0.037 A 
HETATM   16  C   UNL     1      -1.176 -14.060 -38.509  1.00  0.00    -0.024 A 
HETATM   17  C   UNL     1      -0.308 -16.380 -39.818  1.00  0.00     0.003 A 
HETATM   18  C   UNL     1       0.201 -15.138 -40.192  1.00  0.00     0.001 A 
HETATM   19  C   UNL     1      -0.229 -13.983 -39.540  1.00  0.00     0.010 A 
HETATM   20  C   UNL     1      -1.633 -12.804 -37.820  1.00  0.00     0.056 C 
ENDBRANCH   6  11
BRANCH   1  21
HETATM   21  C   UNL     1      -9.497 -13.592 -40.359  1.00  0.00     0.017 A 
HETATM   22  C   UNL     1     -10.575 -12.732 -40.489  1.00  0.00     0.036 A 
HETATM   23  C   UNL     1     -10.726 -11.263 -40.359  1.00  0.00     0.070 C 
HETATM   24  N   UNL     1     -11.649 -13.532 -40.781  1.00  0.00    -0.282 N 
HETATM   25  H   UNL     1     -12.611 -13.250 -40.945  1.00  0.00     0.189 HD
HETATM   26  N   UNL     1     -11.359 -14.839 -40.833  1.00  0.00    -0.186 NA
HETATM   27  C   UNL     1     -10.051 -14.877 -40.571  1.00  0.00     0.153 A 
ENDBRANCH   1  21
TORSDOF 2
ENDMDL
MODEL 4
REMARK VINA RESULT:      -9.0      2.929      7.855
REMARK  2 active torsions:
REMARK  status: ('A' for Active; 'I' for Inactive)
REMARK    1  A    between atoms: C_7  and  C_8 
REMARK    2  A    between atoms: C_13  and  C_18 
ROOT
HETATM    1  C   UNL     1      -4.145   5.702 -32.688  1.00  0.00    -0.020 A 
HETATM    2  C   UNL     1      -5.434   6.112 -33.067  1.00  0.00     0.015 A 
HETATM    3  C   UNL     1      -6.544   5.267 -32.922  1.00  0.00     0.035 A 
HETATM    4  C   UNL     1      -6.349   3.990 -32.381  1.00  0.00     0.085 A 
HETATM    5  N   UNL     1      -7.256   2.988 -32.136  1.00  0.00    -0.233 NA
HETATM    6  C   UNL     1      -6.565   1.999 -31.606  1.00  0.00     0.111 A 
HETATM    7  N   UNL     1      -5.233   2.334 -31.515  1.00  0.00    -0.342 N 
HETATM    8  H   UNL     1      -4.507   1.747 -31.124  1.00  0.00     0.167 HD
HETATM    9  C   UNL     1      -5.069   3.600 -32.009  1.00  0.00     0.063 A 
HETATM   10  C   UNL     1      -3.943   4.417 -32.153  1.00  0.00     0.044 A 
ENDROOT
BRANCH   6  11
HETATM   11  C   UNL     1      -7.134   0.694 -31.119  1.00  0.00     0.084 C 
HETATM   12  C   UNL     1      -8.376   0.243 -31.886  1.00  0.00     0.188 C 
HETATM   13  O   UNL     1      -8.117  -0.077 -33.262  1.00  0.00    -0.350 OA
HETATM   14  C   UNL     1      -7.019  -0.866 -33.474  1.00  0.00     0.075 A 
HETATM   15  C   UNL     1      -6.915  -1.444 -34.740  1.00  0.00     0.037 A 
HETATM   16  C   UNL     1      -6.003  -1.049 -32.529  1.00  0.00    -0.024 A 
HETATM   17  C   UNL     1      -5.811  -2.232 -35.062  1.00  0.00     0.003 A 
HETATM   18  C   UNL     1      -4.807  -2.439 -34.119  1.00  0.00     0.001 A 
HETATM   19  C   UNL     1      -4.902  -1.852 -32.858  1.00  0.00     0.010 A 
HETATM   20  C   UNL     1      -6.088  -0.420 -31.166  1.00  0.00     0.056 C 
ENDBRANCH   6  11
BRANCH   1  21
HETATM   21  C   UNL     1      -3.023   6.606 -32.878  1.00  0.00     0.017 A 
HETATM   22  C   UNL     1      -1.974   6.437 -33.766  1.00  0.00     0.036 A 
HETATM   23  C   UNL     1      -1.632   5.381 -34.749  1.00  0.00     0.070 C 
HETATM   24  N   UNL     1      -1.160   7.525 -33.584  1.00  0.00    -0.282 N 
HETATM   25  H   UNL     1      -0.292   7.743 -34.063  1.00  0.00     0.189 HD
HETATM   26  N   UNL     1      -1.586   8.374 -32.638  1.00  0.00    -0.186 NA
HETATM   27  C   UNL     1      -2.717   7.813 -32.205  1.00  0.00     0.153 A 
ENDBRANCH   1  21
TORSDOF 2
ENDMDL
MODEL 5
REMARK VINA RESULT:      -8.8      3.213      5.557
REMARK  2 active torsions:
REMARK  status: ('A' for Active; 'I' for Inactive)
REMARK    1  A    between atoms: C_7  and  C_8 
REMARK    2  A    between atoms: C_13  and  C_18 
ROOT
HETATM    1  C   UNL     1      -5.611   2.192 -32.212  1.00  0.00    -0.020 A 
HETATM    2  C   UNL     1      -4.661   1.621 -31.348  1.00  0.00     0.015 A 
HETATM    3  C   UNL     1      -3.377   2.170 -31.207  1.00  0.00     0.035 A 
HETATM    4  C   UNL     1      -3.051   3.313 -31.947  1.00  0.00     0.085 A 
HETATM    5  N   UNL     1      -1.882   4.034 -31.987  1.00  0.00    -0.233 NA
HETATM    6  C   UNL     1      -2.101   5.026 -32.827  1.00  0.00     0.111 A 
HETATM    7  N   UNL     1      -3.377   4.955 -33.338  1.00  0.00    -0.342 N 
HETATM    8  H   UNL     1      -3.784   5.616 -33.987  1.00  0.00     0.167 HD
HETATM    9  C   UNL     1      -4.002   3.865 -32.795  1.00  0.00     0.063 A 
HETATM   10  C   UNL     1      -5.284   3.333 -32.964  1.00  0.00     0.044 A 
ENDROOT
BRANCH   6  11
HETATM   11  C   UNL     1      -1.125   6.121 -33.163  1.00  0.00     0.084 C 
HETATM   12  C   UNL     1      -1.794   7.434 -33.567  1.00  0.00     0.188 C 
HETATM   13  O   UNL     1      -2.533   8.054 -32.504  1.00  0.00    -0.350 OA
HETATM   14  C   UNL     1      -1.877   8.113 -31.303  1.00  0.00     0.075 A 
HETATM   15  C   UNL     1      -2.427   8.968 -30.347  1.00  0.00     0.037 A 
HETATM   16  C   UNL     1      -0.763   7.327 -30.990  1.00  0.00    -0.024 A 
HETATM   17  C   UNL     1      -1.850   9.066 -29.082  1.00  0.00     0.003 A 
HETATM   18  C   UNL     1      -0.726   8.304 -28.769  1.00  0.00     0.001 A 
HETATM   19  C   UNL     1      -0.183   7.440 -29.719  1.00  0.00     0.010 A 
HETATM   20  C   UNL     1      -0.167   6.387 -32.001  1.00  0.00     0.056 C 
ENDBRANCH   6  11
BRANCH   1  21
HETATM   21  C   UNL     1      -6.921   1.573 -32.340  1.00  0.00     0.017 A 
HETATM   22  C   UNL     1      -7.286   0.607 -33.261  1.00  0.00     0.036 A 
HETATM   23  C   UNL     1      -6.560  -0.086 -34.353  1.00  0.00     0.070 C 
HETATM   24  N   UNL     1      -8.608   0.342 -33.011  1.00  0.00    -0.282 N 
HETATM   25  H   UNL     1      -9.214  -0.316 -33.491  1.00  0.00     0.189 HD
HETATM   26  N   UNL     1      -9.132   1.071 -32.016  1.00  0.00    -0.186 NA
HETATM   27  C   UNL     1      -8.108   1.824 -31.610  1.00  0.00     0.153 A 
ENDBRANCH   1  21
TORSDOF 2
ENDMDL
MODEL 6
REMARK VINA RESULT:      -8.7      3.394      8.550
REMARK  2 active torsions:
REMARK  status: ('A' for Active; 'I' for Inactive)
REMARK    1  A    between atoms: C_7  and  C_8 
REMARK    2  A    between atoms: C_13  and  C_18 
ROOT
HETATM    1  C   UNL     1      -3.045   5.980 -31.535  1.00  0.00    -0.020 A 
HETATM    2  C   UNL     1      -2.304   5.455 -32.607  1.00  0.00     0.015 A 
HETATM    3  C   UNL     1      -2.360   4.092 -32.938  1.00  0.00     0.035 A 
HETATM    4  C   UNL     1      -3.180   3.250 -32.176  1.00  0.00     0.085 A 
HETATM    5  N   UNL     1      -3.410   1.901 -32.295  1.00  0.00    -0.233 NA
HETATM    6  C   UNL     1      -4.275   1.600 -31.347  1.00  0.00     0.111 A 
HETATM    7  N   UNL     1      -4.599   2.719 -30.613  1.00  0.00    -0.342 N 
HETATM    8  H   UNL     1      -5.258   2.745 -29.845  1.00  0.00     0.167 HD
HETATM    9  C   UNL     1      -3.907   3.786 -31.122  1.00  0.00     0.063 A 
HETATM   10  C   UNL     1      -3.862   5.136 -30.763  1.00  0.00     0.044 A 
ENDROOT
BRANCH   6  11
HETATM   11  C   UNL     1      -4.874   0.241 -31.106  1.00  0.00     0.084 C 
HETATM   12  C   UNL     1      -6.234   0.285 -30.412  1.00  0.00     0.188 C 
HETATM   13  O   UNL     1      -7.265   0.894 -31.205  1.00  0.00    -0.350 OA
HETATM   14  C   UNL     1      -7.320   0.466 -32.505  1.00  0.00     0.075 A 
HETATM   15  C   UNL     1      -8.480   0.795 -33.208  1.00  0.00     0.037 A 
HETATM   16  C   UNL     1      -6.271  -0.200 -33.147  1.00  0.00    -0.024 A 
HETATM   17  C   UNL     1      -8.610   0.436 -34.549  1.00  0.00     0.003 A 
HETATM   18  C   UNL     1      -7.580  -0.247 -35.190  1.00  0.00     0.001 A 
HETATM   19  C   UNL     1      -6.415  -0.566 -34.492  1.00  0.00     0.010 A 
HETATM   20  C   UNL     1      -5.006  -0.547 -32.410  1.00  0.00     0.056 C 
ENDBRANCH   6  11
BRANCH   1  21
HETATM   21  C   UNL     1      -2.936   7.395 -31.218  1.00  0.00     0.017 A 
HETATM   22  C   UNL     1      -1.886   8.010 -30.557  1.00  0.00     0.036 A 
HETATM   23  C   UNL     1      -0.615   7.511 -29.980  1.00  0.00     0.070 C 
HETATM   24  N   UNL     1      -2.229   9.335 -30.477  1.00  0.00    -0.282 N 
HETATM   25  H   UNL     1      -1.699  10.092 -30.057  1.00  0.00     0.189 HD
HETATM   26  N   UNL     1      -3.423   9.624 -31.015  1.00  0.00    -0.186 NA
HETATM   27  C   UNL     1      -3.855   8.443 -31.462  1.00  0.00     0.153 A 
ENDBRANCH   1  21
TORSDOF 2
ENDMDL
MODEL 7
REMARK VINA RESULT:      -8.7      2.651      3.684
REMARK  2 active torsions:
REMARK  status: ('A' for Active; 'I' for Inactive)
REMARK    1  A    between atoms: C_7  and  C_8 
REMARK    2  A    between atoms: C_13  and  C_18 
ROOT
HETATM    1  C   UNL     1      -4.441   0.267 -31.873  1.00  0.00    -0.020 A 
HETATM    2  C   UNL     1      -5.204   0.431 -30.705  1.00  0.00     0.015 A 
HETATM    3  C   UNL     1      -5.467   1.704 -30.175  1.00  0.00     0.035 A 
HETATM    4  C   UNL     1      -4.955   2.826 -30.839  1.00  0.00     0.085 A 
HETATM    5  N   UNL     1      -5.070   4.160 -30.532  1.00  0.00    -0.233 NA
HETATM    6  C   UNL     1      -4.422   4.803 -31.483  1.00  0.00     0.111 A 
HETATM    7  N   UNL     1      -3.881   3.917 -32.387  1.00  0.00    -0.342 N 
HETATM    8  H   UNL     1      -3.356   4.171 -33.214  1.00  0.00     0.167 HD
HETATM    9  C   UNL     1      -4.204   2.646 -31.993  1.00  0.00     0.063 A 
HETATM   10  C   UNL     1      -3.917   1.390 -32.537  1.00  0.00     0.044 A 
ENDROOT
BRANCH   6  11
HETATM   11  C   UNL     1      -4.310   6.299 -31.610  1.00  0.00     0.084 C 
HETATM   12  C   UNL     1      -4.346   7.032 -30.270  1.00  0.00     0.188 C 
HETATM   13  O   UNL     1      -3.214   6.752 -29.432  1.00  0.00    -0.350 OA
HETATM   14  C   UNL     1      -2.000   6.809 -30.063  1.00  0.00     0.075 A 
HETATM   15  C   UNL     1      -0.879   6.849 -29.233  1.00  0.00     0.037 A 
HETATM   16  C   UNL     1      -1.847   6.761 -31.453  1.00  0.00    -0.024 A 
HETATM   17  C   UNL     1       0.401   6.870 -29.785  1.00  0.00     0.003 A 
HETATM   18  C   UNL     1       0.562   6.846 -31.168  1.00  0.00     0.001 A 
HETATM   19  C   UNL     1      -0.557   6.793 -32.000  1.00  0.00     0.010 A 
HETATM   20  C   UNL     1      -3.042   6.699 -32.364  1.00  0.00     0.056 C 
ENDBRANCH   6  11
BRANCH   1  21
HETATM   21  C   UNL     1      -4.177  -1.074 -32.370  1.00  0.00     0.017 A 
HETATM   22  C   UNL     1      -4.825  -1.703 -33.420  1.00  0.00     0.036 A 
HETATM   23  C   UNL     1      -5.919  -1.293 -34.333  1.00  0.00     0.070 C 
HETATM   24  N   UNL     1      -4.254  -2.946 -33.513  1.00  0.00    -0.282 N 
HETATM   25  H   UNL     1      -4.475  -3.687 -34.169  1.00  0.00     0.189 HD
HETATM   26  N   UNL     1      -3.302  -3.179 -32.597  1.00  0.00    -0.186 NA
HETATM   27  C   UNL     1      -3.259  -2.042 -31.899  1.00  0.00     0.153 A 
ENDBRANCH   1  21
TORSDOF 2
ENDMDL
MODEL 8
REMARK VINA RESULT:      -8.6      4.460      6.315
REMARK  2 active torsions:
REMARK  status: ('A' for Active; 'I' for Inactive)
REMARK    1  A    between atoms: C_7  and  C_8 
REMARK    2  A    between atoms: C_13  and  C_18 
ROOT
HETATM    1  C   UNL     1      -6.861   4.082 -32.165  1.00  0.00    -0.020 A 
HETATM    2  C   UNL     1      -6.654   3.834 -33.532  1.00  0.00     0.015 A 
HETATM    3  C   UNL     1      -5.605   4.445 -34.237  1.00  0.00     0.035 A 
HETATM    4  C   UNL     1      -4.750   5.315 -33.547  1.00  0.00     0.085 A 
HETATM    5  N   UNL     1      -3.664   6.025 -33.997  1.00  0.00    -0.233 NA
HETATM    6  C   UNL     1      -3.200   6.674 -32.948  1.00  0.00     0.111 A 
HETATM    7  N   UNL     1      -3.967   6.409 -31.836  1.00  0.00    -0.342 N 
HETATM    8  H   UNL     1      -3.797   6.775 -30.908  1.00  0.00     0.167 HD
HETATM    9  C   UNL     1      -4.968   5.546 -32.195  1.00  0.00     0.063 A 
HETATM   10  C   UNL     1      -6.011   4.961 -31.472  1.00  0.00     0.044 A 
ENDROOT
BRANCH   6  11
HETATM   11  C   UNL     1      -1.978   7.552 -32.931  1.00  0.00     0.084 C 
HETATM   12  C   UNL     1      -1.993   8.601 -31.820  1.00  0.00     0.188 C 
HETATM   13  O   UNL     1      -1.935   8.039 -30.500  1.00  0.00    -0.350 OA
HETATM   14  C   UNL     1      -0.989   7.064 -30.329  1.00  0.00     0.075 A 
HETATM   15  C   UNL     1      -0.696   6.721 -29.008  1.00  0.00     0.037 A 
HETATM   16  C   UNL     1      -0.383   6.379 -31.387  1.00  0.00    -0.024 A 
HETATM   17  C   UNL     1       0.225   5.711 -28.736  1.00  0.00     0.003 A 
HETATM   18  C   UNL     1       0.852   5.040 -29.783  1.00  0.00     0.001 A 
HETATM   19  C   UNL     1       0.551   5.373 -31.104  1.00  0.00     0.010 A 
HETATM   20  C   UNL     1      -0.699   6.723 -32.817  1.00  0.00     0.056 C 
ENDBRANCH   6  11
BRANCH   1  21
HETATM   21  C   UNL     1      -7.975   3.442 -31.485  1.00  0.00     0.017 A 
HETATM   22  C   UNL     1      -8.133   2.084 -31.266  1.00  0.00     0.036 A 
HETATM   23  C   UNL     1      -7.316   0.896 -31.609  1.00  0.00     0.070 C 
HETATM   24  N   UNL     1      -9.328   1.955 -30.606  1.00  0.00    -0.282 N 
HETATM   25  H   UNL     1      -9.773   1.102 -30.282  1.00  0.00     0.189 HD
HETATM   26  N   UNL     1      -9.965   3.116 -30.398  1.00  0.00    -0.186 NA
HETATM   27  C   UNL     1      -9.145   4.021 -30.936  1.00  0.00     0.153 A 
ENDBRANCH   1  21
TORSDOF 2
ENDMDL
MODEL 9
REMARK VINA RESULT:      -8.4      1.444      2.268
REMARK  2 active torsions:
REMARK  status: ('A' for Active; 'I' for Inactive)
REMARK    1  A    between atoms: C_7  and  C_8 
REMARK    2  A    between atoms: C_13  and  C_18 
ROOT
HETATM    1  C   UNL     1      -5.797  -0.794 -33.113  1.00  0.00    -0.020 A 
HETATM    2  C   UNL     1      -5.962  -0.794 -31.718  1.00  0.00     0.015 A 
HETATM    3  C   UNL     1      -6.016   0.403 -30.988  1.00  0.00     0.035 A 
HETATM    4  C   UNL     1      -5.907   1.617 -31.678  1.00  0.00     0.085 A 
HETATM    5  N   UNL     1      -5.933   2.906 -31.205  1.00  0.00    -0.233 NA
HETATM    6  C   UNL     1      -5.809   3.679 -32.265  1.00  0.00     0.111 A 
HETATM    7  N   UNL     1      -5.693   2.921 -33.408  1.00  0.00    -0.342 N 
HETATM    8  H   UNL     1      -5.606   3.288 -34.347  1.00  0.00     0.167 HD
HETATM    9  C   UNL     1      -5.747   1.598 -33.057  1.00  0.00     0.063 A 
HETATM   10  C   UNL     1      -5.678   0.421 -33.809  1.00  0.00     0.044 A 
ENDROOT
BRANCH   6  11
HETATM   11  C   UNL     1      -5.834   5.184 -32.260  1.00  0.00     0.084 C 
HETATM   12  C   UNL     1      -5.250   5.802 -30.990  1.00  0.00     0.188 C 
HETATM   13  O   UNL     1      -3.844   5.559 -30.827  1.00  0.00    -0.350 OA
HETATM   14  C   UNL     1      -3.088   5.776 -31.948  1.00  0.00     0.075 A 
HETATM   15  C   UNL     1      -1.708   5.851 -31.750  1.00  0.00     0.037 A 
HETATM   16  C   UNL     1      -3.620   5.853 -33.239  1.00  0.00    -0.024 A 
HETATM   17  C   UNL     1      -0.854   6.031 -32.836  1.00  0.00     0.003 A 
HETATM   18  C   UNL     1      -1.378   6.132 -34.123  1.00  0.00     0.001 A 
HETATM   19  C   UNL     1      -2.755   6.045 -34.325  1.00  0.00     0.010 A 
HETATM   20  C   UNL     1      -5.103   5.757 -33.474  1.00  0.00     0.056 C 
ENDBRANCH   6  11
BRANCH   1  21
HETATM   21  C   UNL     1      -5.724  -2.061 -33.823  1.00  0.00     0.017 A 
HETATM   22  C   UNL     1      -4.717  -3.005 -33.716  1.00  0.00     0.036 A 
HETATM   23  C   UNL     1      -3.463  -3.071 -32.928  1.00  0.00     0.070 C 
HETATM   24  N   UNL     1      -5.069  -4.016 -34.573  1.00  0.00    -0.282 N 
HETATM   25  H   UNL     1      -4.567  -4.878 -34.760  1.00  0.00     0.189 HD
HETATM   26  N   UNL     1      -6.211  -3.794 -35.239  1.00  0.00    -0.186 NA
HETATM   27  C   UNL     1      -6.608  -2.604 -34.786  1.00  0.00     0.153 A 
ENDBRANCH   1  21
TORSDOF 2
ENDMDL
MODEL 10
REMARK VINA RESULT:      -8.4      3.378      5.336
REMARK  2 active torsions:
REMARK  status: ('A' for Active; 'I' for Inactive)
REMARK    1  A    between atoms: C_7  and  C_8 
REMARK    2  A    between atoms: C_13  and  C_18 
ROOT
HETATM    1  C   UNL     1      -6.265   2.630 -33.078  1.00  0.00    -0.020 A 
HETATM    2  C   UNL     1      -6.721   3.750 -33.794  1.00  0.00     0.015 A 
HETATM    3  C   UNL     1      -5.876   4.837 -34.068  1.00  0.00     0.035 A 
HETATM    4  C   UNL     1      -4.552   4.789 -33.616  1.00  0.00     0.085 A 
HETATM    5  N   UNL     1      -3.539   5.706 -33.754  1.00  0.00    -0.233 NA
HETATM    6  C   UNL     1      -2.488   5.171 -33.165  1.00  0.00     0.111 A 
HETATM    7  N   UNL     1      -2.801   3.938 -32.641  1.00  0.00    -0.342 N 
HETATM    8  H   UNL     1      -2.155   3.326 -32.159  1.00  0.00     0.167 HD
HETATM    9  C   UNL     1      -4.117   3.674 -32.912  1.00  0.00     0.063 A 
HETATM   10  C   UNL     1      -4.939   2.582 -32.614  1.00  0.00     0.044 A 
ENDROOT
BRANCH   6  11
HETATM   11  C   UNL     1      -1.114   5.783 -33.100  1.00  0.00     0.084 C 
HETATM   12  C   UNL     1      -1.024   7.157 -33.761  1.00  0.00     0.188 C 
HETATM   13  O   UNL     1      -1.796   8.168 -33.094  1.00  0.00    -0.350 OA
HETATM   14  C   UNL     1      -1.654   8.197 -31.732  1.00  0.00     0.075 A 
HETATM   15  C   UNL     1      -2.135   9.339 -31.092  1.00  0.00     0.037 A 
HETATM   16  C   UNL     1      -1.129   7.137 -30.985  1.00  0.00    -0.024 A 
HETATM   17  C   UNL     1      -2.070   9.443 -29.703  1.00  0.00     0.003 A 
HETATM   18  C   UNL     1      -1.527   8.402 -28.953  1.00  0.00     0.001 A 
HETATM   19  C   UNL     1      -1.057   7.255 -29.590  1.00  0.00     0.010 A 
HETATM   20  C   UNL     1      -0.622   5.890 -31.656  1.00  0.00     0.056 C 
ENDBRANCH   6  11
BRANCH   1  21
HETATM   21  C   UNL     1      -7.185   1.539 -32.800  1.00  0.00     0.017 A 
HETATM   22  C   UNL     1      -7.630   0.590 -33.704  1.00  0.00     0.036 A 
HETATM   23  C   UNL     1      -7.370   0.355 -35.145  1.00  0.00     0.070 C 
HETATM   24  N   UNL     1      -8.484  -0.218 -32.998  1.00  0.00    -0.282 N 
HETATM   25  H   UNL     1      -9.001  -1.024 -33.334  1.00  0.00     0.189 HD
HETATM   26  N   UNL     1      -8.641   0.143 -31.716  1.00  0.00    -0.186 NA
HETATM   27  C   UNL     1      -7.855   1.214 -31.597  1.00  0.00     0.153 A 
ENDBRANCH   1  21
TORSDOF 2
ENDMDL
