MODEL 1
REMARK VINA RESULT:      -8.8      0.000      0.000
REMARK  8 active torsions:
REMARK  status: ('A' for Active; 'I' for Inactive)
REMARK    1  A    between atoms: O_2  and  C_3 
REMARK    2  A    between atoms: C_6  and  C_7 
REMARK    3  A    between atoms: C_7  and  O_8 
REMARK    4  A    between atoms: C_7  and  C_9 
REMARK    5  A    between atoms: C_9  and  N_10 
REMARK    6  A    between atoms: C_11  and  N_12 
REMARK    7  A    between atoms: N_13  and  C_14 
REMARK    8  A    between atoms: C_14  and  C_15 
ROOT
HETATM    1  N   UNL     1      -8.919   2.401 -32.511  1.00  0.00    -0.178 N 
HETATM    2  C   UNL     1      -8.525   1.304 -31.871  1.00  0.00     0.681 A 
HETATM    3  N   UNL     1      -7.208   1.179 -31.968  1.00  0.00    -0.177 N 
HETATM    4  C   UNL     1      -6.693   2.295 -32.622  1.00  0.00     0.079 A 
HETATM    5  C   UNL     1      -7.793   3.085 -32.966  1.00  0.00     0.079 A 
HETATM    6  C   UNL     1      -5.386   2.661 -32.935  1.00  0.00     0.032 A 
HETATM    7  C   UNL     1      -5.236   3.871 -33.624  1.00  0.00     0.002 A 
HETATM    8  C   UNL     1      -6.344   4.666 -33.976  1.00  0.00     0.002 A 
HETATM    9  C   UNL     1      -7.655   4.288 -33.652  1.00  0.00     0.032 A 
ENDROOT
BRANCH   1  10
HETATM   10  C   UNL     1     -10.310   2.797 -32.773  1.00  0.00     0.184 C 
BRANCH  10  11
HETATM   11  C   UNL     1     -11.004   1.955 -33.871  1.00  0.00     0.170 C 
BRANCH  11  12
HETATM   12  C   UNL     1     -12.495   1.822 -33.639  1.00  0.00    -0.028 A 
HETATM   13  C   UNL     1     -13.164   2.780 -32.866  1.00  0.00     0.012 A 
HETATM   14  C   UNL     1     -14.550   2.720 -32.709  1.00  0.00     0.037 A 
HETATM   15  C   UNL     1     -15.292   1.704 -33.311  1.00  0.00     0.068 A 
HETATM   16  C   UNL     1     -14.633   0.733 -34.066  1.00  0.00     0.037 A 
HETATM   17  C   UNL     1     -13.244   0.791 -34.229  1.00  0.00     0.012 A 
BRANCH  15  18
HETATM   18  O   UNL     1     -16.638   1.782 -33.093  1.00  0.00    -0.356 OA
HETATM   19  C   UNL     1     -17.077   2.620 -32.031  1.00  0.00     0.210 C 
ENDBRANCH  15  18
ENDBRANCH  11  12
BRANCH  11  20
HETATM   20  O   UNL     1     -10.763   2.549 -35.146  1.00  0.00    -0.389 OA
HETATM   21  H   UNL     1     -10.908   3.509 -35.049  1.00  0.00     0.210 HD
ENDBRANCH  11  20
ENDBRANCH  10  11
ENDBRANCH   1  10
BRANCH   2  22
HETATM   22  N   UNL     1      -9.322   0.461 -31.217  1.00  0.00    -0.234 N 
HETATM   23  H   UNL     1      -9.969  -0.138 -31.705  1.00  0.00     0.174 HD
HETATM   24  H   UNL     1      -9.325   0.428 -30.209  1.00  0.00     0.174 HD
ENDBRANCH   2  22
BRANCH   3  25
HETATM   25  C   UNL     1      -6.430   0.023 -31.544  1.00  0.00     0.186 C 
BRANCH  25  26
HETATM   26  C   UNL     1      -6.092  -0.896 -32.693  1.00  0.00    -0.039 A 
HETATM   27  C   UNL     1      -7.029  -1.344 -33.637  1.00  0.00     0.009 A 
HETATM   28  C   UNL     1      -6.653  -2.218 -34.660  1.00  0.00     0.001 A 
HETATM   29  C   UNL     1      -5.336  -2.656 -34.757  1.00  0.00     0.000 A 
HETATM   30  C   UNL     1      -4.391  -2.220 -33.834  1.00  0.00     0.001 A 
HETATM   31  C   UNL     1      -4.764  -1.346 -32.811  1.00  0.00     0.009 A 
ENDBRANCH  25  26
ENDBRANCH   3  25
TORSDOF 8
ENDMDL
MODEL 2
REMARK VINA RESULT:      -8.5      1.657      2.580
REMARK  8 active torsions:
REMARK  status: ('A' for Active; 'I' for Inactive)
REMARK    1  A    between atoms: O_2  and  C_3 
REMARK    2  A    between atoms: C_6  and  C_7 
REMARK    3  A    between atoms: C_7  and  O_8 
REMARK    4  A    between atoms: C_7  and  C_9 
REMARK    5  A    between atoms: C_9  and  N_10 
REMARK    6  A    between atoms: C_11  and  N_12 
REMARK    7  A    between atoms: N_13  and  C_14 
REMARK    8  A    between atoms: C_14  and  C_15 
ROOT
HETATM    1  N   UNL     1      -7.200   3.141 -32.199  1.00  0.00    -0.178 N 
HETATM    2  C   UNL     1      -7.304   1.912 -31.705  1.00  0.00     0.681 A 
HETATM    3  N   UNL     1      -6.109   1.337 -31.682  1.00  0.00    -0.177 N 
HETATM    4  C   UNL     1      -5.153   2.262 -32.091  1.00  0.00     0.079 A 
HETATM    5  C   UNL     1      -5.853   3.426 -32.418  1.00  0.00     0.079 A 
HETATM    6  C   UNL     1      -3.767   2.171 -32.203  1.00  0.00     0.032 A 
HETATM    7  C   UNL     1      -3.112   3.318 -32.671  1.00  0.00     0.002 A 
HETATM    8  C   UNL     1      -3.818   4.490 -33.005  1.00  0.00     0.002 A 
HETATM    9  C   UNL     1      -5.213   4.570 -32.885  1.00  0.00     0.032 A 
ENDROOT
BRANCH   1  10
HETATM   10  C   UNL     1      -8.318   4.034 -32.539  1.00  0.00     0.184 C 
BRANCH  10  11
HETATM   11  C   UNL     1      -8.565   4.177 -34.060  1.00  0.00     0.170 C 
BRANCH  11  12
HETATM   12  C   UNL     1      -9.875   3.553 -34.493  1.00  0.00    -0.028 A 
HETATM   13  C   UNL     1     -10.130   2.207 -34.205  1.00  0.00     0.012 A 
HETATM   14  C   UNL     1     -11.363   1.636 -34.522  1.00  0.00     0.037 A 
HETATM   15  C   UNL     1     -12.361   2.393 -35.138  1.00  0.00     0.068 A 
HETATM   16  C   UNL     1     -12.110   3.729 -35.448  1.00  0.00     0.037 A 
HETATM   17  C   UNL     1     -10.875   4.307 -35.129  1.00  0.00     0.012 A 
BRANCH  15  18
HETATM   18  O   UNL     1     -13.524   1.714 -35.369  1.00  0.00    -0.356 OA
HETATM   19  C   UNL     1     -14.104   1.024 -34.267  1.00  0.00     0.210 C 
ENDBRANCH  15  18
ENDBRANCH  11  12
BRANCH  11  20
HETATM   20  O   UNL     1      -8.545   5.559 -34.414  1.00  0.00    -0.389 OA
HETATM   21  H   UNL     1      -9.448   5.797 -34.699  1.00  0.00     0.210 HD
ENDBRANCH  11  20
ENDBRANCH  10  11
ENDBRANCH   1  10
BRANCH   2  22
HETATM   22  N   UNL     1      -8.430   1.340 -31.282  1.00  0.00    -0.234 N 
HETATM   23  H   UNL     1      -9.329   1.612 -31.647  1.00  0.00     0.174 HD
HETATM   24  H   UNL     1      -8.414   0.642 -30.553  1.00  0.00     0.174 HD
ENDBRANCH   2  22
BRANCH   3  25
HETATM   25  C   UNL     1      -5.842  -0.061 -31.369  1.00  0.00     0.186 C 
BRANCH  25  26
HETATM   26  C   UNL     1      -5.778  -0.925 -32.605  1.00  0.00    -0.039 A 
HETATM   27  C   UNL     1      -6.876  -1.171 -33.445  1.00  0.00     0.009 A 
HETATM   28  C   UNL     1      -6.754  -2.005 -34.559  1.00  0.00     0.001 A 
HETATM   29  C   UNL     1      -5.533  -2.605 -34.852  1.00  0.00     0.000 A 
HETATM   30  C   UNL     1      -4.431  -2.371 -34.035  1.00  0.00     0.001 A 
HETATM   31  C   UNL     1      -4.552  -1.537 -32.921  1.00  0.00     0.009 A 
ENDBRANCH  25  26
ENDBRANCH   3  25
TORSDOF 8
ENDMDL
MODEL 3
REMARK VINA RESULT:      -8.4      1.708      4.000
REMARK  8 active torsions:
REMARK  status: ('A' for Active; 'I' for Inactive)
REMARK    1  A    between atoms: O_2  and  C_3 
REMARK    2  A    between atoms: C_6  and  C_7 
REMARK    3  A    between atoms: C_7  and  O_8 
REMARK    4  A    between atoms: C_7  and  C_9 
REMARK    5  A    between atoms: C_9  and  N_10 
REMARK    6  A    between atoms: C_11  and  N_12 
REMARK    7  A    between atoms: N_13  and  C_14 
REMARK    8  A    between atoms: C_14  and  C_15 
ROOT
HETATM    1  N   UNL     1      -8.352   0.165 -32.440  1.00  0.00    -0.178 N 
HETATM    2  C   UNL     1      -7.801   0.881 -31.464  1.00  0.00     0.681 A 
HETATM    3  N   UNL     1      -6.499   0.636 -31.411  1.00  0.00    -0.177 N 
HETATM    4  C   UNL     1      -6.153  -0.209 -32.461  1.00  0.00     0.079 A 
HETATM    5  C   UNL     1      -7.343  -0.507 -33.128  1.00  0.00     0.079 A 
HETATM    6  C   UNL     1      -4.924  -0.725 -32.865  1.00  0.00     0.032 A 
HETATM    7  C   UNL     1      -4.949  -1.572 -33.981  1.00  0.00     0.002 A 
HETATM    8  C   UNL     1      -6.150  -1.878 -34.651  1.00  0.00     0.002 A 
HETATM    9  C   UNL     1      -7.381  -1.348 -34.237  1.00  0.00     0.032 A 
ENDROOT
BRANCH   1  10
HETATM   10  C   UNL     1      -9.790   0.033 -32.709  1.00  0.00     0.184 C 
BRANCH  10  11
HETATM   11  C   UNL     1     -10.323   1.025 -33.772  1.00  0.00     0.170 C 
BRANCH  11  12
HETATM   12  C   UNL     1     -11.822   1.217 -33.681  1.00  0.00    -0.028 A 
HETATM   13  C   UNL     1     -12.671   0.108 -33.787  1.00  0.00     0.012 A 
HETATM   14  C   UNL     1     -14.049   0.253 -33.625  1.00  0.00     0.037 A 
HETATM   15  C   UNL     1     -14.607   1.504 -33.362  1.00  0.00     0.068 A 
HETATM   16  C   UNL     1     -13.774   2.619 -33.276  1.00  0.00     0.037 A 
HETATM   17  C   UNL     1     -12.390   2.478 -33.435  1.00  0.00     0.012 A 
BRANCH  15  18
HETATM   18  O   UNL     1     -15.964   1.495 -33.203  1.00  0.00    -0.356 OA
HETATM   19  C   UNL     1     -16.521   2.457 -32.314  1.00  0.00     0.210 C 
ENDBRANCH  15  18
ENDBRANCH  11  12
BRANCH  11  20
HETATM   20  O   UNL     1      -9.662   2.281 -33.618  1.00  0.00    -0.389 OA
HETATM   21  H   UNL     1     -10.345   2.939 -33.387  1.00  0.00     0.210 HD
ENDBRANCH  11  20
ENDBRANCH  10  11
ENDBRANCH   1  10
BRANCH   2  22
HETATM   22  N   UNL     1      -8.449   1.728 -30.666  1.00  0.00    -0.234 N 
HETATM   23  H   UNL     1      -8.149   2.683 -30.557  1.00  0.00     0.174 HD
HETATM   24  H   UNL     1      -9.238   1.421 -30.117  1.00  0.00     0.174 HD
ENDBRANCH   2  22
BRANCH   3  25
HETATM   25  C   UNL     1      -5.588   1.098 -30.372  1.00  0.00     0.186 C 
BRANCH  25  26
HETATM   26  C   UNL     1      -4.831   2.339 -30.781  1.00  0.00    -0.039 A 
HETATM   27  C   UNL     1      -3.598   2.318 -31.450  1.00  0.00     0.009 A 
HETATM   28  C   UNL     1      -2.937   3.505 -31.774  1.00  0.00     0.001 A 
HETATM   29  C   UNL     1      -3.499   4.733 -31.435  1.00  0.00     0.000 A 
HETATM   30  C   UNL     1      -4.723   4.776 -30.775  1.00  0.00     0.001 A 
HETATM   31  C   UNL     1      -5.385   3.589 -30.451  1.00  0.00     0.009 A 
ENDBRANCH  25  26
ENDBRANCH   3  25
TORSDOF 8
ENDMDL
MODEL 4
REMARK VINA RESULT:      -8.1      2.871      7.496
REMARK  8 active torsions:
REMARK  status: ('A' for Active; 'I' for Inactive)
REMARK    1  A    between atoms: O_2  and  C_3 
REMARK    2  A    between atoms: C_6  and  C_7 
REMARK    3  A    between atoms: C_7  and  O_8 
REMARK    4  A    between atoms: C_7  and  C_9 
REMARK    5  A    between atoms: C_9  and  N_10 
REMARK    6  A    between atoms: C_11  and  N_12 
REMARK    7  A    between atoms: N_13  and  C_14 
REMARK    8  A    between atoms: C_14  and  C_15 
ROOT
HETATM    1  N   UNL     1      -7.570   0.823 -31.436  1.00  0.00    -0.178 N 
HETATM    2  C   UNL     1      -8.700   1.514 -31.545  1.00  0.00     0.681 A 
HETATM    3  N   UNL     1      -9.039   1.617 -32.823  1.00  0.00    -0.177 N 
HETATM    4  C   UNL     1      -8.143   0.879 -33.591  1.00  0.00     0.079 A 
HETATM    5  C   UNL     1      -7.201   0.361 -32.698  1.00  0.00     0.079 A 
HETATM    6  C   UNL     1      -8.083   0.635 -34.961  1.00  0.00     0.032 A 
HETATM    7  C   UNL     1      -7.013  -0.158 -35.398  1.00  0.00     0.002 A 
HETATM    8  C   UNL     1      -6.061  -0.676 -34.499  1.00  0.00     0.002 A 
HETATM    9  C   UNL     1      -6.134  -0.426 -33.121  1.00  0.00     0.032 A 
ENDROOT
BRANCH   1  10
HETATM   10  C   UNL     1      -6.786   0.635 -30.207  1.00  0.00     0.184 C 
BRANCH  10  11
HETATM   11  C   UNL     1      -6.112   1.930 -29.690  1.00  0.00     0.170 C 
BRANCH  11  12
HETATM   12  C   UNL     1      -5.354   2.659 -30.780  1.00  0.00    -0.028 A 
HETATM   13  C   UNL     1      -4.158   2.120 -31.272  1.00  0.00     0.012 A 
HETATM   14  C   UNL     1      -3.488   2.734 -32.331  1.00  0.00     0.037 A 
HETATM   15  C   UNL     1      -3.992   3.898 -32.913  1.00  0.00     0.068 A 
HETATM   16  C   UNL     1      -5.170   4.455 -32.417  1.00  0.00     0.037 A 
HETATM   17  C   UNL     1      -5.848   3.840 -31.357  1.00  0.00     0.012 A 
BRANCH  15  18
HETATM   18  O   UNL     1      -3.247   4.376 -33.955  1.00  0.00    -0.356 OA
HETATM   19  C   UNL     1      -3.912   5.203 -34.902  1.00  0.00     0.210 C 
ENDBRANCH  15  18
ENDBRANCH  11  12
BRANCH  11  20
HETATM   20  O   UNL     1      -7.105   2.790 -29.131  1.00  0.00    -0.389 OA
HETATM   21  H   UNL     1      -6.645   3.584 -28.800  1.00  0.00     0.210 HD
ENDBRANCH  11  20
ENDBRANCH  10  11
ENDBRANCH   1  10
BRANCH   2  22
HETATM   22  N   UNL     1      -9.400   2.019 -30.530  1.00  0.00    -0.234 N 
HETATM   23  H   UNL     1     -10.235   1.569 -30.191  1.00  0.00     0.174 HD
HETATM   24  H   UNL     1      -9.131   2.890 -30.099  1.00  0.00     0.174 HD
ENDBRANCH   2  22
BRANCH   3  25
HETATM   25  C   UNL     1     -10.116   2.442 -33.354  1.00  0.00     0.186 C 
BRANCH  25  26
HETATM   26  C   UNL     1     -11.418   1.686 -33.464  1.00  0.00    -0.039 A 
HETATM   27  C   UNL     1     -11.515   0.286 -33.428  1.00  0.00     0.009 A 
HETATM   28  C   UNL     1     -12.751  -0.351 -33.564  1.00  0.00     0.001 A 
HETATM   29  C   UNL     1     -13.910   0.401 -33.737  1.00  0.00     0.000 A 
HETATM   30  C   UNL     1     -13.836   1.790 -33.772  1.00  0.00     0.001 A 
HETATM   31  C   UNL     1     -12.601   2.428 -33.635  1.00  0.00     0.009 A 
ENDBRANCH  25  26
ENDBRANCH   3  25
TORSDOF 8
ENDMDL
MODEL 5
REMARK VINA RESULT:      -8.1      3.456      7.686
REMARK  8 active torsions:
REMARK  status: ('A' for Active; 'I' for Inactive)
REMARK    1  A    between atoms: O_2  and  C_3 
REMARK    2  A    between atoms: C_6  and  C_7 
REMARK    3  A    between atoms: C_7  and  O_8 
REMARK    4  A    between atoms: C_7  and  C_9 
REMARK    5  A    between atoms: C_9  and  N_10 
REMARK    6  A    between atoms: C_11  and  N_12 
REMARK    7  A    between atoms: N_13  and  C_14 
REMARK    8  A    between atoms: C_14  and  C_15 
ROOT
HETATM    1  N   UNL     1      -6.892   3.582 -32.581  1.00  0.00    -0.178 N 
HETATM    2  C   UNL     1      -6.360   2.456 -32.116  1.00  0.00     0.681 A 
HETATM    3  N   UNL     1      -7.185   1.444 -32.347  1.00  0.00    -0.177 N 
HETATM    4  C   UNL     1      -8.272   1.903 -33.085  1.00  0.00     0.079 A 
HETATM    5  C   UNL     1      -8.081   3.278 -33.242  1.00  0.00     0.079 A 
HETATM    6  C   UNL     1      -9.380   1.241 -33.608  1.00  0.00     0.032 A 
HETATM    7  C   UNL     1     -10.302   2.037 -34.300  1.00  0.00     0.002 A 
HETATM    8  C   UNL     1     -10.113   3.424 -34.455  1.00  0.00     0.002 A 
HETATM    9  C   UNL     1      -8.991   4.079 -33.926  1.00  0.00     0.032 A 
ENDROOT
BRANCH   1  10
HETATM   10  C   UNL     1      -6.365   4.938 -32.372  1.00  0.00     0.184 C 
BRANCH  10  11
HETATM   11  C   UNL     1      -5.391   5.409 -33.479  1.00  0.00     0.170 C 
BRANCH  11  12
HETATM   12  C   UNL     1      -3.942   5.332 -33.043  1.00  0.00    -0.028 A 
HETATM   13  C   UNL     1      -3.611   5.549 -31.700  1.00  0.00     0.012 A 
HETATM   14  C   UNL     1      -2.293   5.402 -31.263  1.00  0.00     0.037 A 
HETATM   15  C   UNL     1      -1.283   5.046 -32.156  1.00  0.00     0.068 A 
HETATM   16  C   UNL     1      -1.598   4.848 -33.500  1.00  0.00     0.037 A 
HETATM   17  C   UNL     1      -2.919   4.991 -33.942  1.00  0.00     0.012 A 
BRANCH  15  18
HETATM   18  O   UNL     1      -0.047   4.915 -31.589  1.00  0.00    -0.356 OA
HETATM   19  C   UNL     1       0.053   5.148 -30.189  1.00  0.00     0.210 C 
ENDBRANCH  15  18
ENDBRANCH  11  12
BRANCH  11  20
HETATM   20  O   UNL     1      -5.587   4.617 -34.650  1.00  0.00    -0.389 OA
HETATM   21  H   UNL     1      -5.736   5.233 -35.393  1.00  0.00     0.210 HD
ENDBRANCH  11  20
ENDBRANCH  10  11
ENDBRANCH   1  10
BRANCH   2  22
HETATM   22  N   UNL     1      -5.174   2.349 -31.518  1.00  0.00    -0.234 N 
HETATM   23  H   UNL     1      -4.478   3.073 -31.596  1.00  0.00     0.174 HD
HETATM   24  H   UNL     1      -4.929   1.518 -31.002  1.00  0.00     0.174 HD
ENDBRANCH   2  22
BRANCH   3  25
HETATM   25  C   UNL     1      -7.032   0.087 -31.836  1.00  0.00     0.186 C 
BRANCH  25  26
HETATM   26  C   UNL     1      -6.399  -0.839 -32.846  1.00  0.00    -0.039 A 
HETATM   27  C   UNL     1      -7.117  -1.516 -33.845  1.00  0.00     0.009 A 
HETATM   28  C   UNL     1      -6.470  -2.382 -34.730  1.00  0.00     0.001 A 
HETATM   29  C   UNL     1      -5.097  -2.585 -34.632  1.00  0.00     0.000 A 
HETATM   30  C   UNL     1      -4.366  -1.921 -33.652  1.00  0.00     0.001 A 
HETATM   31  C   UNL     1      -5.011  -1.054 -32.766  1.00  0.00     0.009 A 
ENDBRANCH  25  26
ENDBRANCH   3  25
TORSDOF 8
ENDMDL
MODEL 6
REMARK VINA RESULT:      -8.0     15.563     17.514
REMARK  8 active torsions:
REMARK  status: ('A' for Active; 'I' for Inactive)
REMARK    1  A    between atoms: O_2  and  C_3 
REMARK    2  A    between atoms: C_6  and  C_7 
REMARK    3  A    between atoms: C_7  and  O_8 
REMARK    4  A    between atoms: C_7  and  C_9 
REMARK    5  A    between atoms: C_9  and  N_10 
REMARK    6  A    between atoms: C_11  and  N_12 
REMARK    7  A    between atoms: N_13  and  C_14 
REMARK    8  A    between atoms: C_14  and  C_15 
ROOT
HETATM    1  N   UNL     1      -4.845 -13.731 -39.213  1.00  0.00    -0.178 N 
HETATM    2  C   UNL     1      -3.906 -13.057 -38.555  1.00  0.00     0.681 A 
HETATM    3  N   UNL     1      -2.732 -13.234 -39.147  1.00  0.00    -0.177 N 
HETATM    4  C   UNL     1      -2.916 -13.982 -40.305  1.00  0.00     0.079 A 
HETATM    5  C   UNL     1      -4.276 -14.297 -40.353  1.00  0.00     0.079 A 
HETATM    6  C   UNL     1      -2.020 -14.401 -41.287  1.00  0.00     0.032 A 
HETATM    7  C   UNL     1      -2.563 -15.166 -42.327  1.00  0.00     0.002 A 
HETATM    8  C   UNL     1      -3.933 -15.488 -42.373  1.00  0.00     0.002 A 
HETATM    9  C   UNL     1      -4.826 -15.058 -41.381  1.00  0.00     0.032 A 
ENDROOT
BRANCH   1  10
HETATM   10  C   UNL     1      -6.236 -13.922 -38.779  1.00  0.00     0.184 C 
BRANCH  10  11
HETATM   11  C   UNL     1      -7.155 -12.710 -39.070  1.00  0.00     0.170 C 
BRANCH  11  12
HETATM   12  C   UNL     1      -8.470 -13.122 -39.698  1.00  0.00    -0.028 A 
HETATM   13  C   UNL     1      -8.627 -14.425 -40.186  1.00  0.00     0.012 A 
HETATM   14  C   UNL     1      -9.856 -14.848 -40.693  1.00  0.00     0.037 A 
HETATM   15  C   UNL     1     -10.948 -13.979 -40.731  1.00  0.00     0.068 A 
HETATM   16  C   UNL     1     -10.796 -12.673 -40.267  1.00  0.00     0.037 A 
HETATM   17  C   UNL     1      -9.565 -12.245 -39.754  1.00  0.00     0.012 A 
BRANCH  15  18
HETATM   18  O   UNL     1     -12.093 -14.532 -41.230  1.00  0.00    -0.356 OA
HETATM   19  C   UNL     1     -11.953 -15.671 -42.070  1.00  0.00     0.210 C 
ENDBRANCH  15  18
ENDBRANCH  11  12
BRANCH  11  20
HETATM   20  O   UNL     1      -7.397 -11.999 -37.857  1.00  0.00    -0.389 OA
HETATM   21  H   UNL     1      -8.229 -11.502 -37.976  1.00  0.00     0.210 HD
ENDBRANCH  11  20
ENDBRANCH  10  11
ENDBRANCH   1  10
BRANCH   2  22
HETATM   22  N   UNL     1      -4.107 -12.306 -37.473  1.00  0.00    -0.234 N 
HETATM   23  H   UNL     1      -3.337 -11.927 -36.945  1.00  0.00     0.174 HD
HETATM   24  H   UNL     1      -5.040 -12.127 -37.133  1.00  0.00     0.174 HD
ENDBRANCH   2  22
BRANCH   3  25
HETATM   25  C   UNL     1      -1.443 -12.797 -38.626  1.00  0.00     0.186 C 
BRANCH  25  26
HETATM   26  C   UNL     1      -0.640 -13.938 -38.048  1.00  0.00    -0.039 A 
HETATM   27  C   UNL     1      -1.022 -14.663 -36.909  1.00  0.00     0.009 A 
HETATM   28  C   UNL     1      -0.216 -15.690 -36.410  1.00  0.00     0.001 A 
HETATM   29  C   UNL     1       0.983 -16.008 -37.042  1.00  0.00     0.000 A 
HETATM   30  C   UNL     1       1.377 -15.303 -38.175  1.00  0.00     0.001 A 
HETATM   31  C   UNL     1       0.572 -14.277 -38.675  1.00  0.00     0.009 A 
ENDBRANCH  25  26
ENDBRANCH   3  25
TORSDOF 8
ENDMDL
MODEL 7
REMARK VINA RESULT:      -7.9      2.595      7.792
REMARK  8 active torsions:
REMARK  status: ('A' for Active; 'I' for Inactive)
REMARK    1  A    between atoms: O_2  and  C_3 
REMARK    2  A    between atoms: C_6  and  C_7 
REMARK    3  A    between atoms: C_7  and  O_8 
REMARK    4  A    between atoms: C_7  and  C_9 
REMARK    5  A    between atoms: C_9  and  N_10 
REMARK    6  A    between atoms: C_11  and  N_12 
REMARK    7  A    between atoms: N_13  and  C_14 
REMARK    8  A    between atoms: C_14  and  C_15 
ROOT
HETATM    1  N   UNL     1      -8.714   1.893 -32.678  1.00  0.00    -0.178 N 
HETATM    2  C   UNL     1      -9.529   1.964 -33.726  1.00  0.00     0.681 A 
HETATM    3  N   UNL     1     -10.332   3.011 -33.598  1.00  0.00    -0.177 N 
HETATM    4  C   UNL     1      -9.970   3.724 -32.458  1.00  0.00     0.079 A 
HETATM    5  C   UNL     1      -8.924   3.009 -31.869  1.00  0.00     0.079 A 
HETATM    6  C   UNL     1     -10.466   4.904 -31.910  1.00  0.00     0.032 A 
HETATM    7  C   UNL     1      -9.859   5.333 -30.722  1.00  0.00     0.002 A 
HETATM    8  C   UNL     1      -8.808   4.610 -30.125  1.00  0.00     0.002 A 
HETATM    9  C   UNL     1      -8.314   3.425 -30.689  1.00  0.00     0.032 A 
ENDROOT
BRANCH   1  10
HETATM   10  C   UNL     1      -7.796   0.788 -32.370  1.00  0.00     0.184 C 
BRANCH  10  11
HETATM   11  C   UNL     1      -6.438   0.877 -33.108  1.00  0.00     0.170 C 
BRANCH  11  12
HETATM   12  C   UNL     1      -5.944  -0.477 -33.573  1.00  0.00    -0.028 A 
HETATM   13  C   UNL     1      -4.710  -0.959 -33.118  1.00  0.00     0.012 A 
HETATM   14  C   UNL     1      -4.276  -2.238 -33.470  1.00  0.00     0.037 A 
HETATM   15  C   UNL     1      -5.058  -3.055 -34.287  1.00  0.00     0.068 A 
HETATM   16  C   UNL     1      -6.278  -2.577 -34.764  1.00  0.00     0.037 A 
HETATM   17  C   UNL     1      -6.720  -1.296 -34.410  1.00  0.00     0.012 A 
BRANCH  15  18
HETATM   18  O   UNL     1      -4.522  -4.288 -34.532  1.00  0.00    -0.356 OA
HETATM   19  C   UNL     1      -3.456  -4.711 -33.691  1.00  0.00     0.210 C 
ENDBRANCH  15  18
ENDBRANCH  11  12
BRANCH  11  20
HETATM   20  O   UNL     1      -6.563   1.758 -34.224  1.00  0.00    -0.389 OA
HETATM   21  H   UNL     1      -5.660   1.974 -34.523  1.00  0.00     0.210 HD
ENDBRANCH  11  20
ENDBRANCH  10  11
ENDBRANCH   1  10
BRANCH   2  22
HETATM   22  N   UNL     1      -9.536   1.123 -34.760  1.00  0.00    -0.234 N 
HETATM   23  H   UNL     1      -8.712   0.608 -35.025  1.00  0.00     0.174 HD
HETATM   24  H   UNL     1     -10.361   1.009 -35.328  1.00  0.00     0.174 HD
ENDBRANCH   2  22
BRANCH   3  25
HETATM   25  C   UNL     1     -11.469   3.322 -34.454  1.00  0.00     0.186 C 
BRANCH  25  26
HETATM   26  C   UNL     1     -12.715   2.573 -34.049  1.00  0.00    -0.039 A 
HETATM   27  C   UNL     1     -13.154   1.392 -34.668  1.00  0.00     0.009 A 
HETATM   28  C   UNL     1     -14.334   0.765 -34.261  1.00  0.00     0.001 A 
HETATM   29  C   UNL     1     -15.094   1.308 -33.229  1.00  0.00     0.000 A 
HETATM   30  C   UNL     1     -14.675   2.476 -32.599  1.00  0.00     0.001 A 
HETATM   31  C   UNL     1     -13.495   3.103 -33.005  1.00  0.00     0.009 A 
ENDBRANCH  25  26
ENDBRANCH   3  25
TORSDOF 8
ENDMDL
MODEL 8
REMARK VINA RESULT:      -7.9      5.294      8.683
REMARK  8 active torsions:
REMARK  status: ('A' for Active; 'I' for Inactive)
REMARK    1  A    between atoms: O_2  and  C_3 
REMARK    2  A    between atoms: C_6  and  C_7 
REMARK    3  A    between atoms: C_7  and  O_8 
REMARK    4  A    between atoms: C_7  and  C_9 
REMARK    5  A    between atoms: C_9  and  N_10 
REMARK    6  A    between atoms: C_11  and  N_12 
REMARK    7  A    between atoms: N_13  and  C_14 
REMARK    8  A    between atoms: C_14  and  C_15 
ROOT
HETATM    1  N   UNL     1      -3.578   4.430 -31.725  1.00  0.00    -0.178 N 
HETATM    2  C   UNL     1      -3.779   5.329 -30.766  1.00  0.00     0.681 A 
HETATM    3  N   UNL     1      -3.056   6.413 -31.012  1.00  0.00    -0.177 N 
HETATM    4  C   UNL     1      -2.419   6.265 -32.240  1.00  0.00     0.079 A 
HETATM    5  C   UNL     1      -2.759   4.992 -32.704  1.00  0.00     0.079 A 
HETATM    6  C   UNL     1      -1.589   7.122 -32.960  1.00  0.00     0.032 A 
HETATM    7  C   UNL     1      -1.106   6.629 -34.179  1.00  0.00     0.002 A 
HETATM    8  C   UNL     1      -1.445   5.344 -34.645  1.00  0.00     0.002 A 
HETATM    9  C   UNL     1      -2.284   4.492 -33.913  1.00  0.00     0.032 A 
ENDROOT
BRANCH   1  10
HETATM   10  C   UNL     1      -4.066   3.044 -31.727  1.00  0.00     0.184 C 
BRANCH  10  11
HETATM   11  C   UNL     1      -5.469   2.875 -32.359  1.00  0.00     0.170 C 
BRANCH  11  12
HETATM   12  C   UNL     1      -5.616   1.560 -33.095  1.00  0.00    -0.028 A 
HETATM   13  C   UNL     1      -4.872   0.447 -32.681  1.00  0.00     0.012 A 
HETATM   14  C   UNL     1      -5.053  -0.793 -33.293  1.00  0.00     0.037 A 
HETATM   15  C   UNL     1      -5.971  -0.947 -34.333  1.00  0.00     0.068 A 
HETATM   16  C   UNL     1      -6.701   0.158 -34.767  1.00  0.00     0.037 A 
HETATM   17  C   UNL     1      -6.525   1.405 -34.154  1.00  0.00     0.012 A 
BRANCH  15  18
HETATM   18  O   UNL     1      -6.062  -2.219 -34.822  1.00  0.00    -0.356 OA
HETATM   19  C   UNL     1      -4.906  -3.042 -34.715  1.00  0.00     0.210 C 
ENDBRANCH  15  18
ENDBRANCH  11  12
BRANCH  11  20
HETATM   20  O   UNL     1      -6.463   2.974 -31.339  1.00  0.00    -0.389 OA
HETATM   21  H   UNL     1      -5.995   3.108 -30.493  1.00  0.00     0.210 HD
ENDBRANCH  11  20
ENDBRANCH  10  11
ENDBRANCH   1  10
BRANCH   2  22
HETATM   22  N   UNL     1      -4.591   5.177 -29.721  1.00  0.00    -0.234 N 
HETATM   23  H   UNL     1      -5.586   5.071 -29.839  1.00  0.00     0.174 HD
HETATM   24  H   UNL     1      -4.232   5.204 -28.779  1.00  0.00     0.174 HD
ENDBRANCH   2  22
BRANCH   3  25
HETATM   25  C   UNL     1      -2.879   7.541 -30.106  1.00  0.00     0.186 C 
BRANCH  25  26
HETATM   26  C   UNL     1      -1.683   7.369 -29.201  1.00  0.00    -0.039 A 
HETATM   27  C   UNL     1      -0.352   7.476 -29.634  1.00  0.00     0.009 A 
HETATM   28  C   UNL     1       0.708   7.276 -28.747  1.00  0.00     0.001 A 
HETATM   29  C   UNL     1       0.456   6.969 -27.413  1.00  0.00     0.000 A 
HETATM   30  C   UNL     1      -0.856   6.863 -26.962  1.00  0.00     0.001 A 
HETATM   31  C   UNL     1      -1.918   7.062 -27.848  1.00  0.00     0.009 A 
ENDBRANCH  25  26
ENDBRANCH   3  25
TORSDOF 8
ENDMDL
MODEL 9
REMARK VINA RESULT:      -7.9     15.849     19.393
REMARK  8 active torsions:
REMARK  status: ('A' for Active; 'I' for Inactive)
REMARK    1  A    between atoms: O_2  and  C_3 
REMARK    2  A    between atoms: C_6  and  C_7 
REMARK    3  A    between atoms: C_7  and  O_8 
REMARK    4  A    between atoms: C_7  and  C_9 
REMARK    5  A    between atoms: C_9  and  N_10 
REMARK    6  A    between atoms: C_11  and  N_12 
REMARK    7  A    between atoms: N_13  and  C_14 
REMARK    8  A    between atoms: C_14  and  C_15 
ROOT
HETATM    1  N   UNL     1      -4.186 -13.899 -38.920  1.00  0.00    -0.178 N 
HETATM    2  C   UNL     1      -5.294 -13.165 -38.948  1.00  0.00     0.681 A 
HETATM    3  N   UNL     1      -5.700 -13.018 -40.202  1.00  0.00    -0.177 N 
HETATM    4  C   UNL     1      -4.876 -13.768 -41.037  1.00  0.00     0.079 A 
HETATM    5  C   UNL     1      -3.905 -14.340 -40.211  1.00  0.00     0.079 A 
HETATM    6  C   UNL     1      -4.902 -13.979 -42.413  1.00  0.00     0.032 A 
HETATM    7  C   UNL     1      -3.888 -14.798 -42.928  1.00  0.00     0.002 A 
HETATM    8  C   UNL     1      -2.906 -15.372 -42.098  1.00  0.00     0.002 A 
HETATM    9  C   UNL     1      -2.893 -15.154 -40.712  1.00  0.00     0.032 A 
ENDROOT
BRANCH   1  10
HETATM   10  C   UNL     1      -3.342 -14.144 -37.742  1.00  0.00     0.184 C 
BRANCH  10  11
HETATM   11  C   UNL     1      -2.080 -13.250 -37.678  1.00  0.00     0.170 C 
BRANCH  11  12
HETATM   12  C   UNL     1      -0.799 -14.052 -37.779  1.00  0.00    -0.028 A 
HETATM   13  C   UNL     1      -0.540 -15.064 -36.846  1.00  0.00     0.012 A 
HETATM   14  C   UNL     1       0.595 -15.867 -36.970  1.00  0.00     0.037 A 
HETATM   15  C   UNL     1       1.493 -15.673 -38.020  1.00  0.00     0.068 A 
HETATM   16  C   UNL     1       1.256 -14.654 -38.942  1.00  0.00     0.037 A 
HETATM   17  C   UNL     1       0.117 -13.848 -38.823  1.00  0.00     0.012 A 
BRANCH  15  18
HETATM   18  O   UNL     1       2.545 -16.545 -38.032  1.00  0.00    -0.356 OA
HETATM   19  C   UNL     1       2.302 -17.848 -38.549  1.00  0.00     0.210 C 
ENDBRANCH  15  18
ENDBRANCH  11  12
BRANCH  11  20
HETATM   20  O   UNL     1      -2.132 -12.283 -38.727  1.00  0.00    -0.389 OA
HETATM   21  H   UNL     1      -1.441 -11.619 -38.541  1.00  0.00     0.210 HD
ENDBRANCH  11  20
ENDBRANCH  10  11
ENDBRANCH   1  10
BRANCH   2  22
HETATM   22  N   UNL     1      -5.917 -12.662 -37.884  1.00  0.00    -0.234 N 
HETATM   23  H   UNL     1      -6.212 -13.249 -37.119  1.00  0.00     0.174 HD
HETATM   24  H   UNL     1      -6.145 -11.680 -37.834  1.00  0.00     0.174 HD
ENDBRANCH   2  22
BRANCH   3  25
HETATM   25  C   UNL     1      -6.775 -12.143 -40.652  1.00  0.00     0.186 C 
BRANCH  25  26
HETATM   26  C   UNL     1      -8.133 -12.792 -40.532  1.00  0.00    -0.039 A 
HETATM   27  C   UNL     1      -8.366 -14.161 -40.736  1.00  0.00     0.009 A 
HETATM   28  C   UNL     1      -9.655 -14.690 -40.637  1.00  0.00     0.001 A 
HETATM   29  C   UNL     1     -10.731 -13.861 -40.330  1.00  0.00     0.000 A 
HETATM   30  C   UNL     1     -10.520 -12.502 -40.120  1.00  0.00     0.001 A 
HETATM   31  C   UNL     1      -9.232 -11.971 -40.219  1.00  0.00     0.009 A 
ENDBRANCH  25  26
ENDBRANCH   3  25
TORSDOF 8
ENDMDL
MODEL 10
REMARK VINA RESULT:      -7.9      3.159      6.787
REMARK  8 active torsions:
REMARK  status: ('A' for Active; 'I' for Inactive)
REMARK    1  A    between atoms: O_2  and  C_3 
REMARK    2  A    between atoms: C_6  and  C_7 
REMARK    3  A    between atoms: C_7  and  O_8 
REMARK    4  A    between atoms: C_7  and  C_9 
REMARK    5  A    between atoms: C_9  and  N_10 
REMARK    6  A    between atoms: C_11  and  N_12 
REMARK    7  A    between atoms: N_13  and  C_14 
REMARK    8  A    between atoms: C_14  and  C_15 
ROOT
HETATM    1  N   UNL     1      -5.378   0.717 -31.334  1.00  0.00    -0.178 N 
HETATM    2  C   UNL     1      -6.593   0.949 -30.845  1.00  0.00     0.681 A 
HETATM    3  N   UNL     1      -7.502   0.359 -31.610  1.00  0.00    -0.177 N 
HETATM    4  C   UNL     1      -6.855  -0.378 -32.598  1.00  0.00     0.079 A 
HETATM    5  C   UNL     1      -5.488  -0.153 -32.417  1.00  0.00     0.079 A 
HETATM    6  C   UNL     1      -7.347  -1.197 -33.611  1.00  0.00     0.032 A 
HETATM    7  C   UNL     1      -6.388  -1.781 -34.449  1.00  0.00     0.002 A 
HETATM    8  C   UNL     1      -5.010  -1.551 -34.271  1.00  0.00     0.002 A 
HETATM    9  C   UNL     1      -4.527  -0.728 -33.244  1.00  0.00     0.032 A 
ENDROOT
BRANCH   1  10
HETATM   10  C   UNL     1      -4.128   1.333 -30.869  1.00  0.00     0.184 C 
BRANCH  10  11
HETATM   11  C   UNL     1      -3.603   2.460 -31.792  1.00  0.00     0.170 C 
BRANCH  11  12
HETATM   12  C   UNL     1      -4.671   3.484 -32.115  1.00  0.00    -0.028 A 
HETATM   13  C   UNL     1      -5.126   4.351 -31.112  1.00  0.00     0.012 A 
HETATM   14  C   UNL     1      -6.049   5.354 -31.409  1.00  0.00     0.037 A 
HETATM   15  C   UNL     1      -6.541   5.508 -32.706  1.00  0.00     0.068 A 
HETATM   16  C   UNL     1      -6.111   4.638 -33.707  1.00  0.00     0.037 A 
HETATM   17  C   UNL     1      -5.182   3.632 -33.414  1.00  0.00     0.012 A 
BRANCH  15  18
HETATM   18  O   UNL     1      -7.418   6.545 -32.858  1.00  0.00    -0.356 OA
HETATM   19  C   UNL     1      -8.403   6.717 -31.845  1.00  0.00     0.210 C 
ENDBRANCH  15  18
ENDBRANCH  11  12
BRANCH  11  20
HETATM   20  O   UNL     1      -2.489   3.100 -31.172  1.00  0.00    -0.389 OA
HETATM   21  H   UNL     1      -1.877   2.396 -30.882  1.00  0.00     0.210 HD
ENDBRANCH  11  20
ENDBRANCH  10  11
ENDBRANCH   1  10
BRANCH   2  22
HETATM   22  N   UNL     1      -6.865   1.653 -29.748  1.00  0.00    -0.234 N 
HETATM   23  H   UNL     1      -6.867   2.660 -29.755  1.00  0.00     0.174 HD
HETATM   24  H   UNL     1      -7.039   1.192 -28.867  1.00  0.00     0.174 HD
ENDBRANCH   2  22
BRANCH   3  25
HETATM   25  C   UNL     1      -8.945   0.523 -31.497  1.00  0.00     0.186 C 
BRANCH  25  26
HETATM   26  C   UNL     1      -9.508   1.418 -32.575  1.00  0.00    -0.039 A 
HETATM   27  C   UNL     1      -9.137   2.761 -32.749  1.00  0.00     0.009 A 
HETATM   28  C   UNL     1      -9.719   3.541 -33.751  1.00  0.00     0.001 A 
HETATM   29  C   UNL     1     -10.680   2.992 -34.595  1.00  0.00     0.000 A 
HETATM   30  C   UNL     1     -11.059   1.662 -34.442  1.00  0.00     0.001 A 
HETATM   31  C   UNL     1     -10.477   0.880 -33.441  1.00  0.00     0.009 A 
ENDBRANCH  25  26
ENDBRANCH   3  25
TORSDOF 8
ENDMDL
