MODEL 1
REMARK VINA RESULT:      -8.1      0.000      0.000
REMARK  6 active torsions:
REMARK  status: ('A' for Active; 'I' for Inactive)
REMARK    1  A    between atoms: O_2  and  C_3 
REMARK    2  A    between atoms: C_3  and  C_4 
REMARK    3  A    between atoms: C_4  and  N_5 
REMARK       I    between atoms: N_5  and  C_6 
REMARK    4  A    between atoms: C_6  and  C_7 
REMARK    5  A    between atoms: C_12  and  C_13 
REMARK    6  A    between atoms: C_21  and  C_22 
ROOT
HETATM    1  C   UNL     1      -4.770   2.392 -32.479  1.00  0.00     0.170 A 
HETATM    2  N   UNL     1      -4.882   1.041 -32.524  1.00  0.00    -0.163 NA
HETATM    3  N   UNL     1      -6.188   0.831 -32.755  1.00  0.00    -0.238 N 
HETATM    4  C   UNL     1      -6.940   1.976 -32.734  1.00  0.00     0.145 A 
HETATM    5  N   UNL     1      -8.294   1.926 -32.839  1.00  0.00    -0.365 N 
HETATM    6  C   UNL     1      -8.982   0.663 -32.589  1.00  0.00     0.118 C 
HETATM    7  C   UNL     1      -8.217  -0.467 -33.288  1.00  0.00     0.066 C 
HETATM    8  C   UNL     1      -6.753  -0.509 -32.808  1.00  0.00     0.221 C 
HETATM    9  C   UNL     1      -6.044   3.011 -32.603  1.00  0.00     0.115 A 
HETATM   10 CL   UNL     1      -6.412   4.668 -32.557  1.00  0.00    -0.077 Cl
HETATM   11  H   UNL     1      -8.832   2.763 -32.607  1.00  0.00     0.162 HD
ENDROOT
BRANCH   1  12
HETATM   12  C   UNL     1      -3.458   3.036 -32.301  1.00  0.00     0.273 C 
HETATM   13  N   UNL     1      -3.083   3.813 -33.377  1.00  0.00    -0.353 N 
HETATM   14  H   UNL     1      -3.802   3.972 -34.080  1.00  0.00     0.162 HD
HETATM   15  O   UNL     1      -2.765   2.907 -31.298  1.00  0.00    -0.266 OA
BRANCH  13  16
HETATM   16  C   UNL     1      -1.949   4.713 -33.333  1.00  0.00     0.149 C 
BRANCH  16  17
HETATM   17  C   UNL     1      -1.749   5.427 -34.668  1.00  0.00     0.186 C 
BRANCH  17  18
HETATM   18  O   UNL     1      -1.112   6.688 -34.437  1.00  0.00    -0.394 OA
HETATM   19  C   UNL     1      -1.754   7.413 -33.395  1.00  0.00     0.201 C 
ENDBRANCH  17  18
ENDBRANCH  16  17
ENDBRANCH  13  16
ENDBRANCH   1  12
BRANCH   8  20
HETATM   20  C   UNL     1      -5.950  -1.427 -33.705  1.00  0.00     0.409 C 
HETATM   21  F   UNL     1      -5.650  -0.857 -34.893  1.00  0.00    -0.169 F 
HETATM   22  F   UNL     1      -4.803  -1.858 -33.139  1.00  0.00    -0.169 F 
HETATM   23  F   UNL     1      -6.677  -2.544 -33.980  1.00  0.00    -0.169 F 
ENDBRANCH   8  20
BRANCH   6  24
HETATM   24  C   UNL     1     -10.417   0.735 -33.078  1.00  0.00    -0.035 A 
HETATM   25  C   UNL     1     -11.256  -0.392 -33.065  1.00  0.00     0.011 A 
HETATM   26  C   UNL     1     -12.581  -0.301 -33.500  1.00  0.00     0.024 A 
HETATM   27  C   UNL     1     -13.082   0.920 -33.942  1.00  0.00     0.034 A 
HETATM   28 CL   UNL     1     -14.714   1.035 -34.473  1.00  0.00    -0.084 Cl
HETATM   29  C   UNL     1     -12.269   2.051 -33.952  1.00  0.00     0.024 A 
HETATM   30  C   UNL     1     -10.943   1.959 -33.521  1.00  0.00     0.011 A 
ENDBRANCH   6  24
TORSDOF 6
ENDMDL
MODEL 2
REMARK VINA RESULT:      -7.9      2.676      3.351
REMARK  6 active torsions:
REMARK  status: ('A' for Active; 'I' for Inactive)
REMARK    1  A    between atoms: O_2  and  C_3 
REMARK    2  A    between atoms: C_3  and  C_4 
REMARK    3  A    between atoms: C_4  and  N_5 
REMARK       I    between atoms: N_5  and  C_6 
REMARK    4  A    between atoms: C_6  and  C_7 
REMARK    5  A    between atoms: C_12  and  C_13 
REMARK    6  A    between atoms: C_21  and  C_22 
ROOT
HETATM    1  C   UNL     1      -2.871   3.990 -32.023  1.00  0.00     0.170 A 
HETATM    2  N   UNL     1      -2.881   2.723 -31.541  1.00  0.00    -0.163 NA
HETATM    3  N   UNL     1      -4.129   2.291 -31.783  1.00  0.00    -0.238 N 
HETATM    4  C   UNL     1      -4.957   3.261 -32.284  1.00  0.00     0.145 A 
HETATM    5  N   UNL     1      -6.280   3.020 -32.480  1.00  0.00    -0.365 N 
HETATM    6  C   UNL     1      -6.903   1.881 -31.813  1.00  0.00     0.118 C 
HETATM    7  C   UNL     1      -5.977   0.665 -31.937  1.00  0.00     0.066 C 
HETATM    8  C   UNL     1      -4.586   0.979 -31.352  1.00  0.00     0.221 C 
HETATM    9  C   UNL     1      -4.160   4.363 -32.495  1.00  0.00     0.115 A 
HETATM   10 CL   UNL     1      -4.648   5.855 -33.140  1.00  0.00    -0.077 Cl
HETATM   11  H   UNL     1      -6.901   3.814 -32.646  1.00  0.00     0.162 HD
ENDROOT
BRANCH   1  12
HETATM   12  C   UNL     1      -1.642   4.799 -32.000  1.00  0.00     0.273 C 
HETATM   13  N   UNL     1      -1.067   4.882 -30.750  1.00  0.00    -0.353 N 
HETATM   14  H   UNL     1      -1.461   4.266 -30.040  1.00  0.00     0.162 HD
HETATM   15  O   UNL     1      -1.164   5.341 -32.991  1.00  0.00    -0.266 OA
BRANCH  13  16
HETATM   16  C   UNL     1       0.255   5.431 -30.532  1.00  0.00     0.149 C 
BRANCH  16  17
HETATM   17  C   UNL     1       0.803   5.044 -29.160  1.00  0.00     0.186 C 
BRANCH  17  18
HETATM   18  O   UNL     1       0.866   6.209 -28.332  1.00  0.00    -0.394 OA
HETATM   19  C   UNL     1      -0.187   6.228 -27.377  1.00  0.00     0.201 C 
ENDBRANCH  17  18
ENDBRANCH  16  17
ENDBRANCH  13  16
ENDBRANCH   1  12
BRANCH   8  20
HETATM   20  C   UNL     1      -3.614  -0.115 -31.738  1.00  0.00     0.409 C 
HETATM   21  F   UNL     1      -3.139   0.035 -32.994  1.00  0.00    -0.169 F 
HETATM   22  F   UNL     1      -2.563  -0.217 -30.897  1.00  0.00    -0.169 F 
HETATM   23  F   UNL     1      -4.245  -1.319 -31.700  1.00  0.00    -0.169 F 
ENDBRANCH   8  20
BRANCH   6  24
HETATM   24  C   UNL     1      -8.266   1.594 -32.414  1.00  0.00    -0.035 A 
HETATM   25  C   UNL     1      -8.867   0.328 -32.305  1.00  0.00     0.011 A 
HETATM   26  C   UNL     1     -10.132   0.089 -32.847  1.00  0.00     0.024 A 
HETATM   27  C   UNL     1     -10.812   1.116 -33.496  1.00  0.00     0.034 A 
HETATM   28 CL   UNL     1     -12.372   0.825 -34.161  1.00  0.00    -0.084 Cl
HETATM   29  C   UNL     1     -10.238   2.380 -33.606  1.00  0.00     0.024 A 
HETATM   30  C   UNL     1      -8.971   2.618 -33.067  1.00  0.00     0.011 A 
ENDBRANCH   6  24
TORSDOF 6
ENDMDL
MODEL 3
REMARK VINA RESULT:      -7.7      3.994      5.248
REMARK  6 active torsions:
REMARK  status: ('A' for Active; 'I' for Inactive)
REMARK    1  A    between atoms: O_2  and  C_3 
REMARK    2  A    between atoms: C_3  and  C_4 
REMARK    3  A    between atoms: C_4  and  N_5 
REMARK       I    between atoms: N_5  and  C_6 
REMARK    4  A    between atoms: C_6  and  C_7 
REMARK    5  A    between atoms: C_12  and  C_13 
REMARK    6  A    between atoms: C_21  and  C_22 
ROOT
HETATM    1  C   UNL     1      -5.081   4.714 -31.663  1.00  0.00     0.170 A 
HETATM    2  N   UNL     1      -6.399   4.395 -31.666  1.00  0.00    -0.163 NA
HETATM    3  N   UNL     1      -6.426   3.131 -32.117  1.00  0.00    -0.238 N 
HETATM    4  C   UNL     1      -5.203   2.665 -32.522  1.00  0.00     0.145 A 
HETATM    5  N   UNL     1      -5.076   1.445 -33.106  1.00  0.00    -0.365 N 
HETATM    6  C   UNL     1      -6.260   0.791 -33.654  1.00  0.00     0.118 C 
HETATM    7  C   UNL     1      -7.414   0.935 -32.655  1.00  0.00     0.066 C 
HETATM    8  C   UNL     1      -7.676   2.421 -32.340  1.00  0.00     0.221 C 
HETATM    9  C   UNL     1      -4.300   3.652 -32.198  1.00  0.00     0.115 A 
HETATM   10 CL   UNL     1      -2.620   3.605 -32.438  1.00  0.00    -0.077 Cl
HETATM   11  H   UNL     1      -4.200   1.223 -33.585  1.00  0.00     0.162 HD
ENDROOT
BRANCH   1  12
HETATM   12  C   UNL     1      -4.620   6.022 -31.168  1.00  0.00     0.273 C 
HETATM   13  N   UNL     1      -3.764   5.926 -30.092  1.00  0.00    -0.353 N 
HETATM   14  H   UNL     1      -3.435   4.987 -29.870  1.00  0.00     0.162 HD
HETATM   15  O   UNL     1      -4.954   7.094 -31.662  1.00  0.00    -0.266 OA
BRANCH  13  16
HETATM   16  C   UNL     1      -3.014   7.058 -29.586  1.00  0.00     0.149 C 
BRANCH  16  17
HETATM   17  C   UNL     1      -1.614   7.118 -30.191  1.00  0.00     0.186 C 
BRANCH  17  18
HETATM   18  O   UNL     1      -1.546   8.208 -31.115  1.00  0.00    -0.394 OA
HETATM   19  C   UNL     1      -1.559   7.751 -32.462  1.00  0.00     0.201 C 
ENDBRANCH  17  18
ENDBRANCH  16  17
ENDBRANCH  13  16
ENDBRANCH   1  12
BRANCH   8  20
HETATM   20  C   UNL     1      -8.610   2.531 -31.153  1.00  0.00     0.409 C 
HETATM   21  F   UNL     1      -7.946   2.594 -29.977  1.00  0.00    -0.169 F 
HETATM   22  F   UNL     1      -9.445   3.589 -31.226  1.00  0.00    -0.169 F 
HETATM   23  F   UNL     1      -9.404   1.428 -31.095  1.00  0.00    -0.169 F 
ENDBRANCH   8  20
BRANCH   6  24
HETATM   24  C   UNL     1      -5.971  -0.669 -33.948  1.00  0.00    -0.035 A 
HETATM   25  C   UNL     1      -4.698  -1.226 -33.731  1.00  0.00     0.011 A 
HETATM   26  C   UNL     1      -4.458  -2.578 -33.989  1.00  0.00     0.024 A 
HETATM   27  C   UNL     1      -5.488  -3.388 -34.456  1.00  0.00     0.034 A 
HETATM   28 CL   UNL     1      -5.195  -5.054 -34.769  1.00  0.00    -0.084 Cl
HETATM   29  C   UNL     1      -6.759  -2.858 -34.667  1.00  0.00     0.024 A 
HETATM   30  C   UNL     1      -6.999  -1.504 -34.414  1.00  0.00     0.011 A 
ENDBRANCH   6  24
TORSDOF 6
ENDMDL
MODEL 4
REMARK VINA RESULT:      -7.7      4.209      6.758
REMARK  6 active torsions:
REMARK  status: ('A' for Active; 'I' for Inactive)
REMARK    1  A    between atoms: O_2  and  C_3 
REMARK    2  A    between atoms: C_3  and  C_4 
REMARK    3  A    between atoms: C_4  and  N_5 
REMARK       I    between atoms: N_5  and  C_6 
REMARK    4  A    between atoms: C_6  and  C_7 
REMARK    5  A    between atoms: C_12  and  C_13 
REMARK    6  A    between atoms: C_21  and  C_22 
ROOT
HETATM    1  C   UNL     1      -8.091   4.060 -33.788  1.00  0.00     0.170 A 
HETATM    2  N   UNL     1      -9.109   3.165 -33.838  1.00  0.00    -0.163 NA
HETATM    3  N   UNL     1      -8.492   1.973 -33.876  1.00  0.00    -0.238 N 
HETATM    4  C   UNL     1      -7.129   2.063 -33.979  1.00  0.00     0.145 A 
HETATM    5  N   UNL     1      -6.363   0.952 -34.139  1.00  0.00    -0.365 N 
HETATM    6  C   UNL     1      -6.992  -0.287 -34.586  1.00  0.00     0.118 C 
HETATM    7  C   UNL     1      -8.302  -0.485 -33.815  1.00  0.00     0.066 C 
HETATM    8  C   UNL     1      -9.233   0.728 -34.005  1.00  0.00     0.221 C 
HETATM    9  C   UNL     1      -6.833   3.403 -33.878  1.00  0.00     0.115 A 
HETATM   10 CL   UNL     1      -5.286   4.103 -33.904  1.00  0.00    -0.077 Cl
HETATM   11  H   UNL     1      -5.389   1.069 -34.425  1.00  0.00     0.162 HD
ENDROOT
BRANCH   1  12
HETATM   12  C   UNL     1      -8.358   5.503 -33.674  1.00  0.00     0.273 C 
HETATM   13  N   UNL     1      -9.422   5.923 -34.444  1.00  0.00    -0.353 N 
HETATM   14  H   UNL     1      -9.980   5.184 -34.867  1.00  0.00     0.162 HD
HETATM   15  O   UNL     1      -7.710   6.262 -32.961  1.00  0.00    -0.266 OA
BRANCH  13  16
HETATM   16  C   UNL     1     -10.004   7.244 -34.319  1.00  0.00     0.149 C 
BRANCH  16  17
HETATM   17  C   UNL     1     -11.352   7.197 -33.604  1.00  0.00     0.186 C 
BRANCH  17  18
HETATM   18  O   UNL     1     -12.083   6.050 -34.051  1.00  0.00    -0.394 OA
HETATM   19  C   UNL     1     -13.153   6.417 -34.912  1.00  0.00     0.201 C 
ENDBRANCH  17  18
ENDBRANCH  16  17
ENDBRANCH  13  16
ENDBRANCH   1  12
BRANCH   8  20
HETATM   20  C   UNL     1     -10.381   0.647 -33.022  1.00  0.00     0.409 C 
HETATM   21  F   UNL     1     -10.098   1.248 -31.845  1.00  0.00    -0.169 F 
HETATM   22  F   UNL     1     -11.531   1.170 -33.499  1.00  0.00    -0.169 F 
HETATM   23  F   UNL     1     -10.648  -0.657 -32.741  1.00  0.00    -0.169 F 
ENDBRANCH   8  20
BRANCH   6  24
HETATM   24  C   UNL     1      -6.054  -1.462 -34.380  1.00  0.00    -0.035 A 
HETATM   25  C   UNL     1      -6.308  -2.717 -34.959  1.00  0.00     0.011 A 
HETATM   26  C   UNL     1      -5.421  -3.781 -34.775  1.00  0.00     0.024 A 
HETATM   27  C   UNL     1      -4.267  -3.597 -34.018  1.00  0.00     0.034 A 
HETATM   28 CL   UNL     1      -3.172  -4.905 -33.794  1.00  0.00    -0.084 Cl
HETATM   29  C   UNL     1      -3.992  -2.358 -33.446  1.00  0.00     0.024 A 
HETATM   30  C   UNL     1      -4.880  -1.295 -33.626  1.00  0.00     0.011 A 
ENDBRANCH   6  24
TORSDOF 6
ENDMDL
MODEL 5
REMARK VINA RESULT:      -7.6      4.281      5.463
REMARK  6 active torsions:
REMARK  status: ('A' for Active; 'I' for Inactive)
REMARK    1  A    between atoms: O_2  and  C_3 
REMARK    2  A    between atoms: C_3  and  C_4 
REMARK    3  A    between atoms: C_4  and  N_5 
REMARK       I    between atoms: N_5  and  C_6 
REMARK    4  A    between atoms: C_6  and  C_7 
REMARK    5  A    between atoms: C_12  and  C_13 
REMARK    6  A    between atoms: C_21  and  C_22 
ROOT
HETATM    1  C   UNL     1      -4.640   5.195 -31.165  1.00  0.00     0.170 A 
HETATM    2  N   UNL     1      -5.974   4.960 -31.095  1.00  0.00    -0.163 NA
HETATM    3  N   UNL     1      -6.118   3.735 -31.624  1.00  0.00    -0.238 N 
HETATM    4  C   UNL     1      -4.959   3.222 -32.145  1.00  0.00     0.145 A 
HETATM    5  N   UNL     1      -4.954   2.040 -32.815  1.00  0.00    -0.365 N 
HETATM    6  C   UNL     1      -6.214   1.502 -33.318  1.00  0.00     0.118 C 
HETATM    7  C   UNL     1      -7.286   1.649 -32.232  1.00  0.00     0.066 C 
HETATM    8  C   UNL     1      -7.426   3.123 -31.802  1.00  0.00     0.221 C 
HETATM    9  C   UNL     1      -3.971   4.125 -31.822  1.00  0.00     0.115 A 
HETATM   10 CL   UNL     1      -2.319   3.989 -32.185  1.00  0.00    -0.077 Cl
HETATM   11  H   UNL     1      -4.130   1.797 -33.368  1.00  0.00     0.162 HD
ENDROOT
BRANCH   1  12
HETATM   12  C   UNL     1      -4.060   6.432 -30.620  1.00  0.00     0.273 C 
HETATM   13  N   UNL     1      -3.162   6.209 -29.599  1.00  0.00    -0.353 N 
HETATM   14  H   UNL     1      -2.894   5.238 -29.449  1.00  0.00     0.162 HD
HETATM   15  O   UNL     1      -4.336   7.554 -31.032  1.00  0.00    -0.266 OA
BRANCH  13  16
HETATM   16  C   UNL     1      -2.306   7.251 -29.068  1.00  0.00     0.149 C 
BRANCH  16  17
HETATM   17  C   UNL     1      -0.944   7.263 -29.759  1.00  0.00     0.186 C 
BRANCH  17  18
HETATM   18  O   UNL     1       0.009   6.589 -28.932  1.00  0.00    -0.394 OA
HETATM   19  C   UNL     1       0.458   5.381 -29.534  1.00  0.00     0.201 C 
ENDBRANCH  17  18
ENDBRANCH  16  17
ENDBRANCH  13  16
ENDBRANCH   1  12
BRANCH   8  20
HETATM   20  C   UNL     1      -8.267   3.208 -30.547  1.00  0.00     0.409 C 
HETATM   21  F   UNL     1      -7.569   2.894 -29.433  1.00  0.00    -0.169 F 
HETATM   22  F   UNL     1      -8.833   4.420 -30.364  1.00  0.00    -0.169 F 
HETATM   23  F   UNL     1      -9.295   2.321 -30.627  1.00  0.00    -0.169 F 
ENDBRANCH   8  20
BRANCH   6  24
HETATM   24  C   UNL     1      -6.046   0.051 -33.727  1.00  0.00    -0.035 A 
HETATM   25  C   UNL     1      -4.831  -0.631 -33.537  1.00  0.00     0.011 A 
HETATM   26  C   UNL     1      -4.702  -1.974 -33.900  1.00  0.00     0.024 A 
HETATM   27  C   UNL     1      -5.788  -2.650 -34.449  1.00  0.00     0.034 A 
HETATM   28 CL   UNL     1      -5.631  -4.305 -34.893  1.00  0.00    -0.084 Cl
HETATM   29  C   UNL     1      -7.003  -1.995 -34.635  1.00  0.00     0.024 A 
HETATM   30  C   UNL     1      -7.131  -0.651 -34.275  1.00  0.00     0.011 A 
ENDBRANCH   6  24
TORSDOF 6
ENDMDL
MODEL 6
REMARK VINA RESULT:      -7.6      4.248      7.998
REMARK  6 active torsions:
REMARK  status: ('A' for Active; 'I' for Inactive)
REMARK    1  A    between atoms: O_2  and  C_3 
REMARK    2  A    between atoms: C_3  and  C_4 
REMARK    3  A    between atoms: C_4  and  N_5 
REMARK       I    between atoms: N_5  and  C_6 
REMARK    4  A    between atoms: C_6  and  C_7 
REMARK    5  A    between atoms: C_12  and  C_13 
REMARK    6  A    between atoms: C_21  and  C_22 
ROOT
HETATM    1  C   UNL     1      -9.833   2.918 -32.788  1.00  0.00     0.170 A 
HETATM    2  N   UNL     1      -8.636   3.520 -32.580  1.00  0.00    -0.163 NA
HETATM    3  N   UNL     1      -7.743   2.527 -32.717  1.00  0.00    -0.238 N 
HETATM    4  C   UNL     1      -8.316   1.292 -32.879  1.00  0.00     0.145 A 
HETATM    5  N   UNL     1      -7.555   0.167 -32.921  1.00  0.00    -0.365 N 
HETATM    6  C   UNL     1      -6.187   0.214 -32.416  1.00  0.00     0.118 C 
HETATM    7  C   UNL     1      -5.513   1.494 -32.923  1.00  0.00     0.066 C 
HETATM    8  C   UNL     1      -6.320   2.737 -32.500  1.00  0.00     0.221 C 
HETATM    9  C   UNL     1      -9.670   1.517 -32.976  1.00  0.00     0.115 A 
HETATM   10 CL   UNL     1     -10.874   0.347 -33.223  1.00  0.00    -0.077 Cl
HETATM   11  H   UNL     1      -8.019  -0.739 -32.827  1.00  0.00     0.162 HD
ENDROOT
BRANCH   1  12
HETATM   12  C   UNL     1     -11.082   3.696 -32.784  1.00  0.00     0.273 C 
HETATM   13  N   UNL     1     -12.111   3.070 -32.113  1.00  0.00    -0.353 N 
HETATM   14  H   UNL     1     -11.853   2.240 -31.581  1.00  0.00     0.162 HD
HETATM   15  O   UNL     1     -11.203   4.795 -33.315  1.00  0.00    -0.266 OA
BRANCH  13  16
HETATM   16  C   UNL     1     -13.354   3.740 -31.788  1.00  0.00     0.149 C 
BRANCH  16  17
HETATM   17  C   UNL     1     -14.564   2.880 -32.147  1.00  0.00     0.186 C 
BRANCH  17  18
HETATM   18  O   UNL     1     -14.122   1.715 -32.852  1.00  0.00    -0.394 OA
HETATM   19  C   UNL     1     -15.152   1.183 -33.675  1.00  0.00     0.201 C 
ENDBRANCH  17  18
ENDBRANCH  16  17
ENDBRANCH  13  16
ENDBRANCH   1  12
BRANCH   8  20
HETATM   20  C   UNL     1      -5.808   3.952 -33.242  1.00  0.00     0.409 C 
HETATM   21  F   UNL     1      -4.468   3.925 -33.417  1.00  0.00    -0.169 F 
HETATM   22  F   UNL     1      -6.389   4.128 -34.447  1.00  0.00    -0.169 F 
HETATM   23  F   UNL     1      -6.084   5.074 -32.523  1.00  0.00    -0.169 F 
ENDBRANCH   8  20
BRANCH   6  24
HETATM   24  C   UNL     1      -5.418  -1.019 -32.853  1.00  0.00    -0.035 A 
HETATM   25  C   UNL     1      -4.280  -1.463 -32.157  1.00  0.00     0.011 A 
HETATM   26  C   UNL     1      -3.598  -2.613 -32.563  1.00  0.00     0.024 A 
HETATM   27  C   UNL     1      -4.051  -3.334 -33.663  1.00  0.00     0.034 A 
HETATM   28 CL   UNL     1      -3.214  -4.752 -34.163  1.00  0.00    -0.084 Cl
HETATM   29  C   UNL     1      -5.182  -2.916 -34.361  1.00  0.00     0.024 A 
HETATM   30  C   UNL     1      -5.863  -1.764 -33.957  1.00  0.00     0.011 A 
ENDBRANCH   6  24
TORSDOF 6
ENDMDL
MODEL 7
REMARK VINA RESULT:      -7.5      4.426      9.460
REMARK  6 active torsions:
REMARK  status: ('A' for Active; 'I' for Inactive)
REMARK    1  A    between atoms: O_2  and  C_3 
REMARK    2  A    between atoms: C_3  and  C_4 
REMARK    3  A    between atoms: C_4  and  N_5 
REMARK       I    between atoms: N_5  and  C_6 
REMARK    4  A    between atoms: C_6  and  C_7 
REMARK    5  A    between atoms: C_12  and  C_13 
REMARK    6  A    between atoms: C_21  and  C_22 
ROOT
HETATM    1  C   UNL     1      -5.524   3.837 -32.401  1.00  0.00     0.170 A 
HETATM    2  N   UNL     1      -4.830   4.480 -33.373  1.00  0.00    -0.163 NA
HETATM    3  N   UNL     1      -3.895   5.172 -32.703  1.00  0.00    -0.238 N 
HETATM    4  C   UNL     1      -4.033   5.104 -31.341  1.00  0.00     0.145 A 
HETATM    5  N   UNL     1      -3.237   5.837 -30.519  1.00  0.00    -0.365 N 
HETATM    6  C   UNL     1      -2.503   6.973 -31.066  1.00  0.00     0.118 C 
HETATM    7  C   UNL     1      -1.881   6.565 -32.407  1.00  0.00     0.066 C 
HETATM    8  C   UNL     1      -2.968   6.066 -33.379  1.00  0.00     0.221 C 
HETATM    9  C   UNL     1      -5.052   4.208 -31.111  1.00  0.00     0.115 A 
HETATM   10 CL   UNL     1      -5.635   3.705 -29.599  1.00  0.00    -0.077 Cl
HETATM   11  H   UNL     1      -3.503   5.928 -29.536  1.00  0.00     0.162 HD
ENDROOT
BRANCH   1  12
HETATM   12  C   UNL     1      -6.616   2.910 -32.738  1.00  0.00     0.273 C 
HETATM   13  N   UNL     1      -6.381   2.186 -33.888  1.00  0.00    -0.353 N 
HETATM   14  H   UNL     1      -5.441   2.259 -34.272  1.00  0.00     0.162 HD
HETATM   15  O   UNL     1      -7.634   2.782 -32.066  1.00  0.00    -0.266 OA
BRANCH  13  16
HETATM   16  C   UNL     1      -7.204   1.063 -34.286  1.00  0.00     0.149 C 
BRANCH  16  17
HETATM   17  C   UNL     1      -6.362  -0.181 -34.558  1.00  0.00     0.186 C 
BRANCH  17  18
HETATM   18  O   UNL     1      -5.785  -0.638 -33.330  1.00  0.00    -0.394 OA
HETATM   19  C   UNL     1      -4.522  -1.253 -33.545  1.00  0.00     0.201 C 
ENDBRANCH  17  18
ENDBRANCH  16  17
ENDBRANCH  13  16
ENDBRANCH   1  12
BRANCH   8  20
HETATM   20  C   UNL     1      -2.316   5.407 -34.575  1.00  0.00     0.409 C 
HETATM   21  F   UNL     1      -3.154   5.302 -35.630  1.00  0.00    -0.169 F 
HETATM   22  F   UNL     1      -1.194   6.035 -34.986  1.00  0.00    -0.169 F 
HETATM   23  F   UNL     1      -1.940   4.140 -34.248  1.00  0.00    -0.169 F 
ENDBRANCH   8  20
BRANCH   6  24
HETATM   24  C   UNL     1      -1.438   7.437 -30.089  1.00  0.00    -0.035 A 
HETATM   25  C   UNL     1      -1.688   8.461 -29.159  1.00  0.00     0.011 A 
HETATM   26  C   UNL     1      -0.701   8.860 -28.254  1.00  0.00     0.024 A 
HETATM   27  C   UNL     1       0.540   8.232 -28.263  1.00  0.00     0.034 A 
HETATM   28 CL   UNL     1       1.755   8.718 -27.145  1.00  0.00    -0.084 Cl
HETATM   29  C   UNL     1       0.804   7.207 -29.168  1.00  0.00     0.024 A 
HETATM   30  C   UNL     1      -0.181   6.811 -30.077  1.00  0.00     0.011 A 
ENDBRANCH   6  24
TORSDOF 6
ENDMDL
MODEL 8
REMARK VINA RESULT:      -7.4      4.182      5.886
REMARK  6 active torsions:
REMARK  status: ('A' for Active; 'I' for Inactive)
REMARK    1  A    between atoms: O_2  and  C_3 
REMARK    2  A    between atoms: C_3  and  C_4 
REMARK    3  A    between atoms: C_4  and  N_5 
REMARK       I    between atoms: N_5  and  C_6 
REMARK    4  A    between atoms: C_6  and  C_7 
REMARK    5  A    between atoms: C_12  and  C_13 
REMARK    6  A    between atoms: C_21  and  C_22 
ROOT
HETATM    1  C   UNL     1      -6.115   4.215 -31.527  1.00  0.00     0.170 A 
HETATM    2  N   UNL     1      -7.343   3.885 -31.999  1.00  0.00    -0.163 NA
HETATM    3  N   UNL     1      -7.191   2.632 -32.456  1.00  0.00    -0.238 N 
HETATM    4  C   UNL     1      -5.895   2.187 -32.416  1.00  0.00     0.145 A 
HETATM    5  N   UNL     1      -5.552   0.983 -32.944  1.00  0.00    -0.365 N 
HETATM    6  C   UNL     1      -6.458   0.333 -33.885  1.00  0.00     0.118 C 
HETATM    7  C   UNL     1      -7.892   0.443 -33.351  1.00  0.00     0.066 C 
HETATM    8  C   UNL     1      -8.272   1.918 -33.117  1.00  0.00     0.221 C 
HETATM    9  C   UNL     1      -5.179   3.172 -31.776  1.00  0.00     0.115 A 
HETATM   10 CL   UNL     1      -3.521   3.146 -31.414  1.00  0.00    -0.077 Cl
HETATM   11  H   UNL     1      -4.561   0.780 -33.090  1.00  0.00     0.162 HD
ENDROOT
BRANCH   1  12
HETATM   12  C   UNL     1      -5.879   5.513 -30.876  1.00  0.00     0.273 C 
HETATM   13  N   UNL     1      -6.479   5.619 -29.639  1.00  0.00    -0.353 N 
HETATM   14  H   UNL     1      -6.873   4.759 -29.263  1.00  0.00     0.162 HD
HETATM   15  O   UNL     1      -5.209   6.413 -31.372  1.00  0.00    -0.266 OA
BRANCH  13  16
HETATM   16  C   UNL     1      -6.199   6.708 -28.726  1.00  0.00     0.149 C 
BRANCH  16  17
HETATM   17  C   UNL     1      -5.036   6.374 -27.795  1.00  0.00     0.186 C 
BRANCH  17  18
HETATM   18  O   UNL     1      -5.313   6.890 -26.489  1.00  0.00    -0.394 OA
HETATM   19  C   UNL     1      -4.484   8.003 -26.182  1.00  0.00     0.201 C 
ENDBRANCH  17  18
ENDBRANCH  16  17
ENDBRANCH  13  16
ENDBRANCH   1  12
BRANCH   8  20
HETATM   20  C   UNL     1      -9.563   1.991 -32.330  1.00  0.00     0.409 C 
HETATM   21  F   UNL     1      -9.360   1.924 -30.996  1.00  0.00    -0.169 F 
HETATM   22  F   UNL     1     -10.288   3.099 -32.594  1.00  0.00    -0.169 F 
HETATM   23  F   UNL     1     -10.356   0.935 -32.658  1.00  0.00    -0.169 F 
ENDBRANCH   8  20
BRANCH   6  24
HETATM   24  C   UNL     1      -6.061  -1.117 -34.089  1.00  0.00    -0.035 A 
HETATM   25  C   UNL     1      -6.969  -2.066 -34.590  1.00  0.00     0.011 A 
HETATM   26  C   UNL     1      -6.578  -3.392 -34.791  1.00  0.00     0.024 A 
HETATM   27  C   UNL     1      -5.273  -3.780 -34.502  1.00  0.00     0.034 A 
HETATM   28 CL   UNL     1      -4.789  -5.412 -34.753  1.00  0.00    -0.084 Cl
HETATM   29  C   UNL     1      -4.355  -2.853 -34.015  1.00  0.00     0.024 A 
HETATM   30  C   UNL     1      -4.747  -1.527 -33.811  1.00  0.00     0.011 A 
ENDBRANCH   6  24
TORSDOF 6
ENDMDL
MODEL 9
REMARK VINA RESULT:      -7.4      4.268      6.132
REMARK  6 active torsions:
REMARK  status: ('A' for Active; 'I' for Inactive)
REMARK    1  A    between atoms: O_2  and  C_3 
REMARK    2  A    between atoms: C_3  and  C_4 
REMARK    3  A    between atoms: C_4  and  N_5 
REMARK       I    between atoms: N_5  and  C_6 
REMARK    4  A    between atoms: C_6  and  C_7 
REMARK    5  A    between atoms: C_12  and  C_13 
REMARK    6  A    between atoms: C_21  and  C_22 
ROOT
HETATM    1  C   UNL     1      -7.452   4.110 -31.452  1.00  0.00     0.170 A 
HETATM    2  N   UNL     1      -8.291   3.866 -32.489  1.00  0.00    -0.163 NA
HETATM    3  N   UNL     1      -7.910   2.659 -32.938  1.00  0.00    -0.238 N 
HETATM    4  C   UNL     1      -6.787   2.173 -32.321  1.00  0.00     0.145 A 
HETATM    5  N   UNL     1      -6.206   1.017 -32.735  1.00  0.00    -0.365 N 
HETATM    6  C   UNL     1      -6.529   0.490 -34.057  1.00  0.00     0.118 C 
HETATM    7  C   UNL     1      -8.044   0.591 -34.275  1.00  0.00     0.066 C 
HETATM    8  C   UNL     1      -8.521   2.047 -34.108  1.00  0.00     0.221 C 
HETATM    9  C   UNL     1      -6.491   3.069 -31.320  1.00  0.00     0.115 A 
HETATM   10 CL   UNL     1      -5.216   2.957 -30.205  1.00  0.00    -0.077 Cl
HETATM   11  H   UNL     1      -5.264   0.799 -32.403  1.00  0.00     0.162 HD
ENDROOT
BRANCH   1  12
HETATM   12  C   UNL     1      -7.588   5.331 -30.641  1.00  0.00     0.273 C 
HETATM   13  N   UNL     1      -7.832   5.075 -29.308  1.00  0.00    -0.353 N 
HETATM   14  H   UNL     1      -7.738   4.103 -29.020  1.00  0.00     0.162 HD
HETATM   15  O   UNL     1      -7.487   6.466 -31.095  1.00  0.00    -0.266 OA
BRANCH  13  16
HETATM   16  C   UNL     1      -7.778   6.106 -28.292  1.00  0.00     0.149 C 
BRANCH  16  17
HETATM   17  C   UNL     1      -6.340   6.414 -27.882  1.00  0.00     0.186 C 
BRANCH  17  18
HETATM   18  O   UNL     1      -6.304   7.668 -27.193  1.00  0.00    -0.394 OA
HETATM   19  C   UNL     1      -6.946   8.692 -27.941  1.00  0.00     0.201 C 
ENDBRANCH  17  18
ENDBRANCH  16  17
ENDBRANCH  13  16
ENDBRANCH   1  12
BRANCH   8  20
HETATM   20  C   UNL     1     -10.032   2.082 -34.041  1.00  0.00     0.409 C 
HETATM   21  F   UNL     1     -10.542   3.260 -34.462  1.00  0.00    -0.169 F 
HETATM   22  F   UNL     1     -10.622   1.090 -34.743  1.00  0.00    -0.169 F 
HETATM   23  F   UNL     1     -10.435   1.921 -32.751  1.00  0.00    -0.169 F 
ENDBRANCH   8  20
BRANCH   6  24
HETATM   24  C   UNL     1      -6.053  -0.945 -34.188  1.00  0.00    -0.035 A 
HETATM   25  C   UNL     1      -4.750  -1.324 -33.819  1.00  0.00     0.011 A 
HETATM   26  C   UNL     1      -4.337  -2.654 -33.927  1.00  0.00     0.024 A 
HETATM   27  C   UNL     1      -5.224  -3.619 -34.395  1.00  0.00     0.034 A 
HETATM   28 CL   UNL     1      -4.717  -5.258 -34.525  1.00  0.00    -0.084 Cl
HETATM   29  C   UNL     1      -6.522  -3.265 -34.755  1.00  0.00     0.024 A 
HETATM   30  C   UNL     1      -6.935  -1.934 -34.651  1.00  0.00     0.011 A 
ENDBRANCH   6  24
TORSDOF 6
ENDMDL
MODEL 10
REMARK VINA RESULT:      -7.4      4.284      6.754
REMARK  6 active torsions:
REMARK  status: ('A' for Active; 'I' for Inactive)
REMARK    1  A    between atoms: O_2  and  C_3 
REMARK    2  A    between atoms: C_3  and  C_4 
REMARK    3  A    between atoms: C_4  and  N_5 
REMARK       I    between atoms: N_5  and  C_6 
REMARK    4  A    between atoms: C_6  and  C_7 
REMARK    5  A    between atoms: C_12  and  C_13 
REMARK    6  A    between atoms: C_21  and  C_22 
ROOT
HETATM    1  C   UNL     1      -6.038  -0.170 -32.954  1.00  0.00     0.170 A 
HETATM    2  N   UNL     1      -7.387  -0.259 -32.852  1.00  0.00    -0.163 NA
HETATM    3  N   UNL     1      -7.740   0.866 -32.210  1.00  0.00    -0.238 N 
HETATM    4  C   UNL     1      -6.673   1.613 -31.783  1.00  0.00     0.145 A 
HETATM    5  N   UNL     1      -6.856   2.724 -31.022  1.00  0.00    -0.365 N 
HETATM    6  C   UNL     1      -8.129   2.915 -30.335  1.00  0.00     0.118 C 
HETATM    7  C   UNL     1      -9.271   2.574 -31.301  1.00  0.00     0.066 C 
HETATM    8  C   UNL     1      -9.119   1.135 -31.833  1.00  0.00     0.221 C 
HETATM    9  C   UNL     1      -5.555   0.993 -32.290  1.00  0.00     0.115 A 
HETATM   10 CL   UNL     1      -3.946   1.502 -32.108  1.00  0.00    -0.077 Cl
HETATM   11  H   UNL     1      -6.045   3.128 -30.548  1.00  0.00     0.162 HD
ENDROOT
BRANCH   1  12
HETATM   12  C   UNL     1      -5.263  -1.201 -33.662  1.00  0.00     0.273 C 
HETATM   13  N   UNL     1      -6.051  -2.172 -34.243  1.00  0.00    -0.353 N 
HETATM   14  H   UNL     1      -7.052  -1.985 -34.247  1.00  0.00     0.162 HD
HETATM   15  O   UNL     1      -4.039  -1.200 -33.741  1.00  0.00    -0.266 OA
BRANCH  13  16
HETATM   16  C   UNL     1      -5.526  -3.151 -35.172  1.00  0.00     0.149 C 
BRANCH  16  17
HETATM   17  C   UNL     1      -6.148  -4.527 -34.946  1.00  0.00     0.186 C 
BRANCH  17  18
HETATM   18  O   UNL     1      -5.107  -5.491 -34.761  1.00  0.00    -0.394 OA
HETATM   19  C   UNL     1      -4.108  -5.014 -33.869  1.00  0.00     0.201 C 
ENDBRANCH  17  18
ENDBRANCH  16  17
ENDBRANCH  13  16
ENDBRANCH   1  12
BRANCH   8  20
HETATM   20  C   UNL     1     -10.075   0.918 -32.987  1.00  0.00     0.409 C 
HETATM   21  F   UNL     1     -11.123   1.770 -32.959  1.00  0.00    -0.169 F 
HETATM   22  F   UNL     1      -9.483   1.013 -34.197  1.00  0.00    -0.169 F 
HETATM   23  F   UNL     1     -10.592  -0.339 -32.919  1.00  0.00    -0.169 F 
ENDBRANCH   8  20
BRANCH   6  24
HETATM   24  C   UNL     1      -8.250   4.340 -29.829  1.00  0.00    -0.035 A 
HETATM   25  C   UNL     1      -7.262   4.918 -29.012  1.00  0.00     0.011 A 
HETATM   26  C   UNL     1      -7.381   6.239 -28.573  1.00  0.00     0.024 A 
HETATM   27  C   UNL     1      -8.482   6.998 -28.955  1.00  0.00     0.034 A 
HETATM   28 CL   UNL     1      -8.628   8.627 -28.418  1.00  0.00    -0.084 Cl
HETATM   29  C   UNL     1      -9.466   6.449 -29.773  1.00  0.00     0.024 A 
HETATM   30  C   UNL     1      -9.350   5.126 -30.209  1.00  0.00     0.011 A 
ENDBRANCH   6  24
TORSDOF 6
ENDMDL
