MODEL 1
REMARK VINA RESULT:      -8.0      0.000      0.000
REMARK  4 active torsions:
REMARK  status: ('A' for Active; 'I' for Inactive)
REMARK    1  A    between atoms: C_8  and  C_9 
REMARK    2  A    between atoms: C_9  and  N_10 
REMARK    3  A    between atoms: N_10  and  C_13 
REMARK    4  A    between atoms: C_13  and  C_14 
ROOT
HETATM    1  N   UNL     1      -3.258  -0.042 -32.704  1.00  0.00    -0.067 N 
HETATM    2  H   UNL     1      -3.850  -0.216 -33.525  1.00  0.00     0.277 HD
HETATM    3  H   UNL     1      -2.367   0.296 -33.090  1.00  0.00     0.277 HD
ENDROOT
BRANCH   1   4
HETATM    4  C   UNL     1      -3.871   1.048 -31.905  1.00  0.00     0.273 C 
BRANCH   4   5
HETATM    5  C   UNL     1      -5.311   0.756 -31.699  1.00  0.00    -0.005 A 
HETATM    6  C   UNL     1      -6.324   0.712 -32.711  1.00  0.00    -0.000 A 
HETATM    7  C   UNL     1      -6.335   0.926 -34.106  1.00  0.00     0.014 A 
HETATM    8  C   UNL     1      -7.522   0.372 -32.083  1.00  0.00     0.043 A 
HETATM    9  C   UNL     1      -7.535   0.790 -34.814  1.00  0.00     0.001 A 
HETATM   10  C   UNL     1      -8.713   0.447 -34.156  1.00  0.00     0.002 A 
HETATM   11  C   UNL     1      -8.730   0.233 -32.776  1.00  0.00     0.030 A 
HETATM   12  N   UNL     1      -7.259   0.232 -30.741  1.00  0.00    -0.365 N 
HETATM   13  H   UNL     1      -7.957   0.004 -30.043  1.00  0.00     0.165 HD
HETATM   14  C   UNL     1      -5.926   0.445 -30.500  1.00  0.00     0.098 A 
ENDBRANCH   4   5
ENDBRANCH   1   4
BRANCH   1  15
HETATM   15  C   UNL     1      -3.038  -1.310 -31.970  1.00  0.00     0.271 C 
BRANCH  15  16
HETATM   16  C   UNL     1      -3.635  -2.468 -32.715  1.00  0.00    -0.030 A 
HETATM   17  C   UNL     1      -4.652  -2.248 -33.661  1.00  0.00     0.048 A 
HETATM   18  C   UNL     1      -5.145  -3.337 -34.351  1.00  0.00     0.105 A 
HETATM   19  C   UNL     1      -4.667  -4.607 -34.142  1.00  0.00     0.105 A 
HETATM   20  O   UNL     1      -6.123  -3.299 -35.293  1.00  0.00    -0.323 OA
HETATM   21  O   UNL     1      -5.287  -5.529 -34.923  1.00  0.00    -0.323 OA
HETATM   22  C   UNL     1      -3.667  -4.862 -33.230  1.00  0.00     0.040 A 
HETATM   23  C   UNL     1      -6.227  -4.699 -35.638  1.00  0.00     0.352 A 
HETATM   24  C   UNL     1      -3.144  -3.780 -32.513  1.00  0.00     0.012 A 
ENDBRANCH  15  16
ENDBRANCH   1  15
TORSDOF 4
ENDMDL
MODEL 2
REMARK VINA RESULT:      -7.9      2.652      3.944
REMARK  4 active torsions:
REMARK  status: ('A' for Active; 'I' for Inactive)
REMARK    1  A    between atoms: C_8  and  C_9 
REMARK    2  A    between atoms: C_9  and  N_10 
REMARK    3  A    between atoms: N_10  and  C_13 
REMARK    4  A    between atoms: C_13  and  C_14 
ROOT
HETATM    1  N   UNL     1      -7.276   0.909 -34.825  1.00  0.00    -0.067 N 
HETATM    2  H   UNL     1      -7.831   0.103 -35.135  1.00  0.00     0.277 HD
HETATM    3  H   UNL     1      -6.960   1.361 -35.692  1.00  0.00     0.277 HD
ENDROOT
BRANCH   1   4
HETATM    4  C   UNL     1      -8.173   1.847 -34.104  1.00  0.00     0.273 C 
BRANCH   4   5
HETATM    5  C   UNL     1      -9.402   1.128 -33.686  1.00  0.00    -0.005 A 
HETATM    6  C   UNL     1     -10.737   1.394 -34.131  1.00  0.00    -0.000 A 
HETATM    7  C   UNL     1     -11.315   2.338 -35.007  1.00  0.00     0.014 A 
HETATM    8  C   UNL     1     -11.573   0.465 -33.512  1.00  0.00     0.043 A 
HETATM    9  C   UNL     1     -12.697   2.313 -35.230  1.00  0.00     0.001 A 
HETATM   10  C   UNL     1     -13.503   1.371 -34.598  1.00  0.00     0.002 A 
HETATM   11  C   UNL     1     -12.956   0.428 -33.724  1.00  0.00     0.030 A 
HETATM   12  N   UNL     1     -10.786  -0.325 -32.708  1.00  0.00    -0.365 N 
HETATM   13  H   UNL     1     -11.139  -1.076 -32.126  1.00  0.00     0.165 HD
HETATM   14  C   UNL     1      -9.473   0.054 -32.817  1.00  0.00     0.098 A 
ENDBRANCH   4   5
ENDBRANCH   1   4
BRANCH   1  15
HETATM   15  C   UNL     1      -6.104   0.440 -34.047  1.00  0.00     0.271 C 
BRANCH  15  16
HETATM   16  C   UNL     1      -5.913  -1.039 -34.214  1.00  0.00    -0.030 A 
HETATM   17  C   UNL     1      -4.708  -1.644 -33.813  1.00  0.00     0.048 A 
HETATM   18  C   UNL     1      -4.590  -3.012 -33.948  1.00  0.00     0.105 A 
HETATM   19  C   UNL     1      -5.609  -3.783 -34.451  1.00  0.00     0.105 A 
HETATM   20  O   UNL     1      -3.500  -3.748 -33.611  1.00  0.00    -0.323 OA
HETATM   21  O   UNL     1      -5.287  -5.101 -34.498  1.00  0.00    -0.323 OA
HETATM   22  C   UNL     1      -6.806  -3.230 -34.848  1.00  0.00     0.040 A 
HETATM   23  C   UNL     1      -3.938  -5.075 -33.985  1.00  0.00     0.352 A 
HETATM   24  C   UNL     1      -6.959  -1.844 -34.724  1.00  0.00     0.012 A 
ENDBRANCH  15  16
ENDBRANCH   1  15
TORSDOF 4
ENDMDL
MODEL 3
REMARK VINA RESULT:      -7.8      3.574      7.175
REMARK  4 active torsions:
REMARK  status: ('A' for Active; 'I' for Inactive)
REMARK    1  A    between atoms: C_8  and  C_9 
REMARK    2  A    between atoms: C_9  and  N_10 
REMARK    3  A    between atoms: N_10  and  C_13 
REMARK    4  A    between atoms: C_13  and  C_14 
ROOT
HETATM    1  N   UNL     1      -8.009   0.417 -33.202  1.00  0.00    -0.067 N 
HETATM    2  H   UNL     1      -8.742  -0.213 -32.855  1.00  0.00     0.277 HD
HETATM    3  H   UNL     1      -7.274   0.384 -32.484  1.00  0.00     0.277 HD
ENDROOT
BRANCH   1   4
HETATM    4  C   UNL     1      -7.464  -0.145 -34.463  1.00  0.00     0.273 C 
BRANCH   4   5
HETATM    5  C   UNL     1      -6.224  -0.904 -34.165  1.00  0.00    -0.005 A 
HETATM    6  C   UNL     1      -6.015  -2.306 -34.369  1.00  0.00    -0.000 A 
HETATM    7  C   UNL     1      -6.817  -3.364 -34.848  1.00  0.00     0.014 A 
HETATM    8  C   UNL     1      -4.704  -2.590 -33.986  1.00  0.00     0.043 A 
HETATM    9  C   UNL     1      -6.279  -4.654 -34.927  1.00  0.00     0.001 A 
HETATM   10  C   UNL     1      -4.965  -4.902 -34.539  1.00  0.00     0.002 A 
HETATM   11  C   UNL     1      -4.152  -3.873 -34.059  1.00  0.00     0.030 A 
HETATM   12  N   UNL     1      -4.139  -1.414 -33.549  1.00  0.00    -0.365 N 
HETATM   13  H   UNL     1      -3.193  -1.333 -33.194  1.00  0.00     0.165 HD
HETATM   14  C   UNL     1      -5.041  -0.388 -33.667  1.00  0.00     0.098 A 
ENDBRANCH   4   5
ENDBRANCH   1   4
BRANCH   1  15
HETATM   15  C   UNL     1      -8.544   1.795 -33.309  1.00  0.00     0.271 C 
BRANCH  15  16
HETATM   16  C   UNL     1      -9.962   1.778 -33.803  1.00  0.00    -0.030 A 
HETATM   17  C   UNL     1     -10.849   0.778 -33.365  1.00  0.00     0.048 A 
HETATM   18  C   UNL     1     -12.153   0.824 -33.814  1.00  0.00     0.105 A 
HETATM   19  C   UNL     1     -12.597   1.812 -34.658  1.00  0.00     0.105 A 
HETATM   20  O   UNL     1     -13.131  -0.060 -33.489  1.00  0.00    -0.323 OA
HETATM   21  O   UNL     1     -13.910   1.671 -34.975  1.00  0.00    -0.323 OA
HETATM   22  C   UNL     1     -11.761   2.812 -35.103  1.00  0.00     0.040 A 
HETATM   23  C   UNL     1     -14.242   0.469 -34.249  1.00  0.00     0.352 A 
HETATM   24  C   UNL     1     -10.431   2.796 -34.667  1.00  0.00     0.012 A 
ENDBRANCH  15  16
ENDBRANCH   1  15
TORSDOF 4
ENDMDL
MODEL 4
REMARK VINA RESULT:      -7.7      3.865      6.930
REMARK  4 active torsions:
REMARK  status: ('A' for Active; 'I' for Inactive)
REMARK    1  A    between atoms: C_8  and  C_9 
REMARK    2  A    between atoms: C_9  and  N_10 
REMARK    3  A    between atoms: N_10  and  C_13 
REMARK    4  A    between atoms: C_13  and  C_14 
ROOT
HETATM    1  N   UNL     1      -6.463   1.427 -34.456  1.00  0.00    -0.067 N 
HETATM    2  H   UNL     1      -5.454   1.324 -34.619  1.00  0.00     0.277 HD
HETATM    3  H   UNL     1      -6.862   1.604 -35.387  1.00  0.00     0.277 HD
ENDROOT
BRANCH   1   4
HETATM    4  C   UNL     1      -6.992   0.135 -33.952  1.00  0.00     0.273 C 
BRANCH   4   5
HETATM    5  C   UNL     1      -5.878  -0.836 -33.826  1.00  0.00    -0.005 A 
HETATM    6  C   UNL     1      -5.906  -2.218 -34.201  1.00  0.00    -0.000 A 
HETATM    7  C   UNL     1      -6.889  -3.073 -34.744  1.00  0.00     0.014 A 
HETATM    8  C   UNL     1      -4.641  -2.744 -33.940  1.00  0.00     0.043 A 
HETATM    9  C   UNL     1      -6.570  -4.411 -35.005  1.00  0.00     0.001 A 
HETATM   10  C   UNL     1      -5.296  -4.903 -34.734  1.00  0.00     0.002 A 
HETATM   11  C   UNL     1      -4.307  -4.079 -34.194  1.00  0.00     0.030 A 
HETATM   12  N   UNL     1      -3.876  -1.733 -33.409  1.00  0.00    -0.365 N 
HETATM   13  H   UNL     1      -2.914  -1.842 -33.110  1.00  0.00     0.165 HD
HETATM   14  C   UNL     1      -4.606  -0.573 -33.350  1.00  0.00     0.098 A 
ENDBRANCH   4   5
ENDBRANCH   1   4
BRANCH   1  15
HETATM   15  C   UNL     1      -6.711   2.593 -33.575  1.00  0.00     0.271 C 
BRANCH  15  16
HETATM   16  C   UNL     1      -5.481   3.446 -33.463  1.00  0.00    -0.030 A 
HETATM   17  C   UNL     1      -4.479   3.120 -32.531  1.00  0.00     0.048 A 
HETATM   18  C   UNL     1      -3.348   3.910 -32.490  1.00  0.00     0.105 A 
HETATM   19  C   UNL     1      -3.180   4.984 -33.328  1.00  0.00     0.105 A 
HETATM   20  O   UNL     1      -2.292   3.734 -31.653  1.00  0.00    -0.323 OA
HETATM   21  O   UNL     1      -1.999   5.622 -33.123  1.00  0.00    -0.323 OA
HETATM   22  C   UNL     1      -4.135   5.331 -34.258  1.00  0.00     0.040 A 
HETATM   23  C   UNL     1      -1.446   4.841 -32.043  1.00  0.00     0.352 A 
HETATM   24  C   UNL     1      -5.295   4.551 -34.327  1.00  0.00     0.012 A 
ENDBRANCH  15  16
ENDBRANCH   1  15
TORSDOF 4
ENDMDL
MODEL 5
REMARK VINA RESULT:      -7.4      2.338      5.282
REMARK  4 active torsions:
REMARK  status: ('A' for Active; 'I' for Inactive)
REMARK    1  A    between atoms: C_8  and  C_9 
REMARK    2  A    between atoms: C_9  and  N_10 
REMARK    3  A    between atoms: N_10  and  C_13 
REMARK    4  A    between atoms: C_13  and  C_14 
ROOT
HETATM    1  N   UNL     1      -4.245  -0.511 -31.155  1.00  0.00    -0.067 N 
HETATM    2  H   UNL     1      -5.019  -1.184 -31.192  1.00  0.00     0.277 HD
HETATM    3  H   UNL     1      -3.842  -0.625 -30.216  1.00  0.00     0.277 HD
ENDROOT
BRANCH   1   4
HETATM    4  C   UNL     1      -3.226  -0.911 -32.157  1.00  0.00     0.273 C 
BRANCH   4   5
HETATM    5  C   UNL     1      -3.476  -2.312 -32.579  1.00  0.00    -0.005 A 
HETATM    6  C   UNL     1      -4.451  -2.753 -33.531  1.00  0.00    -0.000 A 
HETATM    7  C   UNL     1      -5.432  -2.105 -34.311  1.00  0.00     0.014 A 
HETATM    8  C   UNL     1      -4.320  -4.137 -33.646  1.00  0.00     0.043 A 
HETATM    9  C   UNL     1      -6.237  -2.861 -35.171  1.00  0.00     0.001 A 
HETATM   10  C   UNL     1      -6.079  -4.240 -35.264  1.00  0.00     0.002 A 
HETATM   11  C   UNL     1      -5.117  -4.906 -34.501  1.00  0.00     0.030 A 
HETATM   12  N   UNL     1      -3.321  -4.529 -32.787  1.00  0.00    -0.365 N 
HETATM   13  H   UNL     1      -3.026  -5.490 -32.655  1.00  0.00     0.165 HD
HETATM   14  C   UNL     1      -2.793  -3.435 -32.150  1.00  0.00     0.098 A 
ENDBRANCH   4   5
ENDBRANCH   1   4
BRANCH   1  15
HETATM   15  C   UNL     1      -4.770   0.866 -31.310  1.00  0.00     0.271 C 
BRANCH  15  16
HETATM   16  C   UNL     1      -6.011   0.869 -32.156  1.00  0.00    -0.030 A 
HETATM   17  C   UNL     1      -7.240   0.461 -31.606  1.00  0.00     0.048 A 
HETATM   18  C   UNL     1      -8.361   0.518 -32.408  1.00  0.00     0.105 A 
HETATM   19  C   UNL     1      -8.305   0.961 -33.706  1.00  0.00     0.105 A 
HETATM   20  O   UNL     1      -9.618   0.163 -32.035  1.00  0.00    -0.323 OA
HETATM   21  O   UNL     1      -9.519   0.937 -34.315  1.00  0.00    -0.323 OA
HETATM   22  C   UNL     1      -7.122   1.375 -34.278  1.00  0.00     0.040 A 
HETATM   23  C   UNL     1     -10.348   0.408 -33.259  1.00  0.00     0.352 A 
HETATM   24  C   UNL     1      -5.965   1.331 -33.493  1.00  0.00     0.012 A 
ENDBRANCH  15  16
ENDBRANCH   1  15
TORSDOF 4
ENDMDL
MODEL 6
REMARK VINA RESULT:      -7.3      4.028      6.959
REMARK  4 active torsions:
REMARK  status: ('A' for Active; 'I' for Inactive)
REMARK    1  A    between atoms: C_8  and  C_9 
REMARK    2  A    between atoms: C_9  and  N_10 
REMARK    3  A    between atoms: N_10  and  C_13 
REMARK    4  A    between atoms: C_13  and  C_14 
ROOT
HETATM    1  N   UNL     1      -5.765   0.911 -32.472  1.00  0.00    -0.067 N 
HETATM    2  H   UNL     1      -6.336   1.311 -33.226  1.00  0.00     0.277 HD
HETATM    3  H   UNL     1      -6.422   0.350 -31.914  1.00  0.00     0.277 HD
ENDROOT
BRANCH   1   4
HETATM    4  C   UNL     1      -4.763  -0.002 -33.077  1.00  0.00     0.273 C 
BRANCH   4   5
HETATM    5  C   UNL     1      -5.464  -1.104 -33.781  1.00  0.00    -0.005 A 
HETATM    6  C   UNL     1      -5.022  -2.462 -33.890  1.00  0.00    -0.000 A 
HETATM    7  C   UNL     1      -3.884  -3.168 -33.443  1.00  0.00     0.014 A 
HETATM    8  C   UNL     1      -5.995  -3.159 -34.605  1.00  0.00     0.043 A 
HETATM    9  C   UNL     1      -3.768  -4.534 -33.724  1.00  0.00     0.001 A 
HETATM   10  C   UNL     1      -4.759  -5.200 -34.439  1.00  0.00     0.002 A 
HETATM   11  C   UNL     1      -5.893  -4.524 -34.895  1.00  0.00     0.030 A 
HETATM   12  N   UNL     1      -6.983  -2.262 -34.937  1.00  0.00    -0.365 N 
HETATM   13  H   UNL     1      -7.809  -2.496 -35.477  1.00  0.00     0.165 HD
HETATM   14  C   UNL     1      -6.681  -1.023 -34.432  1.00  0.00     0.098 A 
ENDBRANCH   4   5
ENDBRANCH   1   4
BRANCH   1  15
HETATM   15  C   UNL     1      -5.201   1.999 -31.640  1.00  0.00     0.271 C 
BRANCH  15  16
HETATM   16  C   UNL     1      -4.687   3.116 -32.501  1.00  0.00    -0.030 A 
HETATM   17  C   UNL     1      -3.322   3.451 -32.481  1.00  0.00     0.048 A 
HETATM   18  C   UNL     1      -2.888   4.459 -33.317  1.00  0.00     0.105 A 
HETATM   19  C   UNL     1      -3.744   5.125 -34.159  1.00  0.00     0.105 A 
HETATM   20  O   UNL     1      -1.608   4.904 -33.421  1.00  0.00    -0.323 OA
HETATM   21  O   UNL     1      -3.113   6.076 -34.894  1.00  0.00    -0.323 OA
HETATM   22  C   UNL     1      -5.087   4.822 -34.212  1.00  0.00     0.040 A 
HETATM   23  C   UNL     1      -1.760   5.950 -34.408  1.00  0.00     0.352 A 
HETATM   24  C   UNL     1      -5.561   3.804 -33.377  1.00  0.00     0.012 A 
ENDBRANCH  15  16
ENDBRANCH   1  15
TORSDOF 4
ENDMDL
MODEL 7
REMARK VINA RESULT:      -7.3      5.297      7.712
REMARK  4 active torsions:
REMARK  status: ('A' for Active; 'I' for Inactive)
REMARK    1  A    between atoms: C_8  and  C_9 
REMARK    2  A    between atoms: C_9  and  N_10 
REMARK    3  A    between atoms: N_10  and  C_13 
REMARK    4  A    between atoms: C_13  and  C_14 
ROOT
HETATM    1  N   UNL     1      -5.131   4.895 -33.700  1.00  0.00    -0.067 N 
HETATM    2  H   UNL     1      -5.662   5.761 -33.550  1.00  0.00     0.277 HD
HETATM    3  H   UNL     1      -4.829   4.605 -32.761  1.00  0.00     0.277 HD
ENDROOT
BRANCH   1   4
HETATM    4  C   UNL     1      -6.056   3.865 -34.237  1.00  0.00     0.273 C 
BRANCH   4   5
HETATM    5  C   UNL     1      -5.854   2.592 -33.501  1.00  0.00    -0.005 A 
HETATM    6  C   UNL     1      -6.306   1.295 -33.904  1.00  0.00    -0.000 A 
HETATM    7  C   UNL     1      -7.041   0.804 -35.005  1.00  0.00     0.014 A 
HETATM    8  C   UNL     1      -5.874   0.386 -32.938  1.00  0.00     0.043 A 
HETATM    9  C   UNL     1      -7.310  -0.567 -35.097  1.00  0.00     0.001 A 
HETATM   10  C   UNL     1      -6.861  -1.447 -34.115  1.00  0.00     0.002 A 
HETATM   11  C   UNL     1      -6.135  -0.986 -33.015  1.00  0.00     0.030 A 
HETATM   12  N   UNL     1      -5.202   1.100 -31.974  1.00  0.00    -0.365 N 
HETATM   13  H   UNL     1      -4.795   0.690 -31.141  1.00  0.00     0.165 HD
HETATM   14  C   UNL     1      -5.170   2.429 -32.310  1.00  0.00     0.098 A 
ENDBRANCH   4   5
ENDBRANCH   1   4
BRANCH   1  15
HETATM   15  C   UNL     1      -3.946   5.174 -34.544  1.00  0.00     0.271 C 
BRANCH  15  16
HETATM   16  C   UNL     1      -2.786   5.620 -33.702  1.00  0.00    -0.030 A 
HETATM   17  C   UNL     1      -2.248   4.758 -32.730  1.00  0.00     0.048 A 
HETATM   18  C   UNL     1      -1.158   5.195 -32.005  1.00  0.00     0.105 A 
HETATM   19  C   UNL     1      -0.593   6.428 -32.214  1.00  0.00     0.105 A 
HETATM   20  O   UNL     1      -0.521   4.490 -31.034  1.00  0.00    -0.323 OA
HETATM   21  O   UNL     1       0.468   6.658 -31.398  1.00  0.00    -0.323 OA
HETATM   22  C   UNL     1      -1.086   7.298 -33.162  1.00  0.00     0.040 A 
HETATM   23  C   UNL     1       0.498   5.434 -30.633  1.00  0.00     0.352 A 
HETATM   24  C   UNL     1      -2.192   6.887 -33.915  1.00  0.00     0.012 A 
ENDBRANCH  15  16
ENDBRANCH   1  15
TORSDOF 4
ENDMDL
MODEL 8
REMARK VINA RESULT:      -7.3      4.285      6.891
REMARK  4 active torsions:
REMARK  status: ('A' for Active; 'I' for Inactive)
REMARK    1  A    between atoms: C_8  and  C_9 
REMARK    2  A    between atoms: C_9  and  N_10 
REMARK    3  A    between atoms: N_10  and  C_13 
REMARK    4  A    between atoms: C_13  and  C_14 
ROOT
HETATM    1  N   UNL     1      -5.339   1.849 -31.089  1.00  0.00    -0.067 N 
HETATM    2  H   UNL     1      -5.797   2.438 -30.384  1.00  0.00     0.277 HD
HETATM    3  H   UNL     1      -4.369   1.753 -30.763  1.00  0.00     0.277 HD
ENDROOT
BRANCH   1   4
HETATM    4  C   UNL     1      -5.978   0.509 -31.070  1.00  0.00     0.273 C 
BRANCH   4   5
HETATM    5  C   UNL     1      -5.120  -0.455 -31.801  1.00  0.00    -0.005 A 
HETATM    6  C   UNL     1      -5.506  -1.258 -32.922  1.00  0.00    -0.000 A 
HETATM    7  C   UNL     1      -6.704  -1.430 -33.647  1.00  0.00     0.014 A 
HETATM    8  C   UNL     1      -4.385  -1.992 -33.312  1.00  0.00     0.043 A 
HETATM    9  C   UNL     1      -6.734  -2.319 -34.728  1.00  0.00     0.001 A 
HETATM   10  C   UNL     1      -5.596  -3.033 -35.092  1.00  0.00     0.002 A 
HETATM   11  C   UNL     1      -4.399  -2.885 -34.389  1.00  0.00     0.030 A 
HETATM   12  N   UNL     1      -3.361  -1.665 -32.454  1.00  0.00    -0.365 N 
HETATM   13  H   UNL     1      -2.431  -2.067 -32.497  1.00  0.00     0.165 HD
HETATM   14  C   UNL     1      -3.787  -0.728 -31.549  1.00  0.00     0.098 A 
ENDBRANCH   4   5
ENDBRANCH   1   4
BRANCH   1  15
HETATM   15  C   UNL     1      -5.361   2.535 -32.403  1.00  0.00     0.271 C 
BRANCH  15  16
HETATM   16  C   UNL     1      -4.225   3.510 -32.513  1.00  0.00    -0.030 A 
HETATM   17  C   UNL     1      -4.245   4.506 -33.506  1.00  0.00     0.048 A 
HETATM   18  C   UNL     1      -3.199   5.405 -33.545  1.00  0.00     0.105 A 
HETATM   19  C   UNL     1      -2.160   5.352 -32.648  1.00  0.00     0.105 A 
HETATM   20  O   UNL     1      -3.065   6.423 -34.435  1.00  0.00    -0.323 OA
HETATM   21  O   UNL     1      -1.240   6.327 -32.863  1.00  0.00    -0.323 OA
HETATM   22  C   UNL     1      -2.108   4.396 -31.658  1.00  0.00     0.040 A 
HETATM   23  C   UNL     1      -1.804   6.993 -34.013  1.00  0.00     0.352 A 
HETATM   24  C   UNL     1      -3.153   3.468 -31.589  1.00  0.00     0.012 A 
ENDBRANCH  15  16
ENDBRANCH   1  15
TORSDOF 4
ENDMDL
MODEL 9
REMARK VINA RESULT:      -7.2      2.039      3.651
REMARK  4 active torsions:
REMARK  status: ('A' for Active; 'I' for Inactive)
REMARK    1  A    between atoms: C_8  and  C_9 
REMARK    2  A    between atoms: C_9  and  N_10 
REMARK    3  A    between atoms: N_10  and  C_13 
REMARK    4  A    between atoms: C_13  and  C_14 
ROOT
HETATM    1  N   UNL     1      -8.517   0.335 -34.131  1.00  0.00    -0.067 N 
HETATM    2  H   UNL     1      -8.275  -0.183 -33.278  1.00  0.00     0.277 HD
HETATM    3  H   UNL     1      -9.434  -0.035 -34.411  1.00  0.00     0.277 HD
ENDROOT
BRANCH   1   4
HETATM    4  C   UNL     1      -8.673   1.769 -33.781  1.00  0.00     0.273 C 
BRANCH   4   5
HETATM    5  C   UNL     1      -8.025   2.028 -32.472  1.00  0.00    -0.005 A 
HETATM    6  C   UNL     1      -6.683   2.482 -32.261  1.00  0.00    -0.000 A 
HETATM    7  C   UNL     1      -5.601   2.793 -33.112  1.00  0.00     0.014 A 
HETATM    8  C   UNL     1      -6.504   2.621 -30.885  1.00  0.00     0.043 A 
HETATM    9  C   UNL     1      -4.393   3.230 -32.558  1.00  0.00     0.001 A 
HETATM   10  C   UNL     1      -4.248   3.360 -31.180  1.00  0.00     0.002 A 
HETATM   11  C   UNL     1      -5.302   3.056 -30.315  1.00  0.00     0.030 A 
HETATM   12  N   UNL     1      -7.680   2.250 -30.277  1.00  0.00    -0.365 N 
HETATM   13  H   UNL     1      -7.825   2.237 -29.274  1.00  0.00     0.165 HD
HETATM   14  C   UNL     1      -8.610   1.905 -31.224  1.00  0.00     0.098 A 
ENDBRANCH   4   5
ENDBRANCH   1   4
BRANCH   1  15
HETATM   15  C   UNL     1      -7.518   0.053 -35.189  1.00  0.00     0.271 C 
BRANCH  15  16
HETATM   16  C   UNL     1      -6.529  -0.977 -34.725  1.00  0.00    -0.030 A 
HETATM   17  C   UNL     1      -6.715  -2.331 -35.054  1.00  0.00     0.048 A 
HETATM   18  C   UNL     1      -5.761  -3.238 -34.640  1.00  0.00     0.105 A 
HETATM   19  C   UNL     1      -4.649  -2.852 -33.933  1.00  0.00     0.105 A 
HETATM   20  O   UNL     1      -5.788  -4.576 -34.873  1.00  0.00    -0.323 OA
HETATM   21  O   UNL     1      -3.840  -3.898 -33.627  1.00  0.00    -0.323 OA
HETATM   22  C   UNL     1      -4.428  -1.534 -33.597  1.00  0.00     0.040 A 
HETATM   23  C   UNL     1      -4.576  -4.996 -34.205  1.00  0.00     0.352 A 
HETATM   24  C   UNL     1      -5.376  -0.588 -34.001  1.00  0.00     0.012 A 
ENDBRANCH  15  16
ENDBRANCH   1  15
TORSDOF 4
ENDMDL
MODEL 10
REMARK VINA RESULT:      -7.1      3.029      4.612
REMARK  4 active torsions:
REMARK  status: ('A' for Active; 'I' for Inactive)
REMARK    1  A    between atoms: C_8  and  C_9 
REMARK    2  A    between atoms: C_9  and  N_10 
REMARK    3  A    between atoms: N_10  and  C_13 
REMARK    4  A    between atoms: C_13  and  C_14 
ROOT
HETATM    1  N   UNL     1      -5.899   1.545 -33.871  1.00  0.00    -0.067 N 
HETATM    2  H   UNL     1      -6.208   1.631 -34.847  1.00  0.00     0.277 HD
HETATM    3  H   UNL     1      -4.912   1.264 -33.931  1.00  0.00     0.277 HD
ENDROOT
BRANCH   1   4
HETATM    4  C   UNL     1      -5.972   2.884 -33.235  1.00  0.00     0.273 C 
BRANCH   4   5
HETATM    5  C   UNL     1      -4.652   3.219 -32.646  1.00  0.00    -0.005 A 
HETATM    6  C   UNL     1      -3.699   4.153 -33.168  1.00  0.00    -0.000 A 
HETATM    7  C   UNL     1      -3.653   4.983 -34.308  1.00  0.00     0.014 A 
HETATM    8  C   UNL     1      -2.619   4.179 -32.286  1.00  0.00     0.043 A 
HETATM    9  C   UNL     1      -2.539   5.804 -34.518  1.00  0.00     0.001 A 
HETATM   10  C   UNL     1      -1.479   5.807 -33.616  1.00  0.00     0.002 A 
HETATM   11  C   UNL     1      -1.498   4.993 -32.482  1.00  0.00     0.030 A 
HETATM   12  N   UNL     1      -2.890   3.286 -31.276  1.00  0.00    -0.365 N 
HETATM   13  H   UNL     1      -2.264   3.090 -30.504  1.00  0.00     0.165 HD
HETATM   14  C   UNL     1      -4.120   2.713 -31.474  1.00  0.00     0.098 A 
ENDBRANCH   4   5
ENDBRANCH   1   4
BRANCH   1  15
HETATM   15  C   UNL     1      -6.681   0.485 -33.191  1.00  0.00     0.271 C 
BRANCH  15  16
HETATM   16  C   UNL     1      -6.224  -0.877 -33.628  1.00  0.00    -0.030 A 
HETATM   17  C   UNL     1      -5.002  -1.393 -33.161  1.00  0.00     0.048 A 
HETATM   18  C   UNL     1      -4.640  -2.664 -33.556  1.00  0.00     0.105 A 
HETATM   19  C   UNL     1      -5.435  -3.425 -34.377  1.00  0.00     0.105 A 
HETATM   20  O   UNL     1      -3.499  -3.308 -33.198  1.00  0.00    -0.323 OA
HETATM   21  O   UNL     1      -4.894  -4.641 -34.642  1.00  0.00    -0.323 OA
HETATM   22  C   UNL     1      -6.642  -2.957 -34.850  1.00  0.00     0.040 A 
HETATM   23  C   UNL     1      -3.653  -4.557 -33.910  1.00  0.00     0.352 A 
HETATM   24  C   UNL     1      -7.040  -1.671 -34.468  1.00  0.00     0.012 A 
ENDBRANCH  15  16
ENDBRANCH   1  15
TORSDOF 4
ENDMDL
