MODEL 1
REMARK VINA RESULT:      -7.7      0.000      0.000
REMARK  5 active torsions:
REMARK  status: ('A' for Active; 'I' for Inactive)
REMARK    1  A    between atoms: C_2  and  O_3 
REMARK    2  A    between atoms: C_4  and  C_5 
REMARK    3  A    between atoms: C_5  and  O_6 
REMARK    4  A    between atoms: C_9  and  C_10 
REMARK    5  A    between atoms: C_22  and  O_23 
ROOT
HETATM    1  C   UNL     1      -8.813   1.508 -33.014  1.00  0.00     0.047 C 
HETATM    2  C   UNL     1      -7.733   2.573 -32.763  1.00  0.00     0.073 C 
HETATM    3  C   UNL     1      -6.409   2.233 -33.527  1.00  0.00     0.133 C 
HETATM    4  C   UNL     1      -5.488   1.139 -32.906  1.00  0.00     0.074 C 
HETATM    5  C   UNL     1      -5.633   1.067 -31.425  1.00  0.00     0.030 A 
HETATM    6  C   UNL     1      -6.557   1.794 -30.704  1.00  0.00     0.042 A 
HETATM    7  N   UNL     1      -6.351   1.501 -29.386  1.00  0.00    -0.279 N 
HETATM    8  H   UNL     1      -6.839   1.861 -28.571  1.00  0.00     0.189 HD
HETATM    9  N   UNL     1      -5.331   0.636 -29.196  1.00  0.00    -0.149 NA
HETATM   10  C   UNL     1      -4.904   0.413 -30.432  1.00  0.00     0.190 A 
HETATM   11  C   UNL     1      -7.535   2.770 -31.234  1.00  0.00     0.097 C 
ENDROOT
BRANCH   4  12
HETATM   12  C   UNL     1      -5.720  -0.246 -33.505  1.00  0.00    -0.048 A 
HETATM   13  C   UNL     1      -4.590  -1.062 -33.711  1.00  0.00     0.009 A 
HETATM   14  C   UNL     1      -4.709  -2.342 -34.263  1.00  0.00     0.019 A 
HETATM   15  C   UNL     1      -5.963  -2.822 -34.624  1.00  0.00     0.011 A 
HETATM   16 BR   UNL     1      -6.130  -4.551 -35.367  1.00  0.00    -0.051 Br
HETATM   17  C   UNL     1      -7.095  -2.036 -34.437  1.00  0.00     0.019 A 
HETATM   18  C   UNL     1      -6.973  -0.759 -33.881  1.00  0.00     0.009 A 
ENDBRANCH   4  12
BRANCH   3  19
HETATM   19  C   UNL     1      -5.600   3.496 -33.759  1.00  0.00     0.266 C 
HETATM   20  O   UNL     1      -5.973   4.386 -34.518  1.00  0.00    -0.265 OA
BRANCH  19  21
HETATM   21  O   UNL     1      -4.453   3.529 -33.035  1.00  0.00    -0.326 OA
HETATM   22  C   UNL     1      -4.355   4.627 -32.127  1.00  0.00     0.213 C 
ENDBRANCH  19  21
ENDBRANCH   3  19
BRANCH   2  23
HETATM   23  O   UNL     1      -8.298   3.796 -33.274  1.00  0.00    -0.389 OA
HETATM   24  H   UNL     1      -9.250   3.661 -33.430  1.00  0.00     0.210 HD
ENDBRANCH   2  23
BRANCH  10  25
HETATM   25  O   UNL     1      -3.850  -0.388 -30.535  1.00  0.00    -0.343 OA
HETATM   26  H   UNL     1      -4.116  -1.203 -30.077  1.00  0.00     0.219 HD
ENDBRANCH  10  25
TORSDOF 5
ENDMDL
MODEL 2
REMARK VINA RESULT:      -7.5      2.240      3.199
REMARK  5 active torsions:
REMARK  status: ('A' for Active; 'I' for Inactive)
REMARK    1  A    between atoms: C_2  and  O_3 
REMARK    2  A    between atoms: C_4  and  C_5 
REMARK    3  A    between atoms: C_5  and  O_6 
REMARK    4  A    between atoms: C_9  and  C_10 
REMARK    5  A    between atoms: C_22  and  O_23 
ROOT
HETATM    1  C   UNL     1      -5.520   4.184 -34.401  1.00  0.00     0.047 C 
HETATM    2  C   UNL     1      -4.879   4.844 -33.170  1.00  0.00     0.073 C 
HETATM    3  C   UNL     1      -3.865   3.879 -32.469  1.00  0.00     0.133 C 
HETATM    4  C   UNL     1      -4.459   2.754 -31.568  1.00  0.00     0.074 C 
HETATM    5  C   UNL     1      -5.771   3.147 -30.983  1.00  0.00     0.030 A 
HETATM    6  C   UNL     1      -6.438   4.313 -31.295  1.00  0.00     0.042 A 
HETATM    7  N   UNL     1      -7.567   4.342 -30.527  1.00  0.00    -0.279 N 
HETATM    8  H   UNL     1      -8.288   5.056 -30.485  1.00  0.00     0.189 HD
HETATM    9  N   UNL     1      -7.672   3.271 -29.712  1.00  0.00    -0.149 NA
HETATM   10  C   UNL     1      -6.572   2.584 -29.987  1.00  0.00     0.190 A 
HETATM   11  C   UNL     1      -5.989   5.376 -32.222  1.00  0.00     0.097 C 
ENDROOT
BRANCH   4  12
HETATM   12  C   UNL     1      -4.610   1.422 -32.299  1.00  0.00    -0.048 A 
HETATM   13  C   UNL     1      -3.511   0.539 -32.275  1.00  0.00     0.009 A 
HETATM   14  C   UNL     1      -3.559  -0.697 -32.925  1.00  0.00     0.019 A 
HETATM   15  C   UNL     1      -4.706  -1.069 -33.617  1.00  0.00     0.011 A 
HETATM   16 BR   UNL     1      -4.777  -2.740 -34.494  1.00  0.00    -0.051 Br
HETATM   17  C   UNL     1      -5.804  -0.216 -33.662  1.00  0.00     0.019 A 
HETATM   18  C   UNL     1      -5.755   1.019 -33.007  1.00  0.00     0.009 A 
ENDBRANCH   4  12
BRANCH   3  19
HETATM   19  C   UNL     1      -2.850   4.677 -31.672  1.00  0.00     0.266 C 
HETATM   20  O   UNL     1      -3.175   5.586 -30.914  1.00  0.00    -0.265 OA
BRANCH  19  21
HETATM   21  O   UNL     1      -1.573   4.265 -31.881  1.00  0.00    -0.326 OA
HETATM   22  C   UNL     1      -0.595   5.302 -31.803  1.00  0.00     0.213 C 
ENDBRANCH  19  21
ENDBRANCH   3  19
BRANCH   2  23
HETATM   23  O   UNL     1      -4.185   5.996 -33.691  1.00  0.00    -0.389 OA
HETATM   24  H   UNL     1      -3.491   5.693 -34.305  1.00  0.00     0.210 HD
ENDBRANCH   2  23
BRANCH  10  25
HETATM   25  O   UNL     1      -6.396   1.478 -29.275  1.00  0.00    -0.343 OA
HETATM   26  H   UNL     1      -6.980   1.587 -28.506  1.00  0.00     0.219 HD
ENDBRANCH  10  25
TORSDOF 5
ENDMDL
MODEL 3
REMARK VINA RESULT:      -7.3      2.822      3.909
REMARK  5 active torsions:
REMARK  status: ('A' for Active; 'I' for Inactive)
REMARK    1  A    between atoms: C_2  and  O_3 
REMARK    2  A    between atoms: C_4  and  C_5 
REMARK    3  A    between atoms: C_5  and  O_6 
REMARK    4  A    between atoms: C_9  and  C_10 
REMARK    5  A    between atoms: C_22  and  O_23 
ROOT
HETATM    1  C   UNL     1      -6.586   3.458 -34.153  1.00  0.00     0.047 C 
HETATM    2  C   UNL     1      -7.432   3.775 -32.909  1.00  0.00     0.073 C 
HETATM    3  C   UNL     1      -7.292   2.655 -31.824  1.00  0.00     0.133 C 
HETATM    4  C   UNL     1      -8.097   1.339 -32.050  1.00  0.00     0.074 C 
HETATM    5  C   UNL     1      -9.336   1.576 -32.842  1.00  0.00     0.030 A 
HETATM    6  C   UNL     1      -9.669   2.787 -33.411  1.00  0.00     0.042 A 
HETATM    7  N   UNL     1     -10.888   2.624 -34.005  1.00  0.00    -0.279 N 
HETATM    8  H   UNL     1     -11.445   3.308 -34.510  1.00  0.00     0.189 HD
HETATM    9  N   UNL     1     -11.386   1.380 -33.844  1.00  0.00    -0.149 NA
HETATM   10  C   UNL     1     -10.448   0.781 -33.123  1.00  0.00     0.190 A 
HETATM   11  C   UNL     1      -8.902   4.051 -33.331  1.00  0.00     0.097 C 
ENDROOT
BRANCH   4  12
HETATM   12  C   UNL     1      -7.272   0.241 -32.717  1.00  0.00    -0.048 A 
HETATM   13  C   UNL     1      -6.164  -0.262 -32.006  1.00  0.00     0.009 A 
HETATM   14  C   UNL     1      -5.349  -1.261 -32.545  1.00  0.00     0.019 A 
HETATM   15  C   UNL     1      -5.625  -1.769 -33.810  1.00  0.00     0.011 A 
HETATM   16 BR   UNL     1      -4.528  -3.121 -34.542  1.00  0.00    -0.051 Br
HETATM   17  C   UNL     1      -6.708  -1.287 -34.537  1.00  0.00     0.019 A 
HETATM   18  C   UNL     1      -7.525  -0.290 -33.993  1.00  0.00     0.009 A 
ENDBRANCH   4  12
BRANCH   3  19
HETATM   19  C   UNL     1      -7.617   3.213 -30.451  1.00  0.00     0.266 C 
HETATM   20  O   UNL     1      -8.761   3.244 -30.008  1.00  0.00    -0.265 OA
BRANCH  19  21
HETATM   21  O   UNL     1      -6.519   3.650 -29.785  1.00  0.00    -0.326 OA
HETATM   22  C   UNL     1      -5.339   2.878 -30.014  1.00  0.00     0.213 C 
ENDBRANCH  19  21
ENDBRANCH   3  19
BRANCH   2  23
HETATM   23  O   UNL     1      -6.899   5.017 -32.409  1.00  0.00    -0.389 OA
HETATM   24  H   UNL     1      -7.504   5.367 -31.730  1.00  0.00     0.210 HD
ENDBRANCH   2  23
BRANCH  10  25
HETATM   25  O   UNL     1     -10.711  -0.473 -32.773  1.00  0.00    -0.343 OA
HETATM   26  H   UNL     1     -11.680  -0.511 -32.707  1.00  0.00     0.219 HD
ENDBRANCH  10  25
TORSDOF 5
ENDMDL
MODEL 4
REMARK VINA RESULT:      -7.2      2.776      4.104
REMARK  5 active torsions:
REMARK  status: ('A' for Active; 'I' for Inactive)
REMARK    1  A    between atoms: C_2  and  O_3 
REMARK    2  A    between atoms: C_4  and  C_5 
REMARK    3  A    between atoms: C_5  and  O_6 
REMARK    4  A    between atoms: C_9  and  C_10 
REMARK    5  A    between atoms: C_22  and  O_23 
ROOT
HETATM    1  C   UNL     1      -6.547   1.656 -30.101  1.00  0.00     0.047 C 
HETATM    2  C   UNL     1      -5.351   2.011 -30.999  1.00  0.00     0.073 C 
HETATM    3  C   UNL     1      -5.822   2.498 -32.410  1.00  0.00     0.133 C 
HETATM    4  C   UNL     1      -6.273   1.405 -33.427  1.00  0.00     0.074 C 
HETATM    5  C   UNL     1      -5.588   0.105 -33.184  1.00  0.00     0.030 A 
HETATM    6  C   UNL     1      -4.750  -0.138 -32.116  1.00  0.00     0.042 A 
HETATM    7  N   UNL     1      -4.280  -1.412 -32.263  1.00  0.00    -0.279 N 
HETATM    8  H   UNL     1      -3.632  -1.923 -31.669  1.00  0.00     0.189 HD
HETATM    9  N   UNL     1      -4.745  -2.016 -33.377  1.00  0.00    -0.149 NA
HETATM   10  C   UNL     1      -5.507  -1.076 -33.922  1.00  0.00     0.190 A 
HETATM   11  C   UNL     1      -4.361   0.815 -31.052  1.00  0.00     0.097 C 
ENDROOT
BRANCH   4  12
HETATM   12  C   UNL     1      -7.784   1.187 -33.438  1.00  0.00    -0.048 A 
HETATM   13  C   UNL     1      -8.568   2.102 -34.169  1.00  0.00     0.009 A 
HETATM   14  C   UNL     1      -9.960   1.982 -34.225  1.00  0.00     0.019 A 
HETATM   15  C   UNL     1     -10.591   0.948 -33.544  1.00  0.00     0.011 A 
HETATM   16 BR   UNL     1     -12.471   0.781 -33.619  1.00  0.00    -0.051 Br
HETATM   17  C   UNL     1      -9.843   0.034 -32.810  1.00  0.00     0.019 A 
HETATM   18  C   UNL     1      -8.451   0.153 -32.758  1.00  0.00     0.009 A 
ENDBRANCH   4  12
BRANCH   3  19
HETATM   19  C   UNL     1      -4.754   3.366 -33.048  1.00  0.00     0.266 C 
HETATM   20  O   UNL     1      -3.566   3.268 -32.757  1.00  0.00    -0.265 OA
BRANCH  19  21
HETATM   21  O   UNL     1      -5.255   4.232 -33.965  1.00  0.00    -0.326 OA
HETATM   22  C   UNL     1      -4.291   5.121 -34.532  1.00  0.00     0.213 C 
ENDBRANCH  19  21
ENDBRANCH   3  19
BRANCH   2  23
HETATM   23  O   UNL     1      -4.678   3.082 -30.307  1.00  0.00    -0.389 OA
HETATM   24  H   UNL     1      -4.278   2.726 -29.492  1.00  0.00     0.210 HD
ENDBRANCH   2  23
BRANCH  10  25
HETATM   25  O   UNL     1      -6.065  -1.397 -35.083  1.00  0.00    -0.343 OA
HETATM   26  H   UNL     1      -5.319  -1.470 -35.702  1.00  0.00     0.219 HD
ENDBRANCH  10  25
TORSDOF 5
ENDMDL
MODEL 5
REMARK VINA RESULT:      -7.1      3.245      4.906
REMARK  5 active torsions:
REMARK  status: ('A' for Active; 'I' for Inactive)
REMARK    1  A    between atoms: C_2  and  O_3 
REMARK    2  A    between atoms: C_4  and  C_5 
REMARK    3  A    between atoms: C_5  and  O_6 
REMARK    4  A    between atoms: C_9  and  C_10 
REMARK    5  A    between atoms: C_22  and  O_23 
ROOT
HETATM    1  C   UNL     1      -6.606   0.815 -34.741  1.00  0.00     0.047 C 
HETATM    2  C   UNL     1      -7.821   1.200 -33.882  1.00  0.00     0.073 C 
HETATM    3  C   UNL     1      -7.792   2.718 -33.500  1.00  0.00     0.133 C 
HETATM    4  C   UNL     1      -6.830   3.144 -32.349  1.00  0.00     0.074 C 
HETATM    5  C   UNL     1      -6.605   2.040 -31.376  1.00  0.00     0.030 A 
HETATM    6  C   UNL     1      -7.090   0.758 -31.536  1.00  0.00     0.042 A 
HETATM    7  N   UNL     1      -6.725   0.054 -30.424  1.00  0.00    -0.279 N 
HETATM    8  H   UNL     1      -6.919  -0.916 -30.195  1.00  0.00     0.189 HD
HETATM    9  N   UNL     1      -6.044   0.803 -29.531  1.00  0.00    -0.149 NA
HETATM   10  C   UNL     1      -6.008   1.994 -30.115  1.00  0.00     0.190 A 
HETATM   11  C   UNL     1      -7.917   0.251 -32.654  1.00  0.00     0.097 C 
ENDROOT
BRANCH   4  12
HETATM   12  C   UNL     1      -5.483   3.654 -32.855  1.00  0.00    -0.048 A 
HETATM   13  C   UNL     1      -5.498   4.689 -33.813  1.00  0.00     0.009 A 
HETATM   14  C   UNL     1      -4.311   5.209 -34.337  1.00  0.00     0.019 A 
HETATM   15  C   UNL     1      -3.088   4.698 -33.917  1.00  0.00     0.011 A 
HETATM   16 BR   UNL     1      -1.482   5.400 -34.620  1.00  0.00    -0.051 Br
HETATM   17  C   UNL     1      -3.044   3.673 -32.977  1.00  0.00     0.019 A 
HETATM   18  C   UNL     1      -4.233   3.157 -32.451  1.00  0.00     0.009 A 
ENDBRANCH   4  12
BRANCH   3  19
HETATM   19  C   UNL     1      -9.194   3.206 -33.189  1.00  0.00     0.266 C 
HETATM   20  O   UNL     1      -9.645   3.231 -32.047  1.00  0.00    -0.265 OA
BRANCH  19  21
HETATM   21  O   UNL     1      -9.868   3.615 -34.294  1.00  0.00    -0.326 OA
HETATM   22  C   UNL     1     -11.290   3.540 -34.184  1.00  0.00     0.213 C 
ENDBRANCH  19  21
ENDBRANCH   3  19
BRANCH   2  23
HETATM   23  O   UNL     1      -8.963   0.922 -34.716  1.00  0.00    -0.389 OA
HETATM   24  H   UNL     1      -9.065  -0.044 -34.797  1.00  0.00     0.210 HD
ENDBRANCH   2  23
BRANCH  10  25
HETATM   25  O   UNL     1      -5.421   2.956 -29.413  1.00  0.00    -0.343 OA
HETATM   26  H   UNL     1      -5.384   3.714 -30.021  1.00  0.00     0.219 HD
ENDBRANCH  10  25
TORSDOF 5
ENDMDL
MODEL 6
REMARK VINA RESULT:      -7.0      2.768      4.421
REMARK  5 active torsions:
REMARK  status: ('A' for Active; 'I' for Inactive)
REMARK    1  A    between atoms: C_2  and  O_3 
REMARK    2  A    between atoms: C_4  and  C_5 
REMARK    3  A    between atoms: C_5  and  O_6 
REMARK    4  A    between atoms: C_9  and  C_10 
REMARK    5  A    between atoms: C_22  and  O_23 
ROOT
HETATM    1  C   UNL     1      -9.191   1.832 -31.247  1.00  0.00     0.047 C 
HETATM    2  C   UNL     1      -9.774   2.839 -32.252  1.00  0.00     0.073 C 
HETATM    3  C   UNL     1      -9.489   2.402 -33.727  1.00  0.00     0.133 C 
HETATM    4  C   UNL     1      -8.056   2.662 -34.283  1.00  0.00     0.074 C 
HETATM    5  C   UNL     1      -7.409   3.831 -33.625  1.00  0.00     0.030 A 
HETATM    6  C   UNL     1      -7.961   4.524 -32.568  1.00  0.00     0.042 A 
HETATM    7  N   UNL     1      -7.107   5.550 -32.277  1.00  0.00    -0.279 N 
HETATM    8  H   UNL     1      -7.197   6.269 -31.564  1.00  0.00     0.189 HD
HETATM    9  N   UNL     1      -6.033   5.583 -33.094  1.00  0.00    -0.149 NA
HETATM   10  C   UNL     1      -6.252   4.559 -33.907  1.00  0.00     0.190 A 
HETATM   11  C   UNL     1      -9.266   4.269 -31.917  1.00  0.00     0.097 C 
ENDROOT
BRANCH   4  12
HETATM   12  C   UNL     1      -7.140   1.446 -34.167  1.00  0.00    -0.048 A 
HETATM   13  C   UNL     1      -7.377   0.368 -35.043  1.00  0.00     0.009 A 
HETATM   14  C   UNL     1      -6.593  -0.789 -34.999  1.00  0.00     0.019 A 
HETATM   15  C   UNL     1      -5.561  -0.888 -34.072  1.00  0.00     0.011 A 
HETATM   16 BR   UNL     1      -4.497  -2.447 -34.010  1.00  0.00    -0.051 Br
HETATM   17  C   UNL     1      -5.308   0.158 -33.191  1.00  0.00     0.019 A 
HETATM   18  C   UNL     1      -6.092   1.316 -33.240  1.00  0.00     0.009 A 
ENDBRANCH   4  12
BRANCH   3  19
HETATM   19  C   UNL     1     -10.510   3.021 -34.663  1.00  0.00     0.266 C 
HETATM   20  O   UNL     1     -10.335   4.110 -35.201  1.00  0.00    -0.265 OA
BRANCH  19  21
HETATM   21  O   UNL     1     -11.606   2.240 -34.840  1.00  0.00    -0.326 OA
HETATM   22  C   UNL     1     -12.790   2.951 -35.205  1.00  0.00     0.213 C 
ENDBRANCH  19  21
ENDBRANCH   3  19
BRANCH   2  23
HETATM   23  O   UNL     1     -11.193   2.829 -31.999  1.00  0.00    -0.389 OA
HETATM   24  H   UNL     1     -11.545   3.725 -32.151  1.00  0.00     0.210 HD
ENDBRANCH   2  23
BRANCH  10  25
HETATM   25  O   UNL     1      -5.348   4.386 -34.864  1.00  0.00    -0.343 OA
HETATM   26  H   UNL     1      -4.898   5.244 -34.934  1.00  0.00     0.219 HD
ENDBRANCH  10  25
TORSDOF 5
ENDMDL
MODEL 7
REMARK VINA RESULT:      -6.9      1.602      2.448
REMARK  5 active torsions:
REMARK  status: ('A' for Active; 'I' for Inactive)
REMARK    1  A    between atoms: C_2  and  O_3 
REMARK    2  A    between atoms: C_4  and  C_5 
REMARK    3  A    between atoms: C_5  and  O_6 
REMARK    4  A    between atoms: C_9  and  C_10 
REMARK    5  A    between atoms: C_22  and  O_23 
ROOT
HETATM    1  C   UNL     1      -9.259   0.608 -31.390  1.00  0.00     0.047 C 
HETATM    2  C   UNL     1      -9.112   2.062 -31.866  1.00  0.00     0.073 C 
HETATM    3  C   UNL     1      -8.454   2.133 -33.285  1.00  0.00     0.133 C 
HETATM    4  C   UNL     1      -6.909   1.941 -33.365  1.00  0.00     0.074 C 
HETATM    5  C   UNL     1      -6.230   2.377 -32.113  1.00  0.00     0.030 A 
HETATM    6  C   UNL     1      -6.895   2.787 -30.976  1.00  0.00     0.042 A 
HETATM    7  N   UNL     1      -5.942   3.154 -30.070  1.00  0.00    -0.279 N 
HETATM    8  H   UNL     1      -6.066   3.516 -29.128  1.00  0.00     0.189 HD
HETATM    9  N   UNL     1      -4.687   3.027 -30.550  1.00  0.00    -0.149 NA
HETATM   10  C   UNL     1      -4.890   2.584 -31.784  1.00  0.00     0.190 A 
HETATM   11  C   UNL     1      -8.360   2.893 -30.789  1.00  0.00     0.097 C 
ENDROOT
BRANCH   4  12
HETATM   12  C   UNL     1      -6.503   0.505 -33.687  1.00  0.00    -0.048 A 
HETATM   13  C   UNL     1      -7.148  -0.126 -34.769  1.00  0.00     0.009 A 
HETATM   14  C   UNL     1      -6.844  -1.443 -35.128  1.00  0.00     0.019 A 
HETATM   15  C   UNL     1      -5.893  -2.153 -34.403  1.00  0.00     0.011 A 
HETATM   16 BR   UNL     1      -5.476  -3.931 -34.886  1.00  0.00    -0.051 Br
HETATM   17  C   UNL     1      -5.244  -1.557 -33.327  1.00  0.00     0.019 A 
HETATM   18  C   UNL     1      -5.548  -0.239 -32.973  1.00  0.00     0.009 A 
ENDBRANCH   4  12
BRANCH   3  19
HETATM   19  C   UNL     1      -8.834   3.432 -33.973  1.00  0.00     0.266 C 
HETATM   20  O   UNL     1      -9.951   3.624 -34.445  1.00  0.00    -0.265 OA
BRANCH  19  21
HETATM   21  O   UNL     1      -7.822   4.336 -33.990  1.00  0.00    -0.326 OA
HETATM   22  C   UNL     1      -8.118   5.571 -33.338  1.00  0.00     0.213 C 
ENDBRANCH  19  21
ENDBRANCH   3  19
BRANCH   2  23
HETATM   23  O   UNL     1     -10.460   2.568 -31.920  1.00  0.00    -0.389 OA
HETATM   24  H   UNL     1     -10.712   2.884 -31.033  1.00  0.00     0.210 HD
ENDBRANCH   2  23
BRANCH  10  25
HETATM   25  O   UNL     1      -3.795   2.412 -32.516  1.00  0.00    -0.343 OA
HETATM   26  H   UNL     1      -4.005   1.662 -33.097  1.00  0.00     0.219 HD
ENDBRANCH  10  25
TORSDOF 5
ENDMDL
MODEL 8
REMARK VINA RESULT:      -6.8      4.798      7.160
REMARK  5 active torsions:
REMARK  status: ('A' for Active; 'I' for Inactive)
REMARK    1  A    between atoms: C_2  and  O_3 
REMARK    2  A    between atoms: C_4  and  C_5 
REMARK    3  A    between atoms: C_5  and  O_6 
REMARK    4  A    between atoms: C_9  and  C_10 
REMARK    5  A    between atoms: C_22  and  O_23 
ROOT
HETATM    1  C   UNL     1      -0.463   5.076 -30.307  1.00  0.00     0.047 C 
HETATM    2  C   UNL     1      -0.858   6.479 -30.796  1.00  0.00     0.073 C 
HETATM    3  C   UNL     1      -2.399   6.719 -30.658  1.00  0.00     0.133 C 
HETATM    4  C   UNL     1      -3.320   6.073 -31.738  1.00  0.00     0.074 C 
HETATM    5  C   UNL     1      -2.618   5.914 -33.042  1.00  0.00     0.030 A 
HETATM    6  C   UNL     1      -1.281   6.191 -33.239  1.00  0.00     0.042 A 
HETATM    7  N   UNL     1      -1.022   5.975 -34.562  1.00  0.00    -0.279 N 
HETATM    8  H   UNL     1      -0.146   6.089 -35.065  1.00  0.00     0.189 HD
HETATM    9  N   UNL     1      -2.116   5.590 -35.253  1.00  0.00    -0.149 NA
HETATM   10  C   UNL     1      -3.062   5.586 -34.324  1.00  0.00     0.190 A 
HETATM   11  C   UNL     1      -0.320   6.704 -32.237  1.00  0.00     0.097 C 
ENDROOT
BRANCH   4  12
HETATM   12  C   UNL     1      -3.893   4.726 -31.305  1.00  0.00    -0.048 A 
HETATM   13  C   UNL     1      -5.052   4.740 -30.503  1.00  0.00     0.009 A 
HETATM   14  C   UNL     1      -5.639   3.554 -30.054  1.00  0.00     0.019 A 
HETATM   15  C   UNL     1      -5.071   2.331 -30.395  1.00  0.00     0.011 A 
HETATM   16 BR   UNL     1      -5.862   0.725 -29.793  1.00  0.00    -0.051 Br
HETATM   17  C   UNL     1      -3.924   2.287 -31.180  1.00  0.00     0.019 A 
HETATM   18  C   UNL     1      -3.341   3.476 -31.631  1.00  0.00     0.009 A 
ENDBRANCH   4  12
BRANCH   3  19
HETATM   19  C   UNL     1      -2.692   8.205 -30.573  1.00  0.00     0.266 C 
HETATM   20  O   UNL     1      -2.900   8.893 -31.568  1.00  0.00    -0.265 OA
BRANCH  19  21
HETATM   21  O   UNL     1      -2.708   8.668 -29.297  1.00  0.00    -0.326 OA
HETATM   22  C   UNL     1      -3.392   7.826 -28.369  1.00  0.00     0.213 C 
ENDBRANCH  19  21
ENDBRANCH   3  19
BRANCH   2  23
HETATM   23  O   UNL     1      -0.138   7.384 -29.934  1.00  0.00    -0.389 OA
HETATM   24  H   UNL     1       0.562   7.819 -30.453  1.00  0.00     0.210 HD
ENDBRANCH   2  23
BRANCH  10  25
HETATM   25  O   UNL     1      -4.281   5.279 -34.752  1.00  0.00    -0.343 OA
HETATM   26  H   UNL     1      -4.575   6.067 -35.238  1.00  0.00     0.219 HD
ENDBRANCH  10  25
TORSDOF 5
ENDMDL
MODEL 9
REMARK VINA RESULT:      -6.7     16.114     18.360
REMARK  5 active torsions:
REMARK  status: ('A' for Active; 'I' for Inactive)
REMARK    1  A    between atoms: C_2  and  O_3 
REMARK    2  A    between atoms: C_4  and  C_5 
REMARK    3  A    between atoms: C_5  and  O_6 
REMARK    4  A    between atoms: C_9  and  C_10 
REMARK    5  A    between atoms: C_22  and  O_23 
ROOT
HETATM    1  C   UNL     1      -3.877 -16.463 -39.032  1.00  0.00     0.047 C 
HETATM    2  C   UNL     1      -2.574 -15.905 -39.627  1.00  0.00     0.073 C 
HETATM    3  C   UNL     1      -2.709 -14.384 -39.970  1.00  0.00     0.133 C 
HETATM    4  C   UNL     1      -3.475 -14.013 -41.276  1.00  0.00     0.074 C 
HETATM    5  C   UNL     1      -3.376 -15.089 -42.301  1.00  0.00     0.030 A 
HETATM    6  C   UNL     1      -2.783 -16.314 -42.080  1.00  0.00     0.042 A 
HETATM    7  N   UNL     1      -2.841 -17.002 -43.259  1.00  0.00    -0.279 N 
HETATM    8  H   UNL     1      -2.493 -17.933 -43.469  1.00  0.00     0.189 HD
HETATM    9  N   UNL     1      -3.422 -16.292 -44.250  1.00  0.00    -0.149 NA
HETATM   10  C   UNL     1      -3.709 -15.142 -43.656  1.00  0.00     0.190 A 
HETATM   11  C   UNL     1      -2.132 -16.778 -40.834  1.00  0.00     0.097 C 
ENDROOT
BRANCH   4  12
HETATM   12  C   UNL     1      -4.945 -13.681 -41.032  1.00  0.00    -0.048 A 
HETATM   13  C   UNL     1      -5.250 -12.387 -40.563  1.00  0.00     0.009 A 
HETATM   14  C   UNL     1      -6.568 -12.000 -40.305  1.00  0.00     0.019 A 
HETATM   15  C   UNL     1      -7.604 -12.906 -40.505  1.00  0.00     0.011 A 
HETATM   16 BR   UNL     1      -9.387 -12.388 -40.160  1.00  0.00    -0.051 Br
HETATM   17  C   UNL     1      -7.332 -14.191 -40.962  1.00  0.00     0.019 A 
HETATM   18  C   UNL     1      -6.013 -14.574 -41.223  1.00  0.00     0.009 A 
ENDBRANCH   4  12
BRANCH   3  19
HETATM   19  C   UNL     1      -1.341 -13.728 -39.987  1.00  0.00     0.266 C 
HETATM   20  O   UNL     1      -0.628 -13.719 -40.986  1.00  0.00    -0.265 OA
BRANCH  19  21
HETATM   21  O   UNL     1      -1.015 -13.155 -38.800  1.00  0.00    -0.326 OA
HETATM   22  C   UNL     1      -2.067 -12.404 -38.195  1.00  0.00     0.213 C 
ENDBRANCH  19  21
ENDBRANCH   3  19
BRANCH   2  23
HETATM   23  O   UNL     1      -1.589 -16.093 -38.591  1.00  0.00    -0.389 OA
HETATM   24  H   UNL     1      -0.969 -16.791 -38.871  1.00  0.00     0.210 HD
ENDBRANCH   2  23
BRANCH  10  25
HETATM   25  O   UNL     1      -4.260 -14.219 -44.435  1.00  0.00    -0.343 OA
HETATM   26  H   UNL     1      -3.507 -13.728 -44.804  1.00  0.00     0.219 HD
ENDBRANCH  10  25
TORSDOF 5
ENDMDL
MODEL 10
REMARK VINA RESULT:      -6.6     14.954     16.799
REMARK  5 active torsions:
REMARK  status: ('A' for Active; 'I' for Inactive)
REMARK    1  A    between atoms: C_2  and  O_3 
REMARK    2  A    between atoms: C_4  and  C_5 
REMARK    3  A    between atoms: C_5  and  O_6 
REMARK    4  A    between atoms: C_9  and  C_10 
REMARK    5  A    between atoms: C_22  and  O_23 
ROOT
HETATM    1  C   UNL     1      -6.949 -16.299 -38.633  1.00  0.00     0.047 C 
HETATM    2  C   UNL     1      -7.616 -14.933 -38.411  1.00  0.00     0.073 C 
HETATM    3  C   UNL     1      -7.493 -14.025 -39.680  1.00  0.00     0.133 C 
HETATM    4  C   UNL     1      -6.121 -13.325 -39.925  1.00  0.00     0.074 C 
HETATM    5  C   UNL     1      -5.391 -13.074 -38.651  1.00  0.00     0.030 A 
HETATM    6  C   UNL     1      -5.818 -13.516 -37.416  1.00  0.00     0.042 A 
HETATM    7  N   UNL     1      -4.922 -13.050 -36.497  1.00  0.00    -0.279 N 
HETATM    8  H   UNL     1      -4.926 -13.172 -35.488  1.00  0.00     0.189 HD
HETATM    9  N   UNL     1      -3.938 -12.312 -37.053  1.00  0.00    -0.149 NA
HETATM   10  C   UNL     1      -4.257 -12.322 -38.340  1.00  0.00     0.190 A 
HETATM   11  C   UNL     1      -7.053 -14.277 -37.119  1.00  0.00     0.097 C 
ENDROOT
BRANCH   4  12
HETATM   12  C   UNL     1      -5.218 -14.101 -40.881  1.00  0.00    -0.048 A 
HETATM   13  C   UNL     1      -5.412 -13.902 -42.263  1.00  0.00     0.009 A 
HETATM   14  C   UNL     1      -4.636 -14.578 -43.209  1.00  0.00     0.019 A 
HETATM   15  C   UNL     1      -3.657 -15.471 -42.788  1.00  0.00     0.011 A 
HETATM   16 BR   UNL     1      -2.604 -16.385 -44.062  1.00  0.00    -0.051 Br
HETATM   17  C   UNL     1      -3.448 -15.691 -41.430  1.00  0.00     0.019 A 
HETATM   18  C   UNL     1      -4.223 -15.010 -40.486  1.00  0.00     0.009 A 
ENDBRANCH   4  12
BRANCH   3  19
HETATM   19  C   UNL     1      -8.596 -12.982 -39.687  1.00  0.00     0.266 C 
HETATM   20  O   UNL     1      -8.598 -12.022 -38.922  1.00  0.00    -0.265 OA
BRANCH  19  21
HETATM   21  O   UNL     1      -9.546 -13.226 -40.624  1.00  0.00    -0.326 OA
HETATM   22  C   UNL     1     -10.888 -13.032 -40.174  1.00  0.00     0.213 C 
ENDBRANCH  19  21
ENDBRANCH   3  19
BRANCH   2  23
HETATM   23  O   UNL     1      -9.002 -15.239 -38.155  1.00  0.00    -0.389 OA
HETATM   24  H   UNL     1      -9.539 -14.900 -38.894  1.00  0.00     0.210 HD
ENDBRANCH   2  23
BRANCH  10  25
HETATM   25  O   UNL     1      -3.460 -11.614 -39.132  1.00  0.00    -0.343 OA
HETATM   26  H   UNL     1      -2.821 -12.259 -39.476  1.00  0.00     0.219 HD
ENDBRANCH  10  25
TORSDOF 5
ENDMDL
