MODEL 1
REMARK VINA RESULT:     -10.1      0.000      0.000
REMARK  6 active torsions:
REMARK  status: ('A' for Active; 'I' for Inactive)
REMARK    1  A    between atoms: C_2  and  O_3 
REMARK    2  A    between atoms: C_2  and  C_4 
REMARK    3  A    between atoms: C_6  and  N_7 
REMARK       I    between atoms: N_7  and  C_8 
REMARK    4  A    between atoms: C_8  and  C_9 
REMARK    5  A    between atoms: C_14  and  C_15 
REMARK    6  A    between atoms: C_23  and  C_24 
ROOT
HETATM    1  C   UNL     1      -4.943   3.029 -32.299  1.00  0.00     0.148 A 
HETATM    2  N   UNL     1      -4.551   3.924 -33.239  1.00  0.00    -0.165 NA
HETATM    3  N   UNL     1      -3.815   4.804 -32.531  1.00  0.00    -0.240 N 
HETATM    4  C   UNL     1      -3.793   4.563 -31.192  1.00  0.00     0.123 A 
HETATM    5  N   UNL     1      -3.108   5.365 -30.358  1.00  0.00    -0.366 N 
HETATM    6  C   UNL     1      -2.906   6.774 -30.678  1.00  0.00     0.118 C 
HETATM    7  C   UNL     1      -2.958   7.093 -32.189  1.00  0.00     0.066 C 
HETATM    8  C   UNL     1      -3.081   5.890 -33.145  1.00  0.00     0.221 C 
HETATM    9  C   UNL     1      -4.497   3.408 -31.002  1.00  0.00     0.089 A 
HETATM   10  H   UNL     1      -3.150   5.182 -29.355  1.00  0.00     0.161 HD
ENDROOT
BRANCH   1  11
HETATM   11  C   UNL     1      -5.706   1.810 -32.619  1.00  0.00     0.276 C 
HETATM   12  N   UNL     1      -4.985   0.918 -33.388  1.00  0.00    -0.322 N 
HETATM   13  H   UNL     1      -4.065   1.259 -33.656  1.00  0.00     0.169 HD
HETATM   14  O   UNL     1      -6.852   1.660 -32.206  1.00  0.00    -0.266 OA
BRANCH  12  15
HETATM   15  C   UNL     1      -5.359  -0.379 -33.783  1.00  0.00     0.035 A 
HETATM   16  C   UNL     1      -4.515  -1.490 -33.685  1.00  0.00     0.039 A 
HETATM   17  C   UNL     1      -4.927  -2.760 -34.126  1.00  0.00    -0.028 A 
HETATM   18  C   UNL     1      -6.209  -2.902 -34.669  1.00  0.00     0.010 A 
HETATM   19  C   UNL     1      -7.062  -1.803 -34.763  1.00  0.00     0.003 A 
HETATM   20  C   UNL     1      -6.636  -0.547 -34.325  1.00  0.00     0.029 A 
BRANCH  17  21
HETATM   21  C   UNL     1      -3.970  -3.930 -34.041  1.00  0.00     0.147 C 
HETATM   22  C   UNL     1      -4.677  -5.263 -34.239  1.00  0.00     0.044 C 
BRANCH  21  23
HETATM   23  O   UNL     1      -3.311  -3.939 -32.776  1.00  0.00    -0.391 OA
HETATM   24  H   UNL     1      -2.370  -4.109 -32.957  1.00  0.00     0.210 HD
ENDBRANCH  21  23
ENDBRANCH  17  21
ENDBRANCH  12  15
ENDBRANCH   1  11
BRANCH   8  25
HETATM   25  C   UNL     1      -1.738   5.395 -33.631  1.00  0.00     0.409 C 
HETATM   26  F   UNL     1      -1.824   4.783 -34.834  1.00  0.00    -0.169 F 
HETATM   27  F   UNL     1      -0.894   6.447 -33.802  1.00  0.00    -0.169 F 
HETATM   28  F   UNL     1      -1.132   4.544 -32.781  1.00  0.00    -0.169 F 
ENDBRANCH   8  25
BRANCH   6  29
HETATM   29  C   UNL     1      -1.643   7.264 -29.991  1.00  0.00    -0.035 A 
HETATM   30  C   UNL     1      -0.379   6.737 -30.307  1.00  0.00     0.012 A 
HETATM   31  C   UNL     1       0.766   7.165 -29.632  1.00  0.00     0.043 A 
HETATM   32  C   UNL     1       0.653   8.122 -28.633  1.00  0.00     0.116 A 
HETATM   33  F   UNL     1       1.747   8.520 -27.972  1.00  0.00    -0.206 F 
HETATM   34  C   UNL     1      -0.582   8.666 -28.304  1.00  0.00     0.043 A 
HETATM   35  C   UNL     1      -1.727   8.243 -28.983  1.00  0.00     0.012 A 
ENDBRANCH   6  29
TORSDOF 6
ENDMDL
MODEL 2
REMARK VINA RESULT:      -9.8      1.473      1.904
REMARK  6 active torsions:
REMARK  status: ('A' for Active; 'I' for Inactive)
REMARK    1  A    between atoms: C_2  and  O_3 
REMARK    2  A    between atoms: C_2  and  C_4 
REMARK    3  A    between atoms: C_6  and  N_7 
REMARK       I    between atoms: N_7  and  C_8 
REMARK    4  A    between atoms: C_8  and  C_9 
REMARK    5  A    between atoms: C_14  and  C_15 
REMARK    6  A    between atoms: C_23  and  C_24 
ROOT
HETATM    1  C   UNL     1      -4.546   4.403 -32.563  1.00  0.00     0.148 A 
HETATM    2  N   UNL     1      -3.893   5.419 -33.180  1.00  0.00    -0.165 NA
HETATM    3  N   UNL     1      -3.174   5.969 -32.181  1.00  0.00    -0.240 N 
HETATM    4  C   UNL     1      -3.402   5.415 -30.959  1.00  0.00     0.123 A 
HETATM    5  N   UNL     1      -2.764   5.869 -29.866  1.00  0.00    -0.366 N 
HETATM    6  C   UNL     1      -2.331   7.259 -29.779  1.00  0.00     0.118 C 
HETATM    7  C   UNL     1      -2.094   7.934 -31.149  1.00  0.00     0.066 C 
HETATM    8  C   UNL     1      -2.215   7.031 -32.394  1.00  0.00     0.221 C 
HETATM    9  C   UNL     1      -4.272   4.382 -31.166  1.00  0.00     0.089 A 
HETATM   10  H   UNL     1      -2.993   5.461 -28.958  1.00  0.00     0.161 HD
ENDROOT
BRANCH   1  11
HETATM   11  C   UNL     1      -5.399   3.442 -33.282  1.00  0.00     0.276 C 
HETATM   12  N   UNL     1      -5.337   2.171 -32.744  1.00  0.00    -0.322 N 
HETATM   13  H   UNL     1      -4.679   2.085 -31.973  1.00  0.00     0.169 HD
HETATM   14  O   UNL     1      -6.076   3.798 -34.242  1.00  0.00    -0.266 OA
BRANCH  12  15
HETATM   15  C   UNL     1      -6.094   1.043 -33.107  1.00  0.00     0.035 A 
HETATM   16  C   UNL     1      -5.552  -0.082 -33.738  1.00  0.00     0.039 A 
HETATM   17  C   UNL     1      -6.360  -1.171 -34.109  1.00  0.00    -0.028 A 
HETATM   18  C   UNL     1      -7.732  -1.117 -33.835  1.00  0.00     0.010 A 
HETATM   19  C   UNL     1      -8.282  -0.004 -33.198  1.00  0.00     0.003 A 
HETATM   20  C   UNL     1      -7.466   1.072 -32.840  1.00  0.00     0.029 A 
BRANCH  17  21
HETATM   21  C   UNL     1      -5.743  -2.352 -34.827  1.00  0.00     0.147 C 
HETATM   22  C   UNL     1      -6.649  -3.575 -34.800  1.00  0.00     0.044 C 
BRANCH  21  23
HETATM   23  O   UNL     1      -4.490  -2.691 -34.235  1.00  0.00    -0.391 OA
HETATM   24  H   UNL     1      -3.959  -3.111 -34.934  1.00  0.00     0.210 HD
ENDBRANCH  21  23
ENDBRANCH  17  21
ENDBRANCH  12  15
ENDBRANCH   1  11
BRANCH   8  25
HETATM   25  C   UNL     1      -0.886   6.450 -32.820  1.00  0.00     0.409 C 
HETATM   26  F   UNL     1      -0.698   6.531 -34.157  1.00  0.00    -0.169 F 
HETATM   27  F   UNL     1       0.128   7.154 -32.253  1.00  0.00    -0.169 F 
HETATM   28  F   UNL     1      -0.716   5.163 -32.461  1.00  0.00    -0.169 F 
ENDBRANCH   8  25
BRANCH   6  29
HETATM   29  C   UNL     1      -1.144   7.353 -28.836  1.00  0.00    -0.035 A 
HETATM   30  C   UNL     1       0.016   8.070 -29.178  1.00  0.00     0.012 A 
HETATM   31  C   UNL     1       1.116   8.105 -28.319  1.00  0.00     0.043 A 
HETATM   32  C   UNL     1       1.065   7.420 -27.113  1.00  0.00     0.116 A 
HETATM   33  F   UNL     1       2.126   7.438 -26.297  1.00  0.00    -0.206 F 
HETATM   34  C   UNL     1      -0.071   6.709 -26.745  1.00  0.00     0.043 A 
HETATM   35  C   UNL     1      -1.174   6.678 -27.601  1.00  0.00     0.012 A 
ENDBRANCH   6  29
TORSDOF 6
ENDMDL
MODEL 3
REMARK VINA RESULT:      -9.7      3.843      9.993
REMARK  6 active torsions:
REMARK  status: ('A' for Active; 'I' for Inactive)
REMARK    1  A    between atoms: C_2  and  O_3 
REMARK    2  A    between atoms: C_2  and  C_4 
REMARK    3  A    between atoms: C_6  and  N_7 
REMARK       I    between atoms: N_7  and  C_8 
REMARK    4  A    between atoms: C_8  and  C_9 
REMARK    5  A    between atoms: C_14  and  C_15 
REMARK    6  A    between atoms: C_23  and  C_24 
ROOT
HETATM    1  C   UNL     1      -4.121   3.783 -31.634  1.00  0.00     0.148 A 
HETATM    2  N   UNL     1      -5.232   3.308 -31.019  1.00  0.00    -0.165 NA
HETATM    3  N   UNL     1      -5.480   2.162 -31.684  1.00  0.00    -0.240 N 
HETATM    4  C   UNL     1      -4.645   1.934 -32.733  1.00  0.00     0.123 A 
HETATM    5  N   UNL     1      -4.780   0.835 -33.496  1.00  0.00    -0.366 N 
HETATM    6  C   UNL     1      -6.084   0.205 -33.670  1.00  0.00     0.118 C 
HETATM    7  C   UNL     1      -7.074   0.469 -32.513  1.00  0.00     0.066 C 
HETATM    8  C   UNL     1      -6.522   1.236 -31.294  1.00  0.00     0.221 C 
HETATM    9  C   UNL     1      -3.735   2.953 -32.723  1.00  0.00     0.089 A 
HETATM   10  H   UNL     1      -4.165   0.718 -34.302  1.00  0.00     0.161 HD
ENDROOT
BRANCH   1  11
HETATM   11  C   UNL     1      -3.409   4.992 -31.185  1.00  0.00     0.276 C 
HETATM   12  N   UNL     1      -2.090   4.743 -30.863  1.00  0.00    -0.322 N 
HETATM   13  H   UNL     1      -1.829   3.762 -30.934  1.00  0.00     0.169 HD
HETATM   14  O   UNL     1      -3.981   6.077 -31.137  1.00  0.00    -0.266 OA
BRANCH  12  15
HETATM   15  C   UNL     1      -1.098   5.674 -30.505  1.00  0.00     0.035 A 
HETATM   16  C   UNL     1      -0.924   6.157 -29.204  1.00  0.00     0.039 A 
HETATM   17  C   UNL     1       0.064   7.112 -28.906  1.00  0.00    -0.028 A 
HETATM   18  C   UNL     1       0.884   7.579 -29.941  1.00  0.00     0.010 A 
HETATM   19  C   UNL     1       0.725   7.098 -31.240  1.00  0.00     0.003 A 
HETATM   20  C   UNL     1      -0.264   6.152 -31.520  1.00  0.00     0.029 A 
BRANCH  17  21
HETATM   21  C   UNL     1       0.193   7.641 -27.494  1.00  0.00     0.147 C 
HETATM   22  C   UNL     1       1.488   8.416 -27.290  1.00  0.00     0.044 C 
BRANCH  21  23
HETATM   23  O   UNL     1       0.144   6.567 -26.557  1.00  0.00    -0.391 OA
HETATM   24  H   UNL     1      -0.316   5.834 -27.001  1.00  0.00     0.210 HD
ENDBRANCH  21  23
ENDBRANCH  17  21
ENDBRANCH  12  15
ENDBRANCH   1  11
BRANCH   8  25
HETATM   25  C   UNL     1      -6.014   0.313 -30.210  1.00  0.00     0.409 C 
HETATM   26  F   UNL     1      -6.010   0.907 -28.995  1.00  0.00    -0.169 F 
HETATM   27  F   UNL     1      -6.833  -0.765 -30.101  1.00  0.00    -0.169 F 
HETATM   28  F   UNL     1      -4.774  -0.161 -30.437  1.00  0.00    -0.169 F 
ENDBRANCH   8  25
BRANCH   6  29
HETATM   29  C   UNL     1      -5.887  -1.269 -33.983  1.00  0.00    -0.035 A 
HETATM   30  C   UNL     1      -4.626  -1.883 -33.882  1.00  0.00     0.012 A 
HETATM   31  C   UNL     1      -4.454  -3.227 -34.220  1.00  0.00     0.043 A 
HETATM   32  C   UNL     1      -5.542  -3.965 -34.663  1.00  0.00     0.116 A 
HETATM   33  F   UNL     1      -5.375  -5.249 -35.005  1.00  0.00    -0.206 F 
HETATM   34  C   UNL     1      -6.801  -3.387 -34.767  1.00  0.00     0.043 A 
HETATM   35  C   UNL     1      -6.975  -2.045 -34.423  1.00  0.00     0.012 A 
ENDBRANCH   6  29
TORSDOF 6
ENDMDL
MODEL 4
REMARK VINA RESULT:      -9.5      2.313      3.198
REMARK  6 active torsions:
REMARK  status: ('A' for Active; 'I' for Inactive)
REMARK    1  A    between atoms: C_2  and  O_3 
REMARK    2  A    between atoms: C_2  and  C_4 
REMARK    3  A    between atoms: C_6  and  N_7 
REMARK       I    between atoms: N_7  and  C_8 
REMARK    4  A    between atoms: C_8  and  C_9 
REMARK    5  A    between atoms: C_14  and  C_15 
REMARK    6  A    between atoms: C_23  and  C_24 
ROOT
HETATM    1  C   UNL     1      -4.531   4.809 -32.598  1.00  0.00     0.148 A 
HETATM    2  N   UNL     1      -3.855   5.796 -33.236  1.00  0.00    -0.165 NA
HETATM    3  N   UNL     1      -3.101   6.330 -32.255  1.00  0.00    -0.240 N 
HETATM    4  C   UNL     1      -3.329   5.797 -31.023  1.00  0.00     0.123 A 
HETATM    5  N   UNL     1      -2.658   6.240 -29.946  1.00  0.00    -0.366 N 
HETATM    6  C   UNL     1      -2.178   7.616 -29.880  1.00  0.00     0.118 C 
HETATM    7  C   UNL     1      -1.940   8.269 -31.261  1.00  0.00     0.066 C 
HETATM    8  C   UNL     1      -2.111   7.358 -32.494  1.00  0.00     0.221 C 
HETATM    9  C   UNL     1      -4.236   4.792 -31.206  1.00  0.00     0.089 A 
HETATM   10  H   UNL     1      -2.885   5.849 -29.030  1.00  0.00     0.161 HD
ENDROOT
BRANCH   1  11
HETATM   11  C   UNL     1      -5.427   3.869 -33.293  1.00  0.00     0.276 C 
HETATM   12  N   UNL     1      -5.348   2.586 -32.788  1.00  0.00    -0.322 N 
HETATM   13  H   UNL     1      -4.652   2.478 -32.054  1.00  0.00     0.169 HD
HETATM   14  O   UNL     1      -6.150   4.251 -34.209  1.00  0.00    -0.266 OA
BRANCH  12  15
HETATM   15  C   UNL     1      -6.131   1.471 -33.136  1.00  0.00     0.035 A 
HETATM   16  C   UNL     1      -7.452   1.291 -32.712  1.00  0.00     0.039 A 
HETATM   17  C   UNL     1      -8.180   0.141 -33.063  1.00  0.00    -0.028 A 
HETATM   18  C   UNL     1      -7.561  -0.835 -33.853  1.00  0.00     0.010 A 
HETATM   19  C   UNL     1      -6.248  -0.661 -34.289  1.00  0.00     0.003 A 
HETATM   20  C   UNL     1      -5.536   0.486 -33.928  1.00  0.00     0.029 A 
BRANCH  17  21
HETATM   21  C   UNL     1      -9.593  -0.037 -32.550  1.00  0.00     0.147 C 
HETATM   22  C   UNL     1     -10.611   0.701 -33.409  1.00  0.00     0.044 C 
BRANCH  21  23
HETATM   23  O   UNL     1      -9.695   0.433 -31.207  1.00  0.00    -0.391 OA
HETATM   24  H   UNL     1      -8.835   0.255 -30.787  1.00  0.00     0.210 HD
ENDBRANCH  21  23
ENDBRANCH  17  21
ENDBRANCH  12  15
ENDBRANCH   1  11
BRANCH   8  25
HETATM   25  C   UNL     1      -0.809   6.728 -32.935  1.00  0.00     0.409 C 
HETATM   26  F   UNL     1       0.231   7.110 -32.158  1.00  0.00    -0.169 F 
HETATM   27  F   UNL     1      -0.890   5.376 -32.820  1.00  0.00    -0.169 F 
HETATM   28  F   UNL     1      -0.483   6.992 -34.214  1.00  0.00    -0.169 F 
ENDBRANCH   8  25
BRANCH   6  29
HETATM   29  C   UNL     1      -0.972   7.679 -28.957  1.00  0.00    -0.035 A 
HETATM   30  C   UNL     1      -0.135   6.568 -28.759  1.00  0.00     0.012 A 
HETATM   31  C   UNL     1       0.940   6.630 -27.870  1.00  0.00     0.043 A 
HETATM   32  C   UNL     1       1.182   7.803 -27.171  1.00  0.00     0.116 A 
HETATM   33  F   UNL     1       2.201   7.858 -26.304  1.00  0.00    -0.206 F 
HETATM   34  C   UNL     1       0.376   8.920 -27.351  1.00  0.00     0.043 A 
HETATM   35  C   UNL     1      -0.696   8.861 -28.245  1.00  0.00     0.012 A 
ENDBRANCH   6  29
TORSDOF 6
ENDMDL
MODEL 5
REMARK VINA RESULT:      -9.5      3.096      4.298
REMARK  6 active torsions:
REMARK  status: ('A' for Active; 'I' for Inactive)
REMARK    1  A    between atoms: C_2  and  O_3 
REMARK    2  A    between atoms: C_2  and  C_4 
REMARK    3  A    between atoms: C_6  and  N_7 
REMARK       I    between atoms: N_7  and  C_8 
REMARK    4  A    between atoms: C_8  and  C_9 
REMARK    5  A    between atoms: C_14  and  C_15 
REMARK    6  A    between atoms: C_23  and  C_24 
ROOT
HETATM    1  C   UNL     1      -5.638   3.747 -33.316  1.00  0.00     0.148 A 
HETATM    2  N   UNL     1      -4.937   4.501 -34.200  1.00  0.00    -0.165 NA
HETATM    3  N   UNL     1      -4.128   5.226 -33.403  1.00  0.00    -0.240 N 
HETATM    4  C   UNL     1      -4.339   5.037 -32.072  1.00  0.00     0.123 A 
HETATM    5  N   UNL     1      -3.613   5.704 -31.157  1.00  0.00    -0.366 N 
HETATM    6  C   UNL     1      -3.067   7.022 -31.456  1.00  0.00     0.118 C 
HETATM    7  C   UNL     1      -2.844   7.288 -32.962  1.00  0.00     0.066 C 
HETATM    8  C   UNL     1      -3.098   6.104 -33.917  1.00  0.00     0.221 C 
HETATM    9  C   UNL     1      -5.298   4.070 -31.973  1.00  0.00     0.089 A 
HETATM   10  H   UNL     1      -3.828   5.572 -30.168  1.00  0.00     0.161 HD
ENDROOT
BRANCH   1  11
HETATM   11  C   UNL     1      -6.600   2.711 -33.730  1.00  0.00     0.276 C 
HETATM   12  N   UNL     1      -7.792   2.786 -33.038  1.00  0.00    -0.322 N 
HETATM   13  H   UNL     1      -7.804   3.507 -32.320  1.00  0.00     0.169 HD
HETATM   14  O   UNL     1      -6.314   1.903 -34.609  1.00  0.00    -0.266 OA
BRANCH  12  15
HETATM   15  C   UNL     1      -8.961   2.032 -33.247  1.00  0.00     0.035 A 
HETATM   16  C   UNL     1     -10.038   2.474 -34.021  1.00  0.00     0.039 A 
HETATM   17  C   UNL     1     -11.198   1.694 -34.172  1.00  0.00    -0.028 A 
HETATM   18  C   UNL     1     -11.262   0.451 -33.530  1.00  0.00     0.010 A 
HETATM   19  C   UNL     1     -10.190  -0.004 -32.764  1.00  0.00     0.003 A 
HETATM   20  C   UNL     1      -9.047   0.786 -32.621  1.00  0.00     0.029 A 
BRANCH  17  21
HETATM   21  C   UNL     1     -12.360   2.226 -34.983  1.00  0.00     0.147 C 
HETATM   22  C   UNL     1     -13.697   1.696 -34.484  1.00  0.00     0.044 C 
BRANCH  21  23
HETATM   23  O   UNL     1     -12.206   1.872 -36.357  1.00  0.00    -0.391 OA
HETATM   24  H   UNL     1     -13.038   2.119 -36.799  1.00  0.00     0.210 HD
ENDBRANCH  21  23
ENDBRANCH  17  21
ENDBRANCH  12  15
ENDBRANCH   1  11
BRANCH   8  25
HETATM   25  C   UNL     1      -1.843   5.313 -34.207  1.00  0.00     0.409 C 
HETATM   26  F   UNL     1      -1.919   4.649 -35.384  1.00  0.00    -0.169 F 
HETATM   27  F   UNL     1      -0.783   6.156 -34.317  1.00  0.00    -0.169 F 
HETATM   28  F   UNL     1      -1.532   4.417 -33.252  1.00  0.00    -0.169 F 
ENDBRANCH   8  25
BRANCH   6  29
HETATM   29  C   UNL     1      -1.830   7.254 -30.604  1.00  0.00    -0.035 A 
HETATM   30  C   UNL     1      -0.545   6.909 -31.058  1.00  0.00     0.012 A 
HETATM   31  C   UNL     1       0.574   7.084 -30.242  1.00  0.00     0.043 A 
HETATM   32  C   UNL     1       0.415   7.603 -28.965  1.00  0.00     0.116 A 
HETATM   33  F   UNL     1       1.486   7.754 -28.175  1.00  0.00    -0.206 F 
HETATM   34  C   UNL     1      -0.841   7.960 -28.492  1.00  0.00     0.043 A 
HETATM   35  C   UNL     1      -1.961   7.791 -29.310  1.00  0.00     0.012 A 
ENDBRANCH   6  29
TORSDOF 6
ENDMDL
MODEL 6
REMARK VINA RESULT:      -9.3      4.543      9.933
REMARK  6 active torsions:
REMARK  status: ('A' for Active; 'I' for Inactive)
REMARK    1  A    between atoms: C_2  and  O_3 
REMARK    2  A    between atoms: C_2  and  C_4 
REMARK    3  A    between atoms: C_6  and  N_7 
REMARK       I    between atoms: N_7  and  C_8 
REMARK    4  A    between atoms: C_8  and  C_9 
REMARK    5  A    between atoms: C_14  and  C_15 
REMARK    6  A    between atoms: C_23  and  C_24 
ROOT
HETATM    1  C   UNL     1      -4.935   2.320 -32.095  1.00  0.00     0.148 A 
HETATM    2  N   UNL     1      -5.099   1.071 -32.599  1.00  0.00    -0.165 NA
HETATM    3  N   UNL     1      -6.433   0.991 -32.780  1.00  0.00    -0.240 N 
HETATM    4  C   UNL     1      -7.122   2.079 -32.340  1.00  0.00     0.123 A 
HETATM    5  N   UNL     1      -8.461   2.134 -32.445  1.00  0.00    -0.366 N 
HETATM    6  C   UNL     1      -9.262   0.916 -32.421  1.00  0.00     0.118 C 
HETATM    7  C   UNL     1      -8.503  -0.349 -32.882  1.00  0.00     0.066 C 
HETATM    8  C   UNL     1      -7.073  -0.138 -33.420  1.00  0.00     0.221 C 
HETATM    9  C   UNL     1      -6.185   2.973 -31.906  1.00  0.00     0.089 A 
HETATM   10  H   UNL     1      -8.951   2.946 -32.064  1.00  0.00     0.161 HD
ENDROOT
BRANCH   1  11
HETATM   11  C   UNL     1      -3.613   2.907 -31.819  1.00  0.00     0.276 C 
HETATM   12  N   UNL     1      -3.539   4.240 -32.171  1.00  0.00    -0.322 N 
HETATM   13  H   UNL     1      -4.386   4.595 -32.610  1.00  0.00     0.169 HD
HETATM   14  O   UNL     1      -2.718   2.233 -31.318  1.00  0.00    -0.266 OA
BRANCH  12  15
HETATM   15  C   UNL     1      -2.476   5.134 -31.951  1.00  0.00     0.035 A 
HETATM   16  C   UNL     1      -2.001   5.473 -30.680  1.00  0.00     0.039 A 
HETATM   17  C   UNL     1      -0.955   6.398 -30.515  1.00  0.00    -0.028 A 
HETATM   18  C   UNL     1      -0.385   6.982 -31.653  1.00  0.00     0.010 A 
HETATM   19  C   UNL     1      -0.845   6.644 -32.925  1.00  0.00     0.003 A 
HETATM   20  C   UNL     1      -1.888   5.727 -33.072  1.00  0.00     0.029 A 
BRANCH  17  21
HETATM   21  C   UNL     1      -0.498   6.771 -29.121  1.00  0.00     0.147 C 
HETATM   22  C   UNL     1       0.720   7.685 -29.144  1.00  0.00     0.044 C 
BRANCH  21  23
HETATM   23  O   UNL     1      -0.182   5.598 -28.374  1.00  0.00    -0.391 OA
HETATM   24  H   UNL     1      -0.947   5.002 -28.458  1.00  0.00     0.210 HD
ENDBRANCH  21  23
ENDBRANCH  17  21
ENDBRANCH  12  15
ENDBRANCH   1  11
BRANCH   8  25
HETATM   25  C   UNL     1      -7.037   0.031 -34.922  1.00  0.00     0.409 C 
HETATM   26  F   UNL     1      -6.264  -0.903 -35.522  1.00  0.00    -0.169 F 
HETATM   27  F   UNL     1      -8.286  -0.127 -35.433  1.00  0.00    -0.169 F 
HETATM   28  F   UNL     1      -6.602   1.240 -35.322  1.00  0.00    -0.169 F 
ENDBRANCH   8  25
BRANCH   6  29
HETATM   29  C   UNL     1     -10.561   1.159 -33.172  1.00  0.00    -0.035 A 
HETATM   30  C   UNL     1     -10.859   2.406 -33.748  1.00  0.00     0.012 A 
HETATM   31  C   UNL     1     -12.078   2.626 -34.392  1.00  0.00     0.043 A 
HETATM   32  C   UNL     1     -13.008   1.599 -34.463  1.00  0.00     0.116 A 
HETATM   33  F   UNL     1     -14.185   1.814 -35.064  1.00  0.00    -0.206 F 
HETATM   34  C   UNL     1     -12.739   0.353 -33.909  1.00  0.00     0.043 A 
HETATM   35  C   UNL     1     -11.518   0.131 -33.270  1.00  0.00     0.012 A 
ENDBRANCH   6  29
TORSDOF 6
ENDMDL
MODEL 7
REMARK VINA RESULT:      -9.2      6.705      9.533
REMARK  6 active torsions:
REMARK  status: ('A' for Active; 'I' for Inactive)
REMARK    1  A    between atoms: C_2  and  O_3 
REMARK    2  A    between atoms: C_2  and  C_4 
REMARK    3  A    between atoms: C_6  and  N_7 
REMARK       I    between atoms: N_7  and  C_8 
REMARK    4  A    between atoms: C_8  and  C_9 
REMARK    5  A    between atoms: C_14  and  C_15 
REMARK    6  A    between atoms: C_23  and  C_24 
ROOT
HETATM    1  C   UNL     1      -8.280   1.766 -33.250  1.00  0.00     0.148 A 
HETATM    2  N   UNL     1      -8.431   2.995 -32.699  1.00  0.00    -0.165 NA
HETATM    3  N   UNL     1      -9.770   3.158 -32.685  1.00  0.00    -0.240 N 
HETATM    4  C   UNL     1     -10.461   2.144 -33.272  1.00  0.00     0.123 A 
HETATM    5  N   UNL     1     -11.803   2.175 -33.343  1.00  0.00    -0.366 N 
HETATM    6  C   UNL     1     -12.518   3.445 -33.396  1.00  0.00     0.118 C 
HETATM    7  C   UNL     1     -11.749   4.630 -32.768  1.00  0.00     0.066 C 
HETATM    8  C   UNL     1     -10.418   4.294 -32.066  1.00  0.00     0.221 C 
HETATM    9  C   UNL     1      -9.532   1.211 -33.636  1.00  0.00     0.089 A 
HETATM   10  H   UNL     1     -12.288   1.419 -33.830  1.00  0.00     0.161 HD
ENDROOT
BRANCH   1  11
HETATM   11  C   UNL     1      -6.971   1.104 -33.390  1.00  0.00     0.276 C 
HETATM   12  N   UNL     1      -7.033  -0.253 -33.138  1.00  0.00    -0.322 N 
HETATM   13  H   UNL     1      -7.953  -0.574 -32.848  1.00  0.00     0.169 HD
HETATM   14  O   UNL     1      -5.974   1.744 -33.709  1.00  0.00    -0.266 OA
BRANCH  12  15
HETATM   15  C   UNL     1      -6.007  -1.205 -33.282  1.00  0.00     0.035 A 
HETATM   16  C   UNL     1      -6.091  -2.308 -34.136  1.00  0.00     0.039 A 
HETATM   17  C   UNL     1      -5.049  -3.249 -34.218  1.00  0.00    -0.028 A 
HETATM   18  C   UNL     1      -3.910  -3.064 -33.424  1.00  0.00     0.010 A 
HETATM   19  C   UNL     1      -3.812  -1.962 -32.575  1.00  0.00     0.003 A 
HETATM   20  C   UNL     1      -4.859  -1.039 -32.503  1.00  0.00     0.029 A 
BRANCH  17  21
HETATM   21  C   UNL     1      -5.195  -4.453 -35.123  1.00  0.00     0.147 C 
HETATM   22  C   UNL     1      -6.639  -4.674 -35.552  1.00  0.00     0.044 C 
BRANCH  21  23
HETATM   23  O   UNL     1      -4.722  -5.627 -34.466  1.00  0.00    -0.391 OA
HETATM   24  H   UNL     1      -4.124  -6.072 -35.092  1.00  0.00     0.210 HD
ENDBRANCH  21  23
ENDBRANCH  17  21
ENDBRANCH  12  15
ENDBRANCH   1  11
BRANCH   8  25
HETATM   25  C   UNL     1     -10.589   4.048 -30.585  1.00  0.00     0.409 C 
HETATM   26  F   UNL     1      -9.970   2.915 -30.181  1.00  0.00    -0.169 F 
HETATM   27  F   UNL     1     -10.020   5.061 -29.880  1.00  0.00    -0.169 F 
HETATM   28  F   UNL     1     -11.875   3.973 -30.191  1.00  0.00    -0.169 F 
ENDBRANCH   8  25
BRANCH   6  29
HETATM   29  C   UNL     1     -13.916   3.254 -32.832  1.00  0.00    -0.035 A 
HETATM   30  C   UNL     1     -14.554   2.002 -32.849  1.00  0.00     0.012 A 
HETATM   31  C   UNL     1     -15.858   1.855 -32.371  1.00  0.00     0.043 A 
HETATM   32  C   UNL     1     -16.533   2.962 -31.875  1.00  0.00     0.116 A 
HETATM   33  F   UNL     1     -17.790   2.826 -31.433  1.00  0.00    -0.206 F 
HETATM   34  C   UNL     1     -15.925   4.210 -31.840  1.00  0.00     0.043 A 
HETATM   35  C   UNL     1     -14.619   4.357 -32.312  1.00  0.00     0.012 A 
ENDBRANCH   6  29
TORSDOF 6
ENDMDL
MODEL 8
REMARK VINA RESULT:      -9.1      1.909      2.584
REMARK  6 active torsions:
REMARK  status: ('A' for Active; 'I' for Inactive)
REMARK    1  A    between atoms: C_2  and  O_3 
REMARK    2  A    between atoms: C_2  and  C_4 
REMARK    3  A    between atoms: C_6  and  N_7 
REMARK       I    between atoms: N_7  and  C_8 
REMARK    4  A    between atoms: C_8  and  C_9 
REMARK    5  A    between atoms: C_14  and  C_15 
REMARK    6  A    between atoms: C_23  and  C_24 
ROOT
HETATM    1  C   UNL     1      -5.302   1.903 -31.893  1.00  0.00     0.148 A 
HETATM    2  N   UNL     1      -5.510   2.780 -32.906  1.00  0.00    -0.165 NA
HETATM    3  N   UNL     1      -5.178   3.964 -32.354  1.00  0.00    -0.240 N 
HETATM    4  C   UNL     1      -4.859   3.894 -31.033  1.00  0.00     0.123 A 
HETATM    5  N   UNL     1      -4.518   4.999 -30.347  1.00  0.00    -0.366 N 
HETATM    6  C   UNL     1      -5.044   6.305 -30.728  1.00  0.00     0.118 C 
HETATM    7  C   UNL     1      -5.450   6.413 -32.215  1.00  0.00     0.066 C 
HETATM    8  C   UNL     1      -5.130   5.198 -33.109  1.00  0.00     0.221 C 
HETATM    9  C   UNL     1      -4.908   2.570 -30.700  1.00  0.00     0.089 A 
HETATM   10  H   UNL     1      -4.328   4.918 -29.347  1.00  0.00     0.161 HD
ENDROOT
BRANCH   1  11
HETATM   11  C   UNL     1      -5.445   0.445 -32.050  1.00  0.00     0.276 C 
HETATM   12  N   UNL     1      -4.316  -0.145 -32.583  1.00  0.00    -0.322 N 
HETATM   13  H   UNL     1      -3.586   0.518 -32.830  1.00  0.00     0.169 HD
HETATM   14  O   UNL     1      -6.479  -0.125 -31.713  1.00  0.00    -0.266 OA
BRANCH  12  15
HETATM   15  C   UNL     1      -4.064  -1.517 -32.767  1.00  0.00     0.035 A 
HETATM   16  C   UNL     1      -4.660  -2.283 -33.774  1.00  0.00     0.039 A 
HETATM   17  C   UNL     1      -4.398  -3.659 -33.894  1.00  0.00    -0.028 A 
HETATM   18  C   UNL     1      -3.521  -4.261 -32.984  1.00  0.00     0.010 A 
HETATM   19  C   UNL     1      -2.915  -3.505 -31.982  1.00  0.00     0.003 A 
HETATM   20  C   UNL     1      -3.189  -2.139 -31.873  1.00  0.00     0.029 A 
BRANCH  17  21
HETATM   21  C   UNL     1      -5.094  -4.463 -34.972  1.00  0.00     0.147 C 
HETATM   22  C   UNL     1      -6.596  -4.216 -34.989  1.00  0.00     0.044 C 
BRANCH  21  23
HETATM   23  O   UNL     1      -4.857  -5.857 -34.780  1.00  0.00    -0.391 OA
HETATM   24  H   UNL     1      -4.470  -5.951 -33.892  1.00  0.00     0.210 HD
ENDBRANCH  21  23
ENDBRANCH  17  21
ENDBRANCH  12  15
ENDBRANCH   1  11
BRANCH   8  25
HETATM   25  C   UNL     1      -3.794   5.326 -33.805  1.00  0.00     0.409 C 
HETATM   26  F   UNL     1      -3.321   6.593 -33.772  1.00  0.00    -0.169 F 
HETATM   27  F   UNL     1      -2.869   4.560 -33.170  1.00  0.00    -0.169 F 
HETATM   28  F   UNL     1      -3.812   4.930 -35.092  1.00  0.00    -0.169 F 
ENDBRANCH   8  25
BRANCH   6  29
HETATM   29  C   UNL     1      -4.072   7.384 -30.278  1.00  0.00    -0.035 A 
HETATM   30  C   UNL     1      -2.850   7.598 -30.938  1.00  0.00     0.012 A 
HETATM   31  C   UNL     1      -1.948   8.561 -30.481  1.00  0.00     0.043 A 
HETATM   32  C   UNL     1      -2.263   9.315 -29.359  1.00  0.00     0.116 A 
HETATM   33  F   UNL     1      -1.391  10.226 -28.909  1.00  0.00    -0.206 F 
HETATM   34  C   UNL     1      -3.467   9.130 -28.691  1.00  0.00     0.043 A 
HETATM   35  C   UNL     1      -4.372   8.171 -29.151  1.00  0.00     0.012 A 
ENDBRANCH   6  29
TORSDOF 6
ENDMDL
MODEL 9
REMARK VINA RESULT:      -9.0      4.035      9.866
REMARK  6 active torsions:
REMARK  status: ('A' for Active; 'I' for Inactive)
REMARK    1  A    between atoms: C_2  and  O_3 
REMARK    2  A    between atoms: C_2  and  C_4 
REMARK    3  A    between atoms: C_6  and  N_7 
REMARK       I    between atoms: N_7  and  C_8 
REMARK    4  A    between atoms: C_8  and  C_9 
REMARK    5  A    between atoms: C_14  and  C_15 
REMARK    6  A    between atoms: C_23  and  C_24 
ROOT
HETATM    1  C   UNL     1      -4.447   3.691 -31.147  1.00  0.00     0.148 A 
HETATM    2  N   UNL     1      -5.657   3.272 -31.593  1.00  0.00    -0.165 NA
HETATM    3  N   UNL     1      -5.390   2.048 -32.089  1.00  0.00    -0.240 N 
HETATM    4  C   UNL     1      -4.072   1.710 -32.060  1.00  0.00     0.123 A 
HETATM    5  N   UNL     1      -3.654   0.522 -32.532  1.00  0.00    -0.366 N 
HETATM    6  C   UNL     1      -4.383  -0.153 -33.600  1.00  0.00     0.118 C 
HETATM    7  C   UNL     1      -5.877   0.231 -33.687  1.00  0.00     0.066 C 
HETATM    8  C   UNL     1      -6.418   1.155 -32.577  1.00  0.00     0.221 C 
HETATM    9  C   UNL     1      -3.428   2.742 -31.438  1.00  0.00     0.089 A 
HETATM   10  H   UNL     1      -2.654   0.319 -32.537  1.00  0.00     0.161 HD
ENDROOT
BRANCH   1  11
HETATM   11  C   UNL     1      -4.252   4.962 -30.427  1.00  0.00     0.276 C 
HETATM   12  N   UNL     1      -2.975   5.467 -30.578  1.00  0.00    -0.322 N 
HETATM   13  H   UNL     1      -2.357   4.864 -31.115  1.00  0.00     0.169 HD
HETATM   14  O   UNL     1      -5.169   5.470 -29.789  1.00  0.00    -0.266 OA
BRANCH  12  15
HETATM   15  C   UNL     1      -2.476   6.701 -30.123  1.00  0.00     0.035 A 
HETATM   16  C   UNL     1      -1.544   6.823 -29.089  1.00  0.00     0.039 A 
HETATM   17  C   UNL     1      -1.101   8.084 -28.651  1.00  0.00    -0.028 A 
HETATM   18  C   UNL     1      -1.610   9.231 -29.272  1.00  0.00     0.010 A 
HETATM   19  C   UNL     1      -2.534   9.120 -30.311  1.00  0.00     0.003 A 
HETATM   20  C   UNL     1      -2.967   7.859 -30.731  1.00  0.00     0.029 A 
BRANCH  17  21
HETATM   21  C   UNL     1      -0.122   8.177 -27.500  1.00  0.00     0.147 C 
HETATM   22  C   UNL     1       1.303   8.416 -27.979  1.00  0.00     0.044 C 
BRANCH  21  23
HETATM   23  O   UNL     1      -0.155   6.980 -26.725  1.00  0.00    -0.391 OA
HETATM   24  H   UNL     1       0.088   7.233 -25.817  1.00  0.00     0.210 HD
ENDBRANCH  21  23
ENDBRANCH  17  21
ENDBRANCH  12  15
ENDBRANCH   1  11
BRANCH   8  25
HETATM   25  C   UNL     1      -7.022   0.384 -31.425  1.00  0.00     0.409 C 
HETATM   26  F   UNL     1      -8.330   0.103 -31.629  1.00  0.00    -0.169 F 
HETATM   27  F   UNL     1      -6.395  -0.813 -31.292  1.00  0.00    -0.169 F 
HETATM   28  F   UNL     1      -6.920   1.012 -30.238  1.00  0.00    -0.169 F 
ENDBRANCH   8  25
BRANCH   6  29
HETATM   29  C   UNL     1      -4.140  -1.650 -33.500  1.00  0.00    -0.035 A 
HETATM   30  C   UNL     1      -4.654  -2.547 -34.453  1.00  0.00     0.012 A 
HETATM   31  C   UNL     1      -4.461  -3.923 -34.318  1.00  0.00     0.043 A 
HETATM   32  C   UNL     1      -3.755  -4.412 -33.228  1.00  0.00     0.116 A 
HETATM   33  F   UNL     1      -3.587  -5.733 -33.088  1.00  0.00    -0.206 F 
HETATM   34  C   UNL     1      -3.230  -3.549 -32.274  1.00  0.00     0.043 A 
HETATM   35  C   UNL     1      -3.417  -2.171 -32.411  1.00  0.00     0.012 A 
ENDBRANCH   6  29
TORSDOF 6
ENDMDL
MODEL 10
REMARK VINA RESULT:      -8.9      3.536     10.153
REMARK  6 active torsions:
REMARK  status: ('A' for Active; 'I' for Inactive)
REMARK    1  A    between atoms: C_2  and  O_3 
REMARK    2  A    between atoms: C_2  and  C_4 
REMARK    3  A    between atoms: C_6  and  N_7 
REMARK       I    between atoms: N_7  and  C_8 
REMARK    4  A    between atoms: C_8  and  C_9 
REMARK    5  A    between atoms: C_14  and  C_15 
REMARK    6  A    between atoms: C_23  and  C_24 
ROOT
HETATM    1  C   UNL     1      -5.110   3.838 -32.567  1.00  0.00     0.148 A 
HETATM    2  N   UNL     1      -4.800   3.039 -31.516  1.00  0.00    -0.165 NA
HETATM    3  N   UNL     1      -5.111   1.808 -31.969  1.00  0.00    -0.240 N 
HETATM    4  C   UNL     1      -5.677   1.796 -33.207  1.00  0.00     0.123 A 
HETATM    5  N   UNL     1      -6.051   0.640 -33.783  1.00  0.00    -0.366 N 
HETATM    6  C   UNL     1      -6.456  -0.501 -32.970  1.00  0.00     0.118 C 
HETATM    7  C   UNL     1      -5.860  -0.505 -31.544  1.00  0.00     0.066 C 
HETATM    8  C   UNL     1      -4.835   0.601 -31.221  1.00  0.00     0.221 C 
HETATM    9  C   UNL     1      -5.677   3.092 -33.638  1.00  0.00     0.089 A 
HETATM   10  H   UNL     1      -6.513   0.671 -34.693  1.00  0.00     0.161 HD
ENDROOT
BRANCH   1  11
HETATM   11  C   UNL     1      -4.850   5.288 -32.578  1.00  0.00     0.276 C 
HETATM   12  N   UNL     1      -4.162   5.713 -31.459  1.00  0.00    -0.322 N 
HETATM   13  H   UNL     1      -3.987   4.975 -30.781  1.00  0.00     0.169 HD
HETATM   14  O   UNL     1      -5.222   5.986 -33.517  1.00  0.00    -0.266 OA
BRANCH  12  15
HETATM   15  C   UNL     1      -3.657   6.999 -31.192  1.00  0.00     0.035 A 
HETATM   16  C   UNL     1      -4.260   7.897 -30.306  1.00  0.00     0.039 A 
HETATM   17  C   UNL     1      -3.732   9.184 -30.100  1.00  0.00    -0.028 A 
HETATM   18  C   UNL     1      -2.579   9.560 -30.800  1.00  0.00     0.010 A 
HETATM   19  C   UNL     1      -1.965   8.669 -31.678  1.00  0.00     0.003 A 
HETATM   20  C   UNL     1      -2.505   7.395 -31.876  1.00  0.00     0.029 A 
BRANCH  17  21
HETATM   21  C   UNL     1      -4.438  10.143 -29.165  1.00  0.00     0.147 C 
HETATM   22  C   UNL     1      -3.456  10.984 -28.362  1.00  0.00     0.044 C 
BRANCH  21  23
HETATM   23  O   UNL     1      -5.278   9.425 -28.262  1.00  0.00    -0.391 OA
HETATM   24  H   UNL     1      -6.113   9.260 -28.735  1.00  0.00     0.210 HD
ENDBRANCH  21  23
ENDBRANCH  17  21
ENDBRANCH  12  15
ENDBRANCH   1  11
BRANCH   8  25
HETATM   25  C   UNL     1      -3.409   0.159 -31.463  1.00  0.00     0.409 C 
HETATM   26  F   UNL     1      -2.531   0.807 -30.663  1.00  0.00    -0.169 F 
HETATM   27  F   UNL     1      -3.281  -1.162 -31.173  1.00  0.00    -0.169 F 
HETATM   28  F   UNL     1      -2.999   0.321 -32.735  1.00  0.00    -0.169 F 
ENDBRANCH   8  25
BRANCH   6  29
HETATM   29  C   UNL     1      -6.198  -1.782 -33.745  1.00  0.00    -0.035 A 
HETATM   30  C   UNL     1      -7.251  -2.587 -34.213  1.00  0.00     0.012 A 
HETATM   31  C   UNL     1      -6.995  -3.785 -34.882  1.00  0.00     0.043 A 
HETATM   32  C   UNL     1      -5.682  -4.188 -35.085  1.00  0.00     0.116 A 
HETATM   33  F   UNL     1      -5.436  -5.346 -35.710  1.00  0.00    -0.206 F 
HETATM   34  C   UNL     1      -4.621  -3.410 -34.640  1.00  0.00     0.043 A 
HETATM   35  C   UNL     1      -4.877  -2.208 -33.976  1.00  0.00     0.012 A 
ENDBRANCH   6  29
TORSDOF 6
ENDMDL
