MODEL 1
REMARK VINA RESULT:      -8.0      0.000      0.000
REMARK  2 active torsions:
REMARK  status: ('A' for Active; 'I' for Inactive)
REMARK    1  A    between atoms: C_2  and  C_3 
REMARK    2  A    between atoms: C_6  and  C_7 
ROOT
HETATM    1  C   UNL     1      -6.860   1.790 -33.736  1.00  0.00     0.119 C 
HETATM    2  S   UNL     1      -5.507   2.916 -33.297  1.00  0.00    -0.141 SA
HETATM    3  C   UNL     1      -6.114   3.692 -31.773  1.00  0.00     0.136 C 
HETATM    4  C   UNL     1      -5.235   4.901 -31.461  1.00  0.00     0.031 C 
HETATM    5  C   UNL     1      -6.066   2.697 -30.627  1.00  0.00     0.236 C 
HETATM    6  O   UNL     1      -5.248   2.688 -29.721  1.00  0.00    -0.272 OA
HETATM    7  N   UNL     1      -7.107   1.728 -30.494  1.00  0.00    -0.311 N 
HETATM    8  C   UNL     1      -8.096   1.522 -31.428  1.00  0.00     0.134 C 
HETATM    9  C   UNL     1      -8.024   1.619 -32.805  1.00  0.00     0.032 C 
HETATM   10  N   UNL     1      -9.366   1.111 -31.130  1.00  0.00    -0.262 N 
HETATM   11  H   UNL     1      -9.762   0.888 -30.224  1.00  0.00     0.191 HD
HETATM   12  N   UNL     1     -10.184   1.110 -32.185  1.00  0.00    -0.178 NA
HETATM   13  C   UNL     1      -9.382   1.383 -33.219  1.00  0.00     0.062 C 
HETATM   14  C   UNL     1      -9.947   1.366 -34.596  1.00  0.00     0.073 C 
HETATM   15  H   UNL     1      -7.137   1.260 -29.595  1.00  0.00     0.170 HD
ENDROOT
BRANCH   1  16
HETATM   16  C   UNL     1      -6.366   0.372 -33.996  1.00  0.00    -0.040 A 
HETATM   17  C   UNL     1      -5.310  -0.207 -33.268  1.00  0.00     0.009 A 
HETATM   18  C   UNL     1      -4.937  -1.538 -33.478  1.00  0.00     0.007 A 
HETATM   19  C   UNL     1      -5.603  -2.323 -34.422  1.00  0.00    -0.059 A 
HETATM   20  C   UNL     1      -6.635  -1.750 -35.173  1.00  0.00     0.007 A 
HETATM   21  C   UNL     1      -7.007  -0.418 -34.967  1.00  0.00     0.009 A 
BRANCH  19  22
HETATM   22  C   UNL     1      -5.247  -3.777 -34.596  1.00  0.00     0.034 C 
HETATM   23  C   UNL     1      -6.367  -4.544 -35.283  1.00  0.00     0.010 C 
ENDBRANCH  19  22
ENDBRANCH   1  16
TORSDOF 2
ENDMDL
MODEL 2
REMARK VINA RESULT:      -7.9      2.650      3.758
REMARK  2 active torsions:
REMARK  status: ('A' for Active; 'I' for Inactive)
REMARK    1  A    between atoms: C_2  and  C_3 
REMARK    2  A    between atoms: C_6  and  C_7 
ROOT
HETATM    1  C   UNL     1      -6.362   1.387 -31.881  1.00  0.00     0.119 C 
HETATM    2  S   UNL     1      -8.056   1.387 -31.233  1.00  0.00    -0.141 SA
HETATM    3  C   UNL     1      -8.621   3.073 -31.597  1.00  0.00     0.136 C 
HETATM    4  C   UNL     1      -9.910   3.331 -30.819  1.00  0.00     0.031 C 
HETATM    5  C   UNL     1      -8.866   3.229 -33.087  1.00  0.00     0.236 C 
HETATM    6  O   UNL     1      -9.957   3.266 -33.633  1.00  0.00    -0.272 OA
HETATM    7  N   UNL     1      -7.759   3.461 -33.960  1.00  0.00    -0.311 N 
HETATM    8  C   UNL     1      -6.441   3.404 -33.570  1.00  0.00     0.134 C 
HETATM    9  C   UNL     1      -5.847   2.579 -32.633  1.00  0.00     0.032 C 
HETATM   10  N   UNL     1      -5.440   4.158 -34.118  1.00  0.00    -0.262 N 
HETATM   11  H   UNL     1      -5.499   4.835 -34.870  1.00  0.00     0.191 HD
HETATM   12  N   UNL     1      -4.272   4.027 -33.487  1.00  0.00    -0.178 NA
HETATM   13  C   UNL     1      -4.487   3.048 -32.603  1.00  0.00     0.062 C 
HETATM   14  C   UNL     1      -3.351   2.557 -31.775  1.00  0.00     0.073 C 
HETATM   15  H   UNL     1      -8.012   3.784 -34.887  1.00  0.00     0.170 HD
ENDROOT
BRANCH   1  16
HETATM   16  C   UNL     1      -6.103   0.207 -32.811  1.00  0.00    -0.040 A 
HETATM   17  C   UNL     1      -4.929  -0.566 -32.745  1.00  0.00     0.009 A 
HETATM   18  C   UNL     1      -4.761  -1.690 -33.558  1.00  0.00     0.007 A 
HETATM   19  C   UNL     1      -5.757  -2.068 -34.463  1.00  0.00    -0.059 A 
HETATM   20  C   UNL     1      -6.915  -1.291 -34.559  1.00  0.00     0.007 A 
HETATM   21  C   UNL     1      -7.083  -0.164 -33.749  1.00  0.00     0.009 A 
BRANCH  19  22
HETATM   22  C   UNL     1      -5.604  -3.321 -35.288  1.00  0.00     0.034 C 
HETATM   23  C   UNL     1      -6.671  -4.348 -34.938  1.00  0.00     0.010 C 
ENDBRANCH  19  22
ENDBRANCH   1  16
TORSDOF 2
ENDMDL
MODEL 3
REMARK VINA RESULT:      -7.8      1.384      2.001
REMARK  2 active torsions:
REMARK  status: ('A' for Active; 'I' for Inactive)
REMARK    1  A    between atoms: C_2  and  C_3 
REMARK    2  A    between atoms: C_6  and  C_7 
ROOT
HETATM    1  C   UNL     1      -6.067   1.647 -33.180  1.00  0.00     0.119 C 
HETATM    2  S   UNL     1      -5.035   3.088 -32.794  1.00  0.00    -0.141 SA
HETATM    3  C   UNL     1      -6.129   4.094 -31.753  1.00  0.00     0.136 C 
HETATM    4  C   UNL     1      -5.524   5.490 -31.620  1.00  0.00     0.031 C 
HETATM    5  C   UNL     1      -6.280   3.454 -30.385  1.00  0.00     0.236 C 
HETATM    6  O   UNL     1      -5.751   3.835 -29.354  1.00  0.00    -0.272 OA
HETATM    7  N   UNL     1      -7.192   2.368 -30.215  1.00  0.00    -0.311 N 
HETATM    8  C   UNL     1      -7.851   1.742 -31.248  1.00  0.00     0.134 C 
HETATM    9  C   UNL     1      -7.413   1.496 -32.536  1.00  0.00     0.032 C 
HETATM   10  N   UNL     1      -9.095   1.181 -31.143  1.00  0.00    -0.262 N 
HETATM   11  H   UNL     1      -9.696   1.125 -30.329  1.00  0.00     0.191 HD
HETATM   12  N   UNL     1      -9.582   0.752 -32.309  1.00  0.00    -0.178 NA
HETATM   13  C   UNL     1      -8.565   0.903 -33.163  1.00  0.00     0.062 C 
HETATM   14  C   UNL     1      -8.720   0.426 -34.564  1.00  0.00     0.073 C 
HETATM   15  H   UNL     1      -7.413   2.147 -29.250  1.00  0.00     0.170 HD
ENDROOT
BRANCH   1  16
HETATM   16  C   UNL     1      -5.352   0.333 -32.885  1.00  0.00    -0.040 A 
HETATM   17  C   UNL     1      -5.429  -0.780 -33.742  1.00  0.00     0.009 A 
HETATM   18  C   UNL     1      -4.695  -1.940 -33.481  1.00  0.00     0.007 A 
HETATM   19  C   UNL     1      -3.871  -2.023 -32.356  1.00  0.00    -0.059 A 
HETATM   20  C   UNL     1      -3.810  -0.935 -31.480  1.00  0.00     0.007 A 
HETATM   21  C   UNL     1      -4.546   0.226 -31.738  1.00  0.00     0.009 A 
BRANCH  19  22
HETATM   22  C   UNL     1      -3.027  -3.248 -32.115  1.00  0.00     0.034 C 
HETATM   23  C   UNL     1      -3.410  -4.379 -33.058  1.00  0.00     0.010 C 
ENDBRANCH  19  22
ENDBRANCH   1  16
TORSDOF 2
ENDMDL
MODEL 4
REMARK VINA RESULT:      -7.8      1.901      2.628
REMARK  2 active torsions:
REMARK  status: ('A' for Active; 'I' for Inactive)
REMARK    1  A    between atoms: C_2  and  C_3 
REMARK    2  A    between atoms: C_6  and  C_7 
ROOT
HETATM    1  C   UNL     1      -6.372   3.168 -33.223  1.00  0.00     0.119 C 
HETATM    2  S   UNL     1      -5.036   4.101 -34.021  1.00  0.00    -0.141 SA
HETATM    3  C   UNL     1      -4.229   4.918 -32.616  1.00  0.00     0.136 C 
HETATM    4  C   UNL     1      -3.292   5.998 -33.156  1.00  0.00     0.031 C 
HETATM    5  C   UNL     1      -3.446   3.903 -31.803  1.00  0.00     0.236 C 
HETATM    6  O   UNL     1      -2.233   3.770 -31.798  1.00  0.00    -0.272 OA
HETATM    7  N   UNL     1      -4.134   3.074 -30.865  1.00  0.00    -0.311 N 
HETATM    8  C   UNL     1      -5.504   3.015 -30.743  1.00  0.00     0.134 C 
HETATM    9  C   UNL     1      -6.469   3.129 -31.727  1.00  0.00     0.032 C 
HETATM   10  N   UNL     1      -6.165   2.764 -29.573  1.00  0.00    -0.262 N 
HETATM   11  H   UNL     1      -5.777   2.577 -28.655  1.00  0.00     0.191 HD
HETATM   12  N   UNL     1      -7.490   2.890 -29.675  1.00  0.00    -0.178 NA
HETATM   13  C   UNL     1      -7.699   3.078 -30.982  1.00  0.00     0.062 C 
HETATM   14  C   UNL     1      -9.097   3.161 -31.486  1.00  0.00     0.073 C 
HETATM   15  H   UNL     1      -3.535   2.595 -30.202  1.00  0.00     0.170 HD
ENDROOT
BRANCH   1  16
HETATM   16  C   UNL     1      -6.380   1.703 -33.645  1.00  0.00    -0.040 A 
HETATM   17  C   UNL     1      -5.461   0.764 -33.141  1.00  0.00     0.009 A 
HETATM   18  C   UNL     1      -5.550  -0.587 -33.488  1.00  0.00     0.007 A 
HETATM   19  C   UNL     1      -6.553  -1.035 -34.351  1.00  0.00    -0.059 A 
HETATM   20  C   UNL     1      -7.454  -0.107 -34.882  1.00  0.00     0.007 A 
HETATM   21  C   UNL     1      -7.365   1.245 -34.539  1.00  0.00     0.009 A 
BRANCH  19  22
HETATM   22  C   UNL     1      -6.689  -2.503 -34.667  1.00  0.00     0.034 C 
HETATM   23  C   UNL     1      -5.357  -3.106 -35.087  1.00  0.00     0.010 C 
ENDBRANCH  19  22
ENDBRANCH   1  16
TORSDOF 2
ENDMDL
MODEL 5
REMARK VINA RESULT:      -7.4      3.503      5.059
REMARK  2 active torsions:
REMARK  status: ('A' for Active; 'I' for Inactive)
REMARK    1  A    between atoms: C_2  and  C_3 
REMARK    2  A    between atoms: C_6  and  C_7 
ROOT
HETATM    1  C   UNL     1     -10.225   1.501 -32.807  1.00  0.00     0.119 C 
HETATM    2  S   UNL     1     -11.737   0.659 -33.351  1.00  0.00    -0.141 SA
HETATM    3  C   UNL     1     -12.668   1.994 -34.153  1.00  0.00     0.136 C 
HETATM    4  C   UNL     1     -14.104   1.521 -34.371  1.00  0.00     0.031 C 
HETATM    5  C   UNL     1     -12.025   2.352 -35.481  1.00  0.00     0.236 C 
HETATM    6  O   UNL     1     -12.448   2.051 -36.586  1.00  0.00    -0.272 OA
HETATM    7  N   UNL     1     -10.878   3.204 -35.499  1.00  0.00    -0.311 N 
HETATM    8  C   UNL     1     -10.203   3.616 -34.373  1.00  0.00     0.134 C 
HETATM    9  C   UNL     1      -9.982   2.930 -33.193  1.00  0.00     0.032 C 
HETATM   10  N   UNL     1      -9.556   4.815 -34.256  1.00  0.00    -0.262 N 
HETATM   11  H   UNL     1      -9.462   5.552 -34.945  1.00  0.00     0.191 HD
HETATM   12  N   UNL     1      -9.089   5.047 -33.027  1.00  0.00    -0.178 NA
HETATM   13  C   UNL     1      -9.306   3.901 -32.374  1.00  0.00     0.062 C 
HETATM   14  C   UNL     1      -8.813   3.760 -30.977  1.00  0.00     0.073 C 
HETATM   15  H   UNL     1     -10.648   3.585 -36.410  1.00  0.00     0.170 HD
ENDROOT
BRANCH   1  16
HETATM   16  C   UNL     1      -8.966   0.765 -33.253  1.00  0.00    -0.040 A 
HETATM   17  C   UNL     1      -7.988   0.319 -32.345  1.00  0.00     0.009 A 
HETATM   18  C   UNL     1      -6.887  -0.423 -32.781  1.00  0.00     0.007 A 
HETATM   19  C   UNL     1      -6.729  -0.734 -34.134  1.00  0.00    -0.059 A 
HETATM   20  C   UNL     1      -7.679  -0.271 -35.050  1.00  0.00     0.007 A 
HETATM   21  C   UNL     1      -8.779   0.474 -34.615  1.00  0.00     0.009 A 
BRANCH  19  22
HETATM   22  C   UNL     1      -5.579  -1.594 -34.592  1.00  0.00     0.034 C 
HETATM   23  C   UNL     1      -6.033  -3.018 -34.881  1.00  0.00     0.010 C 
ENDBRANCH  19  22
ENDBRANCH   1  16
TORSDOF 2
ENDMDL
MODEL 6
REMARK VINA RESULT:      -6.9     14.451     15.906
REMARK  2 active torsions:
REMARK  status: ('A' for Active; 'I' for Inactive)
REMARK    1  A    between atoms: C_2  and  C_3 
REMARK    2  A    between atoms: C_6  and  C_7 
ROOT
HETATM    1  C   UNL     1      -6.114 -15.103 -36.918  1.00  0.00     0.119 C 
HETATM    2  S   UNL     1      -6.588 -15.491 -35.211  1.00  0.00    -0.141 SA
HETATM    3  C   UNL     1      -5.178 -14.866 -34.255  1.00  0.00     0.136 C 
HETATM    4  C   UNL     1      -5.277 -15.413 -32.832  1.00  0.00     0.031 C 
HETATM    5  C   UNL     1      -5.193 -13.348 -34.237  1.00  0.00     0.236 C 
HETATM    6  O   UNL     1      -5.520 -12.646 -33.294  1.00  0.00    -0.272 OA
HETATM    7  N   UNL     1      -4.689 -12.628 -35.363  1.00  0.00    -0.311 N 
HETATM    8  C   UNL     1      -4.321 -13.212 -36.553  1.00  0.00     0.134 C 
HETATM    9  C   UNL     1      -4.869 -14.311 -37.189  1.00  0.00     0.032 C 
HETATM   10  N   UNL     1      -3.333 -12.739 -37.372  1.00  0.00    -0.262 N 
HETATM   11  H   UNL     1      -2.751 -11.917 -37.252  1.00  0.00     0.191 HD
HETATM   12  N   UNL     1      -3.066 -13.546 -38.401  1.00  0.00    -0.178 NA
HETATM   13  C   UNL     1      -4.010 -14.490 -38.329  1.00  0.00     0.062 C 
HETATM   14  C   UNL     1      -4.082 -15.524 -39.396  1.00  0.00     0.073 C 
HETATM   15  H   UNL     1      -4.514 -11.644 -35.193  1.00  0.00     0.170 HD
ENDROOT
BRANCH   1  16
HETATM   16  C   UNL     1      -7.214 -14.356 -37.664  1.00  0.00    -0.040 A 
HETATM   17  C   UNL     1      -7.156 -12.971 -37.910  1.00  0.00     0.009 A 
HETATM   18  C   UNL     1      -8.142 -12.334 -38.667  1.00  0.00     0.007 A 
HETATM   19  C   UNL     1      -9.214 -13.058 -39.194  1.00  0.00    -0.059 A 
HETATM   20  C   UNL     1      -9.298 -14.429 -38.932  1.00  0.00     0.007 A 
HETATM   21  C   UNL     1      -8.314 -15.068 -38.172  1.00  0.00     0.009 A 
BRANCH  19  22
HETATM   22  C   UNL     1     -10.237 -12.382 -40.070  1.00  0.00     0.034 C 
HETATM   23  C   UNL     1     -11.284 -13.370 -40.564  1.00  0.00     0.010 C 
ENDBRANCH  19  22
ENDBRANCH   1  16
TORSDOF 2
ENDMDL
MODEL 7
REMARK VINA RESULT:      -6.9      3.064      4.215
REMARK  2 active torsions:
REMARK  status: ('A' for Active; 'I' for Inactive)
REMARK    1  A    between atoms: C_2  and  C_3 
REMARK    2  A    between atoms: C_6  and  C_7 
ROOT
HETATM    1  C   UNL     1      -8.931   2.334 -32.291  1.00  0.00     0.119 C 
HETATM    2  S   UNL     1     -10.528   2.640 -33.096  1.00  0.00    -0.141 SA
HETATM    3  C   UNL     1     -10.520   4.441 -33.322  1.00  0.00     0.136 C 
HETATM    4  C   UNL     1     -11.934   4.890 -33.687  1.00  0.00     0.031 C 
HETATM    5  C   UNL     1      -9.548   4.822 -34.424  1.00  0.00     0.236 C 
HETATM    6  O   UNL     1      -9.847   5.169 -35.555  1.00  0.00    -0.272 OA
HETATM    7  N   UNL     1      -8.151   4.900 -34.132  1.00  0.00    -0.311 N 
HETATM    8  C   UNL     1      -7.587   4.501 -32.942  1.00  0.00     0.134 C 
HETATM    9  C   UNL     1      -7.955   3.459 -32.111  1.00  0.00     0.032 C 
HETATM   10  N   UNL     1      -6.473   5.069 -32.387  1.00  0.00    -0.262 N 
HETATM   11  H   UNL     1      -5.904   5.826 -32.748  1.00  0.00     0.191 HD
HETATM   12  N   UNL     1      -6.193   4.604 -31.168  1.00  0.00    -0.178 NA
HETATM   13  C   UNL     1      -7.060   3.602 -30.994  1.00  0.00     0.062 C 
HETATM   14  C   UNL     1      -6.971   2.774 -29.760  1.00  0.00     0.073 C 
HETATM   15  H   UNL     1      -7.598   5.378 -34.833  1.00  0.00     0.170 HD
ENDROOT
BRANCH   1  16
HETATM   16  C   UNL     1      -8.132   1.244 -32.997  1.00  0.00    -0.040 A 
HETATM   17  C   UNL     1      -7.358   0.300 -32.298  1.00  0.00     0.009 A 
HETATM   18  C   UNL     1      -6.704  -0.735 -32.972  1.00  0.00     0.007 A 
HETATM   19  C   UNL     1      -6.800  -0.851 -34.361  1.00  0.00    -0.059 A 
HETATM   20  C   UNL     1      -7.543   0.098 -35.070  1.00  0.00     0.007 A 
HETATM   21  C   UNL     1      -8.194   1.136 -34.398  1.00  0.00     0.009 A 
BRANCH  19  22
HETATM   22  C   UNL     1      -6.153  -2.008 -35.078  1.00  0.00     0.034 C 
HETATM   23  C   UNL     1      -6.805  -3.330 -34.699  1.00  0.00     0.010 C 
ENDBRANCH  19  22
ENDBRANCH   1  16
TORSDOF 2
ENDMDL
MODEL 8
REMARK VINA RESULT:      -6.9      3.125      4.708
REMARK  2 active torsions:
REMARK  status: ('A' for Active; 'I' for Inactive)
REMARK    1  A    between atoms: C_2  and  C_3 
REMARK    2  A    between atoms: C_6  and  C_7 
ROOT
HETATM    1  C   UNL     1      -4.915   4.833 -33.258  1.00  0.00     0.119 C 
HETATM    2  S   UNL     1      -3.393   5.131 -34.198  1.00  0.00    -0.141 SA
HETATM    3  C   UNL     1      -2.383   6.082 -33.028  1.00  0.00     0.136 C 
HETATM    4  C   UNL     1      -1.205   6.691 -33.786  1.00  0.00     0.031 C 
HETATM    5  C   UNL     1      -1.881   5.176 -31.918  1.00  0.00     0.236 C 
HETATM    6  O   UNL     1      -0.744   4.748 -31.801  1.00  0.00    -0.272 OA
HETATM    7  N   UNL     1      -2.750   4.849 -30.832  1.00  0.00    -0.311 N 
HETATM    8  C   UNL     1      -4.085   5.176 -30.784  1.00  0.00     0.134 C 
HETATM    9  C   UNL     1      -5.000   5.246 -31.818  1.00  0.00     0.032 C 
HETATM   10  N   UNL     1      -4.774   5.444 -29.633  1.00  0.00    -0.262 N 
HETATM   11  H   UNL     1      -4.437   5.432 -28.678  1.00  0.00     0.191 HD
HETATM   12  N   UNL     1      -6.022   5.866 -29.849  1.00  0.00    -0.178 NA
HETATM   13  C   UNL     1      -6.192   5.722 -31.167  1.00  0.00     0.062 C 
HETATM   14  C   UNL     1      -7.526   6.009 -31.760  1.00  0.00     0.073 C 
HETATM   15  H   UNL     1      -2.287   4.443 -30.026  1.00  0.00     0.170 HD
ENDROOT
BRANCH   1  16
HETATM   16  C   UNL     1      -5.310   3.360 -33.257  1.00  0.00    -0.040 A 
HETATM   17  C   UNL     1      -6.448   2.880 -33.931  1.00  0.00     0.009 A 
HETATM   18  C   UNL     1      -6.734   1.513 -33.976  1.00  0.00     0.007 A 
HETATM   19  C   UNL     1      -5.896   0.590 -33.345  1.00  0.00    -0.059 A 
HETATM   20  C   UNL     1      -4.778   1.057 -32.647  1.00  0.00     0.007 A 
HETATM   21  C   UNL     1      -4.493   2.424 -32.598  1.00  0.00     0.009 A 
BRANCH  19  22
HETATM   22  C   UNL     1      -6.168  -0.889 -33.455  1.00  0.00     0.034 C 
HETATM   23  C   UNL     1      -6.687  -1.255 -34.838  1.00  0.00     0.010 C 
ENDBRANCH  19  22
ENDBRANCH   1  16
TORSDOF 2
ENDMDL
MODEL 9
REMARK VINA RESULT:      -6.8     14.951     16.730
REMARK  2 active torsions:
REMARK  status: ('A' for Active; 'I' for Inactive)
REMARK    1  A    between atoms: C_2  and  C_3 
REMARK    2  A    between atoms: C_6  and  C_7 
ROOT
HETATM    1  C   UNL     1      -6.142 -15.105 -39.260  1.00  0.00     0.119 C 
HETATM    2  S   UNL     1      -5.578 -15.077 -37.536  1.00  0.00    -0.141 SA
HETATM    3  C   UNL     1      -3.888 -14.432 -37.680  1.00  0.00     0.136 C 
HETATM    4  C   UNL     1      -3.167 -14.659 -36.353  1.00  0.00     0.031 C 
HETATM    5  C   UNL     1      -3.923 -12.951 -38.013  1.00  0.00     0.236 C 
HETATM    6  O   UNL     1      -3.686 -12.037 -37.239  1.00  0.00    -0.272 OA
HETATM    7  N   UNL     1      -4.146 -12.539 -39.362  1.00  0.00    -0.311 N 
HETATM    8  C   UNL     1      -4.489 -13.393 -40.385  1.00  0.00     0.134 C 
HETATM    9  C   UNL     1      -5.275 -14.530 -40.341  1.00  0.00     0.032 C 
HETATM   10  N   UNL     1      -4.134 -13.213 -41.694  1.00  0.00    -0.262 N 
HETATM   11  H   UNL     1      -3.601 -12.456 -42.105  1.00  0.00     0.191 HD
HETATM   12  N   UNL     1      -4.467 -14.240 -42.479  1.00  0.00    -0.178 NA
HETATM   13  C   UNL     1      -5.191 -15.036 -41.686  1.00  0.00     0.062 C 
HETATM   14  C   UNL     1      -5.823 -16.253 -42.264  1.00  0.00     0.073 C 
HETATM   15  H   UNL     1      -3.926 -11.567 -39.551  1.00  0.00     0.170 HD
ENDROOT
BRANCH   1  16
HETATM   16  C   UNL     1      -7.486 -14.407 -39.436  1.00  0.00    -0.040 A 
HETATM   17  C   UNL     1      -7.695 -13.064 -39.075  1.00  0.00     0.009 A 
HETATM   18  C   UNL     1      -8.917 -12.433 -39.326  1.00  0.00     0.007 A 
HETATM   19  C   UNL     1      -9.964 -13.128 -39.938  1.00  0.00    -0.059 A 
HETATM   20  C   UNL     1      -9.778 -14.473 -40.274  1.00  0.00     0.007 A 
HETATM   21  C   UNL     1      -8.557 -15.106 -40.021  1.00  0.00     0.009 A 
BRANCH  19  22
HETATM   22  C   UNL     1     -11.255 -12.427 -40.272  1.00  0.00     0.034 C 
HETATM   23  C   UNL     1     -11.014 -10.973 -40.651  1.00  0.00     0.010 C 
ENDBRANCH  19  22
ENDBRANCH   1  16
TORSDOF 2
ENDMDL
MODEL 10
REMARK VINA RESULT:      -6.5      6.275      9.376
REMARK  2 active torsions:
REMARK  status: ('A' for Active; 'I' for Inactive)
REMARK    1  A    between atoms: C_2  and  C_3 
REMARK    2  A    between atoms: C_6  and  C_7 
ROOT
HETATM    1  C   UNL     1      -2.884   7.313 -30.923  1.00  0.00     0.119 C 
HETATM    2  S   UNL     1      -4.473   7.777 -30.181  1.00  0.00    -0.141 SA
HETATM    3  C   UNL     1      -5.589   6.482 -30.790  1.00  0.00     0.136 C 
HETATM    4  C   UNL     1      -7.029   6.917 -30.521  1.00  0.00     0.031 C 
HETATM    5  C   UNL     1      -5.297   5.170 -30.086  1.00  0.00     0.236 C 
HETATM    6  O   UNL     1      -5.974   4.662 -29.206  1.00  0.00    -0.272 OA
HETATM    7  N   UNL     1      -4.200   4.366 -30.525  1.00  0.00    -0.311 N 
HETATM    8  C   UNL     1      -3.274   4.766 -31.460  1.00  0.00     0.134 C 
HETATM    9  C   UNL     1      -2.762   6.030 -31.691  1.00  0.00     0.032 C 
HETATM   10  N   UNL     1      -2.633   3.921 -32.324  1.00  0.00    -0.262 N 
HETATM   11  H   UNL     1      -2.720   2.914 -32.403  1.00  0.00     0.191 HD
HETATM   12  N   UNL     1      -1.881   4.555 -33.226  1.00  0.00    -0.178 NA
HETATM   13  C   UNL     1      -1.917   5.834 -32.839  1.00  0.00     0.062 C 
HETATM   14  C   UNL     1      -1.094   6.835 -33.572  1.00  0.00     0.073 C 
HETATM   15  H   UNL     1      -4.205   3.415 -30.175  1.00  0.00     0.170 HD
ENDROOT
BRANCH   1  16
HETATM   16  C   UNL     1      -1.764   7.250 -29.891  1.00  0.00    -0.040 A 
HETATM   17  C   UNL     1      -0.406   7.366 -30.239  1.00  0.00     0.009 A 
HETATM   18  C   UNL     1       0.589   7.386 -29.257  1.00  0.00     0.007 A 
HETATM   19  C   UNL     1       0.255   7.283 -27.904  1.00  0.00    -0.059 A 
HETATM   20  C   UNL     1      -1.089   7.137 -27.548  1.00  0.00     0.007 A 
HETATM   21  C   UNL     1      -2.085   7.114 -28.529  1.00  0.00     0.009 A 
BRANCH  19  22
HETATM   22  C   UNL     1       1.323   7.375 -26.844  1.00  0.00     0.034 C 
HETATM   23  C   UNL     1       1.886   8.785 -26.747  1.00  0.00     0.010 C 
ENDBRANCH  19  22
ENDBRANCH   1  16
TORSDOF 2
ENDMDL
