MODEL 1
REMARK VINA RESULT:     -10.2      0.000      0.000
REMARK  8 active torsions:
REMARK  status: ('A' for Active; 'I' for Inactive)
REMARK    1  A    between atoms: C_3  and  N_4 
REMARK       I    between atoms: N_4  and  C_5 
REMARK    2  A    between atoms: C_5  and  C_6 
REMARK    3  A    between atoms: C_6  and  N_7 
REMARK    4  A    between atoms: N_10  and  C_11 
REMARK    5  A    between atoms: C_11  and  C_12 
REMARK    6  A    between atoms: C_12  and  C_13 
REMARK       I    between atoms: C_13  and  N_14 
REMARK    7  A    between atoms: N_14  and  C_15 
REMARK    8  A    between atoms: C_15  and  C_16 
ROOT
HETATM    1  N   UNL     1      -5.911   2.709 -31.550  1.00  0.00    -0.289 N 
HETATM    2  C   UNL     1      -5.094   3.720 -32.060  1.00  0.00     0.332 C 
HETATM    3  O   UNL     1      -3.912   3.791 -31.703  1.00  0.00    -0.246 OA
HETATM    4  N   UNL     1      -5.656   4.629 -32.974  1.00  0.00    -0.265 N 
HETATM    5  C   UNL     1      -6.977   4.551 -33.438  1.00  0.00     0.271 C 
HETATM    6  O   UNL     1      -7.417   5.228 -34.364  1.00  0.00    -0.266 OA
HETATM    7  C   UNL     1      -7.779   3.587 -32.737  1.00  0.00     0.100 A 
HETATM    8  C   UNL     1      -7.273   2.701 -31.827  1.00  0.00     0.062 A 
HETATM    9  S   UNL     1      -9.451   3.410 -32.981  1.00  0.00    -0.094 SA
HETATM   10  C   UNL     1      -9.528   2.140 -31.833  1.00  0.00     0.053 A 
HETATM   11  C   UNL     1      -8.290   1.858 -31.293  1.00  0.00     0.038 A 
ENDROOT
BRANCH   4  12
HETATM   12  C   UNL     1      -4.697   5.588 -33.551  1.00  0.00     0.146 C 
BRANCH  12  13
HETATM   13  C   UNL     1      -3.885   5.176 -34.776  1.00  0.00     0.123 C 
BRANCH  13  14
HETATM   14  C   UNL     1      -2.430   5.565 -34.646  1.00  0.00     0.219 C 
HETATM   15  N   UNL     1      -2.221   6.493 -33.653  1.00  0.00    -0.357 N 
HETATM   16  H   UNL     1      -3.016   6.883 -33.160  1.00  0.00     0.162 HD
HETATM   17  O   UNL     1      -1.538   5.096 -35.342  1.00  0.00    -0.274 OA
BRANCH  15  18
HETATM   18  C   UNL     1      -0.908   6.984 -33.306  1.00  0.00     0.161 C 
BRANCH  18  19
HETATM   19  C   UNL     1      -0.634   6.712 -31.850  1.00  0.00    -0.038 A 
HETATM   20  C   UNL     1      -1.206   7.512 -30.848  1.00  0.00     0.048 A 
HETATM   21  C   UNL     1      -0.952   7.182 -29.533  1.00  0.00     0.105 A 
HETATM   22  C   UNL     1      -0.169   6.105 -29.191  1.00  0.00     0.105 A 
HETATM   23  O   UNL     1      -1.429   7.843 -28.443  1.00  0.00    -0.323 OA
HETATM   24  O   UNL     1      -0.055   5.952 -27.845  1.00  0.00    -0.323 OA
HETATM   25  C   UNL     1       0.409   5.297 -30.143  1.00  0.00     0.040 A 
HETATM   26  C   UNL     1      -0.853   7.059 -27.377  1.00  0.00     0.352 A 
HETATM   27  C   UNL     1       0.171   5.606 -31.486  1.00  0.00     0.012 A 
ENDBRANCH  18  19
ENDBRANCH  15  18
ENDBRANCH  13  14
ENDBRANCH  12  13
ENDBRANCH   4  12
BRANCH   1  28
HETATM   28  C   UNL     1      -5.269   1.660 -30.763  1.00  0.00     0.237 C 
BRANCH  28  29
HETATM   29  C   UNL     1      -5.534   0.262 -31.311  1.00  0.00     0.240 C 
HETATM   30  N   UNL     1      -4.965   0.057 -32.558  1.00  0.00    -0.325 N 
HETATM   31  H   UNL     1      -4.108   0.587 -32.727  1.00  0.00     0.169 HD
HETATM   32  O   UNL     1      -6.148  -0.573 -30.651  1.00  0.00    -0.271 OA
BRANCH  30  33
HETATM   33  C   UNL     1      -5.223  -1.035 -33.415  1.00  0.00     0.042 A 
HETATM   34  C   UNL     1      -6.258  -1.072 -34.371  1.00  0.00    -0.035 A 
HETATM   35  C   UNL     1      -7.188   0.076 -34.658  1.00  0.00     0.050 C 
HETATM   36  C   UNL     1      -6.419  -2.231 -35.157  1.00  0.00     0.011 A 
HETATM   37  C   UNL     1      -5.543  -3.308 -35.040  1.00  0.00     0.024 A 
HETATM   38  C   UNL     1      -4.491  -3.236 -34.138  1.00  0.00     0.036 A 
HETATM   39  C   UNL     1      -4.319  -2.106 -33.338  1.00  0.00     0.053 A 
HETATM   40 CL   UNL     1      -3.394  -4.556 -34.002  1.00  0.00    -0.084 Cl
ENDBRANCH  30  33
ENDBRANCH  28  29
ENDBRANCH   1  28
TORSDOF 8
ENDMDL
MODEL 2
REMARK VINA RESULT:     -10.2      1.551      2.151
REMARK  8 active torsions:
REMARK  status: ('A' for Active; 'I' for Inactive)
REMARK    1  A    between atoms: C_3  and  N_4 
REMARK       I    between atoms: N_4  and  C_5 
REMARK    2  A    between atoms: C_5  and  C_6 
REMARK    3  A    between atoms: C_6  and  N_7 
REMARK    4  A    between atoms: N_10  and  C_11 
REMARK    5  A    between atoms: C_11  and  C_12 
REMARK    6  A    between atoms: C_12  and  C_13 
REMARK       I    between atoms: C_13  and  N_14 
REMARK    7  A    between atoms: N_14  and  C_15 
REMARK    8  A    between atoms: C_15  and  C_16 
ROOT
HETATM    1  N   UNL     1      -4.984   2.730 -31.588  1.00  0.00    -0.289 N 
HETATM    2  C   UNL     1      -3.734   3.214 -31.979  1.00  0.00     0.332 C 
HETATM    3  O   UNL     1      -2.717   2.830 -31.390  1.00  0.00    -0.246 OA
HETATM    4  N   UNL     1      -3.682   4.131 -33.044  1.00  0.00    -0.265 N 
HETATM    5  C   UNL     1      -4.808   4.552 -33.766  1.00  0.00     0.271 C 
HETATM    6  O   UNL     1      -4.748   5.207 -34.804  1.00  0.00    -0.266 OA
HETATM    7  C   UNL     1      -6.054   4.131 -33.189  1.00  0.00     0.100 A 
HETATM    8  C   UNL     1      -6.145   3.257 -32.141  1.00  0.00     0.062 A 
HETATM    9  S   UNL     1      -7.569   4.642 -33.763  1.00  0.00    -0.094 SA
HETATM   10  C   UNL     1      -8.382   3.707 -32.580  1.00  0.00     0.053 A 
HETATM   11  C   UNL     1      -7.501   3.011 -31.779  1.00  0.00     0.038 A 
ENDROOT
BRANCH   4  12
HETATM   12  C   UNL     1      -2.318   4.499 -33.467  1.00  0.00     0.146 C 
BRANCH  12  13
HETATM   13  C   UNL     1      -1.770   5.870 -33.078  1.00  0.00     0.123 C 
BRANCH  13  14
HETATM   14  C   UNL     1      -0.698   5.768 -32.017  1.00  0.00     0.219 C 
HETATM   15  N   UNL     1      -0.424   6.981 -31.430  1.00  0.00    -0.357 N 
HETATM   16  H   UNL     1      -0.876   7.818 -31.780  1.00  0.00     0.162 HD
HETATM   17  O   UNL     1      -0.146   4.720 -31.708  1.00  0.00    -0.274 OA
BRANCH  15  18
HETATM   18  C   UNL     1       0.528   7.132 -30.355  1.00  0.00     0.161 C 
BRANCH  18  19
HETATM   19  C   UNL     1      -0.188   7.070 -29.031  1.00  0.00    -0.038 A 
HETATM   20  C   UNL     1      -1.392   7.763 -28.831  1.00  0.00     0.048 A 
HETATM   21  C   UNL     1      -2.021   7.628 -27.611  1.00  0.00     0.105 A 
HETATM   22  C   UNL     1      -1.505   6.840 -26.609  1.00  0.00     0.105 A 
HETATM   23  O   UNL     1      -3.192   8.222 -27.252  1.00  0.00    -0.323 OA
HETATM   24  O   UNL     1      -2.285   6.839 -25.496  1.00  0.00    -0.323 OA
HETATM   25  C   UNL     1      -0.329   6.144 -26.767  1.00  0.00     0.040 A 
HETATM   26  C   UNL     1      -3.351   7.719 -25.909  1.00  0.00     0.352 A 
HETATM   27  C   UNL     1       0.334   6.261 -27.993  1.00  0.00     0.012 A 
ENDBRANCH  18  19
ENDBRANCH  15  18
ENDBRANCH  13  14
ENDBRANCH  12  13
ENDBRANCH   4  12
BRANCH   1  28
HETATM   28  C   UNL     1      -5.008   1.635 -30.622  1.00  0.00     0.237 C 
BRANCH  28  29
HETATM   29  C   UNL     1      -5.452   0.312 -31.236  1.00  0.00     0.240 C 
HETATM   30  N   UNL     1      -4.669  -0.070 -32.314  1.00  0.00    -0.325 N 
HETATM   31  H   UNL     1      -3.698   0.242 -32.265  1.00  0.00     0.169 HD
HETATM   32  O   UNL     1      -6.381  -0.332 -30.754  1.00  0.00    -0.271 OA
BRANCH  30  33
HETATM   33  C   UNL     1      -4.964  -1.111 -33.222  1.00  0.00     0.042 A 
HETATM   34  C   UNL     1      -5.960  -1.043 -34.217  1.00  0.00    -0.035 A 
HETATM   35  C   UNL     1      -6.801   0.174 -34.492  1.00  0.00     0.050 C 
HETATM   36  C   UNL     1      -6.165  -2.159 -35.053  1.00  0.00     0.011 A 
HETATM   37  C   UNL     1      -5.367  -3.295 -34.946  1.00  0.00     0.024 A 
HETATM   38  C   UNL     1      -4.348  -3.327 -34.003  1.00  0.00     0.036 A 
HETATM   39  C   UNL     1      -4.135  -2.241 -33.154  1.00  0.00     0.053 A 
HETATM   40 CL   UNL     1      -3.346  -4.721 -33.879  1.00  0.00    -0.084 Cl
ENDBRANCH  30  33
ENDBRANCH  28  29
ENDBRANCH   1  28
TORSDOF 8
ENDMDL
MODEL 3
REMARK VINA RESULT:      -9.8      1.462      1.999
REMARK  8 active torsions:
REMARK  status: ('A' for Active; 'I' for Inactive)
REMARK    1  A    between atoms: C_3  and  N_4 
REMARK       I    between atoms: N_4  and  C_5 
REMARK    2  A    between atoms: C_5  and  C_6 
REMARK    3  A    between atoms: C_6  and  N_7 
REMARK    4  A    between atoms: N_10  and  C_11 
REMARK    5  A    between atoms: C_11  and  C_12 
REMARK    6  A    between atoms: C_12  and  C_13 
REMARK       I    between atoms: C_13  and  N_14 
REMARK    7  A    between atoms: N_14  and  C_15 
REMARK    8  A    between atoms: C_15  and  C_16 
ROOT
HETATM    1  N   UNL     1      -5.234   2.064 -32.049  1.00  0.00    -0.289 N 
HETATM    2  C   UNL     1      -4.601   3.237 -32.463  1.00  0.00     0.332 C 
HETATM    3  O   UNL     1      -3.402   3.408 -32.213  1.00  0.00    -0.246 OA
HETATM    4  N   UNL     1      -5.364   4.191 -33.161  1.00  0.00    -0.265 N 
HETATM    5  C   UNL     1      -6.711   4.013 -33.504  1.00  0.00     0.271 C 
HETATM    6  O   UNL     1      -7.328   4.757 -34.262  1.00  0.00    -0.266 OA
HETATM    7  C   UNL     1      -7.313   2.859 -32.896  1.00  0.00     0.100 A 
HETATM    8  C   UNL     1      -6.609   1.920 -32.193  1.00  0.00     0.062 A 
HETATM    9  S   UNL     1      -8.971   2.503 -33.005  1.00  0.00    -0.094 SA
HETATM   10  C   UNL     1      -8.772   1.078 -32.076  1.00  0.00     0.053 A 
HETATM   11  C   UNL     1      -7.456   0.882 -31.709  1.00  0.00     0.038 A 
ENDROOT
BRANCH   4  12
HETATM   12  C   UNL     1      -4.591   5.343 -33.662  1.00  0.00     0.146 C 
BRANCH  12  13
HETATM   13  C   UNL     1      -3.730   5.168 -34.910  1.00  0.00     0.123 C 
BRANCH  13  14
HETATM   14  C   UNL     1      -2.284   5.528 -34.652  1.00  0.00     0.219 C 
HETATM   15  N   UNL     1      -2.118   6.226 -33.479  1.00  0.00    -0.357 N 
HETATM   16  H   UNL     1      -2.932   6.499 -32.942  1.00  0.00     0.162 HD
HETATM   17  O   UNL     1      -1.365   5.221 -35.401  1.00  0.00    -0.274 OA
BRANCH  15  18
HETATM   18  C   UNL     1      -0.822   6.639 -32.993  1.00  0.00     0.161 C 
BRANCH  18  19
HETATM   19  C   UNL     1      -0.883   6.846 -31.502  1.00  0.00    -0.038 A 
HETATM   20  C   UNL     1      -2.116   6.901 -30.833  1.00  0.00     0.048 A 
HETATM   21  C   UNL     1      -2.101   7.047 -29.461  1.00  0.00     0.105 A 
HETATM   22  C   UNL     1      -0.927   7.134 -28.751  1.00  0.00     0.105 A 
HETATM   23  O   UNL     1      -3.198   7.112 -28.658  1.00  0.00    -0.323 OA
HETATM   24  O   UNL     1      -1.137   7.265 -27.414  1.00  0.00    -0.323 OA
HETATM   25  C   UNL     1       0.301   7.084 -29.370  1.00  0.00     0.040 A 
HETATM   26  C   UNL     1      -2.578   7.253 -27.363  1.00  0.00     0.352 A 
HETATM   27  C   UNL     1       0.320   6.937 -30.760  1.00  0.00     0.012 A 
ENDBRANCH  18  19
ENDBRANCH  15  18
ENDBRANCH  13  14
ENDBRANCH  12  13
ENDBRANCH   4  12
BRANCH   1  28
HETATM   28  C   UNL     1      -4.392   1.002 -31.507  1.00  0.00     0.237 C 
BRANCH  28  29
HETATM   29  C   UNL     1      -4.065  -0.077 -32.533  1.00  0.00     0.240 C 
HETATM   30  N   UNL     1      -4.866  -1.200 -32.407  1.00  0.00    -0.325 N 
HETATM   31  H   UNL     1      -5.805  -1.014 -32.049  1.00  0.00     0.169 HD
HETATM   32  O   UNL     1      -3.206   0.104 -33.394  1.00  0.00    -0.271 OA
BRANCH  30  33
HETATM   33  C   UNL     1      -4.659  -2.441 -33.048  1.00  0.00     0.042 A 
HETATM   34  C   UNL     1      -3.620  -3.339 -32.731  1.00  0.00    -0.035 A 
HETATM   35  C   UNL     1      -2.630  -3.129 -31.617  1.00  0.00     0.050 C 
HETATM   36  C   UNL     1      -3.513  -4.542 -33.457  1.00  0.00     0.011 A 
HETATM   37  C   UNL     1      -4.444  -4.876 -34.438  1.00  0.00     0.024 A 
HETATM   38  C   UNL     1      -5.499  -4.011 -34.700  1.00  0.00     0.036 A 
HETATM   39  C   UNL     1      -5.618  -2.808 -34.005  1.00  0.00     0.053 A 
HETATM   40 CL   UNL     1      -6.664  -4.428 -35.897  1.00  0.00    -0.084 Cl
ENDBRANCH  30  33
ENDBRANCH  28  29
ENDBRANCH   1  28
TORSDOF 8
ENDMDL
MODEL 4
REMARK VINA RESULT:      -9.8      1.672      2.142
REMARK  8 active torsions:
REMARK  status: ('A' for Active; 'I' for Inactive)
REMARK    1  A    between atoms: C_3  and  N_4 
REMARK       I    between atoms: N_4  and  C_5 
REMARK    2  A    between atoms: C_5  and  C_6 
REMARK    3  A    between atoms: C_6  and  N_7 
REMARK    4  A    between atoms: N_10  and  C_11 
REMARK    5  A    between atoms: C_11  and  C_12 
REMARK    6  A    between atoms: C_12  and  C_13 
REMARK       I    between atoms: C_13  and  N_14 
REMARK    7  A    between atoms: N_14  and  C_15 
REMARK    8  A    between atoms: C_15  and  C_16 
ROOT
HETATM    1  N   UNL     1      -6.808   3.078 -32.795  1.00  0.00    -0.289 N 
HETATM    2  C   UNL     1      -5.937   3.606 -33.750  1.00  0.00     0.332 C 
HETATM    3  O   UNL     1      -5.784   3.021 -34.829  1.00  0.00    -0.246 OA
HETATM    4  N   UNL     1      -5.259   4.799 -33.442  1.00  0.00    -0.265 N 
HETATM    5  C   UNL     1      -5.442   5.514 -32.250  1.00  0.00     0.271 C 
HETATM    6  O   UNL     1      -4.993   6.640 -32.053  1.00  0.00    -0.266 OA
HETATM    7  C   UNL     1      -6.225   4.812 -31.271  1.00  0.00     0.100 A 
HETATM    8  C   UNL     1      -6.882   3.640 -31.526  1.00  0.00     0.062 A 
HETATM    9  S   UNL     1      -6.457   5.373 -29.684  1.00  0.00    -0.094 SA
HETATM   10  C   UNL     1      -7.434   4.019 -29.301  1.00  0.00     0.053 A 
HETATM   11  C   UNL     1      -7.585   3.171 -30.379  1.00  0.00     0.038 A 
ENDROOT
BRANCH   4  12
HETATM   12  C   UNL     1      -4.452   5.347 -34.548  1.00  0.00     0.146 C 
BRANCH  12  13
HETATM   13  C   UNL     1      -3.033   4.825 -34.755  1.00  0.00     0.123 C 
BRANCH  13  14
HETATM   14  C   UNL     1      -1.993   5.864 -34.404  1.00  0.00     0.219 C 
HETATM   15  N   UNL     1      -2.326   6.581 -33.279  1.00  0.00    -0.357 N 
HETATM   16  H   UNL     1      -3.224   6.425 -32.836  1.00  0.00     0.162 HD
HETATM   17  O   UNL     1      -0.964   6.038 -35.044  1.00  0.00    -0.274 OA
BRANCH  15  18
HETATM   18  C   UNL     1      -1.468   7.597 -32.717  1.00  0.00     0.161 C 
BRANCH  18  19
HETATM   19  C   UNL     1      -0.951   7.139 -31.377  1.00  0.00    -0.038 A 
HETATM   20  C   UNL     1      -1.435   7.705 -30.188  1.00  0.00     0.048 A 
HETATM   21  C   UNL     1      -0.955   7.210 -28.993  1.00  0.00     0.105 A 
HETATM   22  C   UNL     1      -0.033   6.191 -28.946  1.00  0.00     0.105 A 
HETATM   23  O   UNL     1      -1.319   7.637 -27.754  1.00  0.00    -0.323 OA
HETATM   24  O   UNL     1       0.299   5.849 -27.673  1.00  0.00    -0.323 OA
HETATM   25  C   UNL     1       0.465   5.610 -30.090  1.00  0.00     0.040 A 
HETATM   26  C   UNL     1      -0.518   6.771 -26.922  1.00  0.00     0.352 A 
HETATM   27  C   UNL     1      -0.002   6.091 -31.317  1.00  0.00     0.012 A 
ENDBRANCH  18  19
ENDBRANCH  15  18
ENDBRANCH  13  14
ENDBRANCH  12  13
ENDBRANCH   4  12
BRANCH   1  28
HETATM   28  C   UNL     1      -7.651   1.957 -33.202  1.00  0.00     0.237 C 
BRANCH  28  29
HETATM   29  C   UNL     1      -7.031   0.602 -32.881  1.00  0.00     0.240 C 
HETATM   30  N   UNL     1      -6.119   0.188 -33.838  1.00  0.00    -0.325 N 
HETATM   31  H   UNL     1      -5.625   0.948 -34.311  1.00  0.00     0.169 HD
HETATM   32  O   UNL     1      -7.308   0.006 -31.843  1.00  0.00    -0.271 OA
BRANCH  30  33
HETATM   33  C   UNL     1      -5.559  -1.104 -33.944  1.00  0.00     0.042 A 
HETATM   34  C   UNL     1      -4.329  -1.489 -33.374  1.00  0.00    -0.035 A 
HETATM   35  C   UNL     1      -3.477  -0.595 -32.514  1.00  0.00     0.050 C 
HETATM   36  C   UNL     1      -3.873  -2.810 -33.564  1.00  0.00     0.011 A 
HETATM   37  C   UNL     1      -4.641  -3.743 -34.256  1.00  0.00     0.024 A 
HETATM   38  C   UNL     1      -5.878  -3.369 -34.762  1.00  0.00     0.036 A 
HETATM   39  C   UNL     1      -6.345  -2.065 -34.599  1.00  0.00     0.053 A 
HETATM   40 CL   UNL     1      -6.840  -4.524 -35.601  1.00  0.00    -0.084 Cl
ENDBRANCH  30  33
ENDBRANCH  28  29
ENDBRANCH   1  28
TORSDOF 8
ENDMDL
MODEL 5
REMARK VINA RESULT:      -9.5      2.540      3.734
REMARK  8 active torsions:
REMARK  status: ('A' for Active; 'I' for Inactive)
REMARK    1  A    between atoms: C_3  and  N_4 
REMARK       I    between atoms: N_4  and  C_5 
REMARK    2  A    between atoms: C_5  and  C_6 
REMARK    3  A    between atoms: C_6  and  N_7 
REMARK    4  A    between atoms: N_10  and  C_11 
REMARK    5  A    between atoms: C_11  and  C_12 
REMARK    6  A    between atoms: C_12  and  C_13 
REMARK       I    between atoms: C_13  and  N_14 
REMARK    7  A    between atoms: N_14  and  C_15 
REMARK    8  A    between atoms: C_15  and  C_16 
ROOT
HETATM    1  N   UNL     1      -5.694   4.502 -31.602  1.00  0.00    -0.289 N 
HETATM    2  C   UNL     1      -4.431   4.753 -32.140  1.00  0.00     0.332 C 
HETATM    3  O   UNL     1      -4.122   4.264 -33.234  1.00  0.00    -0.246 OA
HETATM    4  N   UNL     1      -3.547   5.565 -31.407  1.00  0.00    -0.265 N 
HETATM    5  C   UNL     1      -3.878   6.174 -30.188  1.00  0.00     0.271 C 
HETATM    6  O   UNL     1      -3.180   7.022 -29.636  1.00  0.00    -0.266 OA
HETATM    7  C   UNL     1      -5.129   5.727 -29.640  1.00  0.00     0.100 A 
HETATM    8  C   UNL     1      -6.005   4.922 -30.314  1.00  0.00     0.062 A 
HETATM    9  S   UNL     1      -5.686   6.175 -28.099  1.00  0.00    -0.094 SA
HETATM   10  C   UNL     1      -7.120   5.260 -28.304  1.00  0.00     0.053 A 
HETATM   11  C   UNL     1      -7.166   4.642 -29.537  1.00  0.00     0.038 A 
ENDROOT
BRANCH   4  12
HETATM   12  C   UNL     1      -2.282   5.873 -32.099  1.00  0.00     0.146 C 
BRANCH  12  13
HETATM   13  C   UNL     1      -1.049   5.027 -31.797  1.00  0.00     0.123 C 
BRANCH  13  14
HETATM   14  C   UNL     1      -0.111   5.720 -30.835  1.00  0.00     0.219 C 
HETATM   15  N   UNL     1      -0.345   5.367 -29.527  1.00  0.00    -0.357 N 
HETATM   16  H   UNL     1      -1.128   4.764 -29.306  1.00  0.00     0.162 HD
HETATM   17  O   UNL     1       0.766   6.500 -31.185  1.00  0.00    -0.274 OA
BRANCH  15  18
HETATM   18  C   UNL     1       0.453   5.860 -28.429  1.00  0.00     0.161 C 
BRANCH  18  19
HETATM   19  C   UNL     1      -0.297   6.946 -27.704  1.00  0.00    -0.038 A 
HETATM   20  C   UNL     1      -1.116   6.644 -26.604  1.00  0.00     0.048 A 
HETATM   21  C   UNL     1      -1.740   7.690 -25.956  1.00  0.00     0.105 A 
HETATM   22  C   UNL     1      -1.576   8.995 -26.355  1.00  0.00     0.105 A 
HETATM   23  O   UNL     1      -2.559   7.578 -24.875  1.00  0.00    -0.323 OA
HETATM   24  O   UNL     1      -2.269   9.868 -25.576  1.00  0.00    -0.323 OA
HETATM   25  C   UNL     1      -0.781   9.332 -27.427  1.00  0.00     0.040 A 
HETATM   26  C   UNL     1      -2.892   8.962 -24.642  1.00  0.00     0.352 A 
HETATM   27  C   UNL     1      -0.136   8.294 -28.106  1.00  0.00     0.012 A 
ENDBRANCH  18  19
ENDBRANCH  15  18
ENDBRANCH  13  14
ENDBRANCH  12  13
ENDBRANCH   4  12
BRANCH   1  28
HETATM   28  C   UNL     1      -6.667   3.830 -32.459  1.00  0.00     0.237 C 
BRANCH  28  29
HETATM   29  C   UNL     1      -6.615   2.311 -32.337  1.00  0.00     0.240 C 
HETATM   30  N   UNL     1      -5.716   1.732 -33.218  1.00  0.00    -0.325 N 
HETATM   31  H   UNL     1      -4.911   2.317 -33.450  1.00  0.00     0.169 HD
HETATM   32  O   UNL     1      -7.282   1.718 -31.493  1.00  0.00    -0.271 OA
BRANCH  30  33
HETATM   33  C   UNL     1      -5.610   0.353 -33.504  1.00  0.00     0.042 A 
HETATM   34  C   UNL     1      -6.383  -0.323 -34.470  1.00  0.00    -0.035 A 
HETATM   35  C   UNL     1      -7.379   0.347 -35.378  1.00  0.00     0.050 C 
HETATM   36  C   UNL     1      -6.190  -1.708 -34.650  1.00  0.00     0.011 A 
HETATM   37  C   UNL     1      -5.217  -2.398 -33.931  1.00  0.00     0.024 A 
HETATM   38  C   UNL     1      -4.420  -1.710 -33.026  1.00  0.00     0.036 A 
HETATM   39  C   UNL     1      -4.601  -0.343 -32.819  1.00  0.00     0.053 A 
HETATM   40 CL   UNL     1      -3.203  -2.555 -32.149  1.00  0.00    -0.084 Cl
ENDBRANCH  30  33
ENDBRANCH  28  29
ENDBRANCH   1  28
TORSDOF 8
ENDMDL
MODEL 6
REMARK VINA RESULT:      -9.4      3.004      5.079
REMARK  8 active torsions:
REMARK  status: ('A' for Active; 'I' for Inactive)
REMARK    1  A    between atoms: C_3  and  N_4 
REMARK       I    between atoms: N_4  and  C_5 
REMARK    2  A    between atoms: C_5  and  C_6 
REMARK    3  A    between atoms: C_6  and  N_7 
REMARK    4  A    between atoms: N_10  and  C_11 
REMARK    5  A    between atoms: C_11  and  C_12 
REMARK    6  A    between atoms: C_12  and  C_13 
REMARK       I    between atoms: C_13  and  N_14 
REMARK    7  A    between atoms: N_14  and  C_15 
REMARK    8  A    between atoms: C_15  and  C_16 
ROOT
HETATM    1  N   UNL     1     -10.507   2.194 -33.626  1.00  0.00    -0.289 N 
HETATM    2  C   UNL     1      -9.736   3.148 -32.959  1.00  0.00     0.332 C 
HETATM    3  O   UNL     1      -8.505   3.134 -33.079  1.00  0.00    -0.246 OA
HETATM    4  N   UNL     1     -10.400   4.103 -32.169  1.00  0.00    -0.265 N 
HETATM    5  C   UNL     1     -11.795   4.181 -32.048  1.00  0.00     0.271 C 
HETATM    6  O   UNL     1     -12.383   5.115 -31.508  1.00  0.00    -0.266 OA
HETATM    7  C   UNL     1     -12.487   3.066 -32.632  1.00  0.00     0.100 A 
HETATM    8  C   UNL     1     -11.873   2.107 -33.390  1.00  0.00     0.062 A 
HETATM    9  S   UNL     1     -14.162   2.824 -32.480  1.00  0.00    -0.094 SA
HETATM   10  C   UNL     1     -14.085   1.393 -33.419  1.00  0.00     0.053 A 
HETATM   11  C   UNL     1     -12.800   1.126 -33.847  1.00  0.00     0.038 A 
ENDROOT
BRANCH   4  12
HETATM   12  C   UNL     1      -9.522   5.141 -31.597  1.00  0.00     0.146 C 
BRANCH  12  13
HETATM   13  C   UNL     1      -9.050   4.995 -30.153  1.00  0.00     0.123 C 
BRANCH  13  14
HETATM   14  C   UNL     1      -7.733   4.258 -30.061  1.00  0.00     0.219 C 
HETATM   15  N   UNL     1      -6.664   5.049 -30.411  1.00  0.00    -0.357 N 
HETATM   16  H   UNL     1      -6.829   5.986 -30.757  1.00  0.00     0.162 HD
HETATM   17  O   UNL     1      -7.633   3.091 -29.704  1.00  0.00    -0.274 OA
BRANCH  15  18
HETATM   18  C   UNL     1      -5.298   4.583 -30.356  1.00  0.00     0.161 C 
BRANCH  18  19
HETATM   19  C   UNL     1      -4.633   4.804 -31.690  1.00  0.00    -0.038 A 
HETATM   20  C   UNL     1      -3.235   4.854 -31.798  1.00  0.00     0.048 A 
HETATM   21  C   UNL     1      -2.688   5.013 -33.055  1.00  0.00     0.105 A 
HETATM   22  C   UNL     1      -3.469   5.117 -34.181  1.00  0.00     0.105 A 
HETATM   23  O   UNL     1      -1.359   5.077 -33.339  1.00  0.00    -0.323 OA
HETATM   24  O   UNL     1      -2.732   5.258 -35.314  1.00  0.00    -0.323 OA
HETATM   25  C   UNL     1      -4.843   5.071 -34.116  1.00  0.00     0.040 A 
HETATM   26  C   UNL     1      -1.395   5.234 -34.773  1.00  0.00     0.352 A 
HETATM   27  C   UNL     1      -5.428   4.912 -32.857  1.00  0.00     0.012 A 
ENDBRANCH  18  19
ENDBRANCH  15  18
ENDBRANCH  13  14
ENDBRANCH  12  13
ENDBRANCH   4  12
BRANCH   1  28
HETATM   28  C   UNL     1      -9.827   1.340 -34.596  1.00  0.00     0.237 C 
BRANCH  28  29
HETATM   29  C   UNL     1      -8.851   0.366 -33.946  1.00  0.00     0.240 C 
HETATM   30  N   UNL     1      -7.594   0.395 -34.529  1.00  0.00    -0.325 N 
HETATM   31  H   UNL     1      -7.327   1.302 -34.918  1.00  0.00     0.169 HD
HETATM   32  O   UNL     1      -9.181  -0.313 -32.976  1.00  0.00    -0.271 OA
BRANCH  30  33
HETATM   33  C   UNL     1      -6.558  -0.538 -34.308  1.00  0.00     0.042 A 
HETATM   34  C   UNL     1      -5.382  -0.267 -33.580  1.00  0.00    -0.035 A 
HETATM   35  C   UNL     1      -5.101   1.035 -32.879  1.00  0.00     0.050 C 
HETATM   36  C   UNL     1      -4.415  -1.284 -33.444  1.00  0.00     0.011 A 
HETATM   37  C   UNL     1      -4.629  -2.556 -33.967  1.00  0.00     0.024 A 
HETATM   38  C   UNL     1      -5.819  -2.830 -34.629  1.00  0.00     0.036 A 
HETATM   39  C   UNL     1      -6.785  -1.837 -34.790  1.00  0.00     0.053 A 
HETATM   40 CL   UNL     1      -6.098  -4.407 -35.261  1.00  0.00    -0.084 Cl
ENDBRANCH  30  33
ENDBRANCH  28  29
ENDBRANCH   1  28
TORSDOF 8
ENDMDL
MODEL 7
REMARK VINA RESULT:      -9.4      3.799      9.769
REMARK  8 active torsions:
REMARK  status: ('A' for Active; 'I' for Inactive)
REMARK    1  A    between atoms: C_3  and  N_4 
REMARK       I    between atoms: N_4  and  C_5 
REMARK    2  A    between atoms: C_5  and  C_6 
REMARK    3  A    between atoms: C_6  and  N_7 
REMARK    4  A    between atoms: N_10  and  C_11 
REMARK    5  A    between atoms: C_11  and  C_12 
REMARK    6  A    between atoms: C_12  and  C_13 
REMARK       I    between atoms: C_13  and  N_14 
REMARK    7  A    between atoms: N_14  and  C_15 
REMARK    8  A    between atoms: C_15  and  C_16 
ROOT
HETATM    1  N   UNL     1      -4.807   6.592 -31.622  1.00  0.00    -0.289 N 
HETATM    2  C   UNL     1      -5.844   5.695 -31.355  1.00  0.00     0.332 C 
HETATM    3  O   UNL     1      -6.509   5.819 -30.319  1.00  0.00    -0.246 OA
HETATM    4  N   UNL     1      -6.095   4.674 -32.288  1.00  0.00    -0.265 N 
HETATM    5  C   UNL     1      -5.395   4.531 -33.494  1.00  0.00     0.271 C 
HETATM    6  O   UNL     1      -5.727   3.756 -34.389  1.00  0.00    -0.266 OA
HETATM    7  C   UNL     1      -4.250   5.392 -33.602  1.00  0.00     0.100 A 
HETATM    8  C   UNL     1      -3.961   6.382 -32.705  1.00  0.00     0.062 A 
HETATM    9  S   UNL     1      -3.133   5.304 -34.879  1.00  0.00    -0.094 SA
HETATM   10  C   UNL     1      -2.216   6.594 -34.225  1.00  0.00     0.053 A 
HETATM   11  C   UNL     1      -2.773   7.084 -33.061  1.00  0.00     0.038 A 
ENDROOT
BRANCH   4  12
HETATM   12  C   UNL     1      -7.278   3.847 -31.985  1.00  0.00     0.146 C 
BRANCH  12  13
HETATM   13  C   UNL     1      -7.075   2.462 -31.378  1.00  0.00     0.123 C 
BRANCH  13  14
HETATM   14  C   UNL     1      -7.717   1.379 -32.214  1.00  0.00     0.219 C 
HETATM   15  N   UNL     1      -7.044   1.157 -33.393  1.00  0.00    -0.357 N 
HETATM   16  H   UNL     1      -6.260   1.749 -33.638  1.00  0.00     0.162 HD
HETATM   17  O   UNL     1      -8.718   0.761 -31.873  1.00  0.00    -0.274 OA
BRANCH  15  18
HETATM   18  C   UNL     1      -7.438   0.138 -34.337  1.00  0.00     0.161 C 
BRANCH  18  19
HETATM   19  C   UNL     1      -6.500  -1.037 -34.235  1.00  0.00    -0.038 A 
HETATM   20  C   UNL     1      -6.920  -2.327 -34.595  1.00  0.00     0.048 A 
HETATM   21  C   UNL     1      -5.998  -3.352 -34.522  1.00  0.00     0.105 A 
HETATM   22  C   UNL     1      -4.703  -3.138 -34.115  1.00  0.00     0.105 A 
HETATM   23  O   UNL     1      -6.234  -4.654 -34.837  1.00  0.00    -0.323 OA
HETATM   24  O   UNL     1      -3.961  -4.276 -34.124  1.00  0.00    -0.323 OA
HETATM   25  C   UNL     1      -4.253  -1.888 -33.755  1.00  0.00     0.040 A 
HETATM   26  C   UNL     1      -4.938  -5.234 -34.580  1.00  0.00     0.352 A 
HETATM   27  C   UNL     1      -5.163  -0.829 -33.817  1.00  0.00     0.012 A 
ENDBRANCH  18  19
ENDBRANCH  15  18
ENDBRANCH  13  14
ENDBRANCH  12  13
ENDBRANCH   4  12
BRANCH   1  28
HETATM   28  C   UNL     1      -4.688   7.759 -30.753  1.00  0.00     0.237 C 
BRANCH  28  29
HETATM   29  C   UNL     1      -3.621   7.590 -29.677  1.00  0.00     0.240 C 
HETATM   30  N   UNL     1      -2.585   8.501 -29.801  1.00  0.00    -0.325 N 
HETATM   31  H   UNL     1      -2.854   9.400 -30.205  1.00  0.00     0.169 HD
HETATM   32  O   UNL     1      -3.743   6.752 -28.787  1.00  0.00    -0.271 OA
BRANCH  30  33
HETATM   33  C   UNL     1      -1.354   8.453 -29.109  1.00  0.00     0.042 A 
HETATM   34  C   UNL     1      -0.269   7.627 -29.468  1.00  0.00    -0.035 A 
HETATM   35  C   UNL     1      -0.248   6.735 -30.679  1.00  0.00     0.050 C 
HETATM   36  C   UNL     1       0.902   7.663 -28.684  1.00  0.00     0.011 A 
HETATM   37  C   UNL     1       1.020   8.533 -27.604  1.00  0.00     0.024 A 
HETATM   38  C   UNL     1      -0.033   9.385 -27.296  1.00  0.00     0.036 A 
HETATM   39  C   UNL     1      -1.208   9.359 -28.047  1.00  0.00     0.053 A 
HETATM   40 CL   UNL     1       0.114  10.478 -25.973  1.00  0.00    -0.084 Cl
ENDBRANCH  30  33
ENDBRANCH  28  29
ENDBRANCH   1  28
TORSDOF 8
ENDMDL
MODEL 8
REMARK VINA RESULT:      -9.3      3.343      7.359
REMARK  8 active torsions:
REMARK  status: ('A' for Active; 'I' for Inactive)
REMARK    1  A    between atoms: C_3  and  N_4 
REMARK       I    between atoms: N_4  and  C_5 
REMARK    2  A    between atoms: C_5  and  C_6 
REMARK    3  A    between atoms: C_6  and  N_7 
REMARK    4  A    between atoms: N_10  and  C_11 
REMARK    5  A    between atoms: C_11  and  C_12 
REMARK    6  A    between atoms: C_12  and  C_13 
REMARK       I    between atoms: C_13  and  N_14 
REMARK    7  A    between atoms: N_14  and  C_15 
REMARK    8  A    between atoms: C_15  and  C_16 
ROOT
HETATM    1  N   UNL     1      -6.376   3.746 -30.980  1.00  0.00    -0.289 N 
HETATM    2  C   UNL     1      -6.873   3.610 -32.278  1.00  0.00     0.332 C 
HETATM    3  O   UNL     1      -6.269   2.903 -33.094  1.00  0.00    -0.246 OA
HETATM    4  N   UNL     1      -8.057   4.292 -32.609  1.00  0.00    -0.265 N 
HETATM    5  C   UNL     1      -8.794   5.063 -31.699  1.00  0.00     0.271 C 
HETATM    6  O   UNL     1      -9.915   5.510 -31.932  1.00  0.00    -0.266 OA
HETATM    7  C   UNL     1      -8.122   5.275 -30.447  1.00  0.00     0.100 A 
HETATM    8  C   UNL     1      -6.959   4.646 -30.096  1.00  0.00     0.062 A 
HETATM    9  S   UNL     1      -8.712   6.308 -29.234  1.00  0.00    -0.094 SA
HETATM   10  C   UNL     1      -7.383   5.944 -28.216  1.00  0.00     0.053 A 
HETATM   11  C   UNL     1      -6.522   5.037 -28.798  1.00  0.00     0.038 A 
ENDROOT
BRANCH   4  12
HETATM   12  C   UNL     1      -8.572   4.001 -33.960  1.00  0.00     0.146 C 
BRANCH  12  13
HETATM   13  C   UNL     1      -9.904   3.269 -34.101  1.00  0.00     0.123 C 
BRANCH  13  14
HETATM   14  C   UNL     1      -9.726   1.768 -34.097  1.00  0.00     0.219 C 
HETATM   15  N   UNL     1      -8.526   1.380 -34.645  1.00  0.00    -0.357 N 
HETATM   16  H   UNL     1      -7.917   2.077 -35.056  1.00  0.00     0.162 HD
HETATM   17  O   UNL     1     -10.555   0.988 -33.645  1.00  0.00    -0.274 OA
BRANCH  15  18
HETATM   18  C   UNL     1      -8.107  -0.000 -34.710  1.00  0.00     0.161 C 
BRANCH  18  19
HETATM   19  C   UNL     1      -6.991  -0.237 -33.725  1.00  0.00    -0.038 A 
HETATM   20  C   UNL     1      -5.669  -0.408 -34.164  1.00  0.00     0.048 A 
HETATM   21  C   UNL     1      -4.687  -0.575 -33.209  1.00  0.00     0.105 A 
HETATM   22  C   UNL     1      -4.971  -0.574 -31.865  1.00  0.00     0.105 A 
HETATM   23  O   UNL     1      -3.360  -0.747 -33.458  1.00  0.00    -0.323 OA
HETATM   24  O   UNL     1      -3.862  -0.744 -31.098  1.00  0.00    -0.323 OA
HETATM   25  C   UNL     1      -6.254  -0.409 -31.395  1.00  0.00     0.040 A 
HETATM   26  C   UNL     1      -2.844  -0.856 -32.115  1.00  0.00     0.352 A 
HETATM   27  C   UNL     1      -7.272  -0.238 -32.338  1.00  0.00     0.012 A 
ENDBRANCH  18  19
ENDBRANCH  15  18
ENDBRANCH  13  14
ENDBRANCH  12  13
ENDBRANCH   4  12
BRANCH   1  28
HETATM   28  C   UNL     1      -5.266   2.880 -30.592  1.00  0.00     0.237 C 
BRANCH  28  29
HETATM   29  C   UNL     1      -3.935   3.319 -31.190  1.00  0.00     0.240 C 
HETATM   30  N   UNL     1      -3.892   4.676 -31.468  1.00  0.00    -0.325 N 
HETATM   31  H   UNL     1      -4.461   5.255 -30.848  1.00  0.00     0.169 HD
HETATM   32  O   UNL     1      -3.012   2.522 -31.340  1.00  0.00    -0.271 OA
BRANCH  30  33
HETATM   33  C   UNL     1      -2.900   5.334 -32.228  1.00  0.00     0.042 A 
HETATM   34  C   UNL     1      -3.003   5.610 -33.606  1.00  0.00    -0.035 A 
HETATM   35  C   UNL     1      -4.216   5.303 -34.443  1.00  0.00     0.050 C 
HETATM   36  C   UNL     1      -1.933   6.261 -34.253  1.00  0.00     0.011 A 
HETATM   37  C   UNL     1      -0.810   6.680 -33.543  1.00  0.00     0.024 A 
HETATM   38  C   UNL     1      -0.746   6.456 -32.174  1.00  0.00     0.036 A 
HETATM   39  C   UNL     1      -1.785   5.801 -31.514  1.00  0.00     0.053 A 
HETATM   40 CL   UNL     1       0.631   6.989 -31.288  1.00  0.00    -0.084 Cl
ENDBRANCH  30  33
ENDBRANCH  28  29
ENDBRANCH   1  28
TORSDOF 8
ENDMDL
MODEL 9
REMARK VINA RESULT:      -9.2      2.745      4.474
REMARK  8 active torsions:
REMARK  status: ('A' for Active; 'I' for Inactive)
REMARK    1  A    between atoms: C_3  and  N_4 
REMARK       I    between atoms: N_4  and  C_5 
REMARK    2  A    between atoms: C_5  and  C_6 
REMARK    3  A    between atoms: C_6  and  N_7 
REMARK    4  A    between atoms: N_10  and  C_11 
REMARK    5  A    between atoms: C_11  and  C_12 
REMARK    6  A    between atoms: C_12  and  C_13 
REMARK       I    between atoms: C_13  and  N_14 
REMARK    7  A    between atoms: N_14  and  C_15 
REMARK    8  A    between atoms: C_15  and  C_16 
ROOT
HETATM    1  N   UNL     1      -9.823   2.308 -32.926  1.00  0.00    -0.289 N 
HETATM    2  C   UNL     1      -9.275   2.390 -31.645  1.00  0.00     0.332 C 
HETATM    3  O   UNL     1      -9.136   1.362 -30.971  1.00  0.00    -0.246 OA
HETATM    4  N   UNL     1      -8.896   3.656 -31.165  1.00  0.00    -0.265 N 
HETATM    5  C   UNL     1      -8.995   4.836 -31.916  1.00  0.00     0.271 C 
HETATM    6  O   UNL     1      -8.503   5.908 -31.572  1.00  0.00    -0.266 OA
HETATM    7  C   UNL     1      -9.716   4.677 -33.148  1.00  0.00     0.100 A 
HETATM    8  C   UNL     1     -10.119   3.465 -33.638  1.00  0.00     0.062 A 
HETATM    9  S   UNL     1     -10.127   5.975 -34.164  1.00  0.00    -0.094 SA
HETATM   10  C   UNL     1     -10.886   4.920 -35.280  1.00  0.00     0.053 A 
HETATM   11  C   UNL     1     -10.806   3.602 -34.879  1.00  0.00     0.038 A 
ENDROOT
BRANCH   4  12
HETATM   12  C   UNL     1      -8.221   3.636 -29.854  1.00  0.00     0.146 C 
BRANCH  12  13
HETATM   13  C   UNL     1      -6.700   3.526 -29.808  1.00  0.00     0.123 C 
BRANCH  13  14
HETATM   14  C   UNL     1      -6.045   4.862 -29.538  1.00  0.00     0.219 C 
HETATM   15  N   UNL     1      -5.610   5.476 -30.689  1.00  0.00    -0.357 N 
HETATM   16  H   UNL     1      -5.686   4.988 -31.573  1.00  0.00     0.162 HD
HETATM   17  O   UNL     1      -5.927   5.345 -28.419  1.00  0.00    -0.274 OA
BRANCH  15  18
HETATM   18  C   UNL     1      -4.997   6.783 -30.693  1.00  0.00     0.161 C 
BRANCH  18  19
HETATM   19  C   UNL     1      -3.828   6.791 -31.644  1.00  0.00    -0.038 A 
HETATM   20  C   UNL     1      -3.623   5.731 -32.541  1.00  0.00     0.048 A 
HETATM   21  C   UNL     1      -2.560   5.821 -33.417  1.00  0.00     0.105 A 
HETATM   22  C   UNL     1      -1.719   6.908 -33.431  1.00  0.00     0.105 A 
HETATM   23  O   UNL     1      -2.222   4.891 -34.351  1.00  0.00    -0.323 OA
HETATM   24  O   UNL     1      -0.746   6.800 -34.374  1.00  0.00    -0.323 OA
HETATM   25  C   UNL     1      -1.888   7.967 -32.568  1.00  0.00     0.040 A 
HETATM   26  C   UNL     1      -1.069   5.518 -34.952  1.00  0.00     0.352 A 
HETATM   27  C   UNL     1      -2.955   7.905 -31.667  1.00  0.00     0.012 A 
ENDBRANCH  18  19
ENDBRANCH  15  18
ENDBRANCH  13  14
ENDBRANCH  12  13
ENDBRANCH   4  12
BRANCH   1  28
HETATM   28  C   UNL     1     -10.024   0.975 -33.487  1.00  0.00     0.237 C 
BRANCH  28  29
HETATM   29  C   UNL     1      -8.761   0.401 -34.119  1.00  0.00     0.240 C 
HETATM   30  N   UNL     1      -8.246  -0.672 -33.410  1.00  0.00    -0.325 N 
HETATM   31  H   UNL     1      -8.944  -1.230 -32.915  1.00  0.00     0.169 HD
HETATM   32  O   UNL     1      -8.320   0.847 -35.175  1.00  0.00    -0.271 OA
BRANCH  30  33
HETATM   33  C   UNL     1      -6.978  -1.262 -33.608  1.00  0.00     0.042 A 
HETATM   34  C   UNL     1      -5.776  -0.772 -33.058  1.00  0.00    -0.035 A 
HETATM   35  C   UNL     1      -5.689   0.407 -32.127  1.00  0.00     0.050 C 
HETATM   36  C   UNL     1      -4.571  -1.445 -33.344  1.00  0.00     0.011 A 
HETATM   37  C   UNL     1      -4.561  -2.608 -34.111  1.00  0.00     0.024 A 
HETATM   38  C   UNL     1      -5.758  -3.115 -34.597  1.00  0.00     0.036 A 
HETATM   39  C   UNL     1      -6.962  -2.459 -34.340  1.00  0.00     0.053 A 
HETATM   40 CL   UNL     1      -5.754  -4.563 -35.529  1.00  0.00    -0.084 Cl
ENDBRANCH  30  33
ENDBRANCH  28  29
ENDBRANCH   1  28
TORSDOF 8
ENDMDL
MODEL 10
REMARK VINA RESULT:      -9.2      2.696      4.680
REMARK  8 active torsions:
REMARK  status: ('A' for Active; 'I' for Inactive)
REMARK    1  A    between atoms: C_3  and  N_4 
REMARK       I    between atoms: N_4  and  C_5 
REMARK    2  A    between atoms: C_5  and  C_6 
REMARK    3  A    between atoms: C_6  and  N_7 
REMARK    4  A    between atoms: N_10  and  C_11 
REMARK    5  A    between atoms: C_11  and  C_12 
REMARK    6  A    between atoms: C_12  and  C_13 
REMARK       I    between atoms: C_13  and  N_14 
REMARK    7  A    between atoms: N_14  and  C_15 
REMARK    8  A    between atoms: C_15  and  C_16 
ROOT
HETATM    1  N   UNL     1     -10.259   1.901 -33.138  1.00  0.00    -0.289 N 
HETATM    2  C   UNL     1      -9.707   2.293 -31.916  1.00  0.00     0.332 C 
HETATM    3  O   UNL     1      -9.138   1.457 -31.205  1.00  0.00    -0.246 OA
HETATM    4  N   UNL     1      -9.821   3.644 -31.541  1.00  0.00    -0.265 N 
HETATM    5  C   UNL     1     -10.417   4.628 -32.342  1.00  0.00     0.271 C 
HETATM    6  O   UNL     1     -10.360   5.832 -32.101  1.00  0.00    -0.266 OA
HETATM    7  C   UNL     1     -11.095   4.102 -33.494  1.00  0.00     0.100 A 
HETATM    8  C   UNL     1     -11.024   2.792 -33.880  1.00  0.00     0.062 A 
HETATM    9  S   UNL     1     -12.040   5.054 -34.536  1.00  0.00    -0.094 SA
HETATM   10  C   UNL     1     -12.397   3.699 -35.522  1.00  0.00     0.053 A 
HETATM   11  C   UNL     1     -11.786   2.551 -35.060  1.00  0.00     0.038 A 
ENDROOT
BRANCH   4  12
HETATM   12  C   UNL     1      -9.111   3.994 -30.296  1.00  0.00     0.146 C 
BRANCH  12  13
HETATM   13  C   UNL     1      -7.793   4.757 -30.388  1.00  0.00     0.123 C 
BRANCH  13  14
HETATM   14  C   UNL     1      -6.683   3.901 -30.952  1.00  0.00     0.219 C 
HETATM   15  N   UNL     1      -6.477   4.124 -32.293  1.00  0.00    -0.357 N 
HETATM   16  H   UNL     1      -7.094   4.752 -32.794  1.00  0.00     0.162 HD
HETATM   17  O   UNL     1      -6.033   3.106 -30.284  1.00  0.00    -0.274 OA
BRANCH  15  18
HETATM   18  C   UNL     1      -5.438   3.461 -33.045  1.00  0.00     0.161 C 
BRANCH  18  19
HETATM   19  C   UNL     1      -4.345   4.444 -33.377  1.00  0.00    -0.038 A 
HETATM   20  C   UNL     1      -3.511   4.959 -32.372  1.00  0.00     0.048 A 
HETATM   21  C   UNL     1      -2.501   5.820 -32.748  1.00  0.00     0.105 A 
HETATM   22  C   UNL     1      -2.296   6.173 -34.061  1.00  0.00     0.105 A 
HETATM   23  O   UNL     1      -1.603   6.403 -31.909  1.00  0.00    -0.323 OA
HETATM   24  O   UNL     1      -1.245   7.021 -34.213  1.00  0.00    -0.323 OA
HETATM   25  C   UNL     1      -3.092   5.688 -35.074  1.00  0.00     0.040 A 
HETATM   26  C   UNL     1      -0.812   7.166 -32.845  1.00  0.00     0.352 A 
HETATM   27  C   UNL     1      -4.125   4.814 -34.725  1.00  0.00     0.012 A 
ENDBRANCH  18  19
ENDBRANCH  15  18
ENDBRANCH  13  14
ENDBRANCH  12  13
ENDBRANCH   4  12
BRANCH   1  28
HETATM   28  C   UNL     1      -9.961   0.551 -33.606  1.00  0.00     0.237 C 
BRANCH  28  29
HETATM   29  C   UNL     1      -8.495   0.363 -33.981  1.00  0.00     0.240 C 
HETATM   30  N   UNL     1      -7.858  -0.587 -33.199  1.00  0.00    -0.325 N 
HETATM   31  H   UNL     1      -8.465  -1.338 -32.863  1.00  0.00     0.169 HD
HETATM   32  O   UNL     1      -7.996   0.978 -34.920  1.00  0.00    -0.271 OA
BRANCH  30  33
HETATM   33  C   UNL     1      -6.466  -0.817 -33.147  1.00  0.00     0.042 A 
HETATM   34  C   UNL     1      -5.798  -1.834 -33.859  1.00  0.00    -0.035 A 
HETATM   35  C   UNL     1      -6.469  -2.771 -34.828  1.00  0.00     0.050 C 
HETATM   36  C   UNL     1      -4.403  -1.968 -33.710  1.00  0.00     0.011 A 
HETATM   37  C   UNL     1      -3.676  -1.083 -32.917  1.00  0.00     0.024 A 
HETATM   38  C   UNL     1      -4.336  -0.048 -32.268  1.00  0.00     0.036 A 
HETATM   39  C   UNL     1      -5.718   0.097 -32.389  1.00  0.00     0.053 A 
HETATM   40 CL   UNL     1      -3.440   1.061 -31.303  1.00  0.00    -0.084 Cl
ENDBRANCH  30  33
ENDBRANCH  28  29
ENDBRANCH   1  28
TORSDOF 8
ENDMDL
