MODEL 1
REMARK VINA RESULT:      -9.1      0.000      0.000
REMARK  10 active torsions:
REMARK  status: ('A' for Active; 'I' for Inactive)
REMARK    1  A    between atoms: C_3  and  C_4 
REMARK       I    between atoms: C_4  and  N_5 
REMARK    2  A    between atoms: N_5  and  N_6 
REMARK    3  A    between atoms: N_6  and  C_7 
REMARK    4  A    between atoms: C_7  and  C_8 
REMARK    5  A    between atoms: C_8  and  O_9 
REMARK    6  A    between atoms: O_9  and  C_10 
REMARK    7  A    between atoms: C_22  and  O_23 
REMARK    8  A    between atoms: O_23  and  C_24 
REMARK    9  A    between atoms: C_24  and  C_25 
REMARK   10  A    between atoms: N_27  and  C_28 
ROOT
HETATM    1  C   UNL     1      -8.765   0.111 -33.201  1.00  0.00     0.001 A 
HETATM    2  C   UNL     1      -8.458   0.636 -31.946  1.00  0.00     0.020 A 
HETATM    3  C   UNL     1      -7.643   1.768 -31.859  1.00  0.00     0.067 A 
HETATM    4  C   UNL     1      -7.108   2.354 -33.011  1.00  0.00     0.085 A 
HETATM    5  C   UNL     1      -7.436   1.837 -34.264  1.00  0.00     0.038 A 
HETATM    6  C   UNL     1      -8.258   0.713 -34.356  1.00  0.00     0.003 A 
ENDROOT
BRANCH   3   7
HETATM    7  C   UNL     1      -7.297   2.321 -30.541  1.00  0.00     0.272 C 
HETATM    8  N   UNL     1      -6.099   1.974 -29.934  1.00  0.00    -0.264 N 
HETATM    9  H   UNL     1      -5.797   2.682 -29.263  1.00  0.00     0.190 HD
HETATM   10  O   UNL     1      -8.049   3.136 -30.019  1.00  0.00    -0.266 OA
BRANCH   8  11
HETATM   11  N   UNL     1      -5.181   1.150 -30.440  1.00  0.00    -0.285 N 
HETATM   12  H   UNL     1      -5.335   0.144 -30.342  1.00  0.00     0.188 HD
BRANCH  11  13
HETATM   13  C   UNL     1      -4.138   1.515 -31.193  1.00  0.00     0.114 C 
HETATM   14  N   UNL     1      -3.364   2.565 -30.978  1.00  0.00    -0.386 N 
HETATM   15  H   UNL     1      -2.580   2.741 -31.602  1.00  0.00     0.157 HD
HETATM   16  H   UNL     1      -3.487   3.202 -30.196  1.00  0.00     0.157 HD
BRANCH  13  17
HETATM   17  C   UNL     1      -3.851   0.696 -32.424  1.00  0.00     0.253 C 
BRANCH  17  18
HETATM   18  O   UNL     1      -3.505  -0.641 -32.023  1.00  0.00    -0.342 OA
BRANCH  18  19
HETATM   19  C   UNL     1      -4.136  -1.558 -32.824  1.00  0.00     0.091 A 
HETATM   20  C   UNL     1      -3.781  -2.915 -32.812  1.00  0.00     0.069 A 
HETATM   21 CL   UNL     1      -2.558  -3.503 -31.745  1.00  0.00    -0.081 Cl
HETATM   22  C   UNL     1      -4.419  -3.811 -33.668  1.00  0.00     0.050 A 
HETATM   23  C   UNL     1      -5.395  -3.343 -34.547  1.00  0.00     0.035 A 
HETATM   24 CL   UNL     1      -6.188  -4.441 -35.606  1.00  0.00    -0.084 Cl
HETATM   25  C   UNL     1      -5.731  -1.987 -34.582  1.00  0.00     0.026 A 
HETATM   26  C   UNL     1      -5.094  -1.090 -33.724  1.00  0.00     0.040 A 
ENDBRANCH  18  19
ENDBRANCH  17  18
ENDBRANCH  13  17
ENDBRANCH  11  13
ENDBRANCH   8  11
ENDBRANCH   3   7
BRANCH   4  27
HETATM   27  O   UNL     1      -6.407   3.525 -32.888  1.00  0.00    -0.343 OA
BRANCH  27  28
HETATM   28  C   UNL     1      -5.818   3.944 -34.143  1.00  0.00     0.258 C 
BRANCH  28  29
HETATM   29  C   UNL     1      -4.542   4.706 -33.958  1.00  0.00     0.172 A 
HETATM   30  N   UNL     1      -3.881   4.775 -32.791  1.00  0.00    -0.147 NA
HETATM   31  N   UNL     1      -2.846   5.606 -33.101  1.00  0.00    -0.207 N 
HETATM   32  C   UNL     1      -2.925   5.968 -34.421  1.00  0.00     0.239 A 
HETATM   33  N   UNL     1      -3.977   5.416 -34.983  1.00  0.00    -0.223 NA
BRANCH  31  34
HETATM   34  C   UNL     1      -1.857   6.012 -32.167  1.00  0.00     0.153 A 
HETATM   35  N   UNL     1      -2.124   7.092 -31.391  1.00  0.00    -0.217 NA
HETATM   36  C   UNL     1      -1.172   7.453 -30.506  1.00  0.00     0.128 A 
HETATM   37 CL   UNL     1      -1.570   8.820 -29.554  1.00  0.00    -0.062 Cl
HETATM   38  C   UNL     1       0.039   6.805 -30.349  1.00  0.00     0.044 A 
HETATM   39  C   UNL     1       0.296   5.701 -31.157  1.00  0.00     0.007 A 
HETATM   40  C   UNL     1      -0.664   5.293 -32.082  1.00  0.00     0.052 A 
ENDBRANCH  31  34
ENDBRANCH  28  29
ENDBRANCH  27  28
ENDBRANCH   4  27
TORSDOF 10
ENDMDL
MODEL 2
REMARK VINA RESULT:      -9.1      3.537     10.311
REMARK  10 active torsions:
REMARK  status: ('A' for Active; 'I' for Inactive)
REMARK    1  A    between atoms: C_3  and  C_4 
REMARK       I    between atoms: C_4  and  N_5 
REMARK    2  A    between atoms: N_5  and  N_6 
REMARK    3  A    between atoms: N_6  and  C_7 
REMARK    4  A    between atoms: C_7  and  C_8 
REMARK    5  A    between atoms: C_8  and  O_9 
REMARK    6  A    between atoms: O_9  and  C_10 
REMARK    7  A    between atoms: C_22  and  O_23 
REMARK    8  A    between atoms: O_23  and  C_24 
REMARK    9  A    between atoms: C_24  and  C_25 
REMARK   10  A    between atoms: N_27  and  C_28 
ROOT
HETATM    1  C   UNL     1      -1.683   6.446 -34.202  1.00  0.00     0.001 A 
HETATM    2  C   UNL     1      -0.873   6.392 -33.068  1.00  0.00     0.020 A 
HETATM    3  C   UNL     1      -1.101   5.397 -32.112  1.00  0.00     0.067 A 
HETATM    4  C   UNL     1      -2.149   4.484 -32.267  1.00  0.00     0.085 A 
HETATM    5  C   UNL     1      -2.942   4.530 -33.413  1.00  0.00     0.038 A 
HETATM    6  C   UNL     1      -2.711   5.515 -34.375  1.00  0.00     0.003 A 
ENDROOT
BRANCH   3   7
HETATM    7  C   UNL     1      -0.265   5.339 -30.903  1.00  0.00     0.272 C 
HETATM    8  N   UNL     1      -0.784   5.737 -29.680  1.00  0.00    -0.264 N 
HETATM    9  H   UNL     1      -0.290   5.299 -28.900  1.00  0.00     0.190 HD
HETATM   10  O   UNL     1       0.868   4.879 -30.982  1.00  0.00    -0.266 OA
BRANCH   8  11
HETATM   11  N   UNL     1      -2.021   6.189 -29.469  1.00  0.00    -0.285 N 
HETATM   12  H   UNL     1      -2.737   5.513 -29.194  1.00  0.00     0.188 HD
BRANCH  11  13
HETATM   13  C   UNL     1      -2.386   7.476 -29.445  1.00  0.00     0.114 C 
HETATM   14  N   UNL     1      -3.245   8.046 -30.272  1.00  0.00    -0.386 N 
HETATM   15  H   UNL     1      -3.472   9.031 -30.152  1.00  0.00     0.157 HD
HETATM   16  H   UNL     1      -3.727   7.547 -31.014  1.00  0.00     0.157 HD
BRANCH  13  17
HETATM   17  C   UNL     1      -1.723   8.366 -28.427  1.00  0.00     0.253 C 
BRANCH  17  18
HETATM   18  O   UNL     1      -1.576   7.636 -27.196  1.00  0.00    -0.342 OA
BRANCH  18  19
HETATM   19  C   UNL     1      -0.447   8.044 -26.532  1.00  0.00     0.091 A 
HETATM   20  C   UNL     1      -0.497   9.018 -25.524  1.00  0.00     0.069 A 
HETATM   21 CL   UNL     1      -1.999   9.718 -25.040  1.00  0.00    -0.081 Cl
HETATM   22  C   UNL     1       0.676   9.434 -24.897  1.00  0.00     0.050 A 
HETATM   23  C   UNL     1       1.896   8.889 -25.294  1.00  0.00     0.035 A 
HETATM   24 CL   UNL     1       3.349   9.395 -24.526  1.00  0.00    -0.084 Cl
HETATM   25  C   UNL     1       1.953   7.939 -26.317  1.00  0.00     0.026 A 
HETATM   26  C   UNL     1       0.779   7.520 -26.944  1.00  0.00     0.040 A 
ENDBRANCH  18  19
ENDBRANCH  17  18
ENDBRANCH  13  17
ENDBRANCH  11  13
ENDBRANCH   8  11
ENDBRANCH   3   7
BRANCH   4  27
HETATM   27  O   UNL     1      -2.266   3.459 -31.365  1.00  0.00    -0.343 OA
BRANCH  27  28
HETATM   28  C   UNL     1      -3.594   2.879 -31.364  1.00  0.00     0.258 C 
BRANCH  28  29
HETATM   29  C   UNL     1      -3.592   1.428 -31.733  1.00  0.00     0.172 A 
HETATM   30  N   UNL     1      -4.407   0.896 -32.659  1.00  0.00    -0.147 NA
HETATM   31  N   UNL     1      -4.080  -0.427 -32.596  1.00  0.00    -0.207 N 
HETATM   32  C   UNL     1      -3.087  -0.612 -31.668  1.00  0.00     0.239 A 
HETATM   33  N   UNL     1      -2.761   0.533 -31.114  1.00  0.00    -0.223 NA
BRANCH  31  34
HETATM   34  C   UNL     1      -4.700  -1.428 -33.388  1.00  0.00     0.153 A 
HETATM   35  N   UNL     1      -4.121  -2.655 -33.427  1.00  0.00    -0.217 NA
HETATM   36  C   UNL     1      -4.733  -3.591 -34.179  1.00  0.00     0.128 A 
HETATM   37 CL   UNL     1      -3.957  -5.118 -34.184  1.00  0.00    -0.062 Cl
HETATM   38  C   UNL     1      -5.891  -3.379 -34.906  1.00  0.00     0.044 A 
HETATM   39  C   UNL     1      -6.468  -2.114 -34.856  1.00  0.00     0.007 A 
HETATM   40  C   UNL     1      -5.868  -1.119 -34.086  1.00  0.00     0.052 A 
ENDBRANCH  31  34
ENDBRANCH  28  29
ENDBRANCH  27  28
ENDBRANCH   4  27
TORSDOF 10
ENDMDL
MODEL 3
REMARK VINA RESULT:      -9.0      2.584      8.996
REMARK  10 active torsions:
REMARK  status: ('A' for Active; 'I' for Inactive)
REMARK    1  A    between atoms: C_3  and  C_4 
REMARK       I    between atoms: C_4  and  N_5 
REMARK    2  A    between atoms: N_5  and  N_6 
REMARK    3  A    between atoms: N_6  and  C_7 
REMARK    4  A    between atoms: C_7  and  C_8 
REMARK    5  A    between atoms: C_8  and  O_9 
REMARK    6  A    between atoms: O_9  and  C_10 
REMARK    7  A    between atoms: C_22  and  O_23 
REMARK    8  A    between atoms: O_23  and  C_24 
REMARK    9  A    between atoms: C_24  and  C_25 
REMARK   10  A    between atoms: N_27  and  C_28 
ROOT
HETATM    1  C   UNL     1      -2.457   5.127 -34.780  1.00  0.00     0.001 A 
HETATM    2  C   UNL     1      -2.345   4.571 -33.505  1.00  0.00     0.020 A 
HETATM    3  C   UNL     1      -3.494   4.104 -32.860  1.00  0.00     0.067 A 
HETATM    4  C   UNL     1      -4.750   4.221 -33.463  1.00  0.00     0.085 A 
HETATM    5  C   UNL     1      -4.853   4.759 -34.746  1.00  0.00     0.038 A 
HETATM    6  C   UNL     1      -3.707   5.217 -35.398  1.00  0.00     0.003 A 
ENDROOT
BRANCH   3   7
HETATM    7  C   UNL     1      -3.391   3.532 -31.509  1.00  0.00     0.272 C 
HETATM    8  N   UNL     1      -4.032   4.147 -30.443  1.00  0.00    -0.264 N 
HETATM    9  H   UNL     1      -4.221   3.487 -29.686  1.00  0.00     0.190 HD
HETATM   10  O   UNL     1      -2.788   2.476 -31.351  1.00  0.00    -0.266 OA
BRANCH   8  11
HETATM   11  N   UNL     1      -4.766   5.257 -30.512  1.00  0.00    -0.285 N 
HETATM   12  H   UNL     1      -5.577   5.255 -31.136  1.00  0.00     0.188 HD
BRANCH  11  13
HETATM   13  C   UNL     1      -4.627   6.333 -29.731  1.00  0.00     0.114 C 
HETATM   14  N   UNL     1      -5.190   6.501 -28.547  1.00  0.00    -0.386 N 
HETATM   15  H   UNL     1      -5.000   7.352 -28.022  1.00  0.00     0.157 HD
HETATM   16  H   UNL     1      -5.788   5.809 -28.106  1.00  0.00     0.157 HD
BRANCH  13  17
HETATM   17  C   UNL     1      -3.804   7.477 -30.266  1.00  0.00     0.253 C 
BRANCH  17  18
HETATM   18  O   UNL     1      -2.560   6.959 -30.770  1.00  0.00    -0.342 OA
BRANCH  18  19
HETATM   19  C   UNL     1      -1.522   7.337 -29.957  1.00  0.00     0.091 A 
HETATM   20  C   UNL     1      -0.380   6.539 -29.801  1.00  0.00     0.069 A 
HETATM   21 CL   UNL     1      -0.209   5.056 -30.668  1.00  0.00    -0.081 Cl
HETATM   22  C   UNL     1       0.639   6.939 -28.938  1.00  0.00     0.050 A 
HETATM   23  C   UNL     1       0.501   8.125 -28.219  1.00  0.00     0.035 A 
HETATM   24 CL   UNL     1       1.753   8.627 -27.152  1.00  0.00    -0.084 Cl
HETATM   25  C   UNL     1      -0.648   8.909 -28.350  1.00  0.00     0.026 A 
HETATM   26  C   UNL     1      -1.667   8.511 -29.215  1.00  0.00     0.040 A 
ENDBRANCH  18  19
ENDBRANCH  17  18
ENDBRANCH  13  17
ENDBRANCH  11  13
ENDBRANCH   8  11
ENDBRANCH   3   7
BRANCH   4  27
HETATM   27  O   UNL     1      -5.832   3.651 -32.844  1.00  0.00    -0.343 OA
BRANCH  27  28
HETATM   28  C   UNL     1      -6.497   2.681 -33.689  1.00  0.00     0.258 C 
BRANCH  28  29
HETATM   29  C   UNL     1      -6.104   1.271 -33.372  1.00  0.00     0.172 A 
HETATM   30  N   UNL     1      -6.211   0.256 -34.246  1.00  0.00    -0.147 NA
HETATM   31  N   UNL     1      -5.798  -0.805 -33.496  1.00  0.00    -0.207 N 
HETATM   32  C   UNL     1      -5.451  -0.376 -32.241  1.00  0.00     0.239 A 
HETATM   33  N   UNL     1      -5.631   0.921 -32.136  1.00  0.00    -0.223 NA
BRANCH  31  34
HETATM   34  C   UNL     1      -5.753  -2.139 -33.980  1.00  0.00     0.153 A 
HETATM   35  N   UNL     1      -4.612  -2.847 -33.783  1.00  0.00    -0.217 NA
HETATM   36  C   UNL     1      -4.596  -4.113 -34.245  1.00  0.00     0.128 A 
HETATM   37 CL   UNL     1      -3.132  -4.955 -33.961  1.00  0.00    -0.062 Cl
HETATM   38  C   UNL     1      -5.651  -4.722 -34.901  1.00  0.00     0.044 A 
HETATM   39  C   UNL     1      -6.811  -3.978 -35.097  1.00  0.00     0.007 A 
HETATM   40  C   UNL     1      -6.869  -2.666 -34.631  1.00  0.00     0.052 A 
ENDBRANCH  31  34
ENDBRANCH  28  29
ENDBRANCH  27  28
ENDBRANCH   4  27
TORSDOF 10
ENDMDL
MODEL 4
REMARK VINA RESULT:      -9.0      3.166      6.940
REMARK  10 active torsions:
REMARK  status: ('A' for Active; 'I' for Inactive)
REMARK    1  A    between atoms: C_3  and  C_4 
REMARK       I    between atoms: C_4  and  N_5 
REMARK    2  A    between atoms: N_5  and  N_6 
REMARK    3  A    between atoms: N_6  and  C_7 
REMARK    4  A    between atoms: C_7  and  C_8 
REMARK    5  A    between atoms: C_8  and  O_9 
REMARK    6  A    between atoms: O_9  and  C_10 
REMARK    7  A    between atoms: C_22  and  O_23 
REMARK    8  A    between atoms: O_23  and  C_24 
REMARK    9  A    between atoms: C_24  and  C_25 
REMARK   10  A    between atoms: N_27  and  C_28 
ROOT
HETATM    1  C   UNL     1      -1.471   4.853 -32.765  1.00  0.00     0.001 A 
HETATM    2  C   UNL     1      -2.278   4.799 -31.629  1.00  0.00     0.020 A 
HETATM    3  C   UNL     1      -3.667   4.868 -31.774  1.00  0.00     0.067 A 
HETATM    4  C   UNL     1      -4.247   5.025 -33.036  1.00  0.00     0.085 A 
HETATM    5  C   UNL     1      -3.436   5.058 -34.170  1.00  0.00     0.038 A 
HETATM    6  C   UNL     1      -2.049   4.978 -34.031  1.00  0.00     0.003 A 
ENDROOT
BRANCH   3   7
HETATM    7  C   UNL     1      -4.529   4.829 -30.582  1.00  0.00     0.272 C 
HETATM    8  N   UNL     1      -5.045   3.622 -30.137  1.00  0.00    -0.264 N 
HETATM    9  H   UNL     1      -5.273   3.653 -29.141  1.00  0.00     0.190 HD
HETATM   10  O   UNL     1      -4.731   5.865 -29.957  1.00  0.00    -0.266 OA
BRANCH   8  11
HETATM   11  N   UNL     1      -4.837   2.432 -30.699  1.00  0.00    -0.285 N 
HETATM   12  H   UNL     1      -4.015   2.323 -31.298  1.00  0.00     0.188 HD
BRANCH  11  13
HETATM   13  C   UNL     1      -5.528   1.316 -30.441  1.00  0.00     0.114 C 
HETATM   14  N   UNL     1      -6.498   1.202 -29.550  1.00  0.00    -0.386 N 
HETATM   15  H   UNL     1      -6.976   0.309 -29.447  1.00  0.00     0.157 HD
HETATM   16  H   UNL     1      -6.822   1.971 -28.972  1.00  0.00     0.157 HD
BRANCH  13  17
HETATM   17  C   UNL     1      -5.133   0.067 -31.186  1.00  0.00     0.253 C 
BRANCH  17  18
HETATM   18  O   UNL     1      -5.109   0.355 -32.595  1.00  0.00    -0.342 OA
BRANCH  18  19
HETATM   19  C   UNL     1      -5.379  -0.779 -33.318  1.00  0.00     0.091 A 
HETATM   20  C   UNL     1      -6.693  -1.176 -33.604  1.00  0.00     0.069 A 
HETATM   21 CL   UNL     1      -8.039  -0.221 -33.096  1.00  0.00    -0.081 Cl
HETATM   22  C   UNL     1      -6.929  -2.354 -34.310  1.00  0.00     0.050 A 
HETATM   23  C   UNL     1      -5.850  -3.142 -34.708  1.00  0.00     0.035 A 
HETATM   24 CL   UNL     1      -6.131  -4.598 -35.579  1.00  0.00    -0.084 Cl
HETATM   25  C   UNL     1      -4.540  -2.766 -34.399  1.00  0.00     0.026 A 
HETATM   26  C   UNL     1      -4.303  -1.585 -33.695  1.00  0.00     0.040 A 
ENDBRANCH  18  19
ENDBRANCH  17  18
ENDBRANCH  13  17
ENDBRANCH  11  13
ENDBRANCH   8  11
ENDBRANCH   3   7
BRANCH   4  27
HETATM   27  O   UNL     1      -5.613   4.976 -33.143  1.00  0.00    -0.343 OA
BRANCH  27  28
HETATM   28  C   UNL     1      -6.070   3.746 -33.757  1.00  0.00     0.258 C 
BRANCH  28  29
HETATM   29  C   UNL     1      -7.451   3.362 -33.324  1.00  0.00     0.172 A 
HETATM   30  N   UNL     1      -8.449   3.089 -34.181  1.00  0.00    -0.147 NA
HETATM   31  N   UNL     1      -9.492   2.858 -33.335  1.00  0.00    -0.207 N 
HETATM   32  C   UNL     1      -9.069   2.980 -32.036  1.00  0.00     0.239 A 
HETATM   33  N   UNL     1      -7.793   3.293 -32.000  1.00  0.00    -0.223 NA
BRANCH  31  34
HETATM   34  C   UNL     1     -10.805   2.544 -33.774  1.00  0.00     0.153 A 
HETATM   35  N   UNL     1     -11.287   1.306 -33.496  1.00  0.00    -0.217 NA
HETATM   36  C   UNL     1     -12.539   1.035 -33.916  1.00  0.00     0.128 A 
HETATM   37 CL   UNL     1     -13.092  -0.541 -33.532  1.00  0.00    -0.062 Cl
HETATM   38  C   UNL     1     -13.345   1.923 -34.606  1.00  0.00     0.044 A 
HETATM   39  C   UNL     1     -12.832   3.186 -34.884  1.00  0.00     0.007 A 
HETATM   40  C   UNL     1     -11.542   3.507 -34.463  1.00  0.00     0.052 A 
ENDBRANCH  31  34
ENDBRANCH  28  29
ENDBRANCH  27  28
ENDBRANCH   4  27
TORSDOF 10
ENDMDL
MODEL 5
REMARK VINA RESULT:      -8.9      2.688      8.735
REMARK  10 active torsions:
REMARK  status: ('A' for Active; 'I' for Inactive)
REMARK    1  A    between atoms: C_3  and  C_4 
REMARK       I    between atoms: C_4  and  N_5 
REMARK    2  A    between atoms: N_5  and  N_6 
REMARK    3  A    between atoms: N_6  and  C_7 
REMARK    4  A    between atoms: C_7  and  C_8 
REMARK    5  A    between atoms: C_8  and  O_9 
REMARK    6  A    between atoms: O_9  and  C_10 
REMARK    7  A    between atoms: C_22  and  O_23 
REMARK    8  A    between atoms: O_23  and  C_24 
REMARK    9  A    between atoms: C_24  and  C_25 
REMARK   10  A    between atoms: N_27  and  C_28 
ROOT
HETATM    1  C   UNL     1      -0.690   7.201 -31.677  1.00  0.00     0.001 A 
HETATM    2  C   UNL     1      -1.006   6.916 -33.005  1.00  0.00     0.020 A 
HETATM    3  C   UNL     1      -1.668   5.723 -33.310  1.00  0.00     0.067 A 
HETATM    4  C   UNL     1      -1.982   4.803 -32.304  1.00  0.00     0.085 A 
HETATM    5  C   UNL     1      -1.682   5.103 -30.976  1.00  0.00     0.038 A 
HETATM    6  C   UNL     1      -1.031   6.298 -30.666  1.00  0.00     0.003 A 
ENDROOT
BRANCH   3   7
HETATM    7  C   UNL     1      -1.991   5.402 -34.709  1.00  0.00     0.272 C 
HETATM    8  N   UNL     1      -3.309   5.426 -35.140  1.00  0.00    -0.264 N 
HETATM    9  H   UNL     1      -3.373   5.580 -36.148  1.00  0.00     0.190 HD
HETATM   10  O   UNL     1      -1.079   5.178 -35.496  1.00  0.00    -0.266 OA
BRANCH   8  11
HETATM   11  N   UNL     1      -4.369   5.720 -34.388  1.00  0.00    -0.285 N 
HETATM   12  H   UNL     1      -4.508   6.697 -34.119  1.00  0.00     0.188 HD
BRANCH  11  13
HETATM   13  C   UNL     1      -5.355   4.875 -34.066  1.00  0.00     0.114 C 
HETATM   14  N   UNL     1      -5.413   3.598 -34.403  1.00  0.00    -0.386 N 
HETATM   15  H   UNL     1      -6.200   3.036 -34.086  1.00  0.00     0.157 HD
HETATM   16  H   UNL     1      -4.694   3.127 -34.943  1.00  0.00     0.157 HD
BRANCH  13  17
HETATM   17  C   UNL     1      -6.526   5.435 -33.302  1.00  0.00     0.253 C 
BRANCH  17  18
HETATM   18  O   UNL     1      -6.124   6.660 -32.665  1.00  0.00    -0.342 OA
BRANCH  18  19
HETATM   19  C   UNL     1      -5.900   6.452 -31.328  1.00  0.00     0.091 A 
HETATM   20  C   UNL     1      -4.924   7.171 -30.623  1.00  0.00     0.069 A 
HETATM   21 CL   UNL     1      -3.986   8.392 -31.403  1.00  0.00    -0.081 Cl
HETATM   22  C   UNL     1      -4.700   6.906 -29.273  1.00  0.00     0.050 A 
HETATM   23  C   UNL     1      -5.440   5.909 -28.639  1.00  0.00     0.035 A 
HETATM   24 CL   UNL     1      -5.171   5.575 -26.974  1.00  0.00    -0.084 Cl
HETATM   25  C   UNL     1      -6.393   5.171 -29.345  1.00  0.00     0.026 A 
HETATM   26  C   UNL     1      -6.620   5.437 -30.696  1.00  0.00     0.040 A 
ENDBRANCH  18  19
ENDBRANCH  17  18
ENDBRANCH  13  17
ENDBRANCH  11  13
ENDBRANCH   8  11
ENDBRANCH   3   7
BRANCH   4  27
HETATM   27  O   UNL     1      -2.728   3.701 -32.631  1.00  0.00    -0.343 OA
BRANCH  27  28
HETATM   28  C   UNL     1      -3.170   2.972 -31.460  1.00  0.00     0.258 C 
BRANCH  28  29
HETATM   29  C   UNL     1      -3.389   1.516 -31.732  1.00  0.00     0.172 A 
HETATM   30  N   UNL     1      -4.198   1.055 -32.700  1.00  0.00    -0.147 NA
HETATM   31  N   UNL     1      -4.114  -0.294 -32.519  1.00  0.00    -0.207 N 
HETATM   32  C   UNL     1      -3.257  -0.567 -31.485  1.00  0.00     0.239 A 
HETATM   33  N   UNL     1      -2.786   0.548 -30.975  1.00  0.00    -0.223 NA
BRANCH  31  34
HETATM   34  C   UNL     1      -4.826  -1.238 -33.305  1.00  0.00     0.153 A 
HETATM   35  N   UNL     1      -4.297  -2.481 -33.436  1.00  0.00    -0.217 NA
HETATM   36  C   UNL     1      -4.996  -3.362 -34.180  1.00  0.00     0.128 A 
HETATM   37 CL   UNL     1      -4.279  -4.913 -34.304  1.00  0.00    -0.062 Cl
HETATM   38  C   UNL     1      -6.194  -3.079 -34.811  1.00  0.00     0.044 A 
HETATM   39  C   UNL     1      -6.718  -1.798 -34.668  1.00  0.00     0.007 A 
HETATM   40  C   UNL     1      -6.028  -0.859 -33.903  1.00  0.00     0.052 A 
ENDBRANCH  31  34
ENDBRANCH  28  29
ENDBRANCH  27  28
ENDBRANCH   4  27
TORSDOF 10
ENDMDL
MODEL 6
REMARK VINA RESULT:      -8.9      2.909      4.207
REMARK  10 active torsions:
REMARK  status: ('A' for Active; 'I' for Inactive)
REMARK    1  A    between atoms: C_3  and  C_4 
REMARK       I    between atoms: C_4  and  N_5 
REMARK    2  A    between atoms: N_5  and  N_6 
REMARK    3  A    between atoms: N_6  and  C_7 
REMARK    4  A    between atoms: C_7  and  C_8 
REMARK    5  A    between atoms: C_8  and  O_9 
REMARK    6  A    between atoms: O_9  and  C_10 
REMARK    7  A    between atoms: C_22  and  O_23 
REMARK    8  A    between atoms: O_23  and  C_24 
REMARK    9  A    between atoms: C_24  and  C_25 
REMARK   10  A    between atoms: N_27  and  C_28 
ROOT
HETATM    1  C   UNL     1     -13.112   2.167 -34.242  1.00  0.00     0.001 A 
HETATM    2  C   UNL     1     -12.210   1.323 -33.593  1.00  0.00     0.020 A 
HETATM    3  C   UNL     1     -10.867   1.699 -33.501  1.00  0.00     0.067 A 
HETATM    4  C   UNL     1     -10.416   2.889 -34.081  1.00  0.00     0.085 A 
HETATM    5  C   UNL     1     -11.326   3.738 -34.710  1.00  0.00     0.038 A 
HETATM    6  C   UNL     1     -12.670   3.372 -34.795  1.00  0.00     0.003 A 
ENDROOT
BRANCH   3   7
HETATM    7  C   UNL     1      -9.903   0.810 -32.834  1.00  0.00     0.272 C 
HETATM    8  N   UNL     1      -9.367   1.163 -31.605  1.00  0.00    -0.264 N 
HETATM    9  H   UNL     1      -9.052   0.343 -31.082  1.00  0.00     0.190 HD
HETATM   10  O   UNL     1      -9.631  -0.269 -33.349  1.00  0.00    -0.266 OA
BRANCH   8  11
HETATM   11  N   UNL     1      -9.643   2.277 -30.927  1.00  0.00    -0.285 N 
HETATM   12  H   UNL     1     -10.608   2.423 -30.620  1.00  0.00     0.188 HD
BRANCH  11  13
HETATM   13  C   UNL     1      -8.743   3.160 -30.481  1.00  0.00     0.114 C 
HETATM   14  N   UNL     1      -8.997   4.414 -30.149  1.00  0.00    -0.386 N 
HETATM   15  H   UNL     1      -8.242   4.999 -29.798  1.00  0.00     0.157 HD
HETATM   16  H   UNL     1      -9.923   4.830 -30.193  1.00  0.00     0.157 HD
BRANCH  13  17
HETATM   17  C   UNL     1      -7.308   2.710 -30.403  1.00  0.00     0.253 C 
BRANCH  17  18
HETATM   18  O   UNL     1      -6.775   2.621 -31.736  1.00  0.00    -0.342 OA
BRANCH  18  19
HETATM   19  C   UNL     1      -5.873   1.592 -31.821  1.00  0.00     0.091 A 
HETATM   20  C   UNL     1      -5.715   0.846 -32.998  1.00  0.00     0.069 A 
HETATM   21 CL   UNL     1      -6.624   1.224 -34.417  1.00  0.00    -0.081 Cl
HETATM   22  C   UNL     1      -4.814  -0.217 -33.036  1.00  0.00     0.050 A 
HETATM   23  C   UNL     1      -4.090  -0.542 -31.890  1.00  0.00     0.035 A 
HETATM   24 CL   UNL     1      -2.976  -1.852 -31.927  1.00  0.00    -0.084 Cl
HETATM   25  C   UNL     1      -4.265   0.180 -30.707  1.00  0.00     0.026 A 
HETATM   26  C   UNL     1      -5.165   1.246 -30.669  1.00  0.00     0.040 A 
ENDBRANCH  18  19
ENDBRANCH  17  18
ENDBRANCH  13  17
ENDBRANCH  11  13
ENDBRANCH   8  11
ENDBRANCH   3   7
BRANCH   4  27
HETATM   27  O   UNL     1      -9.117   3.272 -33.871  1.00  0.00    -0.343 OA
BRANCH  27  28
HETATM   28  C   UNL     1      -8.922   4.690 -34.092  1.00  0.00     0.258 C 
BRANCH  28  29
HETATM   29  C   UNL     1      -7.588   5.172 -33.614  1.00  0.00     0.172 A 
HETATM   30  N   UNL     1      -6.422   4.806 -34.172  1.00  0.00    -0.147 NA
HETATM   31  N   UNL     1      -5.516   5.439 -33.374  1.00  0.00    -0.207 N 
HETATM   32  C   UNL     1      -6.174   6.157 -32.409  1.00  0.00     0.239 A 
HETATM   33  N   UNL     1      -7.473   6.010 -32.537  1.00  0.00    -0.223 NA
BRANCH  31  34
HETATM   34  C   UNL     1      -4.110   5.341 -33.549  1.00  0.00     0.153 A 
HETATM   35  N   UNL     1      -3.337   5.259 -32.437  1.00  0.00    -0.217 NA
HETATM   36  C   UNL     1      -2.007   5.158 -32.630  1.00  0.00     0.128 A 
HETATM   37 CL   UNL     1      -1.086   5.054 -31.189  1.00  0.00    -0.062 Cl
HETATM   38  C   UNL     1      -1.393   5.139 -33.869  1.00  0.00     0.044 A 
HETATM   39  C   UNL     1      -2.202   5.227 -34.997  1.00  0.00     0.007 A 
HETATM   40  C   UNL     1      -3.584   5.329 -34.841  1.00  0.00     0.052 A 
ENDBRANCH  31  34
ENDBRANCH  28  29
ENDBRANCH  27  28
ENDBRANCH   4  27
TORSDOF 10
ENDMDL
MODEL 7
REMARK VINA RESULT:      -8.8      2.033      2.837
REMARK  10 active torsions:
REMARK  status: ('A' for Active; 'I' for Inactive)
REMARK    1  A    between atoms: C_3  and  C_4 
REMARK       I    between atoms: C_4  and  N_5 
REMARK    2  A    between atoms: N_5  and  N_6 
REMARK    3  A    between atoms: N_6  and  C_7 
REMARK    4  A    between atoms: C_7  and  C_8 
REMARK    5  A    between atoms: C_8  and  O_9 
REMARK    6  A    between atoms: O_9  and  C_10 
REMARK    7  A    between atoms: C_22  and  O_23 
REMARK    8  A    between atoms: O_23  and  C_24 
REMARK    9  A    between atoms: C_24  and  C_25 
REMARK   10  A    between atoms: N_27  and  C_28 
ROOT
HETATM    1  C   UNL     1      -9.924   0.111 -32.601  1.00  0.00     0.001 A 
HETATM    2  C   UNL     1      -9.283   0.860 -31.615  1.00  0.00     0.020 A 
HETATM    3  C   UNL     1      -9.186   2.247 -31.764  1.00  0.00     0.067 A 
HETATM    4  C   UNL     1      -9.692   2.880 -32.904  1.00  0.00     0.085 A 
HETATM    5  C   UNL     1     -10.350   2.128 -33.877  1.00  0.00     0.038 A 
HETATM    6  C   UNL     1     -10.459   0.745 -33.726  1.00  0.00     0.003 A 
ENDROOT
BRANCH   3   7
HETATM    7  C   UNL     1      -8.497   3.046 -30.739  1.00  0.00     0.272 C 
HETATM    8  N   UNL     1      -7.119   3.193 -30.783  1.00  0.00    -0.264 N 
HETATM    9  H   UNL     1      -6.814   4.041 -30.302  1.00  0.00     0.190 HD
HETATM   10  O   UNL     1      -9.161   3.627 -29.889  1.00  0.00    -0.266 OA
BRANCH   8  11
HETATM   11  N   UNL     1      -6.308   2.661 -31.698  1.00  0.00    -0.285 N 
HETATM   12  H   UNL     1      -6.672   2.540 -32.646  1.00  0.00     0.188 HD
BRANCH  11  13
HETATM   13  C   UNL     1      -5.007   2.399 -31.529  1.00  0.00     0.114 C 
HETATM   14  N   UNL     1      -4.153   3.153 -30.859  1.00  0.00    -0.386 N 
HETATM   15  H   UNL     1      -3.185   2.850 -30.771  1.00  0.00     0.157 HD
HETATM   16  H   UNL     1      -4.412   4.017 -30.392  1.00  0.00     0.157 HD
BRANCH  13  17
HETATM   17  C   UNL     1      -4.453   1.171 -32.203  1.00  0.00     0.253 C 
BRANCH  17  18
HETATM   18  O   UNL     1      -5.064   1.036 -33.498  1.00  0.00    -0.342 OA
BRANCH  18  19
HETATM   19  C   UNL     1      -5.189  -0.289 -33.830  1.00  0.00     0.091 A 
HETATM   20  C   UNL     1      -6.253  -0.754 -34.617  1.00  0.00     0.069 A 
HETATM   21 CL   UNL     1      -7.433   0.336 -35.248  1.00  0.00    -0.081 Cl
HETATM   22  C   UNL     1      -6.367  -2.114 -34.904  1.00  0.00     0.050 A 
HETATM   23  C   UNL     1      -5.429  -3.004 -34.383  1.00  0.00     0.035 A 
HETATM   24 CL   UNL     1      -5.562  -4.683 -34.731  1.00  0.00    -0.084 Cl
HETATM   25  C   UNL     1      -4.385  -2.549 -33.574  1.00  0.00     0.026 A 
HETATM   26  C   UNL     1      -4.268  -1.188 -33.289  1.00  0.00     0.040 A 
ENDBRANCH  18  19
ENDBRANCH  17  18
ENDBRANCH  13  17
ENDBRANCH  11  13
ENDBRANCH   8  11
ENDBRANCH   3   7
BRANCH   4  27
HETATM   27  O   UNL     1      -9.674   4.249 -32.957  1.00  0.00    -0.343 OA
BRANCH  27  28
HETATM   28  C   UNL     1      -8.856   4.744 -34.045  1.00  0.00     0.258 C 
BRANCH  28  29
HETATM   29  C   UNL     1      -7.549   5.305 -33.578  1.00  0.00     0.172 A 
HETATM   30  N   UNL     1      -6.381   5.086 -34.204  1.00  0.00    -0.147 NA
HETATM   31  N   UNL     1      -5.499   5.734 -33.390  1.00  0.00    -0.207 N 
HETATM   32  C   UNL     1      -6.175   6.316 -32.349  1.00  0.00     0.239 A 
HETATM   33  N   UNL     1      -7.461   6.065 -32.443  1.00  0.00    -0.223 NA
BRANCH  31  34
HETATM   34  C   UNL     1      -4.099   5.773 -33.622  1.00  0.00     0.153 A 
HETATM   35  N   UNL     1      -3.338   6.517 -32.780  1.00  0.00    -0.217 NA
HETATM   36  C   UNL     1      -2.010   6.532 -33.016  1.00  0.00     0.128 A 
HETATM   37 CL   UNL     1      -1.104   7.484 -31.917  1.00  0.00    -0.062 Cl
HETATM   38  C   UNL     1      -1.390   5.852 -34.048  1.00  0.00     0.044 A 
HETATM   39  C   UNL     1      -2.187   5.098 -34.903  1.00  0.00     0.007 A 
HETATM   40  C   UNL     1      -3.564   5.053 -34.691  1.00  0.00     0.052 A 
ENDBRANCH  31  34
ENDBRANCH  28  29
ENDBRANCH  27  28
ENDBRANCH   4  27
TORSDOF 10
ENDMDL
MODEL 8
REMARK VINA RESULT:      -8.6      3.302      8.597
REMARK  10 active torsions:
REMARK  status: ('A' for Active; 'I' for Inactive)
REMARK    1  A    between atoms: C_3  and  C_4 
REMARK       I    between atoms: C_4  and  N_5 
REMARK    2  A    between atoms: N_5  and  N_6 
REMARK    3  A    between atoms: N_6  and  C_7 
REMARK    4  A    between atoms: C_7  and  C_8 
REMARK    5  A    between atoms: C_8  and  O_9 
REMARK    6  A    between atoms: O_9  and  C_10 
REMARK    7  A    between atoms: C_22  and  O_23 
REMARK    8  A    between atoms: O_23  and  C_24 
REMARK    9  A    between atoms: C_24  and  C_25 
REMARK   10  A    between atoms: N_27  and  C_28 
ROOT
HETATM    1  C   UNL     1      -1.411   6.485 -34.039  1.00  0.00     0.001 A 
HETATM    2  C   UNL     1      -0.674   6.390 -32.859  1.00  0.00     0.020 A 
HETATM    3  C   UNL     1      -0.971   5.373 -31.947  1.00  0.00     0.067 A 
HETATM    4  C   UNL     1      -2.019   4.479 -32.190  1.00  0.00     0.085 A 
HETATM    5  C   UNL     1      -2.739   4.567 -33.381  1.00  0.00     0.038 A 
HETATM    6  C   UNL     1      -2.437   5.573 -34.300  1.00  0.00     0.003 A 
ENDROOT
BRANCH   3   7
HETATM    7  C   UNL     1      -0.213   5.273 -30.691  1.00  0.00     0.272 C 
HETATM    8  N   UNL     1      -0.720   5.830 -29.526  1.00  0.00    -0.264 N 
HETATM    9  H   UNL     1      -0.337   5.377 -28.694  1.00  0.00     0.190 HD
HETATM   10  O   UNL     1       0.837   4.640 -30.676  1.00  0.00    -0.266 OA
BRANCH   8  11
HETATM   11  N   UNL     1      -1.878   6.480 -29.415  1.00  0.00    -0.285 N 
HETATM   12  H   UNL     1      -2.644   6.200 -30.031  1.00  0.00     0.188 HD
BRANCH  11  13
HETATM   13  C   UNL     1      -2.180   7.376 -28.469  1.00  0.00     0.114 C 
HETATM   14  N   UNL     1      -1.353   8.282 -27.975  1.00  0.00    -0.386 N 
HETATM   15  H   UNL     1      -1.692   8.934 -27.271  1.00  0.00     0.157 HD
HETATM   16  H   UNL     1      -0.390   8.389 -28.281  1.00  0.00     0.157 HD
BRANCH  13  17
HETATM   17  C   UNL     1      -3.563   7.317 -27.874  1.00  0.00     0.253 C 
BRANCH  17  18
HETATM   18  O   UNL     1      -4.514   7.745 -28.864  1.00  0.00    -0.342 OA
BRANCH  18  19
HETATM   19  C   UNL     1      -5.357   6.714 -29.193  1.00  0.00     0.091 A 
HETATM   20  C   UNL     1      -5.536   6.305 -30.522  1.00  0.00     0.069 A 
HETATM   21 CL   UNL     1      -4.662   7.055 -31.808  1.00  0.00    -0.081 Cl
HETATM   22  C   UNL     1      -6.429   5.277 -30.822  1.00  0.00     0.050 A 
HETATM   23  C   UNL     1      -7.154   4.678 -29.793  1.00  0.00     0.035 A 
HETATM   24 CL   UNL     1      -8.258   3.409 -30.152  1.00  0.00    -0.084 Cl
HETATM   25  C   UNL     1      -7.000   5.102 -28.471  1.00  0.00     0.026 A 
HETATM   26  C   UNL     1      -6.104   6.129 -28.170  1.00  0.00     0.040 A 
ENDBRANCH  18  19
ENDBRANCH  17  18
ENDBRANCH  13  17
ENDBRANCH  11  13
ENDBRANCH   8  11
ENDBRANCH   3   7
BRANCH   4  27
HETATM   27  O   UNL     1      -2.204   3.432 -31.325  1.00  0.00    -0.343 OA
BRANCH  27  28
HETATM   28  C   UNL     1      -3.541   2.882 -31.409  1.00  0.00     0.258 C 
BRANCH  28  29
HETATM   29  C   UNL     1      -3.546   1.424 -31.750  1.00  0.00     0.172 A 
HETATM   30  N   UNL     1      -4.357   0.880 -32.672  1.00  0.00    -0.147 NA
HETATM   31  N   UNL     1      -4.040  -0.443 -32.581  1.00  0.00    -0.207 N 
HETATM   32  C   UNL     1      -3.057  -0.618 -31.642  1.00  0.00     0.239 A 
HETATM   33  N   UNL     1      -2.727   0.536 -31.107  1.00  0.00    -0.223 NA
BRANCH  31  34
HETATM   34  C   UNL     1      -4.661  -1.455 -33.359  1.00  0.00     0.153 A 
HETATM   35  N   UNL     1      -4.073  -2.678 -33.395  1.00  0.00    -0.217 NA
HETATM   36  C   UNL     1      -4.686  -3.624 -34.134  1.00  0.00     0.128 A 
HETATM   37 CL   UNL     1      -3.898  -5.145 -34.136  1.00  0.00    -0.062 Cl
HETATM   38  C   UNL     1      -5.853  -3.426 -34.850  1.00  0.00     0.044 A 
HETATM   39  C   UNL     1      -6.439  -2.165 -34.803  1.00  0.00     0.007 A 
HETATM   40  C   UNL     1      -5.838  -1.160 -34.047  1.00  0.00     0.052 A 
ENDBRANCH  31  34
ENDBRANCH  28  29
ENDBRANCH  27  28
ENDBRANCH   4  27
TORSDOF 10
ENDMDL
MODEL 9
REMARK VINA RESULT:      -8.6      3.936      7.932
REMARK  10 active torsions:
REMARK  status: ('A' for Active; 'I' for Inactive)
REMARK    1  A    between atoms: C_3  and  C_4 
REMARK       I    between atoms: C_4  and  N_5 
REMARK    2  A    between atoms: N_5  and  N_6 
REMARK    3  A    between atoms: N_6  and  C_7 
REMARK    4  A    between atoms: C_7  and  C_8 
REMARK    5  A    between atoms: C_8  and  O_9 
REMARK    6  A    between atoms: O_9  and  C_10 
REMARK    7  A    between atoms: C_22  and  O_23 
REMARK    8  A    between atoms: O_23  and  C_24 
REMARK    9  A    between atoms: C_24  and  C_25 
REMARK   10  A    between atoms: N_27  and  C_28 
ROOT
HETATM    1  C   UNL     1      -7.068   5.860 -29.843  1.00  0.00     0.001 A 
HETATM    2  C   UNL     1      -7.529   5.439 -31.090  1.00  0.00     0.020 A 
HETATM    3  C   UNL     1      -6.688   4.680 -31.909  1.00  0.00     0.067 A 
HETATM    4  C   UNL     1      -5.385   4.372 -31.506  1.00  0.00     0.085 A 
HETATM    5  C   UNL     1      -4.937   4.779 -30.249  1.00  0.00     0.038 A 
HETATM    6  C   UNL     1      -5.777   5.527 -29.424  1.00  0.00     0.003 A 
ENDROOT
BRANCH   3   7
HETATM    7  C   UNL     1      -7.156   4.244 -33.234  1.00  0.00     0.272 C 
HETATM    8  N   UNL     1      -7.590   2.940 -33.423  1.00  0.00    -0.264 N 
HETATM    9  H   UNL     1      -8.232   2.868 -34.215  1.00  0.00     0.190 HD
HETATM   10  O   UNL     1      -7.216   5.062 -34.145  1.00  0.00    -0.266 OA
BRANCH   8  11
HETATM   11  N   UNL     1      -7.630   1.990 -32.489  1.00  0.00    -0.285 N 
HETATM   12  H   UNL     1      -6.753   1.737 -32.027  1.00  0.00     0.188 HD
BRANCH  11  13
HETATM   13  C   UNL     1      -8.739   1.430 -31.995  1.00  0.00     0.114 C 
HETATM   14  N   UNL     1      -9.182   1.565 -30.756  1.00  0.00    -0.386 N 
HETATM   15  H   UNL     1     -10.053   1.113 -30.487  1.00  0.00     0.157 HD
HETATM   16  H   UNL     1      -8.714   2.127 -30.051  1.00  0.00     0.157 HD
BRANCH  13  17
HETATM   17  C   UNL     1      -9.525   0.523 -32.906  1.00  0.00     0.253 C 
BRANCH  17  18
HETATM   18  O   UNL     1     -10.130   1.316 -33.942  1.00  0.00    -0.342 OA
BRANCH  18  19
HETATM   19  C   UNL     1     -11.463   1.504 -33.681  1.00  0.00     0.091 A 
HETATM   20  C   UNL     1     -11.951   2.718 -33.175  1.00  0.00     0.069 A 
HETATM   21 CL   UNL     1     -10.893   4.055 -32.903  1.00  0.00    -0.081 Cl
HETATM   22  C   UNL     1     -13.307   2.860 -32.888  1.00  0.00     0.050 A 
HETATM   23  C   UNL     1     -14.166   1.780 -33.087  1.00  0.00     0.035 A 
HETATM   24 CL   UNL     1     -15.841   1.946 -32.734  1.00  0.00    -0.084 Cl
HETATM   25  C   UNL     1     -13.680   0.560 -33.563  1.00  0.00     0.026 A 
HETATM   26  C   UNL     1     -12.322   0.418 -33.854  1.00  0.00     0.040 A 
ENDBRANCH  18  19
ENDBRANCH  17  18
ENDBRANCH  13  17
ENDBRANCH  11  13
ENDBRANCH   8  11
ENDBRANCH   3   7
BRANCH   4  27
HETATM   27  O   UNL     1      -4.635   3.533 -32.289  1.00  0.00    -0.343 OA
BRANCH  27  28
HETATM   28  C   UNL     1      -3.675   2.774 -31.515  1.00  0.00     0.258 C 
BRANCH  28  29
HETATM   29  C   UNL     1      -3.696   1.313 -31.839  1.00  0.00     0.172 A 
HETATM   30  N   UNL     1      -4.534   0.762 -32.733  1.00  0.00    -0.147 NA
HETATM   31  N   UNL     1      -4.221  -0.561 -32.636  1.00  0.00    -0.207 N 
HETATM   32  C   UNL     1      -3.214  -0.730 -31.721  1.00  0.00     0.239 A 
HETATM   33  N   UNL     1      -2.864   0.427 -31.208  1.00  0.00    -0.223 NA
BRANCH  31  34
HETATM   34  C   UNL     1      -4.867  -1.578 -33.386  1.00  0.00     0.153 A 
HETATM   35  N   UNL     1      -4.227  -2.767 -33.525  1.00  0.00    -0.217 NA
HETATM   36  C   UNL     1      -4.864  -3.720 -34.235  1.00  0.00     0.128 A 
HETATM   37 CL   UNL     1      -4.008  -5.197 -34.372  1.00  0.00    -0.062 Cl
HETATM   38  C   UNL     1      -6.106  -3.560 -34.824  1.00  0.00     0.044 A 
HETATM   39  C   UNL     1      -6.745  -2.333 -34.673  1.00  0.00     0.007 A 
HETATM   40  C   UNL     1      -6.121  -1.323 -33.943  1.00  0.00     0.052 A 
ENDBRANCH  31  34
ENDBRANCH  28  29
ENDBRANCH  27  28
ENDBRANCH   4  27
TORSDOF 10
ENDMDL
MODEL 10
REMARK VINA RESULT:      -8.6      2.953      7.878
REMARK  10 active torsions:
REMARK  status: ('A' for Active; 'I' for Inactive)
REMARK    1  A    between atoms: C_3  and  C_4 
REMARK       I    between atoms: C_4  and  N_5 
REMARK    2  A    between atoms: N_5  and  N_6 
REMARK    3  A    between atoms: N_6  and  C_7 
REMARK    4  A    between atoms: C_7  and  C_8 
REMARK    5  A    between atoms: C_8  and  O_9 
REMARK    6  A    between atoms: O_9  and  C_10 
REMARK    7  A    between atoms: C_22  and  O_23 
REMARK    8  A    between atoms: O_23  and  C_24 
REMARK    9  A    between atoms: C_24  and  C_25 
REMARK   10  A    between atoms: N_27  and  C_28 
ROOT
HETATM    1  C   UNL     1      -1.209   7.443 -32.642  1.00  0.00     0.001 A 
HETATM    2  C   UNL     1      -2.257   7.110 -33.500  1.00  0.00     0.020 A 
HETATM    3  C   UNL     1      -2.672   5.777 -33.588  1.00  0.00     0.067 A 
HETATM    4  C   UNL     1      -2.025   4.778 -32.854  1.00  0.00     0.085 A 
HETATM    5  C   UNL     1      -0.991   5.120 -31.982  1.00  0.00     0.038 A 
HETATM    6  C   UNL     1      -0.582   6.451 -31.883  1.00  0.00     0.003 A 
ENDROOT
BRANCH   3   7
HETATM    7  C   UNL     1      -3.764   5.410 -34.502  1.00  0.00     0.272 C 
HETATM    8  N   UNL     1      -5.075   5.405 -34.051  1.00  0.00    -0.264 N 
HETATM    9  H   UNL     1      -5.738   5.527 -34.819  1.00  0.00     0.190 HD
HETATM   10  O   UNL     1      -3.505   5.171 -35.676  1.00  0.00    -0.266 OA
BRANCH   8  11
HETATM   11  N   UNL     1      -5.475   5.710 -32.817  1.00  0.00    -0.285 N 
HETATM   12  H   UNL     1      -5.001   6.480 -32.338  1.00  0.00     0.188 HD
BRANCH  11  13
HETATM   13  C   UNL     1      -6.540   5.196 -32.193  1.00  0.00     0.114 C 
HETATM   14  N   UNL     1      -6.503   4.390 -31.146  1.00  0.00    -0.386 N 
HETATM   15  H   UNL     1      -7.376   4.072 -30.732  1.00  0.00     0.157 HD
HETATM   16  H   UNL     1      -5.641   4.085 -30.702  1.00  0.00     0.157 HD
BRANCH  13  17
HETATM   17  C   UNL     1      -7.898   5.516 -32.761  1.00  0.00     0.253 C 
BRANCH  17  18
HETATM   18  O   UNL     1      -7.968   5.016 -34.108  1.00  0.00    -0.342 OA
BRANCH  18  19
HETATM   19  C   UNL     1      -9.046   4.181 -34.252  1.00  0.00     0.091 A 
HETATM   20  C   UNL     1      -8.931   2.794 -34.078  1.00  0.00     0.069 A 
HETATM   21 CL   UNL     1      -7.427   2.077 -33.627  1.00  0.00    -0.081 Cl
HETATM   22  C   UNL     1     -10.041   1.972 -34.268  1.00  0.00     0.050 A 
HETATM   23  C   UNL     1     -11.256   2.539 -34.652  1.00  0.00     0.035 A 
HETATM   24 CL   UNL     1     -12.631   1.533 -34.888  1.00  0.00    -0.084 Cl
HETATM   25  C   UNL     1     -11.367   3.917 -34.853  1.00  0.00     0.026 A 
HETATM   26  C   UNL     1     -10.257   4.741 -34.661  1.00  0.00     0.040 A 
ENDBRANCH  18  19
ENDBRANCH  17  18
ENDBRANCH  13  17
ENDBRANCH  11  13
ENDBRANCH   8  11
ENDBRANCH   3   7
BRANCH   4  27
HETATM   27  O   UNL     1      -2.534   3.506 -32.884  1.00  0.00    -0.343 OA
BRANCH  27  28
HETATM   28  C   UNL     1      -3.144   3.130 -31.625  1.00  0.00     0.258 C 
BRANCH  28  29
HETATM   29  C   UNL     1      -3.921   1.853 -31.717  1.00  0.00     0.172 A 
HETATM   30  N   UNL     1      -3.792   0.976 -32.726  1.00  0.00    -0.147 NA
HETATM   31  N   UNL     1      -4.723   0.034 -32.401  1.00  0.00    -0.207 N 
HETATM   32  C   UNL     1      -5.336   0.378 -31.224  1.00  0.00     0.239 A 
HETATM   33  N   UNL     1      -4.852   1.513 -30.772  1.00  0.00    -0.223 NA
BRANCH  31  34
HETATM   34  C   UNL     1      -4.988  -1.114 -33.193  1.00  0.00     0.153 A 
HETATM   35  N   UNL     1      -4.161  -2.182 -33.057  1.00  0.00    -0.217 NA
HETATM   36  C   UNL     1      -4.439  -3.263 -33.814  1.00  0.00     0.128 A 
HETATM   37 CL   UNL     1      -3.364  -4.579 -33.594  1.00  0.00    -0.062 Cl
HETATM   38  C   UNL     1      -5.491  -3.346 -34.708  1.00  0.00     0.044 A 
HETATM   39  C   UNL     1      -6.324  -2.239 -34.836  1.00  0.00     0.007 A 
HETATM   40  C   UNL     1      -6.074  -1.103 -34.068  1.00  0.00     0.052 A 
ENDBRANCH  31  34
ENDBRANCH  28  29
ENDBRANCH  27  28
ENDBRANCH   4  27
TORSDOF 10
ENDMDL
