MODEL 1
REMARK VINA RESULT:      -8.7      0.000      0.000
REMARK  7 active torsions:
REMARK  status: ('A' for Active; 'I' for Inactive)
REMARK    1  A    between atoms: C_3  and  O_4 
REMARK    2  A    between atoms: O_4  and  C_5 
REMARK    3  A    between atoms: C_5  and  C_6 
REMARK    4  A    between atoms: C_7  and  C_8 
REMARK    5  A    between atoms: C_8  and  N_9 
REMARK       I    between atoms: N_9  and  C_10 
REMARK    6  A    between atoms: C_10  and  C_11 
REMARK    7  A    between atoms: C_15  and  C_16 
ROOT
HETATM    1  N   UNL     1      -5.537   3.703 -33.878  1.00  0.00    -0.345 N 
HETATM    2  C   UNL     1      -6.103   2.744 -33.076  1.00  0.00     0.270 C 
HETATM    3  O   UNL     1      -6.523   2.978 -31.948  1.00  0.00    -0.266 OA
HETATM    4  H   UNL     1      -5.316   3.482 -34.836  1.00  0.00     0.163 HD
ENDROOT
BRANCH   1   5
HETATM    5  C   UNL     1      -5.462   5.086 -33.480  1.00  0.00     0.217 C 
BRANCH   5   6
HETATM    6  C   UNL     1      -4.124   5.613 -33.760  1.00  0.00    -0.085 C 
HETATM    7  C   UNL     1      -3.034   6.070 -33.982  1.00  0.00    -0.078 C 
BRANCH   7   8
HETATM    8  C   UNL     1      -1.710   6.655 -34.237  1.00  0.00     0.269 C 
BRANCH   8   9
HETATM    9  O   UNL     1      -1.539   7.789 -33.393  1.00  0.00    -0.339 OA
BRANCH   9  10
HETATM   10  C   UNL     1      -1.071   7.571 -32.122  1.00  0.00     0.075 A 
HETATM   11  C   UNL     1      -1.827   8.151 -31.087  1.00  0.00    -0.029 A 
HETATM   12  C   UNL     1      -3.048   8.979 -31.379  1.00  0.00     0.051 C 
HETATM   13  C   UNL     1      -1.404   8.001 -29.756  1.00  0.00     0.009 A 
HETATM   14  C   UNL     1      -0.260   7.267 -29.454  1.00  0.00     0.001 A 
HETATM   15  C   UNL     1       0.481   6.686 -30.479  1.00  0.00     0.003 A 
HETATM   16  C   UNL     1       0.080   6.841 -31.809  1.00  0.00     0.037 A 
ENDBRANCH   9  10
ENDBRANCH   8   9
ENDBRANCH   7   8
ENDBRANCH   5   6
ENDBRANCH   1   5
BRANCH   2  17
HETATM   17  C   UNL     1      -6.167   1.426 -33.648  1.00  0.00     0.120 A 
HETATM   18  N   UNL     1      -6.950   1.160 -34.736  1.00  0.00    -0.272 N 
HETATM   19  H   UNL     1      -7.533   1.822 -35.239  1.00  0.00     0.189 HD
HETATM   20  N   UNL     1      -6.917  -0.116 -35.141  1.00  0.00    -0.174 NA
HETATM   21  C   UNL     1      -6.082  -0.727 -34.284  1.00  0.00     0.089 A 
HETATM   22  C   UNL     1      -5.584   0.213 -33.336  1.00  0.00     0.071 A 
BRANCH  21  23
HETATM   23  C   UNL     1      -5.795  -2.165 -34.385  1.00  0.00    -0.006 A 
HETATM   24  C   UNL     1      -4.521  -2.660 -34.059  1.00  0.00     0.014 A 
HETATM   25  C   UNL     1      -4.230  -4.024 -34.159  1.00  0.00     0.001 A 
HETATM   26  C   UNL     1      -5.210  -4.915 -34.586  1.00  0.00     0.000 A 
HETATM   27  C   UNL     1      -6.480  -4.444 -34.912  1.00  0.00     0.001 A 
HETATM   28  C   UNL     1      -6.771  -3.078 -34.812  1.00  0.00     0.014 A 
ENDBRANCH  21  23
ENDBRANCH   2  17
TORSDOF 7
ENDMDL
MODEL 2
REMARK VINA RESULT:      -8.6      5.194      8.641
REMARK  7 active torsions:
REMARK  status: ('A' for Active; 'I' for Inactive)
REMARK    1  A    between atoms: C_3  and  O_4 
REMARK    2  A    between atoms: O_4  and  C_5 
REMARK    3  A    between atoms: C_5  and  C_6 
REMARK    4  A    between atoms: C_7  and  C_8 
REMARK    5  A    between atoms: C_8  and  N_9 
REMARK       I    between atoms: N_9  and  C_10 
REMARK    6  A    between atoms: C_10  and  C_11 
REMARK    7  A    between atoms: C_15  and  C_16 
ROOT
HETATM    1  N   UNL     1      -6.954   1.410 -30.618  1.00  0.00    -0.345 N 
HETATM    2  C   UNL     1      -7.020   1.948 -31.879  1.00  0.00     0.270 C 
HETATM    3  O   UNL     1      -6.034   2.348 -32.488  1.00  0.00    -0.266 OA
HETATM    4  H   UNL     1      -7.777   0.993 -30.213  1.00  0.00     0.163 HD
ENDROOT
BRANCH   1   5
HETATM    5  C   UNL     1      -5.699   1.202 -29.941  1.00  0.00     0.217 C 
BRANCH   5   6
HETATM    6  C   UNL     1      -4.878   0.252 -30.695  1.00  0.00    -0.085 C 
HETATM    7  C   UNL     1      -4.214  -0.519 -31.336  1.00  0.00    -0.078 C 
BRANCH   7   8
HETATM    8  C   UNL     1      -3.412  -1.447 -32.147  1.00  0.00     0.269 C 
BRANCH   8   9
HETATM    9  O   UNL     1      -3.890  -1.414 -33.489  1.00  0.00    -0.339 OA
BRANCH   9  10
HETATM   10  C   UNL     1      -4.596  -2.500 -33.938  1.00  0.00     0.075 A 
HETATM   11  C   UNL     1      -5.912  -2.238 -34.363  1.00  0.00    -0.029 A 
HETATM   12  C   UNL     1      -6.495  -0.853 -34.291  1.00  0.00     0.051 C 
HETATM   13  C   UNL     1      -6.716  -3.297 -34.812  1.00  0.00     0.009 A 
HETATM   14  C   UNL     1      -6.216  -4.596 -34.861  1.00  0.00     0.001 A 
HETATM   15  C   UNL     1      -4.912  -4.852 -34.449  1.00  0.00     0.003 A 
HETATM   16  C   UNL     1      -4.105  -3.809 -33.985  1.00  0.00     0.037 A 
ENDBRANCH   9  10
ENDBRANCH   8   9
ENDBRANCH   7   8
ENDBRANCH   5   6
ENDBRANCH   1   5
BRANCH   2  17
HETATM   17  C   UNL     1      -8.341   2.022 -32.445  1.00  0.00     0.120 A 
HETATM   18  N   UNL     1      -8.796   3.165 -33.039  1.00  0.00    -0.272 N 
HETATM   19  H   UNL     1      -8.285   4.035 -33.151  1.00  0.00     0.189 HD
HETATM   20  N   UNL     1     -10.050   3.084 -33.503  1.00  0.00    -0.174 NA
HETATM   21  C   UNL     1     -10.449   1.837 -33.200  1.00  0.00     0.089 A 
HETATM   22  C   UNL     1      -9.397   1.137 -32.541  1.00  0.00     0.071 A 
BRANCH  21  23
HETATM   23  C   UNL     1     -11.799   1.360 -33.531  1.00  0.00    -0.006 A 
HETATM   24  C   UNL     1     -12.135   0.006 -33.366  1.00  0.00     0.014 A 
HETATM   25  C   UNL     1     -13.411  -0.465 -33.686  1.00  0.00     0.001 A 
HETATM   26  C   UNL     1     -14.374   0.413 -34.175  1.00  0.00     0.000 A 
HETATM   27  C   UNL     1     -14.062   1.761 -34.344  1.00  0.00     0.001 A 
HETATM   28  C   UNL     1     -12.783   2.231 -34.024  1.00  0.00     0.014 A 
ENDBRANCH  21  23
ENDBRANCH   2  17
TORSDOF 7
ENDMDL
MODEL 3
REMARK VINA RESULT:      -8.5      3.452     11.293
REMARK  7 active torsions:
REMARK  status: ('A' for Active; 'I' for Inactive)
REMARK    1  A    between atoms: C_3  and  O_4 
REMARK    2  A    between atoms: O_4  and  C_5 
REMARK    3  A    between atoms: C_5  and  C_6 
REMARK    4  A    between atoms: C_7  and  C_8 
REMARK    5  A    between atoms: C_8  and  N_9 
REMARK       I    between atoms: N_9  and  C_10 
REMARK    6  A    between atoms: C_10  and  C_11 
REMARK    7  A    between atoms: C_15  and  C_16 
ROOT
HETATM    1  N   UNL     1      -2.028   4.370 -31.131  1.00  0.00    -0.345 N 
HETATM    2  C   UNL     1      -1.314   5.529 -31.307  1.00  0.00     0.270 C 
HETATM    3  O   UNL     1      -1.278   6.136 -32.371  1.00  0.00    -0.266 OA
HETATM    4  H   UNL     1      -2.116   3.977 -30.208  1.00  0.00     0.163 HD
ENDROOT
BRANCH   1   5
HETATM    5  C   UNL     1      -2.857   3.817 -32.172  1.00  0.00     0.217 C 
BRANCH   5   6
HETATM    6  C   UNL     1      -3.305   2.475 -31.793  1.00  0.00    -0.085 C 
HETATM    7  C   UNL     1      -3.695   1.377 -31.495  1.00  0.00    -0.078 C 
BRANCH   7   8
HETATM    8  C   UNL     1      -4.196   0.039 -31.151  1.00  0.00     0.269 C 
BRANCH   8   9
HETATM    9  O   UNL     1      -5.431  -0.176 -31.828  1.00  0.00    -0.339 OA
BRANCH   9  10
HETATM   10  C   UNL     1      -5.442  -1.084 -32.855  1.00  0.00     0.075 A 
HETATM   11  C   UNL     1      -6.649  -1.177 -33.573  1.00  0.00    -0.029 A 
HETATM   12  C   UNL     1      -7.845  -0.345 -33.201  1.00  0.00     0.051 C 
HETATM   13  C   UNL     1      -6.757  -2.101 -34.624  1.00  0.00     0.009 A 
HETATM   14  C   UNL     1      -5.678  -2.909 -34.973  1.00  0.00     0.001 A 
HETATM   15  C   UNL     1      -4.482  -2.809 -34.267  1.00  0.00     0.003 A 
HETATM   16  C   UNL     1      -4.366  -1.904 -33.209  1.00  0.00     0.037 A 
ENDBRANCH   9  10
ENDBRANCH   8   9
ENDBRANCH   7   8
ENDBRANCH   5   6
ENDBRANCH   1   5
BRANCH   2  17
HETATM   17  C   UNL     1      -0.595   5.988 -30.149  1.00  0.00     0.120 A 
HETATM   18  N   UNL     1       0.061   5.116 -29.328  1.00  0.00    -0.272 N 
HETATM   19  H   UNL     1       0.120   4.107 -29.438  1.00  0.00     0.189 HD
HETATM   20  N   UNL     1       0.670   5.692 -28.283  1.00  0.00    -0.174 NA
HETATM   21  C   UNL     1       0.403   7.003 -28.410  1.00  0.00     0.089 A 
HETATM   22  C   UNL     1      -0.383   7.227 -29.578  1.00  0.00     0.071 A 
BRANCH  21  23
HETATM   23  C   UNL     1       0.887   7.984 -27.429  1.00  0.00    -0.006 A 
HETATM   24  C   UNL     1       0.500   9.332 -27.522  1.00  0.00     0.014 A 
HETATM   25  C   UNL     1       0.960  10.279 -26.602  1.00  0.00     0.001 A 
HETATM   26  C   UNL     1       1.815   9.892 -25.574  1.00  0.00     0.000 A 
HETATM   27  C   UNL     1       2.209   8.561 -25.465  1.00  0.00     0.001 A 
HETATM   28  C   UNL     1       1.749   7.613 -26.386  1.00  0.00     0.014 A 
ENDBRANCH  21  23
ENDBRANCH   2  17
TORSDOF 7
ENDMDL
MODEL 4
REMARK VINA RESULT:      -8.2      1.751      2.935
REMARK  7 active torsions:
REMARK  status: ('A' for Active; 'I' for Inactive)
REMARK    1  A    between atoms: C_3  and  O_4 
REMARK    2  A    between atoms: O_4  and  C_5 
REMARK    3  A    between atoms: C_5  and  C_6 
REMARK    4  A    between atoms: C_7  and  C_8 
REMARK    5  A    between atoms: C_8  and  N_9 
REMARK       I    between atoms: N_9  and  C_10 
REMARK    6  A    between atoms: C_10  and  C_11 
REMARK    7  A    between atoms: C_15  and  C_16 
ROOT
HETATM    1  N   UNL     1      -7.125   3.576 -33.615  1.00  0.00    -0.345 N 
HETATM    2  C   UNL     1      -7.319   2.446 -32.861  1.00  0.00     0.270 C 
HETATM    3  O   UNL     1      -7.740   2.474 -31.710  1.00  0.00    -0.266 OA
HETATM    4  H   UNL     1      -6.888   3.488 -34.590  1.00  0.00     0.163 HD
ENDROOT
BRANCH   1   5
HETATM    5  C   UNL     1      -7.478   4.887 -33.131  1.00  0.00     0.217 C 
BRANCH   5   6
HETATM    6  C   UNL     1      -6.427   5.391 -32.244  1.00  0.00    -0.085 C 
HETATM    7  C   UNL     1      -5.554   5.780 -31.514  1.00  0.00    -0.078 C 
BRANCH   7   8
HETATM    8  C   UNL     1      -4.474   6.227 -30.623  1.00  0.00     0.269 C 
BRANCH   8   9
HETATM    9  O   UNL     1      -3.312   5.446 -30.883  1.00  0.00    -0.339 OA
BRANCH   9  10
HETATM   10  C   UNL     1      -2.633   5.686 -32.050  1.00  0.00     0.075 A 
HETATM   11  C   UNL     1      -2.554   4.602 -32.944  1.00  0.00    -0.029 A 
HETATM   12  C   UNL     1      -3.158   3.266 -32.608  1.00  0.00     0.051 C 
HETATM   13  C   UNL     1      -1.854   4.753 -34.151  1.00  0.00     0.009 A 
HETATM   14  C   UNL     1      -1.256   5.967 -34.479  1.00  0.00     0.001 A 
HETATM   15  C   UNL     1      -1.343   7.041 -33.597  1.00  0.00     0.003 A 
HETATM   16  C   UNL     1      -2.025   6.900 -32.385  1.00  0.00     0.037 A 
ENDBRANCH   9  10
ENDBRANCH   8   9
ENDBRANCH   7   8
ENDBRANCH   5   6
ENDBRANCH   1   5
BRANCH   2  17
HETATM   17  C   UNL     1      -6.984   1.209 -33.514  1.00  0.00     0.120 A 
HETATM   18  N   UNL     1      -7.263   1.004 -34.835  1.00  0.00    -0.272 N 
HETATM   19  H   UNL     1      -7.703   1.662 -35.470  1.00  0.00     0.189 HD
HETATM   20  N   UNL     1      -6.906  -0.203 -35.294  1.00  0.00    -0.174 NA
HETATM   21  C   UNL     1      -6.373  -0.831 -34.232  1.00  0.00     0.089 A 
HETATM   22  C   UNL     1      -6.397   0.030 -33.096  1.00  0.00     0.071 A 
BRANCH  21  23
HETATM   23  C   UNL     1      -5.873  -2.210 -34.326  1.00  0.00    -0.006 A 
HETATM   24  C   UNL     1      -6.705  -3.236 -34.804  1.00  0.00     0.014 A 
HETATM   25  C   UNL     1      -6.248  -4.554 -34.889  1.00  0.00     0.001 A 
HETATM   26  C   UNL     1      -4.950  -4.867 -34.498  1.00  0.00     0.000 A 
HETATM   27  C   UNL     1      -4.108  -3.863 -34.023  1.00  0.00     0.001 A 
HETATM   28  C   UNL     1      -4.567  -2.543 -33.937  1.00  0.00     0.014 A 
ENDBRANCH  21  23
ENDBRANCH   2  17
TORSDOF 7
ENDMDL
MODEL 5
REMARK VINA RESULT:      -8.1      2.216     10.006
REMARK  7 active torsions:
REMARK  status: ('A' for Active; 'I' for Inactive)
REMARK    1  A    between atoms: C_3  and  O_4 
REMARK    2  A    between atoms: O_4  and  C_5 
REMARK    3  A    between atoms: C_5  and  C_6 
REMARK    4  A    between atoms: C_7  and  C_8 
REMARK    5  A    between atoms: C_8  and  N_9 
REMARK       I    between atoms: N_9  and  C_10 
REMARK    6  A    between atoms: C_10  and  C_11 
REMARK    7  A    between atoms: C_15  and  C_16 
ROOT
HETATM    1  N   UNL     1      -4.943   4.796 -33.526  1.00  0.00    -0.345 N 
HETATM    2  C   UNL     1      -3.980   5.503 -34.200  1.00  0.00     0.270 C 
HETATM    3  O   UNL     1      -3.883   5.506 -35.422  1.00  0.00    -0.266 OA
HETATM    4  H   UNL     1      -5.048   4.922 -32.533  1.00  0.00     0.163 HD
ENDROOT
BRANCH   1   5
HETATM    5  C   UNL     1      -5.971   4.057 -34.216  1.00  0.00     0.217 C 
BRANCH   5   6
HETATM    6  C   UNL     1      -6.004   2.676 -33.729  1.00  0.00    -0.085 C 
HETATM    7  C   UNL     1      -6.005   1.543 -33.327  1.00  0.00    -0.078 C 
BRANCH   7   8
HETATM    8  C   UNL     1      -5.975   0.160 -32.829  1.00  0.00     0.269 C 
BRANCH   8   9
HETATM    9  O   UNL     1      -5.346  -0.665 -33.806  1.00  0.00    -0.339 OA
BRANCH   9  10
HETATM   10  C   UNL     1      -4.598  -1.723 -33.357  1.00  0.00     0.075 A 
HETATM   11  C   UNL     1      -4.695  -2.903 -34.116  1.00  0.00    -0.029 A 
HETATM   12  C   UNL     1      -5.592  -2.987 -35.321  1.00  0.00     0.051 C 
HETATM   13  C   UNL     1      -3.983  -4.044 -33.713  1.00  0.00     0.009 A 
HETATM   14  C   UNL     1      -3.168  -4.009 -32.584  1.00  0.00     0.001 A 
HETATM   15  C   UNL     1      -3.066  -2.837 -31.840  1.00  0.00     0.003 A 
HETATM   16  C   UNL     1      -3.781  -1.699 -32.222  1.00  0.00     0.037 A 
ENDBRANCH   9  10
ENDBRANCH   8   9
ENDBRANCH   7   8
ENDBRANCH   5   6
ENDBRANCH   1   5
BRANCH   2  17
HETATM   17  C   UNL     1      -3.071   6.246 -33.369  1.00  0.00     0.120 A 
HETATM   18  N   UNL     1      -2.115   7.058 -33.909  1.00  0.00    -0.272 N 
HETATM   19  H   UNL     1      -1.950   7.226 -34.897  1.00  0.00     0.189 HD
HETATM   20  N   UNL     1      -1.335   7.669 -33.007  1.00  0.00    -0.174 NA
HETATM   21  C   UNL     1      -1.787   7.242 -31.816  1.00  0.00     0.089 A 
HETATM   22  C   UNL     1      -2.885   6.352 -32.004  1.00  0.00     0.071 A 
BRANCH  21  23
HETATM   23  C   UNL     1      -1.167   7.678 -30.557  1.00  0.00    -0.006 A 
HETATM   24  C   UNL     1       0.130   7.254 -30.220  1.00  0.00     0.014 A 
HETATM   25  C   UNL     1       0.730   7.653 -29.022  1.00  0.00     0.001 A 
HETATM   26  C   UNL     1       0.042   8.482 -28.142  1.00  0.00     0.000 A 
HETATM   27  C   UNL     1      -1.244   8.914 -28.458  1.00  0.00     0.001 A 
HETATM   28  C   UNL     1      -1.845   8.515 -29.658  1.00  0.00     0.014 A 
ENDBRANCH  21  23
ENDBRANCH   2  17
TORSDOF 7
ENDMDL
MODEL 6
REMARK VINA RESULT:      -8.1      2.553      3.454
REMARK  7 active torsions:
REMARK  status: ('A' for Active; 'I' for Inactive)
REMARK    1  A    between atoms: C_3  and  O_4 
REMARK    2  A    between atoms: O_4  and  C_5 
REMARK    3  A    between atoms: C_5  and  C_6 
REMARK    4  A    between atoms: C_7  and  C_8 
REMARK    5  A    between atoms: C_8  and  N_9 
REMARK       I    between atoms: N_9  and  C_10 
REMARK    6  A    between atoms: C_10  and  C_11 
REMARK    7  A    between atoms: C_15  and  C_16 
ROOT
HETATM    1  N   UNL     1      -6.578   3.560 -29.584  1.00  0.00    -0.345 N 
HETATM    2  C   UNL     1      -6.988   3.261 -30.859  1.00  0.00     0.270 C 
HETATM    3  O   UNL     1      -7.520   4.080 -31.600  1.00  0.00    -0.266 OA
HETATM    4  H   UNL     1      -6.044   2.884 -29.063  1.00  0.00     0.163 HD
ENDROOT
BRANCH   1   5
HETATM    5  C   UNL     1      -6.674   4.893 -29.044  1.00  0.00     0.217 C 
BRANCH   5   6
HETATM    6  C   UNL     1      -5.482   5.663 -29.404  1.00  0.00    -0.085 C 
HETATM    7  C   UNL     1      -4.488   6.275 -29.695  1.00  0.00    -0.078 C 
BRANCH   7   8
HETATM    8  C   UNL     1      -3.256   6.996 -30.047  1.00  0.00     0.269 C 
BRANCH   8   9
HETATM    9  O   UNL     1      -2.276   6.050 -30.466  1.00  0.00    -0.339 OA
BRANCH   9  10
HETATM   10  C   UNL     1      -2.000   5.972 -31.806  1.00  0.00     0.075 A 
HETATM   11  C   UNL     1      -2.317   4.748 -32.423  1.00  0.00    -0.029 A 
HETATM   12  C   UNL     1      -2.893   3.602 -31.637  1.00  0.00     0.051 C 
HETATM   13  C   UNL     1      -2.042   4.571 -33.789  1.00  0.00     0.009 A 
HETATM   14  C   UNL     1      -1.479   5.601 -34.538  1.00  0.00     0.001 A 
HETATM   15  C   UNL     1      -1.175   6.815 -33.928  1.00  0.00     0.003 A 
HETATM   16  C   UNL     1      -1.430   6.999 -32.566  1.00  0.00     0.037 A 
ENDBRANCH   9  10
ENDBRANCH   8   9
ENDBRANCH   7   8
ENDBRANCH   5   6
ENDBRANCH   1   5
BRANCH   2  17
HETATM   17  C   UNL     1      -6.758   1.903 -31.274  1.00  0.00     0.120 A 
HETATM   18  N   UNL     1      -6.722   0.880 -30.370  1.00  0.00    -0.272 N 
HETATM   19  H   UNL     1      -6.854   0.953 -29.366  1.00  0.00     0.189 HD
HETATM   20  N   UNL     1      -6.481  -0.324 -30.907  1.00  0.00    -0.174 NA
HETATM   21  C   UNL     1      -6.345  -0.091 -32.223  1.00  0.00     0.089 A 
HETATM   22  C   UNL     1      -6.521   1.297 -32.493  1.00  0.00     0.071 A 
BRANCH  21  23
HETATM   23  C   UNL     1      -6.046  -1.177 -33.168  1.00  0.00    -0.006 A 
HETATM   24  C   UNL     1      -4.723  -1.606 -33.364  1.00  0.00     0.014 A 
HETATM   25  C   UNL     1      -4.422  -2.630 -34.266  1.00  0.00     0.001 A 
HETATM   26  C   UNL     1      -5.442  -3.242 -34.988  1.00  0.00     0.000 A 
HETATM   27  C   UNL     1      -6.761  -2.833 -34.808  1.00  0.00     0.001 A 
HETATM   28  C   UNL     1      -7.062  -1.806 -33.904  1.00  0.00     0.014 A 
ENDBRANCH  21  23
ENDBRANCH   2  17
TORSDOF 7
ENDMDL
MODEL 7
REMARK VINA RESULT:      -8.0      2.145      9.862
REMARK  7 active torsions:
REMARK  status: ('A' for Active; 'I' for Inactive)
REMARK    1  A    between atoms: C_3  and  O_4 
REMARK    2  A    between atoms: O_4  and  C_5 
REMARK    3  A    between atoms: C_5  and  C_6 
REMARK    4  A    between atoms: C_7  and  C_8 
REMARK    5  A    between atoms: C_8  and  N_9 
REMARK       I    between atoms: N_9  and  C_10 
REMARK    6  A    between atoms: C_10  and  C_11 
REMARK    7  A    between atoms: C_15  and  C_16 
ROOT
HETATM    1  N   UNL     1      -5.212   4.725 -33.039  1.00  0.00    -0.345 N 
HETATM    2  C   UNL     1      -4.118   5.218 -33.707  1.00  0.00     0.270 C 
HETATM    3  O   UNL     1      -4.117   5.445 -34.912  1.00  0.00    -0.266 OA
HETATM    4  H   UNL     1      -5.195   4.668 -32.034  1.00  0.00     0.163 HD
ENDROOT
BRANCH   1   5
HETATM    5  C   UNL     1      -6.475   4.508 -33.698  1.00  0.00     0.217 C 
BRANCH   5   6
HETATM    6  C   UNL     1      -6.597   3.101 -34.089  1.00  0.00    -0.085 C 
HETATM    7  C   UNL     1      -6.719   1.952 -34.423  1.00  0.00    -0.078 C 
BRANCH   7   8
HETATM    8  C   UNL     1      -6.892   0.557 -34.851  1.00  0.00     0.269 C 
BRANCH   8   9
HETATM    9  O   UNL     1      -6.540  -0.301 -33.770  1.00  0.00    -0.339 OA
BRANCH   9  10
HETATM   10  C   UNL     1      -6.189  -1.592 -34.071  1.00  0.00     0.075 A 
HETATM   11  C   UNL     1      -4.838  -1.922 -33.860  1.00  0.00    -0.029 A 
HETATM   12  C   UNL     1      -3.852  -0.900 -33.364  1.00  0.00     0.051 C 
HETATM   13  C   UNL     1      -4.387  -3.215 -34.168  1.00  0.00     0.009 A 
HETATM   14  C   UNL     1      -5.267  -4.176 -34.659  1.00  0.00     0.001 A 
HETATM   15  C   UNL     1      -6.606  -3.850 -34.859  1.00  0.00     0.003 A 
HETATM   16  C   UNL     1      -7.065  -2.562 -34.570  1.00  0.00     0.037 A 
ENDBRANCH   9  10
ENDBRANCH   8   9
ENDBRANCH   7   8
ENDBRANCH   5   6
ENDBRANCH   1   5
BRANCH   2  17
HETATM   17  C   UNL     1      -2.955   5.447 -32.892  1.00  0.00     0.120 A 
HETATM   18  N   UNL     1      -1.709   5.081 -33.313  1.00  0.00    -0.272 N 
HETATM   19  H   UNL     1      -1.474   4.639 -34.198  1.00  0.00     0.189 HD
HETATM   20  N   UNL     1      -0.730   5.344 -32.438  1.00  0.00    -0.174 NA
HETATM   21  C   UNL     1      -1.351   5.905 -31.387  1.00  0.00     0.089 A 
HETATM   22  C   UNL     1      -2.751   5.994 -31.640  1.00  0.00     0.071 A 
BRANCH  21  23
HETATM   23  C   UNL     1      -0.609   6.323 -30.189  1.00  0.00    -0.006 A 
HETATM   24  C   UNL     1      -0.644   7.661 -29.763  1.00  0.00     0.014 A 
HETATM   25  C   UNL     1       0.064   8.076 -28.632  1.00  0.00     0.001 A 
HETATM   26  C   UNL     1       0.819   7.158 -27.908  1.00  0.00     0.000 A 
HETATM   27  C   UNL     1       0.865   5.826 -28.313  1.00  0.00     0.001 A 
HETATM   28  C   UNL     1       0.156   5.411 -29.446  1.00  0.00     0.014 A 
ENDBRANCH  21  23
ENDBRANCH   2  17
TORSDOF 7
ENDMDL
MODEL 8
REMARK VINA RESULT:      -8.0      1.301      2.112
REMARK  7 active torsions:
REMARK  status: ('A' for Active; 'I' for Inactive)
REMARK    1  A    between atoms: C_3  and  O_4 
REMARK    2  A    between atoms: O_4  and  C_5 
REMARK    3  A    between atoms: C_5  and  C_6 
REMARK    4  A    between atoms: C_7  and  C_8 
REMARK    5  A    between atoms: C_8  and  N_9 
REMARK       I    between atoms: N_9  and  C_10 
REMARK    6  A    between atoms: C_10  and  C_11 
REMARK    7  A    between atoms: C_15  and  C_16 
ROOT
HETATM    1  N   UNL     1      -6.068   3.482 -33.878  1.00  0.00    -0.345 N 
HETATM    2  C   UNL     1      -7.243   2.794 -34.048  1.00  0.00     0.270 C 
HETATM    3  O   UNL     1      -8.346   3.320 -33.950  1.00  0.00    -0.266 OA
HETATM    4  H   UNL     1      -5.193   3.027 -34.084  1.00  0.00     0.163 HD
ENDROOT
BRANCH   1   5
HETATM    5  C   UNL     1      -6.042   4.904 -33.645  1.00  0.00     0.217 C 
BRANCH   5   6
HETATM    6  C   UNL     1      -4.674   5.335 -33.346  1.00  0.00    -0.085 C 
HETATM    7  C   UNL     1      -3.561   5.704 -33.082  1.00  0.00    -0.078 C 
BRANCH   7   8
HETATM    8  C   UNL     1      -2.211   6.171 -32.734  1.00  0.00     0.269 C 
BRANCH   8   9
HETATM    9  O   UNL     1      -1.869   5.665 -31.446  1.00  0.00    -0.339 OA
BRANCH   9  10
HETATM   10  C   UNL     1      -1.369   6.551 -30.527  1.00  0.00     0.075 A 
HETATM   11  C   UNL     1      -0.014   6.380 -30.190  1.00  0.00    -0.029 A 
HETATM   12  C   UNL     1       0.806   5.271 -30.789  1.00  0.00     0.051 C 
HETATM   13  C   UNL     1       0.572   7.227 -29.236  1.00  0.00     0.009 A 
HETATM   14  C   UNL     1      -0.169   8.244 -28.639  1.00  0.00     0.001 A 
HETATM   15  C   UNL     1      -1.507   8.418 -28.982  1.00  0.00     0.003 A 
HETATM   16  C   UNL     1      -2.107   7.572 -29.919  1.00  0.00     0.037 A 
ENDBRANCH   9  10
ENDBRANCH   8   9
ENDBRANCH   7   8
ENDBRANCH   5   6
ENDBRANCH   1   5
BRANCH   2  17
HETATM   17  C   UNL     1      -7.096   1.394 -34.345  1.00  0.00     0.120 A 
HETATM   18  N   UNL     1      -8.009   0.731 -35.114  1.00  0.00    -0.272 N 
HETATM   19  H   UNL     1      -8.840   1.126 -35.545  1.00  0.00     0.189 HD
HETATM   20  N   UNL     1      -7.745  -0.571 -35.287  1.00  0.00    -0.174 NA
HETATM   21  C   UNL     1      -6.611  -0.785 -34.599  1.00  0.00     0.089 A 
HETATM   22  C   UNL     1      -6.169   0.430 -34.000  1.00  0.00     0.071 A 
BRANCH  21  23
HETATM   23  C   UNL     1      -5.997  -2.119 -34.525  1.00  0.00    -0.006 A 
HETATM   24  C   UNL     1      -6.749  -3.265 -34.833  1.00  0.00     0.014 A 
HETATM   25  C   UNL     1      -6.182  -4.541 -34.758  1.00  0.00     0.001 A 
HETATM   26  C   UNL     1      -4.854  -4.690 -34.373  1.00  0.00     0.000 A 
HETATM   27  C   UNL     1      -4.091  -3.566 -34.064  1.00  0.00     0.001 A 
HETATM   28  C   UNL     1      -4.659  -2.289 -34.139  1.00  0.00     0.014 A 
ENDBRANCH  21  23
ENDBRANCH   2  17
TORSDOF 7
ENDMDL
MODEL 9
REMARK VINA RESULT:      -7.7      1.555      2.434
REMARK  7 active torsions:
REMARK  status: ('A' for Active; 'I' for Inactive)
REMARK    1  A    between atoms: C_3  and  O_4 
REMARK    2  A    between atoms: O_4  and  C_5 
REMARK    3  A    between atoms: C_5  and  C_6 
REMARK    4  A    between atoms: C_7  and  C_8 
REMARK    5  A    between atoms: C_8  and  N_9 
REMARK       I    between atoms: N_9  and  C_10 
REMARK    6  A    between atoms: C_10  and  C_11 
REMARK    7  A    between atoms: C_15  and  C_16 
ROOT
HETATM    1  N   UNL     1      -5.456   4.475 -33.062  1.00  0.00    -0.345 N 
HETATM    2  C   UNL     1      -6.337   3.493 -32.684  1.00  0.00     0.270 C 
HETATM    3  O   UNL     1      -7.437   3.733 -32.198  1.00  0.00    -0.266 OA
HETATM    4  H   UNL     1      -4.617   4.223 -33.561  1.00  0.00     0.163 HD
ENDROOT
BRANCH   1   5
HETATM    5  C   UNL     1      -5.792   5.874 -32.987  1.00  0.00     0.217 C 
BRANCH   5   6
HETATM    6  C   UNL     1      -4.947   6.537 -31.991  1.00  0.00    -0.085 C 
HETATM    7  C   UNL     1      -4.242   7.094 -31.192  1.00  0.00    -0.078 C 
BRANCH   7   8
HETATM    8  C   UNL     1      -3.370   7.795 -30.238  1.00  0.00     0.269 C 
BRANCH   8   9
HETATM    9  O   UNL     1      -2.070   7.914 -30.809  1.00  0.00    -0.339 OA
BRANCH   9  10
HETATM   10  C   UNL     1      -1.118   7.007 -30.419  1.00  0.00     0.075 A 
HETATM   11  C   UNL     1      -0.528   6.258 -31.453  1.00  0.00    -0.029 A 
HETATM   12  C   UNL     1      -0.951   6.436 -32.886  1.00  0.00     0.051 C 
HETATM   13  C   UNL     1       0.436   5.287 -31.140  1.00  0.00     0.009 A 
HETATM   14  C   UNL     1       0.827   5.076 -29.820  1.00  0.00     0.001 A 
HETATM   15  C   UNL     1       0.248   5.824 -28.798  1.00  0.00     0.003 A 
HETATM   16  C   UNL     1      -0.724   6.783 -29.095  1.00  0.00     0.037 A 
ENDBRANCH   9  10
ENDBRANCH   8   9
ENDBRANCH   7   8
ENDBRANCH   5   6
ENDBRANCH   1   5
BRANCH   2  17
HETATM   17  C   UNL     1      -5.878   2.145 -32.888  1.00  0.00     0.120 A 
HETATM   18  N   UNL     1      -4.640   1.746 -32.475  1.00  0.00    -0.272 N 
HETATM   19  H   UNL     1      -3.946   2.315 -31.999  1.00  0.00     0.189 HD
HETATM   20  N   UNL     1      -4.351   0.467 -32.752  1.00  0.00    -0.174 NA
HETATM   21  C   UNL     1      -5.441  -0.003 -33.381  1.00  0.00     0.089 A 
HETATM   22  C   UNL     1      -6.426   1.022 -33.477  1.00  0.00     0.071 A 
BRANCH  21  23
HETATM   23  C   UNL     1      -5.508  -1.387 -33.871  1.00  0.00    -0.006 A 
HETATM   24  C   UNL     1      -6.732  -1.932 -34.296  1.00  0.00     0.014 A 
HETATM   25  C   UNL     1      -6.814  -3.249 -34.756  1.00  0.00     0.001 A 
HETATM   26  C   UNL     1      -5.672  -4.043 -34.799  1.00  0.00     0.000 A 
HETATM   27  C   UNL     1      -4.449  -3.521 -34.384  1.00  0.00     0.001 A 
HETATM   28  C   UNL     1      -4.367  -2.201 -33.923  1.00  0.00     0.014 A 
ENDBRANCH  21  23
ENDBRANCH   2  17
TORSDOF 7
ENDMDL
MODEL 10
REMARK VINA RESULT:      -7.7      4.806      8.388
REMARK  7 active torsions:
REMARK  status: ('A' for Active; 'I' for Inactive)
REMARK    1  A    between atoms: C_3  and  O_4 
REMARK    2  A    between atoms: O_4  and  C_5 
REMARK    3  A    between atoms: C_5  and  C_6 
REMARK    4  A    between atoms: C_7  and  C_8 
REMARK    5  A    between atoms: C_8  and  N_9 
REMARK       I    between atoms: N_9  and  C_10 
REMARK    6  A    between atoms: C_10  and  C_11 
REMARK    7  A    between atoms: C_15  and  C_16 
ROOT
HETATM    1  N   UNL     1      -7.408   3.169 -31.539  1.00  0.00    -0.345 N 
HETATM    2  C   UNL     1      -7.008   2.911 -32.826  1.00  0.00     0.270 C 
HETATM    3  O   UNL     1      -7.152   3.710 -33.745  1.00  0.00    -0.266 OA
HETATM    4  H   UNL     1      -7.161   2.526 -30.805  1.00  0.00     0.163 HD
ENDROOT
BRANCH   1   5
HETATM    5  C   UNL     1      -7.963   4.442 -31.153  1.00  0.00     0.217 C 
BRANCH   5   6
HETATM    6  C   UNL     1      -9.425   4.390 -31.223  1.00  0.00    -0.085 C 
HETATM    7  C   UNL     1     -10.625   4.322 -31.277  1.00  0.00    -0.078 C 
BRANCH   7   8
HETATM    8  C   UNL     1     -12.089   4.208 -31.333  1.00  0.00     0.269 C 
BRANCH   8   9
HETATM    9  O   UNL     1     -12.492   4.157 -32.699  1.00  0.00    -0.339 OA
BRANCH   9  10
HETATM   10  C   UNL     1     -13.094   3.007 -33.141  1.00  0.00     0.075 A 
HETATM   11  C   UNL     1     -12.385   2.284 -34.118  1.00  0.00    -0.029 A 
HETATM   12  C   UNL     1     -11.068   2.776 -34.651  1.00  0.00     0.051 C 
HETATM   13  C   UNL     1     -12.942   1.109 -34.646  1.00  0.00     0.009 A 
HETATM   14  C   UNL     1     -14.175   0.643 -34.197  1.00  0.00     0.001 A 
HETATM   15  C   UNL     1     -14.871   1.355 -33.224  1.00  0.00     0.003 A 
HETATM   16  C   UNL     1     -14.335   2.535 -32.700  1.00  0.00     0.037 A 
ENDBRANCH   9  10
ENDBRANCH   8   9
ENDBRANCH   7   8
ENDBRANCH   5   6
ENDBRANCH   1   5
BRANCH   2  17
HETATM   17  C   UNL     1      -6.408   1.620 -33.034  1.00  0.00     0.120 A 
HETATM   18  N   UNL     1      -5.111   1.374 -32.683  1.00  0.00    -0.272 N 
HETATM   19  H   UNL     1      -4.465   2.030 -32.254  1.00  0.00     0.189 HD
HETATM   20  N   UNL     1      -4.692   0.132 -32.955  1.00  0.00    -0.174 NA
HETATM   21  C   UNL     1      -5.752  -0.474 -33.516  1.00  0.00     0.089 A 
HETATM   22  C   UNL     1      -6.852   0.429 -33.575  1.00  0.00     0.071 A 
BRANCH  21  23
HETATM   23  C   UNL     1      -5.684  -1.867 -33.980  1.00  0.00    -0.006 A 
HETATM   24  C   UNL     1      -6.840  -2.519 -34.441  1.00  0.00     0.014 A 
HETATM   25  C   UNL     1      -6.794  -3.847 -34.876  1.00  0.00     0.001 A 
HETATM   26  C   UNL     1      -5.589  -4.543 -34.859  1.00  0.00     0.000 A 
HETATM   27  C   UNL     1      -4.431  -3.914 -34.407  1.00  0.00     0.001 A 
HETATM   28  C   UNL     1      -4.478  -2.584 -33.970  1.00  0.00     0.014 A 
ENDBRANCH  21  23
ENDBRANCH   2  17
TORSDOF 7
ENDMDL
