MODEL 1
REMARK VINA RESULT:      -8.2      0.000      0.000
REMARK  6 active torsions:
REMARK  status: ('A' for Active; 'I' for Inactive)
REMARK    1  A    between atoms: C_2  and  N_3 
REMARK    2  A    between atoms: N_3  and  C_5 
REMARK    3  A    between atoms: N_3  and  C_26 
REMARK    4  A    between atoms: C_5  and  C_6 
REMARK    5  A    between atoms: C_8  and  N_9 
REMARK       I    between atoms: N_9  and  C_10 
REMARK    6  A    between atoms: C_10  and  C_11 
ROOT
HETATM    1  N   UNL     1      -6.609   0.087 -32.033  1.00  0.00    -0.322 N 
HETATM    2  C   UNL     1      -5.346   0.326 -32.552  1.00  0.00     0.277 C 
HETATM    3  O   UNL     1      -4.968   1.379 -33.059  1.00  0.00    -0.266 OA
HETATM    4  H   UNL     1      -6.714  -0.851 -31.649  1.00  0.00     0.169 HD
ENDROOT
BRANCH   1   5
HETATM    5  C   UNL     1      -7.726   0.937 -32.041  1.00  0.00     0.035 A 
HETATM    6  C   UNL     1      -8.802   0.776 -32.916  1.00  0.00     0.038 A 
HETATM    7  C   UNL     1      -9.949   1.583 -32.830  1.00  0.00    -0.030 A 
HETATM    8  C   UNL     1      -9.971   2.619 -31.889  1.00  0.00     0.009 A 
HETATM    9  C   UNL     1      -8.884   2.813 -31.035  1.00  0.00     0.003 A 
HETATM   10  C   UNL     1      -7.773   1.969 -31.103  1.00  0.00     0.029 A 
BRANCH   7  11
HETATM   11  C   UNL     1     -11.128   1.295 -33.723  1.00  0.00     0.273 C 
BRANCH  11  12
HETATM   12  N   UNL     1     -12.415   2.049 -33.393  1.00  0.00    -0.068 N 
HETATM   13  H   UNL     1     -12.267   2.444 -32.457  1.00  0.00     0.280 HD
BRANCH  12  14
HETATM   14  C   UNL     1     -13.643   1.163 -33.286  1.00  0.00     0.231 C 
HETATM   15  C   UNL     1     -13.325  -0.267 -33.686  1.00  0.00     0.034 C 
ENDBRANCH  12  14
BRANCH  12  16
HETATM   16  C   UNL     1     -12.697   3.240 -34.297  1.00  0.00     0.231 C 
HETATM   17  C   UNL     1     -12.334   2.941 -35.740  1.00  0.00     0.034 C 
ENDBRANCH  12  16
ENDBRANCH  11  12
ENDBRANCH   7  11
ENDBRANCH   1   5
BRANCH   2  18
HETATM   18  C   UNL     1      -4.478  -0.860 -32.460  1.00  0.00     0.157 A 
HETATM   19  N   UNL     1      -3.404  -0.876 -31.640  1.00  0.00    -0.168 NA
HETATM   20  N   UNL     1      -2.913  -2.123 -31.785  1.00  0.00    -0.277 N 
HETATM   21  H   UNL     1      -2.097  -2.389 -31.245  1.00  0.00     0.189 HD
HETATM   22  C   UNL     1      -3.601  -2.901 -32.675  1.00  0.00     0.063 A 
HETATM   23  C   UNL     1      -4.629  -2.098 -33.150  1.00  0.00     0.029 A 
HETATM   24  C   UNL     1      -3.405  -4.218 -33.099  1.00  0.00     0.032 A 
HETATM   25  C   UNL     1      -5.512  -2.623 -34.115  1.00  0.00     0.023 A 
HETATM   26  C   UNL     1      -5.340  -3.942 -34.568  1.00  0.00    -0.061 A 
HETATM   27  C   UNL     1      -4.292  -4.720 -34.060  1.00  0.00     0.009 A 
HETATM   28  C   UNL     1      -6.241  -4.485 -35.640  1.00  0.00     0.048 C 
ENDBRANCH   2  18
TORSDOF 6
ENDMDL
MODEL 2
REMARK VINA RESULT:      -8.0      4.652      6.571
REMARK  6 active torsions:
REMARK  status: ('A' for Active; 'I' for Inactive)
REMARK    1  A    between atoms: C_2  and  N_3 
REMARK    2  A    between atoms: N_3  and  C_5 
REMARK    3  A    between atoms: N_3  and  C_26 
REMARK    4  A    between atoms: C_5  and  C_6 
REMARK    5  A    between atoms: C_8  and  N_9 
REMARK       I    between atoms: N_9  and  C_10 
REMARK    6  A    between atoms: C_10  and  C_11 
ROOT
HETATM    1  N   UNL     1      -3.688   0.857 -31.560  1.00  0.00    -0.322 N 
HETATM    2  C   UNL     1      -4.277   0.042 -32.515  1.00  0.00     0.277 C 
HETATM    3  O   UNL     1      -5.144   0.388 -33.313  1.00  0.00    -0.266 OA
HETATM    4  H   UNL     1      -2.981   0.376 -31.005  1.00  0.00     0.169 HD
ENDROOT
BRANCH   1   5
HETATM    5  C   UNL     1      -3.995   2.190 -31.247  1.00  0.00     0.035 A 
HETATM    6  C   UNL     1      -3.199   3.269 -31.638  1.00  0.00     0.038 A 
HETATM    7  C   UNL     1      -3.589   4.597 -31.396  1.00  0.00    -0.030 A 
HETATM    8  C   UNL     1      -4.768   4.831 -30.679  1.00  0.00     0.009 A 
HETATM    9  C   UNL     1      -5.551   3.758 -30.250  1.00  0.00     0.003 A 
HETATM   10  C   UNL     1      -5.173   2.445 -30.544  1.00  0.00     0.029 A 
BRANCH   7  11
HETATM   11  C   UNL     1      -2.751   5.726 -31.937  1.00  0.00     0.273 C 
BRANCH  11  12
HETATM   12  N   UNL     1      -1.412   5.327 -32.556  1.00  0.00    -0.068 N 
HETATM   13  H   UNL     1      -1.437   4.303 -32.622  1.00  0.00     0.280 HD
BRANCH  12  14
HETATM   14  C   UNL     1      -0.207   5.664 -31.697  1.00  0.00     0.231 C 
HETATM   15  C   UNL     1      -0.393   6.991 -30.985  1.00  0.00     0.034 C 
ENDBRANCH  12  14
BRANCH  12  16
HETATM   16  C   UNL     1      -1.203   5.821 -33.980  1.00  0.00     0.231 C 
HETATM   17  C   UNL     1      -2.194   5.187 -34.939  1.00  0.00     0.034 C 
ENDBRANCH  12  16
ENDBRANCH  11  12
ENDBRANCH   7  11
ENDBRANCH   1   5
BRANCH   2  18
HETATM   18  C   UNL     1      -3.763  -1.336 -32.458  1.00  0.00     0.157 A 
HETATM   19  N   UNL     1      -2.742  -1.667 -31.637  1.00  0.00    -0.168 NA
HETATM   20  N   UNL     1      -2.606  -2.995 -31.817  1.00  0.00    -0.277 N 
HETATM   21  H   UNL     1      -1.898  -3.487 -31.284  1.00  0.00     0.189 HD
HETATM   22  C   UNL     1      -3.470  -3.532 -32.732  1.00  0.00     0.063 A 
HETATM   23  C   UNL     1      -4.237  -2.467 -33.185  1.00  0.00     0.029 A 
HETATM   24  C   UNL     1      -3.634  -4.840 -33.195  1.00  0.00     0.032 A 
HETATM   25  C   UNL     1      -5.220  -2.705 -34.167  1.00  0.00     0.023 A 
HETATM   26  C   UNL     1      -5.407  -4.008 -34.658  1.00  0.00    -0.061 A 
HETATM   27  C   UNL     1      -4.613  -5.055 -34.172  1.00  0.00     0.009 A 
HETATM   28  C   UNL     1      -6.410  -4.256 -35.748  1.00  0.00     0.048 C 
ENDBRANCH   2  18
TORSDOF 6
ENDMDL
MODEL 3
REMARK VINA RESULT:      -8.0      5.376      8.359
REMARK  6 active torsions:
REMARK  status: ('A' for Active; 'I' for Inactive)
REMARK    1  A    between atoms: C_2  and  N_3 
REMARK    2  A    between atoms: N_3  and  C_5 
REMARK    3  A    between atoms: N_3  and  C_26 
REMARK    4  A    between atoms: C_5  and  C_6 
REMARK    5  A    between atoms: C_8  and  N_9 
REMARK       I    between atoms: N_9  and  C_10 
REMARK    6  A    between atoms: C_10  and  C_11 
ROOT
HETATM    1  N   UNL     1      -3.933   3.271 -32.659  1.00  0.00    -0.322 N 
HETATM    2  C   UNL     1      -3.982   1.944 -32.259  1.00  0.00     0.277 C 
HETATM    3  O   UNL     1      -3.068   1.325 -31.721  1.00  0.00    -0.266 OA
HETATM    4  H   UNL     1      -4.804   3.596 -33.076  1.00  0.00     0.169 HD
ENDROOT
BRANCH   1   5
HETATM    5  C   UNL     1      -2.840   4.150 -32.615  1.00  0.00     0.035 A 
HETATM    6  C   UNL     1      -2.109   4.401 -31.453  1.00  0.00     0.038 A 
HETATM    7  C   UNL     1      -0.959   5.209 -31.466  1.00  0.00    -0.030 A 
HETATM    8  C   UNL     1      -0.591   5.833 -32.663  1.00  0.00     0.009 A 
HETATM    9  C   UNL     1      -1.338   5.619 -33.823  1.00  0.00     0.003 A 
HETATM   10  C   UNL     1      -2.450   4.773 -33.801  1.00  0.00     0.029 A 
BRANCH   7  11
HETATM   11  C   UNL     1      -0.141   5.356 -30.209  1.00  0.00     0.273 C 
BRANCH  11  12
HETATM   12  N   UNL     1      -0.799   6.137 -29.073  1.00  0.00    -0.068 N 
HETATM   13  H   UNL     1      -1.561   5.537 -28.735  1.00  0.00     0.280 HD
BRANCH  12  14
HETATM   14  C   UNL     1      -1.450   7.437 -29.509  1.00  0.00     0.231 C 
HETATM   15  C   UNL     1      -2.919   7.472 -29.124  1.00  0.00     0.034 C 
ENDBRANCH  12  14
BRANCH  12  16
HETATM   16  C   UNL     1       0.099   6.372 -27.866  1.00  0.00     0.231 C 
HETATM   17  C   UNL     1       0.930   7.632 -28.030  1.00  0.00     0.034 C 
ENDBRANCH  12  16
ENDBRANCH  11  12
ENDBRANCH   7  11
ENDBRANCH   1   5
BRANCH   2  18
HETATM   18  C   UNL     1      -5.275   1.318 -32.580  1.00  0.00     0.157 A 
HETATM   19  N   UNL     1      -6.440   1.955 -32.328  1.00  0.00    -0.168 NA
HETATM   20  N   UNL     1      -7.375   1.109 -32.806  1.00  0.00    -0.277 N 
HETATM   21  H   UNL     1      -8.350   1.380 -32.746  1.00  0.00     0.189 HD
HETATM   22  C   UNL     1      -6.872  -0.050 -33.329  1.00  0.00     0.063 A 
HETATM   23  C   UNL     1      -5.494   0.046 -33.184  1.00  0.00     0.029 A 
HETATM   24  C   UNL     1      -7.502  -1.158 -33.901  1.00  0.00     0.032 A 
HETATM   25  C   UNL     1      -4.688  -1.025 -33.620  1.00  0.00     0.023 A 
HETATM   26  C   UNL     1      -5.291  -2.157 -34.194  1.00  0.00    -0.061 A 
HETATM   27  C   UNL     1      -6.684  -2.213 -34.324  1.00  0.00     0.009 A 
HETATM   28  C   UNL     1      -4.441  -3.326 -34.603  1.00  0.00     0.048 C 
ENDBRANCH   2  18
TORSDOF 6
ENDMDL
MODEL 4
REMARK VINA RESULT:      -7.9      5.926      8.735
REMARK  6 active torsions:
REMARK  status: ('A' for Active; 'I' for Inactive)
REMARK    1  A    between atoms: C_2  and  N_3 
REMARK    2  A    between atoms: N_3  and  C_5 
REMARK    3  A    between atoms: N_3  and  C_26 
REMARK    4  A    between atoms: C_5  and  C_6 
REMARK    5  A    between atoms: C_8  and  N_9 
REMARK       I    between atoms: N_9  and  C_10 
REMARK    6  A    between atoms: C_10  and  C_11 
ROOT
HETATM    1  N   UNL     1      -2.598   3.285 -32.637  1.00  0.00    -0.322 N 
HETATM    2  C   UNL     1      -3.560   2.773 -31.779  1.00  0.00     0.277 C 
HETATM    3  O   UNL     1      -4.208   3.423 -30.963  1.00  0.00    -0.266 OA
HETATM    4  H   UNL     1      -2.185   2.577 -33.243  1.00  0.00     0.169 HD
ENDROOT
BRANCH   1   5
HETATM    5  C   UNL     1      -2.109   4.598 -32.709  1.00  0.00     0.035 A 
HETATM    6  C   UNL     1      -1.311   5.171 -31.716  1.00  0.00     0.038 A 
HETATM    7  C   UNL     1      -0.755   6.452 -31.866  1.00  0.00    -0.030 A 
HETATM    8  C   UNL     1      -1.076   7.193 -33.009  1.00  0.00     0.009 A 
HETATM    9  C   UNL     1      -1.904   6.645 -33.991  1.00  0.00     0.003 A 
HETATM   10  C   UNL     1      -2.407   5.349 -33.846  1.00  0.00     0.029 A 
BRANCH   7  11
HETATM   11  C   UNL     1       0.190   6.979 -30.818  1.00  0.00     0.273 C 
BRANCH  11  12
HETATM   12  N   UNL     1      -0.336   6.975 -29.383  1.00  0.00    -0.068 N 
HETATM   13  H   UNL     1      -1.200   6.421 -29.411  1.00  0.00     0.280 HD
BRANCH  12  14
HETATM   14  C   UNL     1      -0.733   8.345 -28.865  1.00  0.00     0.231 C 
HETATM   15  C   UNL     1      -2.169   8.677 -29.232  1.00  0.00     0.034 C 
ENDBRANCH  12  14
BRANCH  12  16
HETATM   16  C   UNL     1       0.568   6.271 -28.382  1.00  0.00     0.231 C 
HETATM   17  C   UNL     1       1.138   7.245 -27.367  1.00  0.00     0.034 C 
ENDBRANCH  12  16
ENDBRANCH  11  12
ENDBRANCH   7  11
ENDBRANCH   1   5
BRANCH   2  18
HETATM   18  C   UNL     1      -3.713   1.317 -31.926  1.00  0.00     0.157 A 
HETATM   19  N   UNL     1      -2.925   0.460 -31.239  1.00  0.00    -0.168 NA
HETATM   20  N   UNL     1      -3.399  -0.754 -31.583  1.00  0.00    -0.277 N 
HETATM   21  H   UNL     1      -2.971  -1.576 -31.173  1.00  0.00     0.189 HD
HETATM   22  C   UNL     1      -4.434  -0.723 -32.478  1.00  0.00     0.063 A 
HETATM   23  C   UNL     1      -4.658   0.623 -32.737  1.00  0.00     0.029 A 
HETATM   24  C   UNL     1      -5.174  -1.747 -33.073  1.00  0.00     0.032 A 
HETATM   25  C   UNL     1      -5.668   0.981 -33.652  1.00  0.00     0.023 A 
HETATM   26  C   UNL     1      -6.427  -0.025 -34.275  1.00  0.00    -0.061 A 
HETATM   27  C   UNL     1      -6.171  -1.370 -33.983  1.00  0.00     0.009 A 
HETATM   28  C   UNL     1      -7.462   0.349 -35.296  1.00  0.00     0.048 C 
ENDBRANCH   2  18
TORSDOF 6
ENDMDL
MODEL 5
REMARK VINA RESULT:      -7.8      4.868      8.077
REMARK  6 active torsions:
REMARK  status: ('A' for Active; 'I' for Inactive)
REMARK    1  A    between atoms: C_2  and  N_3 
REMARK    2  A    between atoms: N_3  and  C_5 
REMARK    3  A    between atoms: N_3  and  C_26 
REMARK    4  A    between atoms: C_5  and  C_6 
REMARK    5  A    between atoms: C_8  and  N_9 
REMARK       I    between atoms: N_9  and  C_10 
REMARK    6  A    between atoms: C_10  and  C_11 
ROOT
HETATM    1  N   UNL     1      -4.169   3.047 -32.424  1.00  0.00    -0.322 N 
HETATM    2  C   UNL     1      -4.678   4.223 -32.953  1.00  0.00     0.277 C 
HETATM    3  O   UNL     1      -5.870   4.494 -33.079  1.00  0.00    -0.266 OA
HETATM    4  H   UNL     1      -3.151   3.028 -32.399  1.00  0.00     0.169 HD
ENDROOT
BRANCH   1   5
HETATM    5  C   UNL     1      -4.873   1.909 -32.003  1.00  0.00     0.035 A 
HETATM    6  C   UNL     1      -5.255   0.883 -32.869  1.00  0.00     0.038 A 
HETATM    7  C   UNL     1      -5.869  -0.290 -32.398  1.00  0.00    -0.030 A 
HETATM    8  C   UNL     1      -6.169  -0.388 -31.034  1.00  0.00     0.009 A 
HETATM    9  C   UNL     1      -5.826   0.649 -30.164  1.00  0.00     0.003 A 
HETATM   10  C   UNL     1      -5.171   1.786 -30.645  1.00  0.00     0.029 A 
BRANCH   7  11
HETATM   11  C   UNL     1      -6.159  -1.414 -33.358  1.00  0.00     0.273 C 
BRANCH  11  12
HETATM   12  N   UNL     1      -4.939  -2.085 -33.987  1.00  0.00    -0.068 N 
HETATM   13  H   UNL     1      -4.483  -1.353 -34.546  1.00  0.00     0.280 HD
BRANCH  12  14
HETATM   14  C   UNL     1      -5.278  -3.203 -34.957  1.00  0.00     0.231 C 
HETATM   15  C   UNL     1      -6.740  -3.596 -34.853  1.00  0.00     0.034 C 
ENDBRANCH  12  14
BRANCH  12  16
HETATM   16  C   UNL     1      -3.888  -2.549 -32.989  1.00  0.00     0.231 C 
HETATM   17  C   UNL     1      -3.537  -4.011 -33.192  1.00  0.00     0.034 C 
ENDBRANCH  12  16
ENDBRANCH  11  12
ENDBRANCH   7  11
ENDBRANCH   1   5
BRANCH   2  18
HETATM   18  C   UNL     1      -3.612   5.138 -33.393  1.00  0.00     0.157 A 
HETATM   19  N   UNL     1      -3.657   5.728 -34.608  1.00  0.00    -0.168 NA
HETATM   20  N   UNL     1      -2.566   6.520 -34.617  1.00  0.00    -0.277 N 
HETATM   21  H   UNL     1      -2.388   7.091 -35.436  1.00  0.00     0.189 HD
HETATM   22  C   UNL     1      -1.808   6.450 -33.480  1.00  0.00     0.063 A 
HETATM   23  C   UNL     1      -2.458   5.540 -32.658  1.00  0.00     0.029 A 
HETATM   24  C   UNL     1      -0.624   7.096 -33.115  1.00  0.00     0.032 A 
HETATM   25  C   UNL     1      -1.897   5.236 -31.401  1.00  0.00     0.023 A 
HETATM   26  C   UNL     1      -0.703   5.863 -31.006  1.00  0.00    -0.061 A 
HETATM   27  C   UNL     1      -0.081   6.778 -31.864  1.00  0.00     0.009 A 
HETATM   28  C   UNL     1      -0.070   5.497 -29.694  1.00  0.00     0.048 C 
ENDBRANCH   2  18
TORSDOF 6
ENDMDL
MODEL 6
REMARK VINA RESULT:      -7.8      1.820      2.823
REMARK  6 active torsions:
REMARK  status: ('A' for Active; 'I' for Inactive)
REMARK    1  A    between atoms: C_2  and  N_3 
REMARK    2  A    between atoms: N_3  and  C_5 
REMARK    3  A    between atoms: N_3  and  C_26 
REMARK    4  A    between atoms: C_5  and  C_6 
REMARK    5  A    between atoms: C_8  and  N_9 
REMARK       I    between atoms: N_9  and  C_10 
REMARK    6  A    between atoms: C_10  and  C_11 
ROOT
HETATM    1  N   UNL     1      -8.637   2.117 -32.580  1.00  0.00    -0.322 N 
HETATM    2  C   UNL     1      -8.449   0.747 -32.674  1.00  0.00     0.277 C 
HETATM    3  O   UNL     1      -9.331  -0.103 -32.584  1.00  0.00    -0.266 OA
HETATM    4  H   UNL     1      -7.775   2.648 -32.694  1.00  0.00     0.169 HD
ENDROOT
BRANCH   1   5
HETATM    5  C   UNL     1      -9.821   2.814 -32.291  1.00  0.00     0.035 A 
HETATM    6  C   UNL     1     -10.868   2.952 -33.205  1.00  0.00     0.038 A 
HETATM    7  C   UNL     1     -12.079   3.568 -32.849  1.00  0.00    -0.030 A 
HETATM    8  C   UNL     1     -12.202   4.118 -31.568  1.00  0.00     0.009 A 
HETATM    9  C   UNL     1     -11.146   4.019 -30.659  1.00  0.00     0.003 A 
HETATM   10  C   UNL     1      -9.967   3.359 -31.015  1.00  0.00     0.029 A 
BRANCH   7  11
HETATM   11  C   UNL     1     -13.218   3.591 -33.835  1.00  0.00     0.273 C 
BRANCH  11  12
HETATM   12  N   UNL     1     -14.102   2.346 -33.864  1.00  0.00    -0.068 N 
HETATM   13  H   UNL     1     -14.925   2.609 -34.420  1.00  0.00     0.280 HD
BRANCH  12  14
HETATM   14  C   UNL     1     -14.631   1.929 -32.504  1.00  0.00     0.231 C 
HETATM   15  C   UNL     1     -16.083   2.338 -32.330  1.00  0.00     0.034 C 
ENDBRANCH  12  14
BRANCH  12  16
HETATM   16  C   UNL     1     -13.489   1.153 -34.583  1.00  0.00     0.231 C 
HETATM   17  C   UNL     1     -13.395  -0.056 -33.671  1.00  0.00     0.034 C 
ENDBRANCH  12  16
ENDBRANCH  11  12
ENDBRANCH   7  11
ENDBRANCH   1   5
BRANCH   2  18
HETATM   18  C   UNL     1      -7.033   0.396 -32.871  1.00  0.00     0.157 A 
HETATM   19  N   UNL     1      -6.046   1.228 -32.471  1.00  0.00    -0.168 NA
HETATM   20  N   UNL     1      -4.920   0.546 -32.758  1.00  0.00    -0.277 N 
HETATM   21  H   UNL     1      -4.026   0.967 -32.528  1.00  0.00     0.189 HD
HETATM   22  C   UNL     1      -5.131  -0.671 -33.346  1.00  0.00     0.063 A 
HETATM   23  C   UNL     1      -6.510  -0.797 -33.449  1.00  0.00     0.029 A 
HETATM   24  C   UNL     1      -4.241  -1.651 -33.792  1.00  0.00     0.032 A 
HETATM   25  C   UNL     1      -7.044  -1.958 -34.043  1.00  0.00     0.023 A 
HETATM   26  C   UNL     1      -6.176  -2.961 -34.509  1.00  0.00    -0.061 A 
HETATM   27  C   UNL     1      -4.792  -2.795 -34.383  1.00  0.00     0.009 A 
HETATM   28  C   UNL     1      -6.739  -4.171 -35.197  1.00  0.00     0.048 C 
ENDBRANCH   2  18
TORSDOF 6
ENDMDL
MODEL 7
REMARK VINA RESULT:      -7.8      4.152      6.785
REMARK  6 active torsions:
REMARK  status: ('A' for Active; 'I' for Inactive)
REMARK    1  A    between atoms: C_2  and  N_3 
REMARK    2  A    between atoms: N_3  and  C_5 
REMARK    3  A    between atoms: N_3  and  C_26 
REMARK    4  A    between atoms: C_5  and  C_6 
REMARK    5  A    between atoms: C_8  and  N_9 
REMARK       I    between atoms: N_9  and  C_10 
REMARK    6  A    between atoms: C_10  and  C_11 
ROOT
HETATM    1  N   UNL     1      -4.365   1.266 -31.638  1.00  0.00    -0.322 N 
HETATM    2  C   UNL     1      -3.374   0.316 -31.446  1.00  0.00     0.277 C 
HETATM    3  O   UNL     1      -2.356   0.469 -30.777  1.00  0.00    -0.266 OA
HETATM    4  H   UNL     1      -5.132   0.933 -32.220  1.00  0.00     0.169 HD
ENDROOT
BRANCH   1   5
HETATM    5  C   UNL     1      -4.390   2.596 -31.191  1.00  0.00     0.035 A 
HETATM    6  C   UNL     1      -3.525   3.580 -31.674  1.00  0.00     0.038 A 
HETATM    7  C   UNL     1      -3.644   4.924 -31.280  1.00  0.00    -0.030 A 
HETATM    8  C   UNL     1      -4.608   5.259 -30.322  1.00  0.00     0.009 A 
HETATM    9  C   UNL     1      -5.453   4.276 -29.804  1.00  0.00     0.003 A 
HETATM   10  C   UNL     1      -5.352   2.954 -30.245  1.00  0.00     0.029 A 
BRANCH   7  11
HETATM   11  C   UNL     1      -2.759   5.964 -31.915  1.00  0.00     0.273 C 
BRANCH  11  12
HETATM   12  N   UNL     1      -1.445   5.455 -32.504  1.00  0.00    -0.068 N 
HETATM   13  H   UNL     1      -1.490   4.432 -32.426  1.00  0.00     0.280 HD
BRANCH  12  14
HETATM   14  C   UNL     1      -0.212   5.880 -31.728  1.00  0.00     0.231 C 
HETATM   15  C   UNL     1      -0.522   7.033 -30.791  1.00  0.00     0.034 C 
ENDBRANCH  12  14
BRANCH  12  16
HETATM   16  C   UNL     1      -1.264   5.743 -33.987  1.00  0.00     0.231 C 
HETATM   17  C   UNL     1      -2.493   5.345 -34.784  1.00  0.00     0.034 C 
ENDBRANCH  12  16
ENDBRANCH  11  12
ENDBRANCH   7  11
ENDBRANCH   1   5
BRANCH   2  18
HETATM   18  C   UNL     1      -3.656  -0.931 -32.176  1.00  0.00     0.157 A 
HETATM   19  N   UNL     1      -2.920  -2.044 -31.966  1.00  0.00    -0.168 NA
HETATM   20  N   UNL     1      -3.509  -2.968 -32.751  1.00  0.00    -0.277 N 
HETATM   21  H   UNL     1      -3.137  -3.912 -32.752  1.00  0.00     0.189 HD
HETATM   22  C   UNL     1      -4.570  -2.500 -33.476  1.00  0.00     0.063 A 
HETATM   23  C   UNL     1      -4.687  -1.159 -33.134  1.00  0.00     0.029 A 
HETATM   24  C   UNL     1      -5.417  -3.129 -34.391  1.00  0.00     0.032 A 
HETATM   25  C   UNL     1      -5.697  -0.387 -33.744  1.00  0.00     0.023 A 
HETATM   26  C   UNL     1      -6.562  -0.988 -34.673  1.00  0.00    -0.061 A 
HETATM   27  C   UNL     1      -6.411  -2.344 -34.988  1.00  0.00     0.009 A 
HETATM   28  C   UNL     1      -7.600  -0.156 -35.370  1.00  0.00     0.048 C 
ENDBRANCH   2  18
TORSDOF 6
ENDMDL
MODEL 8
REMARK VINA RESULT:      -7.8      4.327      7.079
REMARK  6 active torsions:
REMARK  status: ('A' for Active; 'I' for Inactive)
REMARK    1  A    between atoms: C_2  and  N_3 
REMARK    2  A    between atoms: N_3  and  C_5 
REMARK    3  A    between atoms: N_3  and  C_26 
REMARK    4  A    between atoms: C_5  and  C_6 
REMARK    5  A    between atoms: C_8  and  N_9 
REMARK       I    between atoms: N_9  and  C_10 
REMARK    6  A    between atoms: C_10  and  C_11 
ROOT
HETATM    1  N   UNL     1      -5.392   1.739 -32.474  1.00  0.00    -0.322 N 
HETATM    2  C   UNL     1      -4.806   0.497 -32.662  1.00  0.00     0.277 C 
HETATM    3  O   UNL     1      -3.676   0.177 -32.302  1.00  0.00    -0.266 OA
HETATM    4  H   UNL     1      -6.342   1.794 -32.839  1.00  0.00     0.169 HD
ENDROOT
BRANCH   1   5
HETATM    5  C   UNL     1      -4.819   2.894 -31.919  1.00  0.00     0.035 A 
HETATM    6  C   UNL     1      -3.528   3.329 -32.227  1.00  0.00     0.038 A 
HETATM    7  C   UNL     1      -3.022   4.543 -31.733  1.00  0.00    -0.030 A 
HETATM    8  C   UNL     1      -3.813   5.291 -30.852  1.00  0.00     0.009 A 
HETATM    9  C   UNL     1      -5.091   4.846 -30.508  1.00  0.00     0.003 A 
HETATM   10  C   UNL     1      -5.595   3.660 -31.049  1.00  0.00     0.029 A 
BRANCH   7  11
HETATM   11  C   UNL     1      -1.667   5.021 -32.184  1.00  0.00     0.273 C 
BRANCH  11  12
HETATM   12  N   UNL     1      -1.580   6.490 -32.595  1.00  0.00    -0.068 N 
HETATM   13  H   UNL     1      -2.519   6.874 -32.435  1.00  0.00     0.280 HD
BRANCH  12  14
HETATM   14  C   UNL     1      -1.283   6.706 -34.067  1.00  0.00     0.231 C 
HETATM   15  C   UNL     1      -1.234   5.387 -34.818  1.00  0.00     0.034 C 
ENDBRANCH  12  14
BRANCH  12  16
HETATM   16  C   UNL     1      -0.645   7.331 -31.737  1.00  0.00     0.231 C 
HETATM   17  C   UNL     1       0.470   6.490 -31.143  1.00  0.00     0.034 C 
ENDBRANCH  12  16
ENDBRANCH  11  12
ENDBRANCH   7  11
ENDBRANCH   1   5
BRANCH   2  18
HETATM   18  C   UNL     1      -5.691  -0.426 -33.391  1.00  0.00     0.157 A 
HETATM   19  N   UNL     1      -6.918  -0.037 -33.803  1.00  0.00    -0.168 NA
HETATM   20  N   UNL     1      -7.385  -1.111 -34.470  1.00  0.00    -0.277 N 
HETATM   21  H   UNL     1      -8.303  -1.055 -34.897  1.00  0.00     0.189 HD
HETATM   22  C   UNL     1      -6.533  -2.181 -34.485  1.00  0.00     0.063 A 
HETATM   23  C   UNL     1      -5.414  -1.771 -33.772  1.00  0.00     0.029 A 
HETATM   24  C   UNL     1      -6.653  -3.452 -35.050  1.00  0.00     0.032 A 
HETATM   25  C   UNL     1      -4.351  -2.680 -33.594  1.00  0.00     0.023 A 
HETATM   26  C   UNL     1      -4.442  -3.969 -34.144  1.00  0.00    -0.061 A 
HETATM   27  C   UNL     1      -5.587  -4.341 -34.859  1.00  0.00     0.009 A 
HETATM   28  C   UNL     1      -3.339  -4.960 -33.906  1.00  0.00     0.048 C 
ENDBRANCH   2  18
TORSDOF 6
ENDMDL
MODEL 9
REMARK VINA RESULT:      -7.6      6.332      8.978
REMARK  6 active torsions:
REMARK  status: ('A' for Active; 'I' for Inactive)
REMARK    1  A    between atoms: C_2  and  N_3 
REMARK    2  A    between atoms: N_3  and  C_5 
REMARK    3  A    between atoms: N_3  and  C_26 
REMARK    4  A    between atoms: C_5  and  C_6 
REMARK    5  A    between atoms: C_8  and  N_9 
REMARK       I    between atoms: N_9  and  C_10 
REMARK    6  A    between atoms: C_10  and  C_11 
ROOT
HETATM    1  N   UNL     1      -2.652   4.494 -31.326  1.00  0.00    -0.322 N 
HETATM    2  C   UNL     1      -1.393   4.943 -31.695  1.00  0.00     0.277 C 
HETATM    3  O   UNL     1      -0.998   5.098 -32.847  1.00  0.00    -0.266 OA
HETATM    4  H   UNL     1      -2.780   4.447 -30.316  1.00  0.00     0.169 HD
ENDROOT
BRANCH   1   5
HETATM    5  C   UNL     1      -3.694   4.055 -32.156  1.00  0.00     0.035 A 
HETATM    6  C   UNL     1      -4.193   2.751 -32.132  1.00  0.00     0.038 A 
HETATM    7  C   UNL     1      -5.304   2.372 -32.903  1.00  0.00    -0.030 A 
HETATM    8  C   UNL     1      -5.870   3.313 -33.771  1.00  0.00     0.009 A 
HETATM    9  C   UNL     1      -5.356   4.609 -33.832  1.00  0.00     0.003 A 
HETATM   10  C   UNL     1      -4.281   4.981 -33.019  1.00  0.00     0.029 A 
BRANCH   7  11
HETATM   11  C   UNL     1      -5.871   0.984 -32.756  1.00  0.00     0.273 C 
BRANCH  11  12
HETATM   12  N   UNL     1      -5.518  -0.003 -33.867  1.00  0.00    -0.068 N 
HETATM   13  H   UNL     1      -5.183   0.573 -34.647  1.00  0.00     0.280 HD
BRANCH  12  14
HETATM   14  C   UNL     1      -6.704  -0.785 -34.402  1.00  0.00     0.231 C 
HETATM   15  C   UNL     1      -7.572   0.080 -35.299  1.00  0.00     0.034 C 
ENDBRANCH  12  14
BRANCH  12  16
HETATM   16  C   UNL     1      -4.370  -0.944 -33.533  1.00  0.00     0.231 C 
HETATM   17  C   UNL     1      -4.275  -1.196 -32.039  1.00  0.00     0.034 C 
ENDBRANCH  12  16
ENDBRANCH  11  12
ENDBRANCH   7  11
ENDBRANCH   1   5
BRANCH   2  18
HETATM   18  C   UNL     1      -0.533   5.197 -30.527  1.00  0.00     0.157 A 
HETATM   19  N   UNL     1       0.365   4.278 -30.109  1.00  0.00    -0.168 NA
HETATM   20  N   UNL     1       0.988   4.887 -29.080  1.00  0.00    -0.277 N 
HETATM   21  H   UNL     1       1.733   4.392 -28.603  1.00  0.00     0.189 HD
HETATM   22  C   UNL     1       0.518   6.140 -28.798  1.00  0.00     0.063 A 
HETATM   23  C   UNL     1      -0.493   6.372 -29.721  1.00  0.00     0.029 A 
HETATM   24  C   UNL     1       0.887   7.070 -27.823  1.00  0.00     0.032 A 
HETATM   25  C   UNL     1      -1.194   7.594 -29.669  1.00  0.00     0.023 A 
HETATM   26  C   UNL     1      -0.852   8.548 -28.696  1.00  0.00    -0.061 A 
HETATM   27  C   UNL     1       0.177   8.276 -27.786  1.00  0.00     0.009 A 
HETATM   28  C   UNL     1      -1.636   9.825 -28.599  1.00  0.00     0.048 C 
ENDBRANCH   2  18
TORSDOF 6
ENDMDL
MODEL 10
REMARK VINA RESULT:      -7.3      5.988      8.914
REMARK  6 active torsions:
REMARK  status: ('A' for Active; 'I' for Inactive)
REMARK    1  A    between atoms: C_2  and  N_3 
REMARK    2  A    between atoms: N_3  and  C_5 
REMARK    3  A    between atoms: N_3  and  C_26 
REMARK    4  A    between atoms: C_5  and  C_6 
REMARK    5  A    between atoms: C_8  and  N_9 
REMARK       I    between atoms: N_9  and  C_10 
REMARK    6  A    between atoms: C_10  and  C_11 
ROOT
HETATM    1  N   UNL     1      -3.697   4.017 -33.291  1.00  0.00    -0.322 N 
HETATM    2  C   UNL     1      -4.897   3.767 -32.644  1.00  0.00     0.277 C 
HETATM    3  O   UNL     1      -5.335   4.391 -31.682  1.00  0.00    -0.266 OA
HETATM    4  H   UNL     1      -3.526   3.389 -34.075  1.00  0.00     0.169 HD
ENDROOT
BRANCH   1   5
HETATM    5  C   UNL     1      -2.709   4.956 -32.955  1.00  0.00     0.035 A 
HETATM    6  C   UNL     1      -2.069   4.979 -31.714  1.00  0.00     0.038 A 
HETATM    7  C   UNL     1      -1.014   5.868 -31.446  1.00  0.00    -0.030 A 
HETATM    8  C   UNL     1      -0.654   6.798 -32.428  1.00  0.00     0.009 A 
HETATM    9  C   UNL     1      -1.314   6.808 -33.658  1.00  0.00     0.003 A 
HETATM   10  C   UNL     1      -2.327   5.884 -33.924  1.00  0.00     0.029 A 
BRANCH   7  11
HETATM   11  C   UNL     1      -0.282   5.776 -30.132  1.00  0.00     0.273 C 
BRANCH  11  12
HETATM   12  N   UNL     1      -0.196   7.070 -29.325  1.00  0.00    -0.068 N 
HETATM   13  H   UNL     1       0.173   7.774 -29.976  1.00  0.00     0.280 HD
BRANCH  12  14
HETATM   14  C   UNL     1       0.786   7.015 -28.169  1.00  0.00     0.231 C 
HETATM   15  C   UNL     1       1.371   8.386 -27.878  1.00  0.00     0.034 C 
ENDBRANCH  12  14
BRANCH  12  16
HETATM   16  C   UNL     1      -1.538   7.613 -28.856  1.00  0.00     0.231 C 
HETATM   17  C   UNL     1      -1.905   8.892 -29.585  1.00  0.00     0.034 C 
ENDBRANCH  12  16
ENDBRANCH  11  12
ENDBRANCH   7  11
ENDBRANCH   1   5
BRANCH   2  18
HETATM   18  C   UNL     1      -5.609   2.617 -33.227  1.00  0.00     0.157 A 
HETATM   19  N   UNL     1      -6.730   2.789 -33.960  1.00  0.00    -0.168 NA
HETATM   20  N   UNL     1      -7.043   1.541 -34.361  1.00  0.00    -0.277 N 
HETATM   21  H   UNL     1      -7.856   1.411 -34.952  1.00  0.00     0.189 HD
HETATM   22  C   UNL     1      -6.195   0.571 -33.901  1.00  0.00     0.063 A 
HETATM   23  C   UNL     1      -5.247   1.241 -33.139  1.00  0.00     0.029 A 
HETATM   24  C   UNL     1      -6.186  -0.814 -34.083  1.00  0.00     0.032 A 
HETATM   25  C   UNL     1      -4.233   0.495 -32.505  1.00  0.00     0.023 A 
HETATM   26  C   UNL     1      -4.198  -0.901 -32.663  1.00  0.00    -0.061 A 
HETATM   27  C   UNL     1      -5.172  -1.537 -33.442  1.00  0.00     0.009 A 
HETATM   28  C   UNL     1      -3.156  -1.706 -31.940  1.00  0.00     0.048 C 
ENDBRANCH   2  18
TORSDOF 6
ENDMDL
