MODEL 1
REMARK VINA RESULT:      -8.0      0.000      0.000
REMARK  7 active torsions:
REMARK  status: ('A' for Active; 'I' for Inactive)
REMARK    1  A    between atoms: C_2  and  C_3 
REMARK    2  A    between atoms: C_3  and  N_4 
REMARK    3  A    between atoms: C_7  and  C_8 
REMARK    4  A    between atoms: C_8  and  N_9 
REMARK       I    between atoms: N_9  and  C_10 
REMARK       I    between atoms: C_10  and  N_11 
REMARK    5  A    between atoms: N_11  and  C_12 
REMARK    6  A    between atoms: C_15  and  N_16 
REMARK       I    between atoms: N_16  and  C_17 
REMARK    7  A    between atoms: C_17  and  C_18 
ROOT
HETATM    1  N   UNL     1      -6.972  -0.901 -33.452  1.00  0.00    -0.342 N 
HETATM    2  C   UNL     1      -8.010  -0.148 -32.991  1.00  0.00     0.320 C 
HETATM    3  N   UNL     1      -7.701   0.945 -32.238  1.00  0.00    -0.309 N 
HETATM    4  O   UNL     1      -9.185  -0.429 -33.213  1.00  0.00    -0.247 OA
HETATM    5  H   UNL     1      -6.156  -0.810 -32.856  1.00  0.00     0.164 HD
HETATM    6  H   UNL     1      -8.510   1.294 -31.735  1.00  0.00     0.170 HD
ENDROOT
BRANCH   3   7
HETATM    7  C   UNL     1      -6.487   1.616 -32.009  1.00  0.00     0.036 A 
HETATM    8  C   UNL     1      -5.541   1.214 -31.066  1.00  0.00     0.032 A 
HETATM    9  C   UNL     1      -4.383   1.972 -30.846  1.00  0.00     0.032 A 
HETATM   10  C   UNL     1      -4.147   3.136 -31.575  1.00  0.00     0.035 A 
HETATM   11  C   UNL     1      -5.057   3.496 -32.574  1.00  0.00     0.032 A 
HETATM   12  C   UNL     1      -6.210   2.735 -32.798  1.00  0.00     0.032 A 
BRANCH  10  13
HETATM   13  N   UNL     1      -3.058   3.995 -31.352  1.00  0.00    -0.321 N 
HETATM   14  C   UNL     1      -2.097   4.416 -32.257  1.00  0.00     0.279 C 
HETATM   15  O   UNL     1      -2.102   4.173 -33.460  1.00  0.00    -0.265 OA
HETATM   16  H   UNL     1      -2.895   4.304 -30.398  1.00  0.00     0.169 HD
BRANCH  14  17
HETATM   17  C   UNL     1      -1.036   5.180 -31.625  1.00  0.00     0.142 A 
HETATM   18  O   UNL     1      -0.357   4.636 -30.564  1.00  0.00    -0.317 OA
HETATM   19  C   UNL     1       0.590   5.535 -30.191  1.00  0.00     0.143 A 
HETATM   20  C   UNL     1       0.534   6.654 -30.988  1.00  0.00     0.027 A 
HETATM   21  C   UNL     1      -0.516   6.428 -31.910  1.00  0.00     0.045 A 
ENDBRANCH  14  17
ENDBRANCH  10  13
ENDBRANCH   3   7
BRANCH   1  22
HETATM   22  C   UNL     1      -7.107  -2.217 -34.055  1.00  0.00     0.130 C 
BRANCH  22  23
HETATM   23  C   UNL     1      -6.051  -2.649 -35.085  1.00  0.00     0.031 C 
HETATM   24  C   UNL     1      -4.616  -2.317 -34.696  1.00  0.00     0.241 C 
HETATM   25  N   UNL     1      -4.051  -3.586 -34.060  1.00  0.00    -0.071 N 
HETATM   26  H   UNL     1      -3.271  -3.870 -34.667  1.00  0.00     0.279 HD
HETATM   27  C   UNL     1      -5.116  -4.652 -34.158  1.00  0.00     0.235 C 
HETATM   28  C   UNL     1      -6.021  -4.163 -35.271  1.00  0.00     0.035 C 
BRANCH  25  29
HETATM   29  C   UNL     1      -3.498  -3.352 -32.680  1.00  0.00     0.234 C 
BRANCH  29  30
HETATM   30  C   UNL     1      -3.762  -1.931 -32.190  1.00  0.00     0.023 C 
HETATM   31  C   UNL     1      -2.496  -1.155 -31.855  1.00  0.00     0.007 C 
ENDBRANCH  29  30
ENDBRANCH  25  29
ENDBRANCH  22  23
ENDBRANCH   1  22
TORSDOF 7
ENDMDL
MODEL 2
REMARK VINA RESULT:      -8.0      2.499      8.146
REMARK  7 active torsions:
REMARK  status: ('A' for Active; 'I' for Inactive)
REMARK    1  A    between atoms: C_2  and  C_3 
REMARK    2  A    between atoms: C_3  and  N_4 
REMARK    3  A    between atoms: C_7  and  C_8 
REMARK    4  A    between atoms: C_8  and  N_9 
REMARK       I    between atoms: N_9  and  C_10 
REMARK       I    between atoms: C_10  and  N_11 
REMARK    5  A    between atoms: N_11  and  C_12 
REMARK    6  A    between atoms: C_15  and  N_16 
REMARK       I    between atoms: N_16  and  C_17 
REMARK    7  A    between atoms: C_17  and  C_18 
ROOT
HETATM    1  N   UNL     1      -4.080   4.693 -30.844  1.00  0.00    -0.342 N 
HETATM    2  C   UNL     1      -5.152   4.888 -30.024  1.00  0.00     0.320 C 
HETATM    3  N   UNL     1      -6.132   3.942 -30.045  1.00  0.00    -0.309 N 
HETATM    4  O   UNL     1      -5.265   5.875 -29.302  1.00  0.00    -0.247 OA
HETATM    5  H   UNL     1      -4.325   4.118 -31.643  1.00  0.00     0.164 HD
HETATM    6  H   UNL     1      -6.986   4.279 -29.613  1.00  0.00     0.170 HD
ENDROOT
BRANCH   3   7
HETATM    7  C   UNL     1      -6.176   2.645 -30.586  1.00  0.00     0.036 A 
HETATM    8  C   UNL     1      -5.779   1.499 -29.895  1.00  0.00     0.032 A 
HETATM    9  C   UNL     1      -5.789   0.247 -30.523  1.00  0.00     0.032 A 
HETATM   10  C   UNL     1      -6.206   0.118 -31.846  1.00  0.00     0.035 A 
HETATM   11  C   UNL     1      -6.676   1.254 -32.513  1.00  0.00     0.032 A 
HETATM   12  C   UNL     1      -6.673   2.504 -31.883  1.00  0.00     0.032 A 
BRANCH  10  13
HETATM   13  N   UNL     1      -6.159  -1.084 -32.572  1.00  0.00    -0.321 N 
HETATM   14  C   UNL     1      -5.245  -1.468 -33.539  1.00  0.00     0.279 C 
HETATM   15  O   UNL     1      -4.241  -0.836 -33.855  1.00  0.00    -0.265 OA
HETATM   16  H   UNL     1      -6.922  -1.741 -32.437  1.00  0.00     0.169 HD
BRANCH  14  17
HETATM   17  C   UNL     1      -5.607  -2.719 -34.181  1.00  0.00     0.142 A 
HETATM   18  O   UNL     1      -4.702  -3.750 -34.201  1.00  0.00    -0.317 OA
HETATM   19  C   UNL     1      -5.302  -4.797 -34.826  1.00  0.00     0.143 A 
HETATM   20  C   UNL     1      -6.576  -4.460 -35.216  1.00  0.00     0.027 A 
HETATM   21  C   UNL     1      -6.773  -3.120 -34.805  1.00  0.00     0.045 A 
ENDBRANCH  14  17
ENDBRANCH  10  13
ENDBRANCH   3   7
BRANCH   1  22
HETATM   22  C   UNL     1      -3.068   5.695 -31.137  1.00  0.00     0.130 C 
BRANCH  22  23
HETATM   23  C   UNL     1      -1.881   5.283 -32.023  1.00  0.00     0.031 C 
HETATM   24  C   UNL     1      -2.260   4.436 -33.230  1.00  0.00     0.241 C 
HETATM   25  N   UNL     1      -2.384   5.408 -34.401  1.00  0.00    -0.071 N 
HETATM   26  H   UNL     1      -1.664   5.116 -35.076  1.00  0.00     0.279 HD
HETATM   27  C   UNL     1      -2.003   6.777 -33.893  1.00  0.00     0.235 C 
HETATM   28  C   UNL     1      -1.189   6.492 -32.647  1.00  0.00     0.035 C 
BRANCH  25  29
HETATM   29  C   UNL     1      -3.719   5.326 -35.092  1.00  0.00     0.234 C 
BRANCH  29  30
HETATM   30  C   UNL     1      -4.749   4.567 -34.258  1.00  0.00     0.023 C 
HETATM   31  C   UNL     1      -5.889   5.441 -33.752  1.00  0.00     0.007 C 
ENDBRANCH  29  30
ENDBRANCH  25  29
ENDBRANCH  22  23
ENDBRANCH   1  22
TORSDOF 7
ENDMDL
MODEL 3
REMARK VINA RESULT:      -7.7      3.124      9.202
REMARK  7 active torsions:
REMARK  status: ('A' for Active; 'I' for Inactive)
REMARK    1  A    between atoms: C_2  and  C_3 
REMARK    2  A    between atoms: C_3  and  N_4 
REMARK    3  A    between atoms: C_7  and  C_8 
REMARK    4  A    between atoms: C_8  and  N_9 
REMARK       I    between atoms: N_9  and  C_10 
REMARK       I    between atoms: C_10  and  N_11 
REMARK    5  A    between atoms: N_11  and  C_12 
REMARK    6  A    between atoms: C_15  and  N_16 
REMARK       I    between atoms: N_16  and  C_17 
REMARK    7  A    between atoms: C_17  and  C_18 
ROOT
HETATM    1  N   UNL     1      -4.019   2.822 -32.378  1.00  0.00    -0.342 N 
HETATM    2  C   UNL     1      -3.845   1.798 -31.495  1.00  0.00     0.320 C 
HETATM    3  N   UNL     1      -4.963   1.148 -31.067  1.00  0.00    -0.309 N 
HETATM    4  O   UNL     1      -2.741   1.467 -31.070  1.00  0.00    -0.247 OA
HETATM    5  H   UNL     1      -4.941   3.235 -32.288  1.00  0.00     0.164 HD
HETATM    6  H   UNL     1      -4.778   0.587 -30.242  1.00  0.00     0.170 HD
ENDROOT
BRANCH   3   7
HETATM    7  C   UNL     1      -6.292   1.159 -31.528  1.00  0.00     0.036 A 
HETATM    8  C   UNL     1      -7.279   2.016 -31.038  1.00  0.00     0.032 A 
HETATM    9  C   UNL     1      -8.598   1.924 -31.499  1.00  0.00     0.032 A 
HETATM   10  C   UNL     1      -8.950   0.983 -32.465  1.00  0.00     0.035 A 
HETATM   11  C   UNL     1      -7.945   0.178 -33.011  1.00  0.00     0.032 A 
HETATM   12  C   UNL     1      -6.626   0.274 -32.555  1.00  0.00     0.032 A 
BRANCH  10  13
HETATM   13  N   UNL     1     -10.264   0.769 -32.912  1.00  0.00    -0.321 N 
HETATM   14  C   UNL     1     -10.977   1.486 -33.859  1.00  0.00     0.279 C 
HETATM   15  O   UNL     1     -10.522   2.393 -34.551  1.00  0.00    -0.265 OA
HETATM   16  H   UNL     1     -10.804   0.046 -32.445  1.00  0.00     0.169 HD
BRANCH  14  17
HETATM   17  C   UNL     1     -12.364   1.067 -33.946  1.00  0.00     0.142 A 
HETATM   18  O   UNL     1     -12.733  -0.148 -33.427  1.00  0.00    -0.317 OA
HETATM   19  C   UNL     1     -14.073  -0.273 -33.611  1.00  0.00     0.143 A 
HETATM   20  C   UNL     1     -14.578   0.838 -34.244  1.00  0.00     0.027 A 
HETATM   21  C   UNL     1     -13.477   1.700 -34.465  1.00  0.00     0.045 A 
ENDBRANCH  14  17
ENDBRANCH  10  13
ENDBRANCH   3   7
BRANCH   1  22
HETATM   22  C   UNL     1      -2.988   3.776 -32.754  1.00  0.00     0.130 C 
BRANCH  22  23
HETATM   23  C   UNL     1      -3.342   4.845 -33.799  1.00  0.00     0.031 C 
HETATM   24  C   UNL     1      -3.394   6.267 -33.256  1.00  0.00     0.241 C 
HETATM   25  N   UNL     1      -2.029   6.880 -33.560  1.00  0.00    -0.071 N 
HETATM   26  H   UNL     1      -2.219   7.669 -34.192  1.00  0.00     0.279 HD
HETATM   27  C   UNL     1      -1.237   5.856 -34.338  1.00  0.00     0.235 C 
HETATM   28  C   UNL     1      -2.295   4.930 -34.905  1.00  0.00     0.035 C 
BRANCH  25  29
HETATM   29  C   UNL     1      -1.346   7.427 -32.335  1.00  0.00     0.234 C 
BRANCH  29  30
HETATM   30  C   UNL     1      -0.559   6.352 -31.590  1.00  0.00     0.023 C 
HETATM   31  C   UNL     1       0.557   6.908 -30.717  1.00  0.00     0.007 C 
ENDBRANCH  29  30
ENDBRANCH  25  29
ENDBRANCH  22  23
ENDBRANCH   1  22
TORSDOF 7
ENDMDL
MODEL 4
REMARK VINA RESULT:      -7.6      2.484      8.524
REMARK  7 active torsions:
REMARK  status: ('A' for Active; 'I' for Inactive)
REMARK    1  A    between atoms: C_2  and  C_3 
REMARK    2  A    between atoms: C_3  and  N_4 
REMARK    3  A    between atoms: C_7  and  C_8 
REMARK    4  A    between atoms: C_8  and  N_9 
REMARK       I    between atoms: N_9  and  C_10 
REMARK       I    between atoms: C_10  and  N_11 
REMARK    5  A    between atoms: N_11  and  C_12 
REMARK    6  A    between atoms: C_15  and  N_16 
REMARK       I    between atoms: N_16  and  C_17 
REMARK    7  A    between atoms: C_17  and  C_18 
ROOT
HETATM    1  N   UNL     1      -4.313   4.992 -30.484  1.00  0.00    -0.342 N 
HETATM    2  C   UNL     1      -5.379   4.878 -29.641  1.00  0.00     0.320 C 
HETATM    3  N   UNL     1      -6.238   3.844 -29.860  1.00  0.00    -0.309 N 
HETATM    4  O   UNL     1      -5.591   5.671 -28.727  1.00  0.00    -0.247 OA
HETATM    5  H   UNL     1      -4.509   4.571 -31.386  1.00  0.00     0.164 HD
HETATM    6  H   UNL     1      -7.116   3.975 -29.367  1.00  0.00     0.170 HD
ENDROOT
BRANCH   3   7
HETATM    7  C   UNL     1      -6.140   2.693 -30.662  1.00  0.00     0.036 A 
HETATM    8  C   UNL     1      -6.305   2.693 -32.048  1.00  0.00     0.032 A 
HETATM    9  C   UNL     1      -6.259   1.496 -32.773  1.00  0.00     0.032 A 
HETATM   10  C   UNL     1      -6.034   0.281 -32.127  1.00  0.00     0.035 A 
HETATM   11  C   UNL     1      -5.792   0.291 -30.750  1.00  0.00     0.032 A 
HETATM   12  C   UNL     1      -5.832   1.488 -30.026  1.00  0.00     0.032 A 
BRANCH  10  13
HETATM   13  N   UNL     1      -6.063  -0.967 -32.770  1.00  0.00    -0.321 N 
HETATM   14  C   UNL     1      -5.076  -1.560 -33.540  1.00  0.00     0.279 C 
HETATM   15  O   UNL     1      -3.944  -1.113 -33.707  1.00  0.00    -0.265 OA
HETATM   16  H   UNL     1      -6.934  -1.489 -32.738  1.00  0.00     0.169 HD
BRANCH  14  17
HETATM   17  C   UNL     1      -5.524  -2.789 -34.170  1.00  0.00     0.142 A 
HETATM   18  O   UNL     1      -4.678  -3.868 -34.216  1.00  0.00    -0.317 OA
HETATM   19  C   UNL     1      -5.352  -4.880 -34.822  1.00  0.00     0.143 A 
HETATM   20  C   UNL     1      -6.617  -4.474 -35.174  1.00  0.00     0.027 A 
HETATM   21  C   UNL     1      -6.728  -3.125 -34.759  1.00  0.00     0.045 A 
ENDBRANCH  14  17
ENDBRANCH  10  13
ENDBRANCH   3   7
BRANCH   1  22
HETATM   22  C   UNL     1      -3.437   6.150 -30.559  1.00  0.00     0.130 C 
BRANCH  22  23
HETATM   23  C   UNL     1      -2.980   6.618 -31.950  1.00  0.00     0.031 C 
HETATM   24  C   UNL     1      -1.762   7.532 -31.939  1.00  0.00     0.241 C 
HETATM   25  N   UNL     1      -0.559   6.629 -32.201  1.00  0.00    -0.071 N 
HETATM   26  H   UNL     1      -0.154   6.962 -33.085  1.00  0.00     0.279 HD
HETATM   27  C   UNL     1      -1.085   5.234 -32.439  1.00  0.00     0.235 C 
HETATM   28  C   UNL     1      -2.534   5.451 -32.827  1.00  0.00     0.035 C 
BRANCH  25  29
HETATM   29  C   UNL     1       0.502   6.744 -31.138  1.00  0.00     0.234 C 
BRANCH  29  30
HETATM   30  C   UNL     1       0.454   5.578 -30.153  1.00  0.00     0.023 C 
HETATM   31  C   UNL     1       0.199   6.006 -28.714  1.00  0.00     0.007 C 
ENDBRANCH  29  30
ENDBRANCH  25  29
ENDBRANCH  22  23
ENDBRANCH   1  22
TORSDOF 7
ENDMDL
MODEL 5
REMARK VINA RESULT:      -7.5      2.314      8.340
REMARK  7 active torsions:
REMARK  status: ('A' for Active; 'I' for Inactive)
REMARK    1  A    between atoms: C_2  and  C_3 
REMARK    2  A    between atoms: C_3  and  N_4 
REMARK    3  A    between atoms: C_7  and  C_8 
REMARK    4  A    between atoms: C_8  and  N_9 
REMARK       I    between atoms: N_9  and  C_10 
REMARK       I    between atoms: C_10  and  N_11 
REMARK    5  A    between atoms: N_11  and  C_12 
REMARK    6  A    between atoms: C_15  and  N_16 
REMARK       I    between atoms: N_16  and  C_17 
REMARK    7  A    between atoms: C_17  and  C_18 
ROOT
HETATM    1  N   UNL     1      -3.304   5.979 -30.132  1.00  0.00    -0.342 N 
HETATM    2  C   UNL     1      -4.574   6.381 -29.841  1.00  0.00     0.320 C 
HETATM    3  N   UNL     1      -5.595   5.611 -30.312  1.00  0.00    -0.309 N 
HETATM    4  O   UNL     1      -4.817   7.400 -29.200  1.00  0.00    -0.247 OA
HETATM    5  H   UNL     1      -3.278   5.422 -30.980  1.00  0.00     0.164 HD
HETATM    6  H   UNL     1      -6.482   6.102 -30.274  1.00  0.00     0.170 HD
ENDROOT
BRANCH   3   7
HETATM    7  C   UNL     1      -5.620   4.319 -30.868  1.00  0.00     0.036 A 
HETATM    8  C   UNL     1      -5.468   3.149 -30.124  1.00  0.00     0.032 A 
HETATM    9  C   UNL     1      -5.438   1.899 -30.756  1.00  0.00     0.032 A 
HETATM   10  C   UNL     1      -5.571   1.799 -32.139  1.00  0.00     0.035 A 
HETATM   11  C   UNL     1      -5.801   2.966 -32.875  1.00  0.00     0.032 A 
HETATM   12  C   UNL     1      -5.838   4.214 -32.243  1.00  0.00     0.032 A 
BRANCH  10  13
HETATM   13  N   UNL     1      -5.461   0.595 -32.854  1.00  0.00    -0.321 N 
HETATM   14  C   UNL     1      -6.449  -0.341 -33.116  1.00  0.00     0.279 C 
HETATM   15  O   UNL     1      -7.638  -0.213 -32.838  1.00  0.00    -0.265 OA
HETATM   16  H   UNL     1      -4.535   0.321 -33.168  1.00  0.00     0.169 HD
BRANCH  14  17
HETATM   17  C   UNL     1      -5.926  -1.537 -33.752  1.00  0.00     0.142 A 
HETATM   18  O   UNL     1      -6.791  -2.392 -34.389  1.00  0.00    -0.317 OA
HETATM   19  C   UNL     1      -6.044  -3.397 -34.917  1.00  0.00     0.143 A 
HETATM   20  C   UNL     1      -4.713  -3.211 -34.629  1.00  0.00     0.027 A 
HETATM   21  C   UNL     1      -4.636  -2.016 -33.875  1.00  0.00     0.045 A 
ENDBRANCH  14  17
ENDBRANCH  10  13
ENDBRANCH   3   7
BRANCH   1  22
HETATM   22  C   UNL     1      -2.112   6.786 -29.929  1.00  0.00     0.130 C 
BRANCH  22  23
HETATM   23  C   UNL     1      -0.775   6.242 -30.457  1.00  0.00     0.031 C 
HETATM   24  C   UNL     1      -0.879   4.908 -31.184  1.00  0.00     0.241 C 
HETATM   25  N   UNL     1      -0.960   5.249 -32.671  1.00  0.00    -0.071 N 
HETATM   26  H   UNL     1      -0.124   4.823 -33.094  1.00  0.00     0.279 HD
HETATM   27  C   UNL     1      -0.822   6.747 -32.799  1.00  0.00     0.235 C 
HETATM   28  C   UNL     1      -0.157   7.165 -31.503  1.00  0.00     0.035 C 
BRANCH  25  29
HETATM   29  C   UNL     1      -2.168   4.653 -33.343  1.00  0.00     0.234 C 
BRANCH  29  30
HETATM   30  C   UNL     1      -2.317   5.135 -34.784  1.00  0.00     0.023 C 
HETATM   31  C   UNL     1      -3.762   5.203 -35.258  1.00  0.00     0.007 C 
ENDBRANCH  29  30
ENDBRANCH  25  29
ENDBRANCH  22  23
ENDBRANCH   1  22
TORSDOF 7
ENDMDL
MODEL 6
REMARK VINA RESULT:      -7.5      2.891      6.015
REMARK  7 active torsions:
REMARK  status: ('A' for Active; 'I' for Inactive)
REMARK    1  A    between atoms: C_2  and  C_3 
REMARK    2  A    between atoms: C_3  and  N_4 
REMARK    3  A    between atoms: C_7  and  C_8 
REMARK    4  A    between atoms: C_8  and  N_9 
REMARK       I    between atoms: N_9  and  C_10 
REMARK       I    between atoms: C_10  and  N_11 
REMARK    5  A    between atoms: N_11  and  C_12 
REMARK    6  A    between atoms: C_15  and  N_16 
REMARK       I    between atoms: N_16  and  C_17 
REMARK    7  A    between atoms: C_17  and  C_18 
ROOT
HETATM    1  N   UNL     1      -4.472   5.009 -33.629  1.00  0.00    -0.342 N 
HETATM    2  C   UNL     1      -3.795   5.379 -34.753  1.00  0.00     0.320 C 
HETATM    3  N   UNL     1      -2.630   6.064 -34.581  1.00  0.00    -0.309 N 
HETATM    4  O   UNL     1      -4.204   5.137 -35.886  1.00  0.00    -0.247 OA
HETATM    5  H   UNL     1      -4.261   5.624 -32.851  1.00  0.00     0.164 HD
HETATM    6  H   UNL     1      -2.329   6.513 -35.440  1.00  0.00     0.170 HD
ENDROOT
BRANCH   3   7
HETATM    7  C   UNL     1      -1.829   6.288 -33.447  1.00  0.00     0.036 A 
HETATM    8  C   UNL     1      -1.033   5.310 -32.850  1.00  0.00     0.032 A 
HETATM    9  C   UNL     1      -0.313   5.589 -31.682  1.00  0.00     0.032 A 
HETATM   10  C   UNL     1      -0.366   6.854 -31.099  1.00  0.00     0.035 A 
HETATM   11  C   UNL     1      -1.102   7.855 -31.740  1.00  0.00     0.032 A 
HETATM   12  C   UNL     1      -1.817   7.578 -32.911  1.00  0.00     0.032 A 
BRANCH  10  13
HETATM   13  N   UNL     1       0.253   7.185 -29.883  1.00  0.00    -0.321 N 
HETATM   14  C   UNL     1      -0.301   7.200 -28.613  1.00  0.00     0.279 C 
HETATM   15  O   UNL     1      -1.434   6.819 -28.330  1.00  0.00    -0.265 OA
HETATM   16  H   UNL     1       1.209   7.527 -29.923  1.00  0.00     0.169 HD
BRANCH  14  17
HETATM   17  C   UNL     1       0.604   7.746 -27.618  1.00  0.00     0.142 A 
HETATM   18  O   UNL     1       0.548   7.277 -26.329  1.00  0.00    -0.317 OA
HETATM   19  C   UNL     1       1.511   7.926 -25.625  1.00  0.00     0.143 A 
HETATM   20  C   UNL     1       2.186   8.811 -26.432  1.00  0.00     0.027 A 
HETATM   21  C   UNL     1       1.600   8.699 -27.716  1.00  0.00     0.045 A 
ENDBRANCH  14  17
ENDBRANCH  10  13
ENDBRANCH   3   7
BRANCH   1  22
HETATM   22  C   UNL     1      -5.831   4.494 -33.613  1.00  0.00     0.130 C 
BRANCH  22  23
HETATM   23  C   UNL     1      -6.276   3.670 -32.394  1.00  0.00     0.031 C 
HETATM   24  C   UNL     1      -7.128   2.454 -32.731  1.00  0.00     0.241 C 
HETATM   25  N   UNL     1      -6.166   1.269 -32.778  1.00  0.00    -0.071 N 
HETATM   26  H   UNL     1      -6.479   0.633 -32.032  1.00  0.00     0.279 HD
HETATM   27  C   UNL     1      -4.799   1.782 -32.394  1.00  0.00     0.235 C 
HETATM   28  C   UNL     1      -5.088   3.069 -31.648  1.00  0.00     0.035 C 
BRANCH  25  29
HETATM   29  C   UNL     1      -6.229   0.515 -34.079  1.00  0.00     0.234 C 
BRANCH  29  30
HETATM   30  C   UNL     1      -5.788  -0.938 -33.922  1.00  0.00     0.023 C 
HETATM   31  C   UNL     1      -6.764  -1.940 -34.521  1.00  0.00     0.007 C 
ENDBRANCH  29  30
ENDBRANCH  25  29
ENDBRANCH  22  23
ENDBRANCH   1  22
TORSDOF 7
ENDMDL
MODEL 7
REMARK VINA RESULT:      -7.3      3.435      8.277
REMARK  7 active torsions:
REMARK  status: ('A' for Active; 'I' for Inactive)
REMARK    1  A    between atoms: C_2  and  C_3 
REMARK    2  A    between atoms: C_3  and  N_4 
REMARK    3  A    between atoms: C_7  and  C_8 
REMARK    4  A    between atoms: C_8  and  N_9 
REMARK       I    between atoms: N_9  and  C_10 
REMARK       I    between atoms: C_10  and  N_11 
REMARK    5  A    between atoms: N_11  and  C_12 
REMARK    6  A    between atoms: C_15  and  N_16 
REMARK       I    between atoms: N_16  and  C_17 
REMARK    7  A    between atoms: C_17  and  C_18 
ROOT
HETATM    1  N   UNL     1      -4.654   2.597 -31.774  1.00  0.00    -0.342 N 
HETATM    2  C   UNL     1      -4.798   3.930 -31.526  1.00  0.00     0.320 C 
HETATM    3  N   UNL     1      -5.986   4.502 -31.868  1.00  0.00    -0.309 N 
HETATM    4  O   UNL     1      -3.904   4.614 -31.035  1.00  0.00    -0.247 OA
HETATM    5  H   UNL     1      -5.255   2.295 -32.533  1.00  0.00     0.164 HD
HETATM    6  H   UNL     1      -5.921   5.515 -31.888  1.00  0.00     0.170 HD
ENDROOT
BRANCH   3   7
HETATM    7  C   UNL     1      -7.226   3.949 -32.232  1.00  0.00     0.036 A 
HETATM    8  C   UNL     1      -7.776   4.045 -33.511  1.00  0.00     0.032 A 
HETATM    9  C   UNL     1      -9.049   3.526 -33.782  1.00  0.00     0.032 A 
HETATM   10  C   UNL     1      -9.786   2.892 -32.783  1.00  0.00     0.035 A 
HETATM   11  C   UNL     1      -9.202   2.729 -31.523  1.00  0.00     0.032 A 
HETATM   12  C   UNL     1      -7.928   3.242 -31.254  1.00  0.00     0.032 A 
BRANCH  10  13
HETATM   13  N   UNL     1     -11.101   2.428 -32.952  1.00  0.00    -0.321 N 
HETATM   14  C   UNL     1     -11.522   1.165 -33.336  1.00  0.00     0.279 C 
HETATM   15  O   UNL     1     -10.790   0.193 -33.500  1.00  0.00    -0.265 OA
HETATM   16  H   UNL     1     -11.852   3.105 -32.854  1.00  0.00     0.169 HD
BRANCH  14  17
HETATM   17  C   UNL     1     -12.956   1.100 -33.555  1.00  0.00     0.142 A 
HETATM   18  O   UNL     1     -13.787   1.892 -32.802  1.00  0.00    -0.317 OA
HETATM   19  C   UNL     1     -15.055   1.659 -33.229  1.00  0.00     0.143 A 
HETATM   20  C   UNL     1     -15.062   0.728 -34.240  1.00  0.00     0.027 A 
HETATM   21  C   UNL     1     -13.710   0.363 -34.448  1.00  0.00     0.045 A 
ENDBRANCH  14  17
ENDBRANCH  10  13
ENDBRANCH   3   7
BRANCH   1  22
HETATM   22  C   UNL     1      -3.396   1.872 -31.705  1.00  0.00     0.130 C 
BRANCH  22  23
HETATM   23  C   UNL     1      -3.442   0.382 -31.331  1.00  0.00     0.031 C 
HETATM   24  C   UNL     1      -4.833  -0.143 -30.999  1.00  0.00     0.241 C 
HETATM   25  N   UNL     1      -5.358  -0.779 -32.284  1.00  0.00    -0.071 N 
HETATM   26  H   UNL     1      -5.496  -1.773 -32.060  1.00  0.00     0.279 HD
HETATM   27  C   UNL     1      -4.256  -0.693 -33.313  1.00  0.00     0.235 C 
HETATM   28  C   UNL     1      -2.998  -0.510 -32.487  1.00  0.00     0.035 C 
BRANCH  25  29
HETATM   29  C   UNL     1      -6.686  -0.216 -32.715  1.00  0.00     0.234 C 
BRANCH  29  30
HETATM   30  C   UNL     1      -6.563   0.647 -33.969  1.00  0.00     0.023 C 
HETATM   31  C   UNL     1      -7.372   0.127 -35.149  1.00  0.00     0.007 C 
ENDBRANCH  29  30
ENDBRANCH  25  29
ENDBRANCH  22  23
ENDBRANCH   1  22
TORSDOF 7
ENDMDL
MODEL 8
REMARK VINA RESULT:      -7.2      3.830      8.082
REMARK  7 active torsions:
REMARK  status: ('A' for Active; 'I' for Inactive)
REMARK    1  A    between atoms: C_2  and  C_3 
REMARK    2  A    between atoms: C_3  and  N_4 
REMARK    3  A    between atoms: C_7  and  C_8 
REMARK    4  A    between atoms: C_8  and  N_9 
REMARK       I    between atoms: N_9  and  C_10 
REMARK       I    between atoms: C_10  and  N_11 
REMARK    5  A    between atoms: N_11  and  C_12 
REMARK    6  A    between atoms: C_15  and  N_16 
REMARK       I    between atoms: N_16  and  C_17 
REMARK    7  A    between atoms: C_17  and  C_18 
ROOT
HETATM    1  N   UNL     1      -8.566   4.580 -30.965  1.00  0.00    -0.342 N 
HETATM    2  C   UNL     1      -7.419   4.880 -30.291  1.00  0.00     0.320 C 
HETATM    3  N   UNL     1      -6.448   3.925 -30.257  1.00  0.00    -0.309 N 
HETATM    4  O   UNL     1      -7.250   5.950 -29.712  1.00  0.00    -0.247 OA
HETATM    5  H   UNL     1      -8.724   3.579 -30.997  1.00  0.00     0.164 HD
HETATM    6  H   UNL     1      -5.755   4.121 -29.542  1.00  0.00     0.170 HD
ENDROOT
BRANCH   3   7
HETATM    7  C   UNL     1      -6.275   2.734 -30.984  1.00  0.00     0.036 A 
HETATM    8  C   UNL     1      -6.037   2.687 -32.358  1.00  0.00     0.032 A 
HETATM    9  C   UNL     1      -5.941   1.459 -33.025  1.00  0.00     0.032 A 
HETATM   10  C   UNL     1      -6.069   0.259 -32.328  1.00  0.00     0.035 A 
HETATM   11  C   UNL     1      -6.231   0.306 -30.940  1.00  0.00     0.032 A 
HETATM   12  C   UNL     1      -6.320   1.533 -30.272  1.00  0.00     0.032 A 
BRANCH  10  13
HETATM   13  N   UNL     1      -6.075  -1.007 -32.937  1.00  0.00    -0.321 N 
HETATM   14  C   UNL     1      -5.046  -1.637 -33.617  1.00  0.00     0.279 C 
HETATM   15  O   UNL     1      -3.898  -1.214 -33.714  1.00  0.00    -0.265 OA
HETATM   16  H   UNL     1      -6.956  -1.513 -32.953  1.00  0.00     0.169 HD
BRANCH  14  17
HETATM   17  C   UNL     1      -5.471  -2.875 -34.245  1.00  0.00     0.142 A 
HETATM   18  O   UNL     1      -4.594  -3.928 -34.316  1.00  0.00    -0.317 OA
HETATM   19  C   UNL     1      -5.250  -4.957 -34.913  1.00  0.00     0.143 A 
HETATM   20  C   UNL     1      -6.535  -4.588 -35.235  1.00  0.00     0.027 A 
HETATM   21  C   UNL     1      -6.677  -3.245 -34.808  1.00  0.00     0.045 A 
ENDBRANCH  14  17
ENDBRANCH  10  13
ENDBRANCH   3   7
BRANCH   1  22
HETATM   22  C   UNL     1      -9.790   5.362 -30.907  1.00  0.00     0.130 C 
BRANCH  22  23
HETATM   23  C   UNL     1     -10.583   5.556 -32.209  1.00  0.00     0.031 C 
HETATM   24  C   UNL     1      -9.935   4.940 -33.442  1.00  0.00     0.241 C 
HETATM   25  N   UNL     1     -10.593   3.574 -33.622  1.00  0.00    -0.071 N 
HETATM   26  H   UNL     1     -11.067   3.618 -34.533  1.00  0.00     0.279 HD
HETATM   27  C   UNL     1     -11.658   3.443 -32.560  1.00  0.00     0.235 C 
HETATM   28  C   UNL     1     -11.947   4.874 -32.153  1.00  0.00     0.035 C 
BRANCH  25  29
HETATM   29  C   UNL     1      -9.596   2.447 -33.677  1.00  0.00     0.234 C 
BRANCH  29  30
HETATM   30  C   UNL     1      -9.697   1.534 -32.457  1.00  0.00     0.023 C 
HETATM   31  C   UNL     1      -9.720   0.052 -32.806  1.00  0.00     0.007 C 
ENDBRANCH  29  30
ENDBRANCH  25  29
ENDBRANCH  22  23
ENDBRANCH   1  22
TORSDOF 7
ENDMDL
MODEL 9
REMARK VINA RESULT:      -7.1      3.284      8.194
REMARK  7 active torsions:
REMARK  status: ('A' for Active; 'I' for Inactive)
REMARK    1  A    between atoms: C_2  and  C_3 
REMARK    2  A    between atoms: C_3  and  N_4 
REMARK    3  A    between atoms: C_7  and  C_8 
REMARK    4  A    between atoms: C_8  and  N_9 
REMARK       I    between atoms: N_9  and  C_10 
REMARK       I    between atoms: C_10  and  N_11 
REMARK    5  A    between atoms: N_11  and  C_12 
REMARK    6  A    between atoms: C_15  and  N_16 
REMARK       I    between atoms: N_16  and  C_17 
REMARK    7  A    between atoms: C_17  and  C_18 
ROOT
HETATM    1  N   UNL     1      -7.278   4.689 -30.279  1.00  0.00    -0.342 N 
HETATM    2  C   UNL     1      -6.233   4.770 -29.408  1.00  0.00     0.320 C 
HETATM    3  N   UNL     1      -5.392   3.700 -29.344  1.00  0.00    -0.309 N 
HETATM    4  O   UNL     1      -6.045   5.744 -28.684  1.00  0.00    -0.247 OA
HETATM    5  H   UNL     1      -7.539   3.725 -30.456  1.00  0.00     0.164 HD
HETATM    6  H   UNL     1      -4.809   3.731 -28.514  1.00  0.00     0.170 HD
ENDROOT
BRANCH   3   7
HETATM    7  C   UNL     1      -5.234   2.577 -30.175  1.00  0.00     0.036 A 
HETATM    8  C   UNL     1      -4.391   2.543 -31.287  1.00  0.00     0.032 A 
HETATM    9  C   UNL     1      -4.335   1.410 -32.108  1.00  0.00     0.032 A 
HETATM   10  C   UNL     1      -5.111   0.287 -31.823  1.00  0.00     0.035 A 
HETATM   11  C   UNL     1      -5.896   0.293 -30.666  1.00  0.00     0.032 A 
HETATM   12  C   UNL     1      -5.947   1.423 -29.843  1.00  0.00     0.032 A 
BRANCH  10  13
HETATM   13  N   UNL     1      -5.178  -0.850 -32.645  1.00  0.00    -0.321 N 
HETATM   14  C   UNL     1      -6.080  -1.123 -33.660  1.00  0.00     0.279 C 
HETATM   15  O   UNL     1      -6.932  -0.344 -34.080  1.00  0.00    -0.265 OA
HETATM   16  H   UNL     1      -4.539  -1.612 -32.441  1.00  0.00     0.169 HD
BRANCH  14  17
HETATM   17  C   UNL     1      -5.936  -2.469 -34.186  1.00  0.00     0.142 A 
HETATM   18  O   UNL     1      -4.742  -3.127 -34.028  1.00  0.00    -0.317 OA
HETATM   19  C   UNL     1      -4.890  -4.361 -34.575  1.00  0.00     0.143 A 
HETATM   20  C   UNL     1      -6.156  -4.513 -35.089  1.00  0.00     0.027 A 
HETATM   21  C   UNL     1      -6.830  -3.293 -34.842  1.00  0.00     0.045 A 
ENDBRANCH  14  17
ENDBRANCH  10  13
ENDBRANCH   3   7
BRANCH   1  22
HETATM   22  C   UNL     1      -8.402   5.611 -30.313  1.00  0.00     0.130 C 
BRANCH  22  23
HETATM   23  C   UNL     1      -8.408   6.701 -31.397  1.00  0.00     0.031 C 
HETATM   24  C   UNL     1      -7.141   6.760 -32.240  1.00  0.00     0.241 C 
HETATM   25  N   UNL     1      -7.441   5.954 -33.501  1.00  0.00    -0.071 N 
HETATM   26  H   UNL     1      -7.366   6.625 -34.278  1.00  0.00     0.279 HD
HETATM   27  C   UNL     1      -8.881   5.509 -33.421  1.00  0.00     0.235 C 
HETATM   28  C   UNL     1      -9.506   6.471 -32.430  1.00  0.00     0.035 C 
BRANCH  25  29
HETATM   29  C   UNL     1      -6.441   4.856 -33.746  1.00  0.00     0.234 C 
BRANCH  29  30
HETATM   30  C   UNL     1      -5.003   5.365 -33.676  1.00  0.00     0.023 C 
HETATM   31  C   UNL     1      -4.181   5.044 -34.916  1.00  0.00     0.007 C 
ENDBRANCH  29  30
ENDBRANCH  25  29
ENDBRANCH  22  23
ENDBRANCH   1  22
TORSDOF 7
ENDMDL
MODEL 10
REMARK VINA RESULT:      -7.0      3.155      5.684
REMARK  7 active torsions:
REMARK  status: ('A' for Active; 'I' for Inactive)
REMARK    1  A    between atoms: C_2  and  C_3 
REMARK    2  A    between atoms: C_3  and  N_4 
REMARK    3  A    between atoms: C_7  and  C_8 
REMARK    4  A    between atoms: C_8  and  N_9 
REMARK       I    between atoms: N_9  and  C_10 
REMARK       I    between atoms: C_10  and  N_11 
REMARK    5  A    between atoms: N_11  and  C_12 
REMARK    6  A    between atoms: C_15  and  N_16 
REMARK       I    between atoms: N_16  and  C_17 
REMARK    7  A    between atoms: C_17  and  C_18 
ROOT
HETATM    1  N   UNL     1      -8.716   1.854 -33.221  1.00  0.00    -0.342 N 
HETATM    2  C   UNL     1      -8.815   0.933 -32.221  1.00  0.00     0.320 C 
HETATM    3  N   UNL     1      -7.769   0.840 -31.353  1.00  0.00    -0.309 N 
HETATM    4  O   UNL     1      -9.786   0.191 -32.095  1.00  0.00    -0.247 OA
HETATM    5  H   UNL     1      -7.747   2.053 -33.445  1.00  0.00     0.164 HD
HETATM    6  H   UNL     1      -7.806  -0.018 -30.811  1.00  0.00     0.170 HD
ENDROOT
BRANCH   3   7
HETATM    7  C   UNL     1      -6.660   1.674 -31.124  1.00  0.00     0.036 A 
HETATM    8  C   UNL     1      -6.741   2.927 -30.516  1.00  0.00     0.032 A 
HETATM    9  C   UNL     1      -5.602   3.732 -30.381  1.00  0.00     0.032 A 
HETATM   10  C   UNL     1      -4.362   3.290 -30.840  1.00  0.00     0.035 A 
HETATM   11  C   UNL     1      -4.268   2.004 -31.379  1.00  0.00     0.032 A 
HETATM   12  C   UNL     1      -5.405   1.198 -31.508  1.00  0.00     0.032 A 
BRANCH  10  13
HETATM   13  N   UNL     1      -3.195   4.072 -30.823  1.00  0.00    -0.321 N 
HETATM   14  C   UNL     1      -2.417   4.476 -31.895  1.00  0.00     0.279 C 
HETATM   15  O   UNL     1      -2.688   4.289 -33.078  1.00  0.00    -0.265 OA
HETATM   16  H   UNL     1      -2.816   4.325 -29.915  1.00  0.00     0.169 HD
BRANCH  14  17
HETATM   17  C   UNL     1      -1.197   5.144 -31.476  1.00  0.00     0.142 A 
HETATM   18  O   UNL     1      -0.277   4.455 -30.726  1.00  0.00    -0.317 OA
HETATM   19  C   UNL     1       0.767   5.294 -30.504  1.00  0.00     0.143 A 
HETATM   20  C   UNL     1       0.539   6.516 -31.092  1.00  0.00     0.027 A 
HETATM   21  C   UNL     1      -0.729   6.422 -31.716  1.00  0.00     0.045 A 
ENDBRANCH  14  17
ENDBRANCH  10  13
ENDBRANCH   3   7
BRANCH   1  22
HETATM   22  C   UNL     1      -9.606   1.931 -34.367  1.00  0.00     0.130 C 
BRANCH  22  23
HETATM   23  C   UNL     1     -10.384   3.238 -34.589  1.00  0.00     0.031 C 
HETATM   24  C   UNL     1     -11.688   3.074 -35.358  1.00  0.00     0.241 C 
HETATM   25  N   UNL     1     -12.787   2.974 -34.302  1.00  0.00    -0.071 N 
HETATM   26  H   UNL     1     -13.397   3.786 -34.466  1.00  0.00     0.279 HD
HETATM   27  C   UNL     1     -12.135   3.161 -32.954  1.00  0.00     0.235 C 
HETATM   28  C   UNL     1     -10.831   3.866 -33.272  1.00  0.00     0.035 C 
BRANCH  25  29
HETATM   29  C   UNL     1     -13.626   1.733 -34.446  1.00  0.00     0.234 C 
BRANCH  29  30
HETATM   30  C   UNL     1     -12.898   0.488 -33.941  1.00  0.00     0.023 C 
HETATM   31  C   UNL     1     -13.832  -0.655 -33.567  1.00  0.00     0.007 C 
ENDBRANCH  29  30
ENDBRANCH  25  29
ENDBRANCH  22  23
ENDBRANCH   1  22
TORSDOF 7
ENDMDL
