MODEL 1
REMARK VINA RESULT:      -8.4      0.000      0.000
REMARK  4 active torsions:
REMARK  status: ('A' for Active; 'I' for Inactive)
REMARK    1  A    between atoms: C_5  and  C_6 
REMARK    2  A    between atoms: C_12  and  C_13 
REMARK    3  A    between atoms: C_13  and  N_14 
REMARK       I    between atoms: N_14  and  C_15 
REMARK       I    between atoms: C_15  and  N_16 
REMARK    4  A    between atoms: N_16  and  C_17 
ROOT
HETATM    1  C   UNL     1      -1.751   4.630 -31.730  1.00  0.00     0.168 C 
ENDROOT
BRANCH   1   2
HETATM    2  C   UNL     1      -1.785   5.884 -32.531  1.00  0.00     0.023 A 
HETATM    3  C   UNL     1      -2.113   6.095 -33.858  1.00  0.00     0.085 A 
HETATM    4  C   UNL     1      -2.551   5.239 -34.979  1.00  0.00     0.079 C 
HETATM    5  O   UNL     1      -1.970   7.410 -34.158  1.00  0.00    -0.217 OA
HETATM    6  N   UNL     1      -1.536   8.097 -33.051  1.00  0.00    -0.127 NA
HETATM    7  C   UNL     1      -1.430   7.197 -32.064  1.00  0.00     0.105 A 
BRANCH   7   8
HETATM    8  C   UNL     1      -0.968   7.608 -30.741  1.00  0.00    -0.004 A 
HETATM    9  C   UNL     1       0.267   7.180 -30.235  1.00  0.00     0.014 A 
HETATM   10  C   UNL     1       0.696   7.595 -28.973  1.00  0.00     0.001 A 
HETATM   11  C   UNL     1      -0.108   8.432 -28.200  1.00  0.00     0.000 A 
HETATM   12  C   UNL     1      -1.346   8.848 -28.685  1.00  0.00     0.001 A 
HETATM   13  C   UNL     1      -1.776   8.437 -29.949  1.00  0.00     0.014 A 
ENDBRANCH   7   8
ENDBRANCH   1   2
BRANCH   1  14
HETATM   14  N   UNL     1      -3.037   4.340 -31.139  1.00  0.00    -0.338 N 
HETATM   15  C   UNL     1      -3.861   3.269 -31.300  1.00  0.00     0.320 C 
HETATM   16  N   UNL     1      -3.597   2.459 -32.368  1.00  0.00    -0.309 N 
HETATM   17  O   UNL     1      -4.760   3.129 -30.479  1.00  0.00    -0.247 OA
HETATM   18  H   UNL     1      -3.026   2.853 -33.098  1.00  0.00     0.170 HD
HETATM   19  H   UNL     1      -3.282   4.865 -30.309  1.00  0.00     0.164 HD
BRANCH  16  20
HETATM   20  C   UNL     1      -4.188   1.212 -32.664  1.00  0.00     0.036 A 
HETATM   21  C   UNL     1      -5.506   1.058 -33.100  1.00  0.00     0.029 A 
HETATM   22  C   UNL     1      -6.025  -0.216 -33.357  1.00  0.00     0.002 A 
HETATM   23  C   UNL     1      -5.234  -1.346 -33.173  1.00  0.00     0.000 A 
HETATM   24  C   UNL     1      -3.922  -1.206 -32.732  1.00  0.00     0.002 A 
HETATM   25  C   UNL     1      -3.402   0.067 -32.479  1.00  0.00     0.029 A 
ENDBRANCH  16  20
ENDBRANCH   1  14
TORSDOF 4
ENDMDL
MODEL 2
REMARK VINA RESULT:      -8.3      3.851      5.522
REMARK  4 active torsions:
REMARK  status: ('A' for Active; 'I' for Inactive)
REMARK    1  A    between atoms: C_5  and  C_6 
REMARK    2  A    between atoms: C_12  and  C_13 
REMARK    3  A    between atoms: C_13  and  N_14 
REMARK       I    between atoms: N_14  and  C_15 
REMARK       I    between atoms: C_15  and  N_16 
REMARK    4  A    between atoms: N_16  and  C_17 
ROOT
HETATM    1  C   UNL     1      -6.362   2.051 -34.197  1.00  0.00     0.168 C 
ENDROOT
BRANCH   1   2
HETATM    2  C   UNL     1      -6.822   3.433 -33.887  1.00  0.00     0.023 A 
HETATM    3  C   UNL     1      -8.099   3.943 -33.738  1.00  0.00     0.085 A 
HETATM    4  C   UNL     1      -9.466   3.386 -33.804  1.00  0.00     0.079 C 
HETATM    5  O   UNL     1      -8.030   5.274 -33.488  1.00  0.00    -0.217 OA
HETATM    6  N   UNL     1      -6.719   5.680 -33.476  1.00  0.00    -0.127 NA
HETATM    7  C   UNL     1      -5.981   4.584 -33.703  1.00  0.00     0.105 A 
BRANCH   7   8
HETATM    8  C   UNL     1      -4.525   4.679 -33.772  1.00  0.00    -0.004 A 
HETATM    9  C   UNL     1      -3.882   5.206 -34.899  1.00  0.00     0.014 A 
HETATM   10  C   UNL     1      -2.489   5.300 -34.939  1.00  0.00     0.001 A 
HETATM   11  C   UNL     1      -1.726   4.859 -33.858  1.00  0.00     0.000 A 
HETATM   12  C   UNL     1      -2.354   4.316 -32.740  1.00  0.00     0.001 A 
HETATM   13  C   UNL     1      -3.747   4.224 -32.696  1.00  0.00     0.014 A 
ENDBRANCH   7   8
ENDBRANCH   1   2
BRANCH   1  14
HETATM   14  N   UNL     1      -6.429   1.194 -33.036  1.00  0.00    -0.338 N 
HETATM   15  C   UNL     1      -6.208  -0.143 -32.912  1.00  0.00     0.320 C 
HETATM   16  N   UNL     1      -6.178  -0.860 -34.074  1.00  0.00    -0.309 N 
HETATM   17  O   UNL     1      -6.056  -0.581 -31.777  1.00  0.00    -0.247 OA
HETATM   18  H   UNL     1      -6.598  -0.425 -34.879  1.00  0.00     0.170 HD
HETATM   19  H   UNL     1      -6.402   1.651 -32.133  1.00  0.00     0.164 HD
BRANCH  16  20
HETATM   20  C   UNL     1      -5.811  -2.214 -34.237  1.00  0.00     0.036 A 
HETATM   21  C   UNL     1      -4.533  -2.712 -33.973  1.00  0.00     0.029 A 
HETATM   22  C   UNL     1      -4.242  -4.065 -34.175  1.00  0.00     0.002 A 
HETATM   23  C   UNL     1      -5.224  -4.930 -34.650  1.00  0.00     0.000 A 
HETATM   24  C   UNL     1      -6.499  -4.445 -34.924  1.00  0.00     0.002 A 
HETATM   25  C   UNL     1      -6.790  -3.093 -34.718  1.00  0.00     0.029 A 
ENDBRANCH  16  20
ENDBRANCH   1  14
TORSDOF 4
ENDMDL
MODEL 3
REMARK VINA RESULT:      -8.1      1.699      2.525
REMARK  4 active torsions:
REMARK  status: ('A' for Active; 'I' for Inactive)
REMARK    1  A    between atoms: C_5  and  C_6 
REMARK    2  A    between atoms: C_12  and  C_13 
REMARK    3  A    between atoms: C_13  and  N_14 
REMARK       I    between atoms: N_14  and  C_15 
REMARK       I    between atoms: C_15  and  N_16 
REMARK    4  A    between atoms: N_16  and  C_17 
ROOT
HETATM    1  C   UNL     1      -4.205   4.422 -31.213  1.00  0.00     0.168 C 
ENDROOT
BRANCH   1   2
HETATM    2  C   UNL     1      -3.817   5.170 -32.440  1.00  0.00     0.023 A 
HETATM    3  C   UNL     1      -4.447   5.273 -33.667  1.00  0.00     0.085 A 
HETATM    4  C   UNL     1      -5.692   4.737 -34.255  1.00  0.00     0.079 C 
HETATM    5  O   UNL     1      -3.702   6.045 -34.497  1.00  0.00    -0.217 OA
HETATM    6  N   UNL     1      -2.564   6.461 -33.851  1.00  0.00    -0.127 NA
HETATM    7  C   UNL     1      -2.624   5.953 -32.613  1.00  0.00     0.105 A 
BRANCH   7   8
HETATM    8  C   UNL     1      -1.540   6.198 -31.664  1.00  0.00    -0.004 A 
HETATM    9  C   UNL     1      -1.619   7.230 -30.720  1.00  0.00     0.014 A 
HETATM   10  C   UNL     1      -0.577   7.439 -29.813  1.00  0.00     0.001 A 
HETATM   11  C   UNL     1       0.556   6.627 -29.849  1.00  0.00     0.000 A 
HETATM   12  C   UNL     1       0.653   5.610 -30.796  1.00  0.00     0.001 A 
HETATM   13  C   UNL     1      -0.389   5.397 -31.702  1.00  0.00     0.014 A 
ENDBRANCH   7   8
ENDBRANCH   1   2
BRANCH   1  14
HETATM   14  N   UNL     1      -3.564   3.128 -31.152  1.00  0.00    -0.338 N 
HETATM   15  C   UNL     1      -3.898   1.949 -31.745  1.00  0.00     0.320 C 
HETATM   16  N   UNL     1      -5.160   1.869 -32.261  1.00  0.00    -0.309 N 
HETATM   17  O   UNL     1      -3.042   1.072 -31.761  1.00  0.00    -0.247 OA
HETATM   18  H   UNL     1      -5.826   2.544 -31.923  1.00  0.00     0.170 HD
HETATM   19  H   UNL     1      -2.605   3.113 -30.829  1.00  0.00     0.164 HD
BRANCH  16  20
HETATM   20  C   UNL     1      -5.695   0.834 -33.059  1.00  0.00     0.036 A 
HETATM   21  C   UNL     1      -5.527  -0.525 -32.788  1.00  0.00     0.029 A 
HETATM   22  C   UNL     1      -6.076  -1.492 -33.638  1.00  0.00     0.002 A 
HETATM   23  C   UNL     1      -6.789  -1.108 -34.769  1.00  0.00     0.000 A 
HETATM   24  C   UNL     1      -6.957   0.244 -35.054  1.00  0.00     0.002 A 
HETATM   25  C   UNL     1      -6.413   1.210 -34.203  1.00  0.00     0.029 A 
ENDBRANCH  16  20
ENDBRANCH   1  14
TORSDOF 4
ENDMDL
MODEL 4
REMARK VINA RESULT:      -8.1      6.006      7.647
REMARK  4 active torsions:
REMARK  status: ('A' for Active; 'I' for Inactive)
REMARK    1  A    between atoms: C_5  and  C_6 
REMARK    2  A    between atoms: C_12  and  C_13 
REMARK    3  A    between atoms: C_13  and  N_14 
REMARK       I    between atoms: N_14  and  C_15 
REMARK       I    between atoms: C_15  and  N_16 
REMARK    4  A    between atoms: N_16  and  C_17 
ROOT
HETATM    1  C   UNL     1      -9.716   0.895 -33.585  1.00  0.00     0.168 C 
ENDROOT
BRANCH   1   2
HETATM    2  C   UNL     1      -9.677   2.032 -32.626  1.00  0.00     0.023 A 
HETATM    3  C   UNL     1     -10.617   3.009 -32.350  1.00  0.00     0.085 A 
HETATM    4  C   UNL     1     -11.975   3.325 -32.838  1.00  0.00     0.079 C 
HETATM    5  O   UNL     1     -10.126   3.861 -31.416  1.00  0.00    -0.217 OA
HETATM    6  N   UNL     1      -8.855   3.482 -31.060  1.00  0.00    -0.127 NA
HETATM    7  C   UNL     1      -8.576   2.381 -31.770  1.00  0.00     0.105 A 
BRANCH   7   8
HETATM    8  C   UNL     1      -7.275   1.730 -31.635  1.00  0.00    -0.004 A 
HETATM    9  C   UNL     1      -7.117   0.570 -30.865  1.00  0.00     0.014 A 
HETATM   10  C   UNL     1      -5.867  -0.044 -30.760  1.00  0.00     0.001 A 
HETATM   11  C   UNL     1      -4.762   0.500 -31.414  1.00  0.00     0.000 A 
HETATM   12  C   UNL     1      -4.904   1.663 -32.167  1.00  0.00     0.001 A 
HETATM   13  C   UNL     1      -6.153   2.278 -32.276  1.00  0.00     0.014 A 
ENDBRANCH   7   8
ENDBRANCH   1   2
BRANCH   1  14
HETATM   14  N   UNL     1      -8.674   1.001 -34.581  1.00  0.00    -0.338 N 
HETATM   15  C   UNL     1      -7.700   0.119 -34.935  1.00  0.00     0.320 C 
HETATM   16  N   UNL     1      -7.475  -0.913 -34.069  1.00  0.00    -0.309 N 
HETATM   17  O   UNL     1      -7.116   0.329 -35.993  1.00  0.00    -0.247 OA
HETATM   18  H   UNL     1      -7.819  -0.793 -33.131  1.00  0.00     0.170 HD
HETATM   19  H   UNL     1      -8.797   1.711 -35.291  1.00  0.00     0.164 HD
BRANCH  16  20
HETATM   20  C   UNL     1      -6.647  -2.038 -34.275  1.00  0.00     0.036 A 
HETATM   21  C   UNL     1      -7.115  -3.282 -34.706  1.00  0.00     0.029 A 
HETATM   22  C   UNL     1      -6.232  -4.355 -34.870  1.00  0.00     0.002 A 
HETATM   23  C   UNL     1      -4.877  -4.196 -34.596  1.00  0.00     0.000 A 
HETATM   24  C   UNL     1      -4.400  -2.965 -34.158  1.00  0.00     0.002 A 
HETATM   25  C   UNL     1      -5.281  -1.891 -33.998  1.00  0.00     0.029 A 
ENDBRANCH  16  20
ENDBRANCH   1  14
TORSDOF 4
ENDMDL
MODEL 5
REMARK VINA RESULT:      -8.0      3.942      8.489
REMARK  4 active torsions:
REMARK  status: ('A' for Active; 'I' for Inactive)
REMARK    1  A    between atoms: C_5  and  C_6 
REMARK    2  A    between atoms: C_12  and  C_13 
REMARK    3  A    between atoms: C_13  and  N_14 
REMARK       I    between atoms: N_14  and  C_15 
REMARK       I    between atoms: C_15  and  N_16 
REMARK    4  A    between atoms: N_16  and  C_17 
ROOT
HETATM    1  C   UNL     1      -7.313   0.328 -31.213  1.00  0.00     0.168 C 
ENDROOT
BRANCH   1   2
HETATM    2  C   UNL     1      -7.945   0.543 -32.544  1.00  0.00     0.023 A 
HETATM    3  C   UNL     1      -8.988   1.369 -32.921  1.00  0.00     0.085 A 
HETATM    4  C   UNL     1      -9.861   2.339 -32.229  1.00  0.00     0.079 C 
HETATM    5  O   UNL     1      -9.240   1.207 -34.244  1.00  0.00    -0.217 OA
HETATM    6  N   UNL     1      -8.388   0.268 -34.770  1.00  0.00    -0.127 NA
HETATM    7  C   UNL     1      -7.598  -0.132 -33.764  1.00  0.00     0.105 A 
BRANCH   7   8
HETATM    8  C   UNL     1      -6.579  -1.154 -33.992  1.00  0.00    -0.004 A 
HETATM    9  C   UNL     1      -6.911  -2.408 -34.521  1.00  0.00     0.014 A 
HETATM   10  C   UNL     1      -5.919  -3.367 -34.743  1.00  0.00     0.001 A 
HETATM   11  C   UNL     1      -4.590  -3.085 -34.429  1.00  0.00     0.000 A 
HETATM   12  C   UNL     1      -4.251  -1.848 -33.885  1.00  0.00     0.001 A 
HETATM   13  C   UNL     1      -5.241  -0.887 -33.665  1.00  0.00     0.014 A 
ENDBRANCH   7   8
ENDBRANCH   1   2
BRANCH   1  14
HETATM   14  N   UNL     1      -6.992   1.581 -30.567  1.00  0.00    -0.338 N 
HETATM   15  C   UNL     1      -6.219   2.618 -30.989  1.00  0.00     0.320 C 
HETATM   16  N   UNL     1      -5.397   2.365 -32.050  1.00  0.00    -0.309 N 
HETATM   17  O   UNL     1      -6.330   3.678 -30.383  1.00  0.00    -0.247 OA
HETATM   18  H   UNL     1      -5.207   1.398 -32.248  1.00  0.00     0.170 HD
HETATM   19  H   UNL     1      -7.593   1.863 -29.803  1.00  0.00     0.164 HD
BRANCH  16  20
HETATM   20  C   UNL     1      -4.625   3.299 -32.776  1.00  0.00     0.036 A 
HETATM   21  C   UNL     1      -5.151   4.170 -33.732  1.00  0.00     0.029 A 
HETATM   22  C   UNL     1      -4.316   5.055 -34.422  1.00  0.00     0.002 A 
HETATM   23  C   UNL     1      -2.947   5.071 -34.168  1.00  0.00     0.000 A 
HETATM   24  C   UNL     1      -2.410   4.202 -33.223  1.00  0.00     0.002 A 
HETATM   25  C   UNL     1      -3.245   3.321 -32.531  1.00  0.00     0.029 A 
ENDBRANCH  16  20
ENDBRANCH   1  14
TORSDOF 4
ENDMDL
MODEL 6
REMARK VINA RESULT:      -8.0      4.423      8.533
REMARK  4 active torsions:
REMARK  status: ('A' for Active; 'I' for Inactive)
REMARK    1  A    between atoms: C_5  and  C_6 
REMARK    2  A    between atoms: C_12  and  C_13 
REMARK    3  A    between atoms: C_13  and  N_14 
REMARK       I    between atoms: N_14  and  C_15 
REMARK       I    between atoms: C_15  and  N_16 
REMARK    4  A    between atoms: N_16  and  C_17 
ROOT
HETATM    1  C   UNL     1      -5.986   1.966 -33.306  1.00  0.00     0.168 C 
ENDROOT
BRANCH   1   2
HETATM    2  C   UNL     1      -4.820   1.330 -32.634  1.00  0.00     0.023 A 
HETATM    3  C   UNL     1      -3.822   1.882 -31.851  1.00  0.00     0.085 A 
HETATM    4  C   UNL     1      -3.502   3.239 -31.363  1.00  0.00     0.079 C 
HETATM    5  O   UNL     1      -2.948   0.914 -31.479  1.00  0.00    -0.217 OA
HETATM    6  N   UNL     1      -3.333  -0.292 -32.010  1.00  0.00    -0.127 NA
HETATM    7  C   UNL     1      -4.461  -0.061 -32.697  1.00  0.00     0.105 A 
BRANCH   7   8
HETATM    8  C   UNL     1      -5.125  -1.150 -33.408  1.00  0.00    -0.004 A 
HETATM    9  C   UNL     1      -6.520  -1.199 -33.524  1.00  0.00     0.014 A 
HETATM   10  C   UNL     1      -7.136  -2.243 -34.219  1.00  0.00     0.001 A 
HETATM   11  C   UNL     1      -6.364  -3.252 -34.795  1.00  0.00     0.000 A 
HETATM   12  C   UNL     1      -4.976  -3.223 -34.670  1.00  0.00     0.001 A 
HETATM   13  C   UNL     1      -4.359  -2.178 -33.978  1.00  0.00     0.014 A 
ENDBRANCH   7   8
ENDBRANCH   1   2
BRANCH   1  14
HETATM   14  N   UNL     1      -6.975   2.411 -32.351  1.00  0.00    -0.338 N 
HETATM   15  C   UNL     1      -8.333   2.344 -32.391  1.00  0.00     0.320 C 
HETATM   16  N   UNL     1      -8.888   2.068 -33.609  1.00  0.00    -0.309 N 
HETATM   17  O   UNL     1      -8.932   2.536 -31.339  1.00  0.00    -0.247 OA
HETATM   18  H   UNL     1      -8.302   2.221 -34.412  1.00  0.00     0.170 HD
HETATM   19  H   UNL     1      -6.648   2.585 -31.409  1.00  0.00     0.164 HD
BRANCH  16  20
HETATM   20  C   UNL     1     -10.243   1.787 -33.889  1.00  0.00     0.036 A 
HETATM   21  C   UNL     1     -10.917   0.656 -33.421  1.00  0.00     0.029 A 
HETATM   22  C   UNL     1     -12.258   0.440 -33.757  1.00  0.00     0.002 A 
HETATM   23  C   UNL     1     -12.933   1.346 -34.569  1.00  0.00     0.000 A 
HETATM   24  C   UNL     1     -12.270   2.472 -35.047  1.00  0.00     0.002 A 
HETATM   25  C   UNL     1     -10.932   2.691 -34.708  1.00  0.00     0.029 A 
ENDBRANCH  16  20
ENDBRANCH   1  14
TORSDOF 4
ENDMDL
MODEL 7
REMARK VINA RESULT:      -8.0      5.891      9.672
REMARK  4 active torsions:
REMARK  status: ('A' for Active; 'I' for Inactive)
REMARK    1  A    between atoms: C_5  and  C_6 
REMARK    2  A    between atoms: C_12  and  C_13 
REMARK    3  A    between atoms: C_13  and  N_14 
REMARK       I    between atoms: N_14  and  C_15 
REMARK       I    between atoms: C_15  and  N_16 
REMARK    4  A    between atoms: N_16  and  C_17 
ROOT
HETATM    1  C   UNL     1      -7.757   0.336 -34.927  1.00  0.00     0.168 C 
ENDROOT
BRANCH   1   2
HETATM    2  C   UNL     1      -6.528   0.510 -34.105  1.00  0.00     0.023 A 
HETATM    3  C   UNL     1      -5.985   1.644 -33.529  1.00  0.00     0.085 A 
HETATM    4  C   UNL     1      -6.359   3.072 -33.469  1.00  0.00     0.079 C 
HETATM    5  O   UNL     1      -4.831   1.323 -32.893  1.00  0.00    -0.217 OA
HETATM    6  N   UNL     1      -4.576  -0.018 -33.039  1.00  0.00    -0.127 NA
HETATM    7  C   UNL     1      -5.591  -0.522 -33.755  1.00  0.00     0.105 A 
BRANCH   7   8
HETATM    8  C   UNL     1      -5.612  -1.940 -34.105  1.00  0.00    -0.004 A 
HETATM    9  C   UNL     1      -6.789  -2.567 -34.531  1.00  0.00     0.014 A 
HETATM   10  C   UNL     1      -6.785  -3.922 -34.874  1.00  0.00     0.001 A 
HETATM   11  C   UNL     1      -5.607  -4.663 -34.783  1.00  0.00     0.000 A 
HETATM   12  C   UNL     1      -4.434  -4.053 -34.342  1.00  0.00     0.001 A 
HETATM   13  C   UNL     1      -4.436  -2.698 -34.002  1.00  0.00     0.014 A 
ENDBRANCH   7   8
ENDBRANCH   1   2
BRANCH   1  14
HETATM   14  N   UNL     1      -8.951   0.349 -34.112  1.00  0.00    -0.338 N 
HETATM   15  C   UNL     1      -9.964   1.255 -34.046  1.00  0.00     0.320 C 
HETATM   16  N   UNL     1      -9.725   2.471 -34.619  1.00  0.00    -0.309 N 
HETATM   17  O   UNL     1     -10.993   0.901 -33.481  1.00  0.00    -0.247 OA
HETATM   18  H   UNL     1      -8.760   2.708 -34.781  1.00  0.00     0.170 HD
HETATM   19  H   UNL     1      -9.223  -0.531 -33.694  1.00  0.00     0.164 HD
BRANCH  16  20
HETATM   20  C   UNL     1     -10.651   3.516 -34.830  1.00  0.00     0.036 A 
HETATM   21  C   UNL     1     -11.828   3.378 -35.571  1.00  0.00     0.029 A 
HETATM   22  C   UNL     1     -12.688   4.467 -35.748  1.00  0.00     0.002 A 
HETATM   23  C   UNL     1     -12.375   5.705 -35.194  1.00  0.00     0.000 A 
HETATM   24  C   UNL     1     -11.202   5.857 -34.460  1.00  0.00     0.002 A 
HETATM   25  C   UNL     1     -10.345   4.768 -34.279  1.00  0.00     0.029 A 
ENDBRANCH  16  20
ENDBRANCH   1  14
TORSDOF 4
ENDMDL
MODEL 8
REMARK VINA RESULT:      -8.0      3.348      6.763
REMARK  4 active torsions:
REMARK  status: ('A' for Active; 'I' for Inactive)
REMARK    1  A    between atoms: C_5  and  C_6 
REMARK    2  A    between atoms: C_12  and  C_13 
REMARK    3  A    between atoms: C_13  and  N_14 
REMARK       I    between atoms: N_14  and  C_15 
REMARK       I    between atoms: C_15  and  N_16 
REMARK    4  A    between atoms: N_16  and  C_17 
ROOT
HETATM    1  C   UNL     1      -3.380   1.535 -32.974  1.00  0.00     0.168 C 
ENDROOT
BRANCH   1   2
HETATM    2  C   UNL     1      -4.125   2.687 -32.397  1.00  0.00     0.023 A 
HETATM    3  C   UNL     1      -3.667   3.832 -31.771  1.00  0.00     0.085 A 
HETATM    4  C   UNL     1      -2.338   4.383 -31.434  1.00  0.00     0.079 C 
HETATM    5  O   UNL     1      -4.721   4.590 -31.380  1.00  0.00    -0.217 OA
HETATM    6  N   UNL     1      -5.896   3.967 -31.722  1.00  0.00    -0.127 NA
HETATM    7  C   UNL     1      -5.555   2.829 -32.343  1.00  0.00     0.105 A 
BRANCH   7   8
HETATM    8  C   UNL     1      -6.588   1.915 -32.823  1.00  0.00    -0.004 A 
HETATM    9  C   UNL     1      -7.318   1.112 -31.937  1.00  0.00     0.014 A 
HETATM   10  C   UNL     1      -8.311   0.254 -32.416  1.00  0.00     0.001 A 
HETATM   11  C   UNL     1      -8.576   0.183 -33.783  1.00  0.00     0.000 A 
HETATM   12  C   UNL     1      -7.842   0.963 -34.674  1.00  0.00     0.001 A 
HETATM   13  C   UNL     1      -6.851   1.824 -34.198  1.00  0.00     0.014 A 
ENDBRANCH   7   8
ENDBRANCH   1   2
BRANCH   1  14
HETATM   14  N   UNL     1      -3.374   0.401 -32.078  1.00  0.00    -0.338 N 
HETATM   15  C   UNL     1      -3.788  -0.880 -32.275  1.00  0.00     0.320 C 
HETATM   16  N   UNL     1      -4.572  -1.100 -33.371  1.00  0.00    -0.309 N 
HETATM   17  O   UNL     1      -3.422  -1.716 -31.456  1.00  0.00    -0.247 OA
HETATM   18  H   UNL     1      -5.016  -0.291 -33.773  1.00  0.00     0.170 HD
HETATM   19  H   UNL     1      -2.773   0.468 -31.267  1.00  0.00     0.164 HD
BRANCH  16  20
HETATM   20  C   UNL     1      -4.994  -2.345 -33.887  1.00  0.00     0.036 A 
HETATM   21  C   UNL     1      -4.182  -3.480 -33.947  1.00  0.00     0.029 A 
HETATM   22  C   UNL     1      -4.669  -4.674 -34.488  1.00  0.00     0.002 A 
HETATM   23  C   UNL     1      -5.969  -4.742 -34.983  1.00  0.00     0.000 A 
HETATM   24  C   UNL     1      -6.785  -3.616 -34.936  1.00  0.00     0.002 A 
HETATM   25  C   UNL     1      -6.300  -2.423 -34.391  1.00  0.00     0.029 A 
ENDBRANCH  16  20
ENDBRANCH   1  14
TORSDOF 4
ENDMDL
MODEL 9
REMARK VINA RESULT:      -7.8      1.833      8.438
REMARK  4 active torsions:
REMARK  status: ('A' for Active; 'I' for Inactive)
REMARK    1  A    between atoms: C_5  and  C_6 
REMARK    2  A    between atoms: C_12  and  C_13 
REMARK    3  A    between atoms: C_13  and  N_14 
REMARK       I    between atoms: N_14  and  C_15 
REMARK       I    between atoms: C_15  and  N_16 
REMARK    4  A    between atoms: N_16  and  C_17 
ROOT
HETATM    1  C   UNL     1      -3.574   1.729 -31.935  1.00  0.00     0.168 C 
ENDROOT
BRANCH   1   2
HETATM    2  C   UNL     1      -4.992   1.544 -31.522  1.00  0.00     0.023 A 
HETATM    3  C   UNL     1      -5.779   2.281 -30.656  1.00  0.00     0.085 A 
HETATM    4  C   UNL     1      -5.582   3.491 -29.831  1.00  0.00     0.079 C 
HETATM    5  O   UNL     1      -7.008   1.714 -30.564  1.00  0.00    -0.217 OA
HETATM    6  N   UNL     1      -7.063   0.590 -31.350  1.00  0.00    -0.127 NA
HETATM    7  C   UNL     1      -5.864   0.481 -31.940  1.00  0.00     0.105 A 
BRANCH   7   8
HETATM    8  C   UNL     1      -5.586  -0.637 -32.839  1.00  0.00    -0.004 A 
HETATM    9  C   UNL     1      -6.445  -0.948 -33.901  1.00  0.00     0.014 A 
HETATM   10  C   UNL     1      -6.153  -2.012 -34.757  1.00  0.00     0.001 A 
HETATM   11  C   UNL     1      -5.008  -2.782 -34.553  1.00  0.00     0.000 A 
HETATM   12  C   UNL     1      -4.157  -2.493 -33.488  1.00  0.00     0.001 A 
HETATM   13  C   UNL     1      -4.445  -1.427 -32.633  1.00  0.00     0.014 A 
ENDBRANCH   7   8
ENDBRANCH   1   2
BRANCH   1  14
HETATM   14  N   UNL     1      -3.416   2.878 -32.798  1.00  0.00    -0.338 N 
HETATM   15  C   UNL     1      -2.726   4.035 -32.607  1.00  0.00     0.320 C 
HETATM   16  N   UNL     1      -2.337   4.302 -31.325  1.00  0.00    -0.309 N 
HETATM   17  O   UNL     1      -2.518   4.730 -33.596  1.00  0.00    -0.247 OA
HETATM   18  H   UNL     1      -2.818   3.801 -30.598  1.00  0.00     0.170 HD
HETATM   19  H   UNL     1      -3.635   2.743 -33.776  1.00  0.00     0.164 HD
BRANCH  16  20
HETATM   20  C   UNL     1      -1.482   5.337 -30.888  1.00  0.00     0.036 A 
HETATM   21  C   UNL     1      -1.931   6.572 -30.414  1.00  0.00     0.029 A 
HETATM   22  C   UNL     1      -1.019   7.554 -30.014  1.00  0.00     0.002 A 
HETATM   23  C   UNL     1       0.350   7.314 -30.092  1.00  0.00     0.000 A 
HETATM   24  C   UNL     1       0.810   6.090 -30.569  1.00  0.00     0.002 A 
HETATM   25  C   UNL     1      -0.101   5.107 -30.965  1.00  0.00     0.029 A 
ENDBRANCH  16  20
ENDBRANCH   1  14
TORSDOF 4
ENDMDL
MODEL 10
REMARK VINA RESULT:      -7.7      2.999      4.798
REMARK  4 active torsions:
REMARK  status: ('A' for Active; 'I' for Inactive)
REMARK    1  A    between atoms: C_5  and  C_6 
REMARK    2  A    between atoms: C_12  and  C_13 
REMARK    3  A    between atoms: C_13  and  N_14 
REMARK       I    between atoms: N_14  and  C_15 
REMARK       I    between atoms: C_15  and  N_16 
REMARK    4  A    between atoms: N_16  and  C_17 
ROOT
HETATM    1  C   UNL     1      -3.905   1.850 -32.490  1.00  0.00     0.168 C 
ENDROOT
BRANCH   1   2
HETATM    2  C   UNL     1      -4.410   2.831 -31.490  1.00  0.00     0.023 A 
HETATM    3  C   UNL     1      -5.354   2.689 -30.489  1.00  0.00     0.085 A 
HETATM    4  C   UNL     1      -6.206   1.586 -29.999  1.00  0.00     0.079 C 
HETATM    5  O   UNL     1      -5.511   3.871 -29.842  1.00  0.00    -0.217 OA
HETATM    6  N   UNL     1      -4.691   4.820 -30.399  1.00  0.00    -0.127 NA
HETATM    7  C   UNL     1      -4.016   4.209 -31.382  1.00  0.00     0.105 A 
BRANCH   7   8
HETATM    8  C   UNL     1      -3.061   4.958 -32.195  1.00  0.00    -0.004 A 
HETATM    9  C   UNL     1      -3.483   5.746 -33.273  1.00  0.00     0.014 A 
HETATM   10  C   UNL     1      -2.555   6.465 -34.030  1.00  0.00     0.001 A 
HETATM   11  C   UNL     1      -1.196   6.395 -33.722  1.00  0.00     0.000 A 
HETATM   12  C   UNL     1      -0.764   5.600 -32.663  1.00  0.00     0.001 A 
HETATM   13  C   UNL     1      -1.691   4.882 -31.904  1.00  0.00     0.014 A 
ENDBRANCH   7   8
ENDBRANCH   1   2
BRANCH   1  14
HETATM   14  N   UNL     1      -3.457   0.629 -31.860  1.00  0.00    -0.338 N 
HETATM   15  C   UNL     1      -3.698  -0.670 -32.185  1.00  0.00     0.320 C 
HETATM   16  N   UNL     1      -4.720  -0.895 -33.062  1.00  0.00    -0.309 N 
HETATM   17  O   UNL     1      -2.980  -1.517 -31.664  1.00  0.00    -0.247 OA
HETATM   18  H   UNL     1      -5.386  -0.149 -33.173  1.00  0.00     0.170 HD
HETATM   19  H   UNL     1      -2.666   0.707 -31.234  1.00  0.00     0.164 HD
BRANCH  16  20
HETATM   20  C   UNL     1      -5.066  -2.116 -33.680  1.00  0.00     0.036 A 
HETATM   21  C   UNL     1      -4.187  -3.192 -33.829  1.00  0.00     0.029 A 
HETATM   22  C   UNL     1      -4.602  -4.364 -34.469  1.00  0.00     0.002 A 
HETATM   23  C   UNL     1      -5.896  -4.469 -34.972  1.00  0.00     0.000 A 
HETATM   24  C   UNL     1      -6.778  -3.402 -34.837  1.00  0.00     0.002 A 
HETATM   25  C   UNL     1      -6.365  -2.232 -34.194  1.00  0.00     0.029 A 
ENDBRANCH  16  20
ENDBRANCH   1  14
TORSDOF 4
ENDMDL
