MODEL 1
REMARK VINA RESULT:      -9.2      0.000      0.000
REMARK  4 active torsions:
REMARK  status: ('A' for Active; 'I' for Inactive)
REMARK       I    between atoms: N_6  and  C_7 
REMARK    1  A    between atoms: C_7  and  C_8 
REMARK    2  A    between atoms: C_9  and  N_10 
REMARK       I    between atoms: N_10  and  C_11 
REMARK    3  A    between atoms: C_11  and  C_12 
REMARK    4  A    between atoms: N_20  and  C_21 
ROOT
HETATM    1  C   UNL     1      -7.359   3.183 -31.943  1.00  0.00     0.097 C 
HETATM    2  C   UNL     1      -8.146   2.214 -32.553  1.00  0.00     0.149 C 
HETATM    3  N   UNL     1      -9.390   2.806 -32.812  1.00  0.00    -0.217 N 
HETATM    4  N   UNL     1      -9.417   4.078 -32.323  1.00  0.00    -0.177 NA
HETATM    5  C   UNL     1      -8.168   4.330 -31.948  1.00  0.00     0.160 C 
ENDROOT
BRANCH   2   6
HETATM    6  N   UNL     1      -7.672   0.917 -32.777  1.00  0.00    -0.306 N 
HETATM    7  C   UNL     1      -7.145   0.508 -34.044  1.00  0.00     0.257 C 
HETATM    8  O   UNL     1      -7.422   1.162 -35.033  1.00  0.00    -0.267 OA
HETATM    9  H   UNL     1      -7.904   0.221 -32.070  1.00  0.00     0.170 HD
BRANCH   7  10
HETATM   10  C   UNL     1      -6.310  -0.723 -34.084  1.00  0.00     0.032 A 
HETATM   11  C   UNL     1      -6.731  -1.903 -34.714  1.00  0.00     0.018 A 
HETATM   12  C   UNL     1      -5.923  -3.047 -34.673  1.00  0.00     0.020 A 
HETATM   13  C   UNL     1      -4.706  -3.017 -33.995  1.00  0.00     0.011 A 
HETATM   14 BR   UNL     1      -3.633  -4.569 -33.926  1.00  0.00    -0.051 Br
HETATM   15  C   UNL     1      -4.281  -1.852 -33.360  1.00  0.00     0.020 A 
HETATM   16  C   UNL     1      -5.081  -0.706 -33.407  1.00  0.00     0.018 A 
ENDBRANCH   7  10
ENDBRANCH   2   6
BRANCH   1  17
HETATM   17  C   UNL     1      -6.011   2.961 -31.456  1.00  0.00     0.259 C 
HETATM   18  N   UNL     1      -4.937   2.927 -32.355  1.00  0.00    -0.345 N 
HETATM   19  C   UNL     1      -3.618   2.562 -31.819  1.00  0.00     0.154 C 
HETATM   20  C   UNL     1      -4.867   3.710 -33.602  1.00  0.00     0.154 C 
HETATM   21  C   UNL     1      -2.755   3.813 -31.563  1.00  0.00     0.254 C 
HETATM   22  N   UNL     1      -2.643   4.628 -32.853  1.00  0.00    -0.072 N 
HETATM   23  C   UNL     1      -1.785   5.850 -32.674  1.00  0.00     0.269 C 
HETATM   24  H   UNL     1      -2.163   4.036 -33.547  1.00  0.00     0.279 HD
HETATM   25  C   UNL     1      -4.011   4.981 -33.421  1.00  0.00     0.254 C 
HETATM   26  O   UNL     1      -5.820   2.852 -30.242  1.00  0.00    -0.267 OA
ENDBRANCH   1  17
BRANCH   3  27
HETATM   27  C   UNL     1     -10.507   2.335 -33.554  1.00  0.00     0.060 A 
HETATM   28  C   UNL     1     -11.143   1.125 -33.247  1.00  0.00     0.031 A 
HETATM   29  C   UNL     1     -12.269   0.726 -33.974  1.00  0.00     0.002 A 
HETATM   30  C   UNL     1     -12.747   1.514 -35.019  1.00  0.00     0.000 A 
HETATM   31  C   UNL     1     -12.088   2.692 -35.362  1.00  0.00     0.002 A 
HETATM   32  C   UNL     1     -10.965   3.098 -34.641  1.00  0.00     0.031 A 
ENDBRANCH   3  27
TORSDOF 4
ENDMDL
MODEL 2
REMARK VINA RESULT:      -9.1      2.715      5.689
REMARK  4 active torsions:
REMARK  status: ('A' for Active; 'I' for Inactive)
REMARK       I    between atoms: N_6  and  C_7 
REMARK    1  A    between atoms: C_7  and  C_8 
REMARK    2  A    between atoms: C_9  and  N_10 
REMARK       I    between atoms: N_10  and  C_11 
REMARK    3  A    between atoms: C_11  and  C_12 
REMARK    4  A    between atoms: N_20  and  C_21 
ROOT
HETATM    1  C   UNL     1      -4.571   1.021 -31.564  1.00  0.00     0.097 C 
HETATM    2  C   UNL     1      -5.473   0.226 -32.261  1.00  0.00     0.149 C 
HETATM    3  N   UNL     1      -4.724  -0.765 -32.908  1.00  0.00    -0.217 N 
HETATM    4  N   UNL     1      -3.392  -0.568 -32.691  1.00  0.00    -0.177 NA
HETATM    5  C   UNL     1      -3.332   0.398 -31.780  1.00  0.00     0.160 C 
ENDROOT
BRANCH   2   6
HETATM    6  N   UNL     1      -6.845   0.498 -32.258  1.00  0.00    -0.306 N 
HETATM    7  C   UNL     1      -7.508   1.083 -33.384  1.00  0.00     0.257 C 
HETATM    8  O   UNL     1      -6.841   1.672 -34.215  1.00  0.00    -0.267 OA
HETATM    9  H   UNL     1      -7.313   0.453 -31.354  1.00  0.00     0.170 HD
BRANCH   7  10
HETATM   10  C   UNL     1      -8.990   0.967 -33.456  1.00  0.00     0.032 A 
HETATM   11  C   UNL     1      -9.700  -0.060 -32.817  1.00  0.00     0.018 A 
HETATM   12  C   UNL     1     -11.090  -0.149 -32.965  1.00  0.00     0.020 A 
HETATM   13  C   UNL     1     -11.767   0.777 -33.758  1.00  0.00     0.011 A 
HETATM   14 BR   UNL     1     -13.638   0.637 -33.970  1.00  0.00    -0.051 Br
HETATM   15  C   UNL     1     -11.070   1.796 -34.403  1.00  0.00     0.020 A 
HETATM   16  C   UNL     1      -9.684   1.892 -34.250  1.00  0.00     0.018 A 
ENDBRANCH   7  10
ENDBRANCH   2   6
BRANCH   1  17
HETATM   17  C   UNL     1      -4.931   2.203 -30.804  1.00  0.00     0.259 C 
HETATM   18  N   UNL     1      -4.556   3.472 -31.261  1.00  0.00    -0.345 N 
HETATM   19  C   UNL     1      -4.831   4.617 -30.380  1.00  0.00     0.154 C 
HETATM   20  C   UNL     1      -4.428   3.844 -32.682  1.00  0.00     0.154 C 
HETATM   21  C   UNL     1      -6.112   5.356 -30.809  1.00  0.00     0.254 C 
HETATM   22  N   UNL     1      -5.990   5.780 -32.274  1.00  0.00    -0.072 N 
HETATM   23  C   UNL     1      -7.203   6.535 -32.745  1.00  0.00     0.269 C 
HETATM   24  H   UNL     1      -5.198   6.435 -32.338  1.00  0.00     0.279 HD
HETATM   25  C   UNL     1      -5.680   4.596 -33.182  1.00  0.00     0.254 C 
HETATM   26  O   UNL     1      -5.611   2.077 -29.783  1.00  0.00    -0.267 OA
ENDBRANCH   1  17
BRANCH   3  27
HETATM   27  C   UNL     1      -5.135  -1.925 -33.620  1.00  0.00     0.060 A 
HETATM   28  C   UNL     1      -6.414  -2.036 -34.179  1.00  0.00     0.031 A 
HETATM   29  C   UNL     1      -6.757  -3.176 -34.912  1.00  0.00     0.002 A 
HETATM   30  C   UNL     1      -5.841  -4.213 -35.069  1.00  0.00     0.000 A 
HETATM   31  C   UNL     1      -4.585  -4.132 -34.472  1.00  0.00     0.002 A 
HETATM   32  C   UNL     1      -4.235  -2.997 -33.740  1.00  0.00     0.031 A 
ENDBRANCH   3  27
TORSDOF 4
ENDMDL
MODEL 3
REMARK VINA RESULT:      -9.0      1.758      6.214
REMARK  4 active torsions:
REMARK  status: ('A' for Active; 'I' for Inactive)
REMARK       I    between atoms: N_6  and  C_7 
REMARK    1  A    between atoms: C_7  and  C_8 
REMARK    2  A    between atoms: C_9  and  N_10 
REMARK       I    between atoms: N_10  and  C_11 
REMARK    3  A    between atoms: C_11  and  C_12 
REMARK    4  A    between atoms: N_20  and  C_21 
ROOT
HETATM    1  C   UNL     1      -7.406   4.154 -32.408  1.00  0.00     0.097 C 
HETATM    2  C   UNL     1      -6.245   3.775 -33.072  1.00  0.00     0.149 C 
HETATM    3  N   UNL     1      -5.350   4.848 -32.968  1.00  0.00    -0.217 N 
HETATM    4  N   UNL     1      -5.942   5.895 -32.325  1.00  0.00    -0.177 NA
HETATM    5  C   UNL     1      -7.096   5.415 -31.875  1.00  0.00     0.160 C 
ENDROOT
BRANCH   2   6
HETATM    6  N   UNL     1      -6.137   2.536 -33.712  1.00  0.00    -0.306 N 
HETATM    7  C   UNL     1      -5.438   1.434 -33.123  1.00  0.00     0.257 C 
HETATM    8  O   UNL     1      -4.637   1.657 -32.233  1.00  0.00    -0.267 OA
HETATM    9  H   UNL     1      -6.398   2.510 -34.696  1.00  0.00     0.170 HD
BRANCH   7  10
HETATM   10  C   UNL     1      -5.708   0.073 -33.660  1.00  0.00     0.032 A 
HETATM   11  C   UNL     1      -6.940  -0.287 -34.225  1.00  0.00     0.018 A 
HETATM   12  C   UNL     1      -7.153  -1.600 -34.665  1.00  0.00     0.020 A 
HETATM   13  C   UNL     1      -6.144  -2.553 -34.531  1.00  0.00     0.011 A 
HETATM   14 BR   UNL     1      -6.447  -4.326 -35.107  1.00  0.00    -0.051 Br
HETATM   15  C   UNL     1      -4.919  -2.207 -33.965  1.00  0.00     0.020 A 
HETATM   16  C   UNL     1      -4.700  -0.896 -33.532  1.00  0.00     0.018 A 
ENDBRANCH   7  10
ENDBRANCH   2   6
BRANCH   1  17
HETATM   17  C   UNL     1      -8.609   3.348 -32.330  1.00  0.00     0.259 C 
HETATM   18  N   UNL     1      -9.853   3.915 -32.632  1.00  0.00    -0.345 N 
HETATM   19  C   UNL     1     -11.047   3.087 -32.402  1.00  0.00     0.154 C 
HETATM   20  C   UNL     1     -10.065   4.985 -33.623  1.00  0.00     0.154 C 
HETATM   21  C   UNL     1     -11.544   2.449 -33.714  1.00  0.00     0.254 C 
HETATM   22  N   UNL     1     -11.799   3.546 -34.750  1.00  0.00    -0.072 N 
HETATM   23  C   UNL     1     -12.316   2.986 -36.047  1.00  0.00     0.269 C 
HETATM   24  H   UNL     1     -12.545   4.149 -34.377  1.00  0.00     0.279 HD
HETATM   25  C   UNL     1     -10.570   4.418 -34.966  1.00  0.00     0.254 C 
HETATM   26  O   UNL     1      -8.514   2.152 -32.042  1.00  0.00    -0.267 OA
ENDBRANCH   1  17
BRANCH   3  27
HETATM   27  C   UNL     1      -3.976   4.951 -33.320  1.00  0.00     0.060 A 
HETATM   28  C   UNL     1      -3.567   5.210 -34.634  1.00  0.00     0.031 A 
HETATM   29  C   UNL     1      -2.206   5.351 -34.924  1.00  0.00     0.002 A 
HETATM   30  C   UNL     1      -1.254   5.209 -33.917  1.00  0.00     0.000 A 
HETATM   31  C   UNL     1      -1.652   4.900 -32.618  1.00  0.00     0.002 A 
HETATM   32  C   UNL     1      -3.008   4.759 -32.321  1.00  0.00     0.031 A 
ENDBRANCH   3  27
TORSDOF 4
ENDMDL
MODEL 4
REMARK VINA RESULT:      -8.8      1.615      2.233
REMARK  4 active torsions:
REMARK  status: ('A' for Active; 'I' for Inactive)
REMARK       I    between atoms: N_6  and  C_7 
REMARK    1  A    between atoms: C_7  and  C_8 
REMARK    2  A    between atoms: C_9  and  N_10 
REMARK       I    between atoms: N_10  and  C_11 
REMARK    3  A    between atoms: C_11  and  C_12 
REMARK    4  A    between atoms: N_20  and  C_21 
ROOT
HETATM    1  C   UNL     1      -7.908   3.244 -33.522  1.00  0.00     0.097 C 
HETATM    2  C   UNL     1      -8.663   2.078 -33.482  1.00  0.00     0.149 C 
HETATM    3  N   UNL     1     -10.009   2.467 -33.465  1.00  0.00    -0.217 N 
HETATM    4  N   UNL     1     -10.107   3.827 -33.423  1.00  0.00    -0.177 NA
HETATM    5  C   UNL     1      -8.866   4.266 -33.606  1.00  0.00     0.160 C 
ENDROOT
BRANCH   2   6
HETATM    6  N   UNL     1      -8.062   0.816 -33.437  1.00  0.00    -0.306 N 
HETATM    7  C   UNL     1      -7.730   0.088 -34.624  1.00  0.00     0.257 C 
HETATM    8  O   UNL     1      -8.278   0.391 -35.669  1.00  0.00    -0.267 OA
HETATM    9  H   UNL     1      -8.056   0.349 -32.532  1.00  0.00     0.170 HD
BRANCH   7  10
HETATM   10  C   UNL     1      -6.753  -1.028 -34.506  1.00  0.00     0.032 A 
HETATM   11  C   UNL     1      -7.083  -2.358 -34.803  1.00  0.00     0.018 A 
HETATM   12  C   UNL     1      -6.136  -3.373 -34.621  1.00  0.00     0.020 A 
HETATM   13  C   UNL     1      -4.868  -3.065 -34.131  1.00  0.00     0.011 A 
HETATM   14 BR   UNL     1      -3.604  -4.442 -33.868  1.00  0.00    -0.051 Br
HETATM   15  C   UNL     1      -4.532  -1.747 -33.825  1.00  0.00     0.020 A 
HETATM   16  C   UNL     1      -5.473  -0.730 -34.014  1.00  0.00     0.018 A 
ENDBRANCH   7  10
ENDBRANCH   2   6
BRANCH   1  17
HETATM   17  C   UNL     1      -6.459   3.287 -33.491  1.00  0.00     0.259 C 
HETATM   18  N   UNL     1      -5.781   3.227 -32.267  1.00  0.00    -0.345 N 
HETATM   19  C   UNL     1      -4.323   3.413 -32.291  1.00  0.00     0.154 C 
HETATM   20  C   UNL     1      -6.257   2.487 -31.084  1.00  0.00     0.154 C 
HETATM   21  C   UNL     1      -3.587   2.060 -32.232  1.00  0.00     0.254 C 
HETATM   22  N   UNL     1      -4.044   1.285 -30.993  1.00  0.00    -0.072 N 
HETATM   23  C   UNL     1      -3.337  -0.036 -30.863  1.00  0.00     0.269 C 
HETATM   24  H   UNL     1      -3.774   1.841 -30.169  1.00  0.00     0.279 HD
HETATM   25  C   UNL     1      -5.557   1.117 -30.957  1.00  0.00     0.254 C 
HETATM   26  O   UNL     1      -5.835   3.328 -34.554  1.00  0.00    -0.267 OA
ENDBRANCH   1  17
BRANCH   3  27
HETATM   27  C   UNL     1     -11.200   1.700 -33.583  1.00  0.00     0.060 A 
HETATM   28  C   UNL     1     -11.226   0.326 -33.313  1.00  0.00     0.031 A 
HETATM   29  C   UNL     1     -12.431  -0.377 -33.396  1.00  0.00     0.002 A 
HETATM   30  C   UNL     1     -13.603   0.277 -33.771  1.00  0.00     0.000 A 
HETATM   31  C   UNL     1     -13.574   1.632 -34.090  1.00  0.00     0.002 A 
HETATM   32  C   UNL     1     -12.375   2.341 -34.009  1.00  0.00     0.031 A 
ENDBRANCH   3  27
TORSDOF 4
ENDMDL
MODEL 5
REMARK VINA RESULT:      -8.5     15.621     16.828
REMARK  4 active torsions:
REMARK  status: ('A' for Active; 'I' for Inactive)
REMARK       I    between atoms: N_6  and  C_7 
REMARK    1  A    between atoms: C_7  and  C_8 
REMARK    2  A    between atoms: C_9  and  N_10 
REMARK       I    between atoms: N_10  and  C_11 
REMARK    3  A    between atoms: C_11  and  C_12 
REMARK    4  A    between atoms: N_20  and  C_21 
ROOT
HETATM    1  C   UNL     1      -4.918 -12.624 -39.475  1.00  0.00     0.097 C 
HETATM    2  C   UNL     1      -6.192 -12.860 -38.971  1.00  0.00     0.149 C 
HETATM    3  N   UNL     1      -7.086 -12.702 -40.038  1.00  0.00    -0.217 N 
HETATM    4  N   UNL     1      -6.417 -12.311 -41.161  1.00  0.00    -0.177 NA
HETATM    5  C   UNL     1      -5.130 -12.414 -40.847  1.00  0.00     0.160 C 
ENDROOT
BRANCH   2   6
HETATM    6  N   UNL     1      -6.403 -13.158 -37.621  1.00  0.00    -0.306 N 
HETATM    7  C   UNL     1      -6.424 -14.504 -37.133  1.00  0.00     0.257 C 
HETATM    8  O   UNL     1      -6.610 -15.411 -37.924  1.00  0.00    -0.267 OA
HETATM    9  H   UNL     1      -6.743 -12.396 -37.037  1.00  0.00     0.170 HD
BRANCH   7  10
HETATM   10  C   UNL     1      -6.250 -14.716 -35.670  1.00  0.00     0.032 A 
HETATM   11  C   UNL     1      -6.933 -13.956 -34.709  1.00  0.00     0.018 A 
HETATM   12  C   UNL     1      -6.687 -14.165 -33.346  1.00  0.00     0.020 A 
HETATM   13  C   UNL     1      -5.755 -15.120 -32.944  1.00  0.00     0.011 A 
HETATM   14 BR   UNL     1      -5.415 -15.381 -31.105  1.00  0.00    -0.051 Br
HETATM   15  C   UNL     1      -5.067 -15.875 -33.891  1.00  0.00     0.020 A 
HETATM   16  C   UNL     1      -5.316 -15.675 -35.252  1.00  0.00     0.018 A 
ENDBRANCH   7  10
ENDBRANCH   2   6
BRANCH   1  17
HETATM   17  C   UNL     1      -3.705 -12.629 -38.681  1.00  0.00     0.259 C 
HETATM   18  N   UNL     1      -3.077 -13.841 -38.367  1.00  0.00    -0.345 N 
HETATM   19  C   UNL     1      -1.932 -13.790 -37.446  1.00  0.00     0.154 C 
HETATM   20  C   UNL     1      -3.078 -15.031 -39.236  1.00  0.00     0.154 C 
HETATM   21  C   UNL     1      -0.597 -13.836 -38.214  1.00  0.00     0.254 C 
HETATM   22  N   UNL     1      -0.561 -15.082 -39.102  1.00  0.00    -0.072 N 
HETATM   23  C   UNL     1       0.734 -15.198 -39.857  1.00  0.00     0.269 C 
HETATM   24  H   UNL     1      -0.609 -15.901 -38.480  1.00  0.00     0.279 HD
HETATM   25  C   UNL     1      -1.762 -15.145 -40.036  1.00  0.00     0.254 C 
HETATM   26  O   UNL     1      -3.212 -11.554 -38.329  1.00  0.00    -0.267 OA
ENDBRANCH   1  17
BRANCH   3  27
HETATM   27  C   UNL     1      -8.478 -12.975 -40.134  1.00  0.00     0.060 A 
HETATM   28  C   UNL     1      -9.441 -11.970 -39.981  1.00  0.00     0.031 A 
HETATM   29  C   UNL     1     -10.797 -12.277 -40.131  1.00  0.00     0.002 A 
HETATM   30  C   UNL     1     -11.196 -13.583 -40.408  1.00  0.00     0.000 A 
HETATM   31  C   UNL     1     -10.246 -14.596 -40.509  1.00  0.00     0.002 A 
HETATM   32  C   UNL     1      -8.891 -14.298 -40.362  1.00  0.00     0.031 A 
ENDBRANCH   3  27
TORSDOF 4
ENDMDL
MODEL 6
REMARK VINA RESULT:      -8.5      1.803      6.217
REMARK  4 active torsions:
REMARK  status: ('A' for Active; 'I' for Inactive)
REMARK       I    between atoms: N_6  and  C_7 
REMARK    1  A    between atoms: C_7  and  C_8 
REMARK    2  A    between atoms: C_9  and  N_10 
REMARK       I    between atoms: N_10  and  C_11 
REMARK    3  A    between atoms: C_11  and  C_12 
REMARK    4  A    between atoms: N_20  and  C_21 
ROOT
HETATM    1  C   UNL     1      -8.379   3.294 -33.855  1.00  0.00     0.097 C 
HETATM    2  C   UNL     1      -7.080   2.831 -33.678  1.00  0.00     0.149 C 
HETATM    3  N   UNL     1      -6.243   3.954 -33.701  1.00  0.00    -0.217 N 
HETATM    4  N   UNL     1      -6.970   5.080 -33.953  1.00  0.00    -0.177 NA
HETATM    5  C   UNL     1      -8.239   4.690 -33.894  1.00  0.00     0.160 C 
ENDROOT
BRANCH   2   6
HETATM    6  N   UNL     1      -6.798   1.467 -33.547  1.00  0.00    -0.306 N 
HETATM    7  C   UNL     1      -6.554   0.628 -34.681  1.00  0.00     0.257 C 
HETATM    8  O   UNL     1      -6.930   1.001 -35.777  1.00  0.00    -0.267 OA
HETATM    9  H   UNL     1      -6.975   1.054 -32.632  1.00  0.00     0.170 HD
BRANCH   7  10
HETATM   10  C   UNL     1      -5.880  -0.677 -34.447  1.00  0.00     0.032 A 
HETATM   11  C   UNL     1      -6.372  -1.886 -34.960  1.00  0.00     0.018 A 
HETATM   12  C   UNL     1      -5.723  -3.091 -34.661  1.00  0.00     0.020 A 
HETATM   13  C   UNL     1      -4.594  -3.091 -33.843  1.00  0.00     0.011 A 
HETATM   14 BR   UNL     1      -3.738  -4.722 -33.427  1.00  0.00    -0.051 Br
HETATM   15  C   UNL     1      -4.102  -1.896 -33.322  1.00  0.00     0.020 A 
HETATM   16  C   UNL     1      -4.742  -0.691 -33.625  1.00  0.00     0.018 A 
ENDBRANCH   7  10
ENDBRANCH   2   6
BRANCH   1  17
HETATM   17  C   UNL     1      -9.549   2.443 -33.952  1.00  0.00     0.259 C 
HETATM   18  N   UNL     1     -10.380   2.264 -32.839  1.00  0.00    -0.345 N 
HETATM   19  C   UNL     1     -11.470   1.284 -32.960  1.00  0.00     0.154 C 
HETATM   20  C   UNL     1     -10.624   3.286 -31.805  1.00  0.00     0.154 C 
HETATM   21  C   UNL     1     -12.812   1.977 -33.264  1.00  0.00     0.254 C 
HETATM   22  N   UNL     1     -13.101   3.024 -32.186  1.00  0.00    -0.072 N 
HETATM   23  C   UNL     1     -14.417   3.717 -32.412  1.00  0.00     0.269 C 
HETATM   24  H   UNL     1     -13.188   2.523 -31.290  1.00  0.00     0.279 HD
HETATM   25  C   UNL     1     -11.959   4.022 -32.044  1.00  0.00     0.254 C 
HETATM   26  O   UNL     1      -9.825   1.922 -35.035  1.00  0.00    -0.267 OA
ENDBRANCH   1  17
BRANCH   3  27
HETATM   27  C   UNL     1      -4.857   4.087 -33.413  1.00  0.00     0.060 A 
HETATM   28  C   UNL     1      -4.012   4.883 -34.196  1.00  0.00     0.031 A 
HETATM   29  C   UNL     1      -2.665   5.022 -33.847  1.00  0.00     0.002 A 
HETATM   30  C   UNL     1      -2.154   4.353 -32.736  1.00  0.00     0.000 A 
HETATM   31  C   UNL     1      -2.978   3.520 -31.984  1.00  0.00     0.002 A 
HETATM   32  C   UNL     1      -4.323   3.377 -32.326  1.00  0.00     0.031 A 
ENDBRANCH   3  27
TORSDOF 4
ENDMDL
MODEL 7
REMARK VINA RESULT:      -8.4      2.979      6.248
REMARK  4 active torsions:
REMARK  status: ('A' for Active; 'I' for Inactive)
REMARK       I    between atoms: N_6  and  C_7 
REMARK    1  A    between atoms: C_7  and  C_8 
REMARK    2  A    between atoms: C_9  and  N_10 
REMARK       I    between atoms: N_10  and  C_11 
REMARK    3  A    between atoms: C_11  and  C_12 
REMARK    4  A    between atoms: N_20  and  C_21 
ROOT
HETATM    1  C   UNL     1      -4.780   2.760 -32.301  1.00  0.00     0.097 C 
HETATM    2  C   UNL     1      -5.142   1.500 -32.761  1.00  0.00     0.149 C 
HETATM    3  N   UNL     1      -4.032   0.665 -32.574  1.00  0.00    -0.217 N 
HETATM    4  N   UNL     1      -2.982   1.382 -32.080  1.00  0.00    -0.177 NA
HETATM    5  C   UNL     1      -3.486   2.576 -31.789  1.00  0.00     0.160 C 
ENDROOT
BRANCH   2   6
HETATM    6  N   UNL     1      -6.402   1.255 -33.317  1.00  0.00    -0.306 N 
HETATM    7  C   UNL     1      -7.501   0.779 -32.531  1.00  0.00     0.257 C 
HETATM    8  O   UNL     1      -7.268   0.250 -31.459  1.00  0.00    -0.267 OA
HETATM    9  H   UNL     1      -6.453   1.234 -34.334  1.00  0.00     0.170 HD
BRANCH   7  10
HETATM   10  C   UNL     1      -8.872   0.930 -33.090  1.00  0.00     0.032 A 
HETATM   11  C   UNL     1      -9.241   2.007 -33.910  1.00  0.00     0.018 A 
HETATM   12  C   UNL     1     -10.561   2.123 -34.362  1.00  0.00     0.020 A 
HETATM   13  C   UNL     1     -11.513   1.176 -33.988  1.00  0.00     0.011 A 
HETATM   14 BR   UNL     1     -13.296   1.352 -34.585  1.00  0.00    -0.051 Br
HETATM   15  C   UNL     1     -11.158   0.107 -33.169  1.00  0.00     0.020 A 
HETATM   16  C   UNL     1      -9.839  -0.017 -32.722  1.00  0.00     0.018 A 
ENDBRANCH   7  10
ENDBRANCH   2   6
BRANCH   1  17
HETATM   17  C   UNL     1      -5.628   3.935 -32.369  1.00  0.00     0.259 C 
HETATM   18  N   UNL     1      -6.647   4.120 -31.427  1.00  0.00    -0.345 N 
HETATM   19  C   UNL     1      -7.557   5.257 -31.631  1.00  0.00     0.154 C 
HETATM   20  C   UNL     1      -6.584   3.663 -30.027  1.00  0.00     0.154 C 
HETATM   21  C   UNL     1      -7.161   6.453 -30.743  1.00  0.00     0.254 C 
HETATM   22  N   UNL     1      -7.119   6.010 -29.279  1.00  0.00    -0.072 N 
HETATM   23  C   UNL     1      -6.766   7.145 -28.357  1.00  0.00     0.269 C 
HETATM   24  H   UNL     1      -8.071   5.713 -29.022  1.00  0.00     0.279 HD
HETATM   25  C   UNL     1      -6.196   4.815 -29.076  1.00  0.00     0.254 C 
HETATM   26  O   UNL     1      -5.406   4.787 -33.233  1.00  0.00    -0.267 OA
ENDBRANCH   1  17
BRANCH   3  27
HETATM   27  C   UNL     1      -3.892  -0.742 -32.716  1.00  0.00     0.060 A 
HETATM   28  C   UNL     1      -3.165  -1.510 -31.799  1.00  0.00     0.031 A 
HETATM   29  C   UNL     1      -3.095  -2.898 -31.954  1.00  0.00     0.002 A 
HETATM   30  C   UNL     1      -3.725  -3.518 -33.031  1.00  0.00     0.000 A 
HETATM   31  C   UNL     1      -4.407  -2.754 -33.975  1.00  0.00     0.002 A 
HETATM   32  C   UNL     1      -4.482  -1.369 -33.826  1.00  0.00     0.031 A 
ENDBRANCH   3  27
TORSDOF 4
ENDMDL
MODEL 8
REMARK VINA RESULT:      -8.2      2.038      6.415
REMARK  4 active torsions:
REMARK  status: ('A' for Active; 'I' for Inactive)
REMARK       I    between atoms: N_6  and  C_7 
REMARK    1  A    between atoms: C_7  and  C_8 
REMARK    2  A    between atoms: C_9  and  N_10 
REMARK       I    between atoms: N_10  and  C_11 
REMARK    3  A    between atoms: C_11  and  C_12 
REMARK    4  A    between atoms: N_20  and  C_21 
ROOT
HETATM    1  C   UNL     1      -6.220   4.807 -30.752  1.00  0.00     0.097 C 
HETATM    2  C   UNL     1      -5.201   4.638 -31.683  1.00  0.00     0.149 C 
HETATM    3  N   UNL     1      -4.456   5.825 -31.687  1.00  0.00    -0.217 N 
HETATM    4  N   UNL     1      -5.019   6.739 -30.847  1.00  0.00    -0.177 NA
HETATM    5  C   UNL     1      -5.967   6.071 -30.198  1.00  0.00     0.160 C 
ENDROOT
BRANCH   2   6
HETATM    6  N   UNL     1      -5.078   3.463 -32.431  1.00  0.00    -0.306 N 
HETATM    7  C   UNL     1      -4.332   2.335 -31.960  1.00  0.00     0.257 C 
HETATM    8  O   UNL     1      -3.513   2.503 -31.075  1.00  0.00    -0.267 OA
HETATM    9  H   UNL     1      -5.365   3.515 -33.407  1.00  0.00     0.170 HD
BRANCH   7  10
HETATM   10  C   UNL     1      -4.581   1.018 -32.607  1.00  0.00     0.032 A 
HETATM   11  C   UNL     1      -3.639  -0.022 -32.592  1.00  0.00     0.018 A 
HETATM   12  C   UNL     1      -3.908  -1.220 -33.265  1.00  0.00     0.020 A 
HETATM   13  C   UNL     1      -5.107  -1.377 -33.960  1.00  0.00     0.011 A 
HETATM   14 BR   UNL     1      -5.452  -2.988 -34.882  1.00  0.00    -0.051 Br
HETATM   15  C   UNL     1      -6.045  -0.347 -33.986  1.00  0.00     0.020 A 
HETATM   16  C   UNL     1      -5.783   0.848 -33.309  1.00  0.00     0.018 A 
ENDBRANCH   7  10
ENDBRANCH   2   6
BRANCH   1  17
HETATM   17  C   UNL     1      -7.256   3.829 -30.482  1.00  0.00     0.259 C 
HETATM   18  N   UNL     1      -8.486   3.908 -31.147  1.00  0.00    -0.345 N 
HETATM   19  C   UNL     1      -9.542   2.973 -30.729  1.00  0.00     0.154 C 
HETATM   20  C   UNL     1      -8.662   4.416 -32.519  1.00  0.00     0.154 C 
HETATM   21  C   UNL     1      -9.632   1.771 -31.688  1.00  0.00     0.254 C 
HETATM   22  N   UNL     1      -9.845   2.273 -33.118  1.00  0.00    -0.072 N 
HETATM   23  C   UNL     1      -9.971   1.140 -34.100  1.00  0.00     0.269 C 
HETATM   24  H   UNL     1     -10.746   2.772 -33.134  1.00  0.00     0.279 HD
HETATM   25  C   UNL     1      -8.765   3.261 -33.538  1.00  0.00     0.254 C 
HETATM   26  O   UNL     1      -7.022   2.905 -29.698  1.00  0.00    -0.267 OA
ENDBRANCH   1  17
BRANCH   3  27
HETATM   27  C   UNL     1      -3.224   6.147 -32.320  1.00  0.00     0.060 A 
HETATM   28  C   UNL     1      -3.039   5.994 -33.700  1.00  0.00     0.031 A 
HETATM   29  C   UNL     1      -1.826   6.370 -34.285  1.00  0.00     0.002 A 
HETATM   30  C   UNL     1      -0.792   6.873 -33.499  1.00  0.00     0.000 A 
HETATM   31  C   UNL     1      -0.952   6.979 -32.119  1.00  0.00     0.002 A 
HETATM   32  C   UNL     1      -2.160   6.607 -31.528  1.00  0.00     0.031 A 
ENDBRANCH   3  27
TORSDOF 4
ENDMDL
MODEL 9
REMARK VINA RESULT:      -8.1      3.268      6.227
REMARK  4 active torsions:
REMARK  status: ('A' for Active; 'I' for Inactive)
REMARK       I    between atoms: N_6  and  C_7 
REMARK    1  A    between atoms: C_7  and  C_8 
REMARK    2  A    between atoms: C_9  and  N_10 
REMARK       I    between atoms: N_10  and  C_11 
REMARK    3  A    between atoms: C_11  and  C_12 
REMARK    4  A    between atoms: N_20  and  C_21 
ROOT
HETATM    1  C   UNL     1      -7.758   2.599 -31.044  1.00  0.00     0.097 C 
HETATM    2  C   UNL     1      -6.685   1.922 -31.611  1.00  0.00     0.149 C 
HETATM    3  N   UNL     1      -7.178   0.696 -32.076  1.00  0.00    -0.217 N 
HETATM    4  N   UNL     1      -8.498   0.567 -31.755  1.00  0.00    -0.177 NA
HETATM    5  C   UNL     1      -8.854   1.755 -31.281  1.00  0.00     0.160 C 
ENDROOT
BRANCH   2   6
HETATM    6  N   UNL     1      -5.396   2.465 -31.618  1.00  0.00    -0.306 N 
HETATM    7  C   UNL     1      -4.937   3.323 -32.669  1.00  0.00     0.257 C 
HETATM    8  O   UNL     1      -5.526   3.310 -33.734  1.00  0.00    -0.267 OA
HETATM    9  H   UNL     1      -4.732   2.065 -30.957  1.00  0.00     0.170 HD
BRANCH   7  10
HETATM   10  C   UNL     1      -3.737   4.162 -32.407  1.00  0.00     0.032 A 
HETATM   11  C   UNL     1      -2.577   4.091 -33.192  1.00  0.00     0.018 A 
HETATM   12  C   UNL     1      -1.459   4.868 -32.864  1.00  0.00     0.020 A 
HETATM   13  C   UNL     1      -1.493   5.704 -31.749  1.00  0.00     0.011 A 
HETATM   14 BR   UNL     1       0.027   6.731 -31.301  1.00  0.00    -0.051 Br
HETATM   15  C   UNL     1      -2.638   5.776 -30.958  1.00  0.00     0.020 A 
HETATM   16  C   UNL     1      -3.759   5.009 -31.288  1.00  0.00     0.018 A 
ENDBRANCH   7  10
ENDBRANCH   2   6
BRANCH   1  17
HETATM   17  C   UNL     1      -7.663   3.889 -30.389  1.00  0.00     0.259 C 
HETATM   18  N   UNL     1      -7.689   5.065 -31.150  1.00  0.00    -0.345 N 
HETATM   19  C   UNL     1      -7.451   6.333 -30.443  1.00  0.00     0.154 C 
HETATM   20  C   UNL     1      -8.434   5.228 -32.410  1.00  0.00     0.154 C 
HETATM   21  C   UNL     1      -8.776   7.057 -30.137  1.00  0.00     0.254 C 
HETATM   22  N   UNL     1      -9.555   7.265 -31.437  1.00  0.00    -0.072 N 
HETATM   23  C   UNL     1     -10.850   7.997 -31.207  1.00  0.00     0.269 C 
HETATM   24  H   UNL     1      -8.983   7.871 -32.042  1.00  0.00     0.279 HD
HETATM   25  C   UNL     1      -9.777   5.954 -32.181  1.00  0.00     0.254 C 
HETATM   26  O   UNL     1      -7.609   3.936 -29.158  1.00  0.00    -0.267 OA
ENDBRANCH   1  17
BRANCH   3  27
HETATM   27  C   UNL     1      -6.567  -0.312 -32.871  1.00  0.00     0.060 A 
HETATM   28  C   UNL     1      -5.246  -0.723 -32.657  1.00  0.00     0.031 A 
HETATM   29  C   UNL     1      -4.703  -1.752 -33.432  1.00  0.00     0.002 A 
HETATM   30  C   UNL     1      -5.461  -2.354 -34.434  1.00  0.00     0.000 A 
HETATM   31  C   UNL     1      -6.758  -1.913 -34.687  1.00  0.00     0.002 A 
HETATM   32  C   UNL     1      -7.308  -0.888 -33.916  1.00  0.00     0.031 A 
ENDBRANCH   3  27
TORSDOF 4
ENDMDL
MODEL 10
REMARK VINA RESULT:      -7.9     15.946     18.524
REMARK  4 active torsions:
REMARK  status: ('A' for Active; 'I' for Inactive)
REMARK       I    between atoms: N_6  and  C_7 
REMARK    1  A    between atoms: C_7  and  C_8 
REMARK    2  A    between atoms: C_9  and  N_10 
REMARK       I    between atoms: N_10  and  C_11 
REMARK    3  A    between atoms: C_11  and  C_12 
REMARK    4  A    between atoms: N_20  and  C_21 
ROOT
HETATM    1  C   UNL     1      -2.367 -13.224 -38.885  1.00  0.00     0.097 C 
HETATM    2  C   UNL     1      -3.567 -13.688 -39.410  1.00  0.00     0.149 C 
HETATM    3  N   UNL     1      -4.593 -13.033 -38.717  1.00  0.00    -0.217 N 
HETATM    4  N   UNL     1      -4.070 -12.238 -37.740  1.00  0.00    -0.177 NA
HETATM    5  C   UNL     1      -2.758 -12.251 -37.952  1.00  0.00     0.160 C 
ENDROOT
BRANCH   2   6
HETATM    6  N   UNL     1      -3.601 -14.655 -40.420  1.00  0.00    -0.306 N 
HETATM    7  C   UNL     1      -3.773 -14.311 -41.799  1.00  0.00     0.257 C 
HETATM    8  O   UNL     1      -4.241 -13.221 -42.076  1.00  0.00    -0.267 OA
HETATM    9  H   UNL     1      -3.702 -15.623 -40.117  1.00  0.00     0.170 HD
BRANCH   7  10
HETATM   10  C   UNL     1      -3.400 -15.325 -42.821  1.00  0.00     0.032 A 
HETATM   11  C   UNL     1      -2.532 -16.392 -42.546  1.00  0.00     0.018 A 
HETATM   12  C   UNL     1      -2.175 -17.286 -43.565  1.00  0.00     0.020 A 
HETATM   13  C   UNL     1      -2.672 -17.108 -44.855  1.00  0.00     0.011 A 
HETATM   14 BR   UNL     1      -2.168 -18.304 -46.226  1.00  0.00    -0.051 Br
HETATM   15  C   UNL     1      -3.528 -16.047 -45.140  1.00  0.00     0.020 A 
HETATM   16  C   UNL     1      -3.894 -15.158 -44.124  1.00  0.00     0.018 A 
ENDBRANCH   7  10
ENDBRANCH   2   6
BRANCH   1  17
HETATM   17  C   UNL     1      -1.056 -13.696 -39.287  1.00  0.00     0.259 C 
HETATM   18  N   UNL     1      -0.199 -14.277 -38.343  1.00  0.00    -0.345 N 
HETATM   19  C   UNL     1       1.164 -14.609 -38.782  1.00  0.00     0.154 C 
HETATM   20  C   UNL     1      -0.649 -15.063 -37.180  1.00  0.00     0.154 C 
HETATM   21  C   UNL     1       1.290 -16.106 -39.125  1.00  0.00     0.254 C 
HETATM   22  N   UNL     1       0.857 -16.944 -37.919  1.00  0.00    -0.072 N 
HETATM   23  C   UNL     1       0.987 -18.419 -38.183  1.00  0.00     0.269 C 
HETATM   24  H   UNL     1       1.507 -16.729 -37.149  1.00  0.00     0.279 HD
HETATM   25  C   UNL     1      -0.545 -16.579 -37.451  1.00  0.00     0.254 C 
HETATM   26  O   UNL     1      -0.728 -13.624 -40.474  1.00  0.00    -0.267 OA
ENDBRANCH   1  17
BRANCH   3  27
HETATM   27  C   UNL     1      -5.997 -13.003 -38.943  1.00  0.00     0.060 A 
HETATM   28  C   UNL     1      -6.550 -12.411 -40.084  1.00  0.00     0.031 A 
HETATM   29  C   UNL     1      -7.933 -12.449 -40.287  1.00  0.00     0.002 A 
HETATM   30  C   UNL     1      -8.766 -13.052 -39.347  1.00  0.00     0.000 A 
HETATM   31  C   UNL     1      -8.226 -13.597 -38.184  1.00  0.00     0.002 A 
HETATM   32  C   UNL     1      -6.847 -13.564 -37.975  1.00  0.00     0.031 A 
ENDBRANCH   3  27
TORSDOF 4
ENDMDL
