MODEL 1
REMARK VINA RESULT:      -8.8      0.000      0.000
REMARK  2 active torsions:
REMARK  status: ('A' for Active; 'I' for Inactive)
REMARK    1  A    between atoms: C_8  and  C_9 
REMARK       I    between atoms: N_10  and  C_11 
REMARK    2  A    between atoms: C_11  and  C_12 
ROOT
HETATM    1  C   UNL     1      -6.005   3.495 -31.683  1.00  0.00     0.124 C 
HETATM    2  N   UNL     1      -6.235   2.122 -32.130  1.00  0.00    -0.339 N 
HETATM    3  C   UNL     1      -6.176   1.805 -33.473  1.00  0.00     0.260 C 
HETATM    4  O   UNL     1      -5.882   2.615 -34.350  1.00  0.00    -0.267 OA
HETATM    5  C   UNL     1      -6.845   1.330 -31.069  1.00  0.00     0.127 C 
HETATM    6  C   UNL     1      -7.473   2.368 -30.154  1.00  0.00     0.022 C 
HETATM    7  C   UNL     1      -6.485   3.522 -30.224  1.00  0.00     0.032 C 
ENDROOT
BRANCH   1   8
HETATM    8  C   UNL     1      -4.566   3.905 -31.806  1.00  0.00     0.014 A 
HETATM    9  C   UNL     1      -4.095   5.166 -32.137  1.00  0.00     0.034 A 
HETATM   10  C   UNL     1      -4.801   6.425 -32.472  1.00  0.00     0.070 C 
HETATM   11  N   UNL     1      -2.733   5.080 -32.129  1.00  0.00    -0.282 N 
HETATM   12  H   UNL     1      -2.058   5.807 -32.343  1.00  0.00     0.189 HD
HETATM   13  N   UNL     1      -2.272   3.876 -31.776  1.00  0.00    -0.179 NA
HETATM   14  C   UNL     1      -3.376   3.144 -31.587  1.00  0.00     0.061 A 
HETATM   15  C   UNL     1      -3.237   1.722 -31.186  1.00  0.00     0.073 C 
ENDBRANCH   1   8
BRANCH   3  16
HETATM   16  C   UNL     1      -6.377   0.387 -33.846  1.00  0.00     0.108 A 
HETATM   17  C   UNL     1      -7.639  -0.083 -34.441  1.00  0.00     0.304 A 
HETATM   18  O   UNL     1      -8.594   0.663 -34.636  1.00  0.00    -0.259 OA
HETATM   19  O   UNL     1      -7.720  -1.444 -34.734  1.00  0.00    -0.274 OA
HETATM   20  C   UNL     1      -6.617  -2.301 -34.560  1.00  0.00     0.089 A 
HETATM   21  C   UNL     1      -5.410  -1.817 -34.061  1.00  0.00    -0.001 A 
HETATM   22  C   UNL     1      -6.780  -3.637 -34.919  1.00  0.00     0.038 A 
HETATM   23  C   UNL     1      -4.332  -2.696 -33.936  1.00  0.00     0.014 A 
HETATM   24  C   UNL     1      -5.316  -0.417 -33.686  1.00  0.00     0.037 A 
HETATM   25  C   UNL     1      -4.478  -4.038 -34.301  1.00  0.00     0.001 A 
HETATM   26  C   UNL     1      -5.701  -4.509 -34.787  1.00  0.00     0.003 A 
ENDBRANCH   3  16
TORSDOF 2
ENDMDL
MODEL 2
REMARK VINA RESULT:      -8.6      2.617      4.426
REMARK  2 active torsions:
REMARK  status: ('A' for Active; 'I' for Inactive)
REMARK    1  A    between atoms: C_8  and  C_9 
REMARK       I    between atoms: N_10  and  C_11 
REMARK    2  A    between atoms: C_11  and  C_12 
ROOT
HETATM    1  C   UNL     1      -7.538   3.590 -32.503  1.00  0.00     0.124 C 
HETATM    2  N   UNL     1      -6.853   2.398 -33.000  1.00  0.00    -0.339 N 
HETATM    3  C   UNL     1      -6.683   1.297 -32.182  1.00  0.00     0.260 C 
HETATM    4  O   UNL     1      -7.130   1.225 -31.039  1.00  0.00    -0.267 OA
HETATM    5  C   UNL     1      -6.130   2.695 -34.230  1.00  0.00     0.127 C 
HETATM    6  C   UNL     1      -5.944   4.202 -34.191  1.00  0.00     0.022 C 
HETATM    7  C   UNL     1      -7.230   4.683 -33.537  1.00  0.00     0.032 C 
ENDROOT
BRANCH   1   8
HETATM    8  C   UNL     1      -9.015   3.375 -32.338  1.00  0.00     0.014 A 
HETATM    9  C   UNL     1      -9.821   3.924 -31.353  1.00  0.00     0.034 A 
HETATM   10  C   UNL     1      -9.514   4.818 -30.213  1.00  0.00     0.070 C 
HETATM   11  N   UNL     1     -11.083   3.462 -31.590  1.00  0.00    -0.282 N 
HETATM   12  H   UNL     1     -11.927   3.643 -31.058  1.00  0.00     0.189 HD
HETATM   13  N   UNL     1     -11.178   2.691 -32.679  1.00  0.00    -0.179 NA
HETATM   14  C   UNL     1      -9.924   2.618 -33.140  1.00  0.00     0.061 A 
HETATM   15  C   UNL     1      -9.651   1.818 -34.358  1.00  0.00     0.073 C 
ENDBRANCH   1   8
BRANCH   3  16
HETATM   16  C   UNL     1      -6.018   0.112 -32.768  1.00  0.00     0.108 A 
HETATM   17  C   UNL     1      -4.567  -0.103 -32.637  1.00  0.00     0.304 A 
HETATM   18  O   UNL     1      -3.832   0.695 -32.062  1.00  0.00    -0.259 OA
HETATM   19  O   UNL     1      -4.050  -1.245 -33.246  1.00  0.00    -0.274 OA
HETATM   20  C   UNL     1      -4.886  -2.191 -33.867  1.00  0.00     0.089 A 
HETATM   21  C   UNL     1      -6.265  -2.000 -33.917  1.00  0.00    -0.001 A 
HETATM   22  C   UNL     1      -4.282  -3.321 -34.413  1.00  0.00     0.038 A 
HETATM   23  C   UNL     1      -7.060  -2.980 -34.514  1.00  0.00     0.014 A 
HETATM   24  C   UNL     1      -6.826  -0.787 -33.349  1.00  0.00     0.037 A 
HETATM   25  C   UNL     1      -6.468  -4.125 -35.058  1.00  0.00     0.001 A 
HETATM   26  C   UNL     1      -5.082  -4.293 -35.012  1.00  0.00     0.003 A 
ENDBRANCH   3  16
TORSDOF 2
ENDMDL
MODEL 3
REMARK VINA RESULT:      -8.5      2.546      3.540
REMARK  2 active torsions:
REMARK  status: ('A' for Active; 'I' for Inactive)
REMARK    1  A    between atoms: C_8  and  C_9 
REMARK       I    between atoms: N_10  and  C_11 
REMARK    2  A    between atoms: C_11  and  C_12 
ROOT
HETATM    1  C   UNL     1      -9.153   2.238 -33.662  1.00  0.00     0.124 C 
HETATM    2  N   UNL     1      -8.288   1.064 -33.578  1.00  0.00    -0.339 N 
HETATM    3  C   UNL     1      -7.139   0.985 -34.341  1.00  0.00     0.260 C 
HETATM    4  O   UNL     1      -6.749   1.890 -35.077  1.00  0.00    -0.267 OA
HETATM    5  C   UNL     1      -8.977  -0.038 -32.917  1.00  0.00     0.127 C 
HETATM    6  C   UNL     1     -10.449   0.303 -33.077  1.00  0.00     0.022 C 
HETATM    7  C   UNL     1     -10.457   1.820 -32.965  1.00  0.00     0.032 C 
ENDROOT
BRANCH   1   8
HETATM    8  C   UNL     1      -8.540   3.450 -33.021  1.00  0.00     0.014 A 
HETATM    9  C   UNL     1      -8.664   4.761 -33.453  1.00  0.00     0.034 A 
HETATM   10  C   UNL     1      -9.370   5.354 -34.613  1.00  0.00     0.070 C 
HETATM   11  N   UNL     1      -7.949   5.523 -32.575  1.00  0.00    -0.282 N 
HETATM   12  H   UNL     1      -7.802   6.526 -32.591  1.00  0.00     0.189 HD
HETATM   13  N   UNL     1      -7.404   4.822 -31.575  1.00  0.00    -0.179 NA
HETATM   14  C   UNL     1      -7.745   3.555 -31.838  1.00  0.00     0.061 A 
HETATM   15  C   UNL     1      -7.291   2.482 -30.919  1.00  0.00     0.073 C 
ENDBRANCH   1   8
BRANCH   3  16
HETATM   16  C   UNL     1      -6.290  -0.215 -34.171  1.00  0.00     0.108 A 
HETATM   17  C   UNL     1      -5.059  -0.182 -33.364  1.00  0.00     0.304 A 
HETATM   18  O   UNL     1      -4.659   0.840 -32.814  1.00  0.00    -0.259 OA
HETATM   19  O   UNL     1      -4.331  -1.368 -33.291  1.00  0.00    -0.274 OA
HETATM   20  C   UNL     1      -4.801  -2.558 -33.877  1.00  0.00     0.089 A 
HETATM   21  C   UNL     1      -6.006  -2.580 -34.577  1.00  0.00    -0.001 A 
HETATM   22  C   UNL     1      -4.025  -3.703 -33.717  1.00  0.00     0.038 A 
HETATM   23  C   UNL     1      -6.451  -3.790 -35.114  1.00  0.00     0.014 A 
HETATM   24  C   UNL     1      -6.754  -1.344 -34.725  1.00  0.00     0.037 A 
HETATM   25  C   UNL     1      -5.686  -4.950 -34.953  1.00  0.00     0.001 A 
HETATM   26  C   UNL     1      -4.473  -4.906 -34.260  1.00  0.00     0.003 A 
ENDBRANCH   3  16
TORSDOF 2
ENDMDL
MODEL 4
REMARK VINA RESULT:      -8.5      1.532      2.193
REMARK  2 active torsions:
REMARK  status: ('A' for Active; 'I' for Inactive)
REMARK    1  A    between atoms: C_8  and  C_9 
REMARK       I    between atoms: N_10  and  C_11 
REMARK    2  A    between atoms: C_11  and  C_12 
ROOT
HETATM    1  C   UNL     1      -6.251   3.106 -31.640  1.00  0.00     0.124 C 
HETATM    2  N   UNL     1      -5.832   1.750 -31.987  1.00  0.00    -0.339 N 
HETATM    3  C   UNL     1      -5.968   1.284 -33.281  1.00  0.00     0.260 C 
HETATM    4  O   UNL     1      -6.385   1.973 -34.210  1.00  0.00    -0.267 OA
HETATM    5  C   UNL     1      -5.632   0.949 -30.786  1.00  0.00     0.127 C 
HETATM    6  C   UNL     1      -6.447   1.670 -29.725  1.00  0.00     0.022 C 
HETATM    7  C   UNL     1      -6.273   3.133 -30.104  1.00  0.00     0.032 C 
ENDROOT
BRANCH   1   8
HETATM    8  C   UNL     1      -5.335   4.152 -32.205  1.00  0.00     0.014 A 
HETATM    9  C   UNL     1      -5.715   5.285 -32.908  1.00  0.00     0.034 A 
HETATM   10  C   UNL     1      -7.045   5.790 -33.321  1.00  0.00     0.070 C 
HETATM   11  N   UNL     1      -4.562   5.944 -33.224  1.00  0.00    -0.282 N 
HETATM   12  H   UNL     1      -4.455   6.803 -33.751  1.00  0.00     0.189 HD
HETATM   13  N   UNL     1      -3.459   5.357 -32.745  1.00  0.00    -0.179 NA
HETATM   14  C   UNL     1      -3.912   4.258 -32.132  1.00  0.00     0.061 A 
HETATM   15  C   UNL     1      -2.940   3.345 -31.481  1.00  0.00     0.073 C 
ENDBRANCH   1   8
BRANCH   3  16
HETATM   16  C   UNL     1      -5.482  -0.084 -33.566  1.00  0.00     0.108 A 
HETATM   17  C   UNL     1      -4.084  -0.474 -33.317  1.00  0.00     0.304 A 
HETATM   18  O   UNL     1      -3.247   0.313 -32.887  1.00  0.00    -0.259 OA
HETATM   19  O   UNL     1      -3.737  -1.784 -33.642  1.00  0.00    -0.274 OA
HETATM   20  C   UNL     1      -4.696  -2.710 -34.092  1.00  0.00     0.089 A 
HETATM   21  C   UNL     1      -6.028  -2.336 -34.253  1.00  0.00    -0.001 A 
HETATM   22  C   UNL     1      -4.263  -4.008 -34.353  1.00  0.00     0.038 A 
HETATM   23  C   UNL     1      -6.953  -3.296 -34.669  1.00  0.00     0.014 A 
HETATM   24  C   UNL     1      -6.407  -0.960 -33.984  1.00  0.00     0.037 A 
HETATM   25  C   UNL     1      -6.534  -4.605 -34.926  1.00  0.00     0.001 A 
HETATM   26  C   UNL     1      -5.191  -4.960 -34.772  1.00  0.00     0.003 A 
ENDBRANCH   3  16
TORSDOF 2
ENDMDL
MODEL 5
REMARK VINA RESULT:      -8.5      1.955      2.770
REMARK  2 active torsions:
REMARK  status: ('A' for Active; 'I' for Inactive)
REMARK    1  A    between atoms: C_8  and  C_9 
REMARK       I    between atoms: N_10  and  C_11 
REMARK    2  A    between atoms: C_11  and  C_12 
ROOT
HETATM    1  C   UNL     1      -7.708   2.950 -31.924  1.00  0.00     0.124 C 
HETATM    2  N   UNL     1      -7.311   1.614 -32.364  1.00  0.00    -0.339 N 
HETATM    3  C   UNL     1      -6.205   1.444 -33.175  1.00  0.00     0.260 C 
HETATM    4  O   UNL     1      -5.471   2.366 -33.524  1.00  0.00    -0.267 OA
HETATM    5  C   UNL     1      -8.388   0.657 -32.140  1.00  0.00     0.127 C 
HETATM    6  C   UNL     1      -9.634   1.522 -32.053  1.00  0.00     0.022 C 
HETATM    7  C   UNL     1      -9.125   2.776 -31.358  1.00  0.00     0.032 C 
ENDROOT
BRANCH   1   8
HETATM    8  C   UNL     1      -6.764   3.521 -30.905  1.00  0.00     0.014 A 
HETATM    9  C   UNL     1      -6.072   2.812 -29.936  1.00  0.00     0.034 A 
HETATM   10  C   UNL     1      -6.050   1.370 -29.596  1.00  0.00     0.070 C 
HETATM   11  N   UNL     1      -5.339   3.730 -29.241  1.00  0.00    -0.282 N 
HETATM   12  H   UNL     1      -4.727   3.572 -28.448  1.00  0.00     0.189 HD
HETATM   13  N   UNL     1      -5.460   4.978 -29.705  1.00  0.00    -0.179 NA
HETATM   14  C   UNL     1      -6.334   4.870 -30.713  1.00  0.00     0.061 A 
HETATM   15  C   UNL     1      -6.718   6.089 -31.466  1.00  0.00     0.073 C 
ENDBRANCH   1   8
BRANCH   3  16
HETATM   16  C   UNL     1      -5.840   0.058 -33.545  1.00  0.00     0.108 A 
HETATM   17  C   UNL     1      -6.376  -0.584 -34.757  1.00  0.00     0.304 A 
HETATM   18  O   UNL     1      -7.168  -0.020 -35.507  1.00  0.00    -0.259 OA
HETATM   19  O   UNL     1      -5.977  -1.898 -34.993  1.00  0.00    -0.274 OA
HETATM   20  C   UNL     1      -5.034  -2.540 -34.169  1.00  0.00     0.089 A 
HETATM   21  C   UNL     1      -4.487  -1.886 -33.067  1.00  0.00    -0.001 A 
HETATM   22  C   UNL     1      -4.665  -3.840 -34.507  1.00  0.00     0.038 A 
HETATM   23  C   UNL     1      -3.531  -2.549 -32.296  1.00  0.00     0.014 A 
HETATM   24  C   UNL     1      -4.934  -0.539 -32.758  1.00  0.00     0.037 A 
HETATM   25  C   UNL     1      -3.144  -3.852 -32.629  1.00  0.00     0.001 A 
HETATM   26  C   UNL     1      -3.713  -4.497 -33.730  1.00  0.00     0.003 A 
ENDBRANCH   3  16
TORSDOF 2
ENDMDL
MODEL 6
REMARK VINA RESULT:      -8.4      2.462      3.879
REMARK  2 active torsions:
REMARK  status: ('A' for Active; 'I' for Inactive)
REMARK    1  A    between atoms: C_8  and  C_9 
REMARK       I    between atoms: N_10  and  C_11 
REMARK    2  A    between atoms: C_11  and  C_12 
ROOT
HETATM    1  C   UNL     1      -4.475   4.329 -30.899  1.00  0.00     0.124 C 
HETATM    2  N   UNL     1      -4.298   3.046 -31.574  1.00  0.00    -0.339 N 
HETATM    3  C   UNL     1      -4.873   1.899 -31.061  1.00  0.00     0.260 C 
HETATM    4  O   UNL     1      -5.595   1.889 -30.065  1.00  0.00    -0.267 OA
HETATM    5  C   UNL     1      -3.217   3.121 -32.549  1.00  0.00     0.127 C 
HETATM    6  C   UNL     1      -2.387   4.306 -32.083  1.00  0.00     0.022 C 
HETATM    7  C   UNL     1      -3.439   5.263 -31.543  1.00  0.00     0.032 C 
ENDROOT
BRANCH   1   8
HETATM    8  C   UNL     1      -5.872   4.863 -31.038  1.00  0.00     0.014 A 
HETATM    9  C   UNL     1      -6.684   5.321 -30.011  1.00  0.00     0.034 A 
HETATM   10  C   UNL     1      -6.468   5.410 -28.549  1.00  0.00     0.070 C 
HETATM   11  N   UNL     1      -7.855   5.709 -30.594  1.00  0.00    -0.282 N 
HETATM   12  H   UNL     1      -8.686   6.078 -30.146  1.00  0.00     0.189 HD
HETATM   13  N   UNL     1      -7.860   5.584 -31.926  1.00  0.00    -0.179 NA
HETATM   14  C   UNL     1      -6.663   5.059 -32.211  1.00  0.00     0.061 A 
HETATM   15  C   UNL     1      -6.322   4.773 -33.626  1.00  0.00     0.073 C 
ENDBRANCH   1   8
BRANCH   3  16
HETATM   16  C   UNL     1      -4.686   0.645 -31.823  1.00  0.00     0.108 A 
HETATM   17  C   UNL     1      -3.465  -0.167 -31.686  1.00  0.00     0.304 A 
HETATM   18  O   UNL     1      -2.533   0.162 -30.959  1.00  0.00    -0.259 OA
HETATM   19  O   UNL     1      -3.393  -1.318 -32.469  1.00  0.00    -0.274 OA
HETATM   20  C   UNL     1      -4.472  -1.732 -33.271  1.00  0.00     0.089 A 
HETATM   21  C   UNL     1      -5.646  -0.984 -33.329  1.00  0.00    -0.001 A 
HETATM   22  C   UNL     1      -4.323  -2.918 -33.986  1.00  0.00     0.038 A 
HETATM   23  C   UNL     1      -6.704  -1.449 -34.112  1.00  0.00     0.014 A 
HETATM   24  C   UNL     1      -5.725   0.255 -32.576  1.00  0.00     0.037 A 
HETATM   25  C   UNL     1      -6.572  -2.643 -34.828  1.00  0.00     0.001 A 
HETATM   26  C   UNL     1      -5.382  -3.374 -34.769  1.00  0.00     0.003 A 
ENDBRANCH   3  16
TORSDOF 2
ENDMDL
MODEL 7
REMARK VINA RESULT:      -8.4      2.591      4.570
REMARK  2 active torsions:
REMARK  status: ('A' for Active; 'I' for Inactive)
REMARK    1  A    between atoms: C_8  and  C_9 
REMARK       I    between atoms: N_10  and  C_11 
REMARK    2  A    between atoms: C_11  and  C_12 
ROOT
HETATM    1  C   UNL     1      -1.594   4.871 -32.460  1.00  0.00     0.124 C 
HETATM    2  N   UNL     1      -2.866   4.182 -32.669  1.00  0.00    -0.339 N 
HETATM    3  C   UNL     1      -3.176   3.049 -31.940  1.00  0.00     0.260 C 
HETATM    4  O   UNL     1      -2.453   2.591 -31.058  1.00  0.00    -0.267 OA
HETATM    5  C   UNL     1      -3.497   4.627 -33.905  1.00  0.00     0.127 C 
HETATM    6  C   UNL     1      -2.347   5.200 -34.716  1.00  0.00     0.022 C 
HETATM    7  C   UNL     1      -1.466   5.833 -33.651  1.00  0.00     0.032 C 
ENDROOT
BRANCH   1   8
HETATM    8  C   UNL     1      -1.543   5.596 -31.147  1.00  0.00     0.014 A 
HETATM    9  C   UNL     1      -0.514   5.544 -30.218  1.00  0.00     0.034 A 
HETATM   10  C   UNL     1       0.766   4.799 -30.206  1.00  0.00     0.070 C 
HETATM   11  N   UNL     1      -0.890   6.354 -29.186  1.00  0.00    -0.282 N 
HETATM   12  H   UNL     1      -0.391   6.542 -28.323  1.00  0.00     0.189 HD
HETATM   13  N   UNL     1      -2.062   6.967 -29.382  1.00  0.00    -0.179 NA
HETATM   14  C   UNL     1      -2.479   6.507 -30.568  1.00  0.00     0.061 A 
HETATM   15  C   UNL     1      -3.777   6.981 -31.107  1.00  0.00     0.073 C 
ENDBRANCH   1   8
BRANCH   3  16
HETATM   16  C   UNL     1      -4.500   2.431 -32.175  1.00  0.00     0.108 A 
HETATM   17  C   UNL     1      -5.742   3.061 -31.697  1.00  0.00     0.304 A 
HETATM   18  O   UNL     1      -5.746   4.112 -31.063  1.00  0.00    -0.259 OA
HETATM   19  O   UNL     1      -6.927   2.377 -31.960  1.00  0.00    -0.274 OA
HETATM   20  C   UNL     1      -6.942   1.197 -32.727  1.00  0.00     0.089 A 
HETATM   21  C   UNL     1      -5.760   0.658 -33.228  1.00  0.00    -0.001 A 
HETATM   22  C   UNL     1      -8.179   0.606 -32.972  1.00  0.00     0.038 A 
HETATM   23  C   UNL     1      -5.824  -0.496 -34.012  1.00  0.00     0.014 A 
HETATM   24  C   UNL     1      -4.502   1.313 -32.915  1.00  0.00     0.037 A 
HETATM   25  C   UNL     1      -7.060  -1.095 -34.274  1.00  0.00     0.001 A 
HETATM   26  C   UNL     1      -8.235  -0.548 -33.751  1.00  0.00     0.003 A 
ENDBRANCH   3  16
TORSDOF 2
ENDMDL
MODEL 8
REMARK VINA RESULT:      -8.2      2.330      3.678
REMARK  2 active torsions:
REMARK  status: ('A' for Active; 'I' for Inactive)
REMARK    1  A    between atoms: C_8  and  C_9 
REMARK       I    between atoms: N_10  and  C_11 
REMARK    2  A    between atoms: C_11  and  C_12 
ROOT
HETATM    1  C   UNL     1      -6.669   4.257 -31.857  1.00  0.00     0.124 C 
HETATM    2  N   UNL     1      -6.688   2.962 -32.534  1.00  0.00    -0.339 N 
HETATM    3  C   UNL     1      -6.696   1.790 -31.802  1.00  0.00     0.260 C 
HETATM    4  O   UNL     1      -6.743   1.757 -30.574  1.00  0.00    -0.267 OA
HETATM    5  C   UNL     1      -6.346   3.111 -33.943  1.00  0.00     0.127 C 
HETATM    6  C   UNL     1      -5.598   4.433 -33.999  1.00  0.00     0.022 C 
HETATM    7  C   UNL     1      -6.319   5.273 -32.956  1.00  0.00     0.032 C 
ENDROOT
BRANCH   1   8
HETATM    8  C   UNL     1      -7.977   4.578 -31.194  1.00  0.00     0.014 A 
HETATM    9  C   UNL     1      -8.153   5.015 -29.890  1.00  0.00     0.034 A 
HETATM   10  C   UNL     1      -7.187   5.270 -28.797  1.00  0.00     0.070 C 
HETATM   11  N   UNL     1      -9.497   5.181 -29.721  1.00  0.00    -0.282 N 
HETATM   12  H   UNL     1      -9.992   5.473 -28.886  1.00  0.00     0.189 HD
HETATM   13  N   UNL     1     -10.213   4.932 -30.823  1.00  0.00    -0.179 NA
HETATM   14  C   UNL     1      -9.302   4.552 -31.727  1.00  0.00     0.061 A 
HETATM   15  C   UNL     1      -9.754   4.183 -33.091  1.00  0.00     0.073 C 
ENDBRANCH   1   8
BRANCH   3  16
HETATM   16  C   UNL     1      -6.760   0.518 -32.555  1.00  0.00     0.108 A 
HETATM   17  C   UNL     1      -8.022   0.023 -33.129  1.00  0.00     0.304 A 
HETATM   18  O   UNL     1      -9.086   0.619 -32.994  1.00  0.00    -0.259 OA
HETATM   19  O   UNL     1      -7.964  -1.196 -33.802  1.00  0.00    -0.274 OA
HETATM   20  C   UNL     1      -6.744  -1.867 -34.005  1.00  0.00     0.089 A 
HETATM   21  C   UNL     1      -5.551  -1.342 -33.513  1.00  0.00    -0.001 A 
HETATM   22  C   UNL     1      -6.778  -3.059 -34.725  1.00  0.00     0.038 A 
HETATM   23  C   UNL     1      -4.359  -2.024 -33.766  1.00  0.00     0.014 A 
HETATM   24  C   UNL     1      -5.589  -0.106 -32.751  1.00  0.00     0.037 A 
HETATM   25  C   UNL     1      -4.377  -3.218 -34.495  1.00  0.00     0.001 A 
HETATM   26  C   UNL     1      -5.585  -3.737 -34.970  1.00  0.00     0.003 A 
ENDBRANCH   3  16
TORSDOF 2
ENDMDL
MODEL 9
REMARK VINA RESULT:      -8.1      2.610      7.230
REMARK  2 active torsions:
REMARK  status: ('A' for Active; 'I' for Inactive)
REMARK    1  A    between atoms: C_8  and  C_9 
REMARK       I    between atoms: N_10  and  C_11 
REMARK    2  A    between atoms: C_11  and  C_12 
ROOT
HETATM    1  C   UNL     1      -5.260   0.407 -32.989  1.00  0.00     0.124 C 
HETATM    2  N   UNL     1      -4.540   1.524 -32.380  1.00  0.00    -0.339 N 
HETATM    3  C   UNL     1      -4.783   2.820 -32.792  1.00  0.00     0.260 C 
HETATM    4  O   UNL     1      -5.631   3.119 -33.630  1.00  0.00    -0.267 OA
HETATM    5  C   UNL     1      -3.386   1.045 -31.630  1.00  0.00     0.127 C 
HETATM    6  C   UNL     1      -3.103  -0.323 -32.228  1.00  0.00     0.022 C 
HETATM    7  C   UNL     1      -4.496  -0.848 -32.541  1.00  0.00     0.032 C 
ENDROOT
BRANCH   1   8
HETATM    8  C   UNL     1      -6.703   0.361 -32.576  1.00  0.00     0.014 A 
HETATM    9  C   UNL     1      -7.190   0.423 -31.279  1.00  0.00     0.034 A 
HETATM   10  C   UNL     1      -6.502   0.526 -29.972  1.00  0.00     0.070 C 
HETATM   11  N   UNL     1      -8.549   0.349 -31.377  1.00  0.00    -0.282 N 
HETATM   12  H   UNL     1      -9.232   0.347 -30.628  1.00  0.00     0.189 HD
HETATM   13  N   UNL     1      -8.995   0.290 -32.637  1.00  0.00    -0.179 NA
HETATM   14  C   UNL     1      -7.882   0.285 -33.379  1.00  0.00     0.061 A 
HETATM   15  C   UNL     1      -8.003   0.214 -34.856  1.00  0.00     0.073 C 
ENDBRANCH   1   8
BRANCH   3  16
HETATM   16  C   UNL     1      -4.048   3.902 -32.099  1.00  0.00     0.108 A 
HETATM   17  C   UNL     1      -4.620   4.604 -30.937  1.00  0.00     0.304 A 
HETATM   18  O   UNL     1      -5.737   4.350 -30.499  1.00  0.00    -0.259 OA
HETATM   19  O   UNL     1      -3.843   5.618 -30.379  1.00  0.00    -0.274 OA
HETATM   20  C   UNL     1      -2.542   5.888 -30.842  1.00  0.00     0.089 A 
HETATM   21  C   UNL     1      -1.995   5.163 -31.898  1.00  0.00    -0.001 A 
HETATM   22  C   UNL     1      -1.826   6.893 -30.195  1.00  0.00     0.038 A 
HETATM   23  C   UNL     1      -0.689   5.441 -32.302  1.00  0.00     0.014 A 
HETATM   24  C   UNL     1      -2.805   4.144 -32.542  1.00  0.00     0.037 A 
HETATM   25  C   UNL     1       0.045   6.442 -31.656  1.00  0.00     0.001 A 
HETATM   26  C   UNL     1      -0.524   7.169 -30.607  1.00  0.00     0.003 A 
ENDBRANCH   3  16
TORSDOF 2
ENDMDL
MODEL 10
REMARK VINA RESULT:      -7.8      3.531      6.759
REMARK  2 active torsions:
REMARK  status: ('A' for Active; 'I' for Inactive)
REMARK    1  A    between atoms: C_8  and  C_9 
REMARK       I    between atoms: N_10  and  C_11 
REMARK    2  A    between atoms: C_11  and  C_12 
ROOT
HETATM    1  C   UNL     1      -8.244   2.322 -31.625  1.00  0.00     0.124 C 
HETATM    2  N   UNL     1      -6.928   2.957 -31.640  1.00  0.00    -0.339 N 
HETATM    3  C   UNL     1      -5.906   2.431 -32.407  1.00  0.00     0.260 C 
HETATM    4  O   UNL     1      -6.044   1.459 -33.147  1.00  0.00    -0.267 OA
HETATM    5  C   UNL     1      -6.797   3.899 -30.536  1.00  0.00     0.127 C 
HETATM    6  C   UNL     1      -7.846   3.439 -29.537  1.00  0.00     0.022 C 
HETATM    7  C   UNL     1      -8.977   2.958 -30.434  1.00  0.00     0.032 C 
ENDROOT
BRANCH   1   8
HETATM    8  C   UNL     1      -8.991   2.519 -32.912  1.00  0.00     0.014 A 
HETATM    9  C   UNL     1      -9.834   1.603 -33.523  1.00  0.00     0.034 A 
HETATM   10  C   UNL     1     -10.229   0.225 -33.149  1.00  0.00     0.070 C 
HETATM   11  N   UNL     1     -10.291   2.203 -34.660  1.00  0.00    -0.282 N 
HETATM   12  H   UNL     1     -10.913   1.821 -35.364  1.00  0.00     0.189 HD
HETATM   13  N   UNL     1      -9.851   3.456 -34.821  1.00  0.00    -0.179 NA
HETATM   14  C   UNL     1      -9.049   3.660 -33.770  1.00  0.00     0.061 A 
HETATM   15  C   UNL     1      -8.368   4.971 -33.629  1.00  0.00     0.073 C 
ENDBRANCH   1   8
BRANCH   3  16
HETATM   16  C   UNL     1      -4.614   3.153 -32.406  1.00  0.00     0.108 A 
HETATM   17  C   UNL     1      -3.453   2.657 -31.647  1.00  0.00     0.304 A 
HETATM   18  O   UNL     1      -3.500   1.641 -30.960  1.00  0.00    -0.259 OA
HETATM   19  O   UNL     1      -2.295   3.431 -31.706  1.00  0.00    -0.274 OA
HETATM   20  C   UNL     1      -2.213   4.571 -32.526  1.00  0.00     0.089 A 
HETATM   21  C   UNL     1      -3.303   4.981 -33.290  1.00  0.00    -0.001 A 
HETATM   22  C   UNL     1      -1.001   5.258 -32.551  1.00  0.00     0.038 A 
HETATM   23  C   UNL     1      -3.167   6.099 -34.115  1.00  0.00     0.014 A 
HETATM   24  C   UNL     1      -4.544   4.232 -33.199  1.00  0.00     0.037 A 
HETATM   25  C   UNL     1      -1.953   6.793 -34.157  1.00  0.00     0.001 A 
HETATM   26  C   UNL     1      -0.874   6.376 -33.374  1.00  0.00     0.003 A 
ENDBRANCH   3  16
TORSDOF 2
ENDMDL
