MODEL 1
REMARK VINA RESULT:      -9.0      0.000      0.000
REMARK  3 active torsions:
REMARK  status: ('A' for Active; 'I' for Inactive)
REMARK    1  A    between atoms: C_4  and  C_5 
REMARK    2  A    between atoms: C_9  and  C_10 
REMARK       I    between atoms: C_10  and  N_11 
REMARK    3  A    between atoms: N_11  and  N_12 
ROOT
HETATM    1  C   UNL     1      -3.243   1.289 -31.673  1.00  0.00     0.289 C 
HETATM    2  N   UNL     1      -3.817   0.794 -32.832  1.00  0.00    -0.241 N 
HETATM    3  O   UNL     1      -2.693   0.589 -30.826  1.00  0.00    -0.264 OA
HETATM    4  H   UNL     1      -4.262   1.417 -33.505  1.00  0.00     0.192 HD
ENDROOT
BRANCH   1   5
HETATM    5  C   UNL     1      -3.330   2.718 -31.506  1.00  0.00     0.121 A 
HETATM    6  N   UNL     1      -4.359   3.274 -30.794  1.00  0.00    -0.272 N 
HETATM    7  N   UNL     1      -4.319   4.613 -30.717  1.00  0.00    -0.172 NA
HETATM    8  H   UNL     1      -5.118   2.774 -30.339  1.00  0.00     0.189 HD
HETATM    9  C   UNL     1      -3.219   4.937 -31.408  1.00  0.00     0.113 A 
HETATM   10  C   UNL     1      -2.564   3.791 -31.921  1.00  0.00     0.073 A 
BRANCH   9  11
HETATM   11  C   UNL     1      -2.771   6.348 -31.590  1.00  0.00     0.106 A 
HETATM   12  O   UNL     1      -3.122   7.392 -30.776  1.00  0.00    -0.313 OA
HETATM   13  C   UNL     1      -2.518   8.511 -31.267  1.00  0.00     0.050 A 
HETATM   14  C   UNL     1      -2.760   9.771 -30.537  1.00  0.00     0.076 C 
HETATM   15  C   UNL     1      -1.781   8.202 -32.388  1.00  0.00     0.035 A 
HETATM   16  C   UNL     1      -1.944   6.811 -32.596  1.00  0.00     0.042 A 
ENDBRANCH   9  11
ENDBRANCH   1   5
BRANCH   2  17
HETATM   17  N   UNL     1      -3.791  -0.551 -33.087  1.00  0.00    -0.165 NA
HETATM   18  C   UNL     1      -4.822  -1.055 -33.684  1.00  0.00     0.157 A 
HETATM   19  C   UNL     1      -6.094  -0.348 -34.158  1.00  0.00     0.277 A 
HETATM   20  C   UNL     1      -4.989  -2.458 -34.042  1.00  0.00     0.027 A 
HETATM   21  O   UNL     1      -6.311   0.838 -34.028  1.00  0.00    -0.266 OA
HETATM   22  N   UNL     1      -6.874  -1.330 -34.728  1.00  0.00    -0.321 N 
HETATM   23  C   UNL     1      -6.232  -2.566 -34.664  1.00  0.00     0.048 A 
HETATM   24  H   UNL     1      -7.782  -1.156 -35.132  1.00  0.00     0.169 HD
HETATM   25  C   UNL     1      -6.695  -3.778 -35.127  1.00  0.00     0.030 A 
HETATM   26  C   UNL     1      -5.868  -4.894 -34.948  1.00  0.00     0.002 A 
HETATM   27  C   UNL     1      -4.611  -4.777 -34.318  1.00  0.00     0.001 A 
HETATM   28  C   UNL     1      -4.156  -3.541 -33.854  1.00  0.00     0.016 A 
ENDBRANCH   2  17
TORSDOF 3
ENDMDL
MODEL 2
REMARK VINA RESULT:      -8.9      1.758      2.539
REMARK  3 active torsions:
REMARK  status: ('A' for Active; 'I' for Inactive)
REMARK    1  A    between atoms: C_4  and  C_5 
REMARK    2  A    between atoms: C_9  and  C_10 
REMARK       I    between atoms: C_10  and  N_11 
REMARK    3  A    between atoms: N_11  and  N_12 
ROOT
HETATM    1  C   UNL     1      -5.014   2.633 -32.997  1.00  0.00     0.289 C 
HETATM    2  N   UNL     1      -4.700   1.314 -32.715  1.00  0.00    -0.241 N 
HETATM    3  O   UNL     1      -5.897   2.976 -33.779  1.00  0.00    -0.264 OA
HETATM    4  H   UNL     1      -3.958   1.080 -32.057  1.00  0.00     0.192 HD
ENDROOT
BRANCH   1   5
HETATM    5  C   UNL     1      -4.223   3.615 -32.299  1.00  0.00     0.121 A 
HETATM    6  N   UNL     1      -4.798   4.435 -31.366  1.00  0.00    -0.272 N 
HETATM    7  N   UNL     1      -3.949   5.303 -30.793  1.00  0.00    -0.172 NA
HETATM    8  H   UNL     1      -5.775   4.439 -31.085  1.00  0.00     0.189 HD
HETATM    9  C   UNL     1      -2.777   5.033 -31.380  1.00  0.00     0.113 A 
HETATM   10  C   UNL     1      -2.892   3.987 -32.328  1.00  0.00     0.073 A 
BRANCH   9  11
HETATM   11  C   UNL     1      -1.523   5.768 -31.046  1.00  0.00     0.106 A 
HETATM   12  O   UNL     1      -1.222   6.283 -29.814  1.00  0.00    -0.313 OA
HETATM   13  C   UNL     1       0.001   6.877 -29.908  1.00  0.00     0.050 A 
HETATM   14  C   UNL     1       0.532   7.506 -28.683  1.00  0.00     0.076 C 
HETATM   15  C   UNL     1       0.494   6.752 -31.188  1.00  0.00     0.035 A 
HETATM   16  C   UNL     1      -0.487   6.039 -31.920  1.00  0.00     0.042 A 
ENDBRANCH   9  11
ENDBRANCH   1   5
BRANCH   2  17
HETATM   17  N   UNL     1      -5.391   0.302 -33.325  1.00  0.00    -0.165 NA
HETATM   18  C   UNL     1      -4.838  -0.868 -33.330  1.00  0.00     0.157 A 
HETATM   19  C   UNL     1      -3.491  -1.291 -32.737  1.00  0.00     0.277 A 
HETATM   20  C   UNL     1      -5.407  -2.070 -33.925  1.00  0.00     0.027 A 
HETATM   21  O   UNL     1      -2.730  -0.547 -32.157  1.00  0.00    -0.266 OA
HETATM   22  N   UNL     1      -3.372  -2.636 -33.012  1.00  0.00    -0.321 N 
HETATM   23  C   UNL     1      -4.490  -3.097 -33.706  1.00  0.00     0.048 A 
HETATM   24  H   UNL     1      -2.576  -3.192 -32.737  1.00  0.00     0.169 HD
HETATM   25  C   UNL     1      -4.732  -4.377 -34.152  1.00  0.00     0.030 A 
HETATM   26  C   UNL     1      -5.935  -4.604 -34.833  1.00  0.00     0.002 A 
HETATM   27  C   UNL     1      -6.859  -3.560 -35.051  1.00  0.00     0.001 A 
HETATM   28  C   UNL     1      -6.598  -2.267 -34.593  1.00  0.00     0.016 A 
ENDBRANCH   2  17
TORSDOF 3
ENDMDL
MODEL 3
REMARK VINA RESULT:      -8.7      6.115     10.028
REMARK  3 active torsions:
REMARK  status: ('A' for Active; 'I' for Inactive)
REMARK    1  A    between atoms: C_4  and  C_5 
REMARK    2  A    between atoms: C_9  and  C_10 
REMARK       I    between atoms: C_10  and  N_11 
REMARK    3  A    between atoms: N_11  and  N_12 
ROOT
HETATM    1  C   UNL     1      -9.487   1.405 -33.249  1.00  0.00     0.289 C 
HETATM    2  N   UNL     1     -10.630   1.650 -33.992  1.00  0.00    -0.241 N 
HETATM    3  O   UNL     1      -9.237   1.948 -32.175  1.00  0.00    -0.264 OA
HETATM    4  H   UNL     1     -10.791   1.174 -34.878  1.00  0.00     0.192 HD
ENDROOT
BRANCH   1   5
HETATM    5  C   UNL     1      -8.574   0.449 -33.822  1.00  0.00     0.121 A 
HETATM    6  N   UNL     1      -7.966   0.702 -35.023  1.00  0.00    -0.272 N 
HETATM    7  N   UNL     1      -7.141  -0.271 -35.442  1.00  0.00    -0.172 NA
HETATM    8  H   UNL     1      -8.084   1.532 -35.597  1.00  0.00     0.189 HD
HETATM    9  C   UNL     1      -7.220  -1.191 -34.472  1.00  0.00     0.113 A 
HETATM   10  C   UNL     1      -8.100  -0.791 -33.438  1.00  0.00     0.073 A 
BRANCH   9  11
HETATM   11  C   UNL     1      -6.455  -2.471 -34.516  1.00  0.00     0.106 A 
HETATM   12  O   UNL     1      -5.166  -2.627 -34.084  1.00  0.00    -0.313 OA
HETATM   13  C   UNL     1      -4.823  -3.931 -34.288  1.00  0.00     0.050 A 
HETATM   14  C   UNL     1      -3.459  -4.330 -33.889  1.00  0.00     0.076 C 
HETATM   15  C   UNL     1      -5.877  -4.618 -34.846  1.00  0.00     0.035 A 
HETATM   16  C   UNL     1      -6.927  -3.680 -34.993  1.00  0.00     0.042 A 
ENDBRANCH   9  11
ENDBRANCH   1   5
BRANCH   2  17
HETATM   17  N   UNL     1     -11.562   2.543 -33.537  1.00  0.00    -0.165 NA
HETATM   18  C   UNL     1     -12.749   2.086 -33.302  1.00  0.00     0.157 A 
HETATM   19  C   UNL     1     -13.271   0.656 -33.462  1.00  0.00     0.277 A 
HETATM   20  C   UNL     1     -13.876   2.870 -32.816  1.00  0.00     0.027 A 
HETATM   21  O   UNL     1     -12.606  -0.281 -33.851  1.00  0.00    -0.266 OA
HETATM   22  N   UNL     1     -14.594   0.699 -33.081  1.00  0.00    -0.321 N 
HETATM   23  C   UNL     1     -14.953   1.992 -32.701  1.00  0.00     0.048 A 
HETATM   24  H   UNL     1     -15.202  -0.106 -33.084  1.00  0.00     0.169 HD
HETATM   25  C   UNL     1     -16.185   2.426 -32.262  1.00  0.00     0.030 A 
HETATM   26  C   UNL     1     -16.309   3.783 -31.936  1.00  0.00     0.002 A 
HETATM   27  C   UNL     1     -15.215   4.666 -32.054  1.00  0.00     0.001 A 
HETATM   28  C   UNL     1     -13.973   4.209 -32.501  1.00  0.00     0.016 A 
ENDBRANCH   2  17
TORSDOF 3
ENDMDL
MODEL 4
REMARK VINA RESULT:      -8.4      2.019      9.389
REMARK  3 active torsions:
REMARK  status: ('A' for Active; 'I' for Inactive)
REMARK    1  A    between atoms: C_4  and  C_5 
REMARK    2  A    between atoms: C_9  and  C_10 
REMARK       I    between atoms: C_10  and  N_11 
REMARK    3  A    between atoms: N_11  and  N_12 
ROOT
HETATM    1  C   UNL     1      -6.443   2.729 -33.570  1.00  0.00     0.289 C 
HETATM    2  N   UNL     1      -5.180   3.185 -33.231  1.00  0.00    -0.241 N 
HETATM    3  O   UNL     1      -7.457   3.421 -33.525  1.00  0.00    -0.264 OA
HETATM    4  H   UNL     1      -4.368   2.571 -33.285  1.00  0.00     0.192 HD
ENDROOT
BRANCH   1   5
HETATM    5  C   UNL     1      -6.507   1.353 -33.994  1.00  0.00     0.121 A 
HETATM    6  N   UNL     1      -7.450   0.948 -34.900  1.00  0.00    -0.272 N 
HETATM    7  N   UNL     1      -7.398  -0.358 -35.207  1.00  0.00    -0.172 NA
HETATM    8  H   UNL     1      -8.156   1.532 -35.340  1.00  0.00     0.189 HD
HETATM    9  C   UNL     1      -6.379  -0.816 -34.469  1.00  0.00     0.113 A 
HETATM   10  C   UNL     1      -5.788   0.211 -33.695  1.00  0.00     0.073 A 
BRANCH   9  11
HETATM   11  C   UNL     1      -5.950  -2.244 -34.490  1.00  0.00     0.106 A 
HETATM   12  O   UNL     1      -4.714  -2.696 -34.113  1.00  0.00    -0.313 OA
HETATM   13  C   UNL     1      -4.709  -4.049 -34.274  1.00  0.00     0.050 A 
HETATM   14  C   UNL     1      -3.461  -4.756 -33.922  1.00  0.00     0.076 C 
HETATM   15  C   UNL     1      -5.928  -4.477 -34.749  1.00  0.00     0.035 A 
HETATM   16  C   UNL     1      -6.726  -3.316 -34.889  1.00  0.00     0.042 A 
ENDBRANCH   9  11
ENDBRANCH   1   5
BRANCH   2  17
HETATM   17  N   UNL     1      -5.010   4.477 -32.814  1.00  0.00    -0.165 NA
HETATM   18  C   UNL     1      -3.949   4.735 -32.119  1.00  0.00     0.157 A 
HETATM   19  C   UNL     1      -2.833   3.780 -31.687  1.00  0.00     0.277 A 
HETATM   20  C   UNL     1      -3.586   6.041 -31.583  1.00  0.00     0.027 A 
HETATM   21  O   UNL     1      -2.797   2.598 -31.955  1.00  0.00    -0.266 OA
HETATM   22  N   UNL     1      -1.944   4.550 -30.969  1.00  0.00    -0.321 N 
HETATM   23  C   UNL     1      -2.380   5.873 -30.905  1.00  0.00     0.048 A 
HETATM   24  H   UNL     1      -1.099   4.185 -30.555  1.00  0.00     0.169 HD
HETATM   25  C   UNL     1      -1.760   6.931 -30.277  1.00  0.00     0.030 A 
HETATM   26  C   UNL     1      -2.392   8.179 -30.347  1.00  0.00     0.002 A 
HETATM   27  C   UNL     1      -3.614   8.342 -31.035  1.00  0.00     0.001 A 
HETATM   28  C   UNL     1      -4.228   7.259 -31.666  1.00  0.00     0.016 A 
ENDBRANCH   2  17
TORSDOF 3
ENDMDL
MODEL 5
REMARK VINA RESULT:      -8.2      2.765      4.064
REMARK  3 active torsions:
REMARK  status: ('A' for Active; 'I' for Inactive)
REMARK    1  A    between atoms: C_4  and  C_5 
REMARK    2  A    between atoms: C_9  and  C_10 
REMARK       I    between atoms: C_10  and  N_11 
REMARK    3  A    between atoms: N_11  and  N_12 
ROOT
HETATM    1  C   UNL     1      -2.928   4.584 -32.830  1.00  0.00     0.289 C 
HETATM    2  N   UNL     1      -3.945   3.898 -32.187  1.00  0.00    -0.241 N 
HETATM    3  O   UNL     1      -2.779   4.605 -34.049  1.00  0.00    -0.264 OA
HETATM    4  H   UNL     1      -4.026   3.911 -31.171  1.00  0.00     0.192 HD
ENDROOT
BRANCH   1   5
HETATM    5  C   UNL     1      -2.023   5.295 -31.963  1.00  0.00     0.121 A 
HETATM    6  N   UNL     1      -0.669   5.111 -32.071  1.00  0.00    -0.272 N 
HETATM    7  N   UNL     1       0.057   5.833 -31.204  1.00  0.00    -0.172 NA
HETATM    8  H   UNL     1      -0.193   4.499 -32.726  1.00  0.00     0.189 HD
HETATM    9  C   UNL     1      -0.863   6.511 -30.507  1.00  0.00     0.113 A 
HETATM   10  C   UNL     1      -2.177   6.212 -30.941  1.00  0.00     0.073 A 
BRANCH   9  11
HETATM   11  C   UNL     1      -0.504   7.459 -29.412  1.00  0.00     0.106 A 
HETATM   12  O   UNL     1       0.680   7.448 -28.725  1.00  0.00    -0.313 OA
HETATM   13  C   UNL     1       0.629   8.459 -27.811  1.00  0.00     0.050 A 
HETATM   14  C   UNL     1       1.814   8.637 -26.949  1.00  0.00     0.076 C 
HETATM   15  C   UNL     1      -0.574   9.123 -27.902  1.00  0.00     0.035 A 
HETATM   16  C   UNL     1      -1.303   8.479 -28.931  1.00  0.00     0.042 A 
ENDBRANCH   9  11
ENDBRANCH   1   5
BRANCH   2  17
HETATM   17  N   UNL     1      -4.859   3.188 -32.918  1.00  0.00    -0.165 NA
HETATM   18  C   UNL     1      -4.811   1.899 -32.826  1.00  0.00     0.157 A 
HETATM   19  C   UNL     1      -3.858   1.034 -31.997  1.00  0.00     0.277 A 
HETATM   20  C   UNL     1      -5.691   0.968 -33.521  1.00  0.00     0.027 A 
HETATM   21  O   UNL     1      -2.979   1.468 -31.283  1.00  0.00    -0.266 OA
HETATM   22  N   UNL     1      -4.225  -0.269 -32.251  1.00  0.00    -0.321 N 
HETATM   23  C   UNL     1      -5.297  -0.314 -33.141  1.00  0.00     0.048 A 
HETATM   24  H   UNL     1      -3.767  -1.068 -31.837  1.00  0.00     0.169 HD
HETATM   25  C   UNL     1      -5.938  -1.432 -33.629  1.00  0.00     0.030 A 
HETATM   26  C   UNL     1      -6.998  -1.227 -34.521  1.00  0.00     0.002 A 
HETATM   27  C   UNL     1      -7.392   0.074 -34.902  1.00  0.00     0.001 A 
HETATM   28  C   UNL     1      -6.732   1.196 -34.398  1.00  0.00     0.016 A 
ENDBRANCH   2  17
TORSDOF 3
ENDMDL
MODEL 6
REMARK VINA RESULT:      -8.1      4.220      5.483
REMARK  3 active torsions:
REMARK  status: ('A' for Active; 'I' for Inactive)
REMARK    1  A    between atoms: C_4  and  C_5 
REMARK    2  A    between atoms: C_9  and  C_10 
REMARK       I    between atoms: C_10  and  N_11 
REMARK    3  A    between atoms: N_11  and  N_12 
ROOT
HETATM    1  C   UNL     1      -6.806   4.221 -33.505  1.00  0.00     0.289 C 
HETATM    2  N   UNL     1      -7.664   3.209 -33.103  1.00  0.00    -0.241 N 
HETATM    3  O   UNL     1      -7.100   5.082 -34.331  1.00  0.00    -0.264 OA
HETATM    4  H   UNL     1      -7.373   2.518 -32.414  1.00  0.00     0.192 HD
ENDROOT
BRANCH   1   5
HETATM    5  C   UNL     1      -5.508   4.208 -32.881  1.00  0.00     0.121 A 
HETATM    6  N   UNL     1      -5.126   3.156 -32.091  1.00  0.00    -0.272 N 
HETATM    7  N   UNL     1      -3.894   3.272 -31.572  1.00  0.00    -0.172 NA
HETATM    8  H   UNL     1      -5.678   2.331 -31.876  1.00  0.00     0.189 HD
HETATM    9  C   UNL     1      -3.460   4.447 -32.046  1.00  0.00     0.113 A 
HETATM   10  C   UNL     1      -4.429   5.072 -32.868  1.00  0.00     0.073 A 
BRANCH   9  11
HETATM   11  C   UNL     1      -2.111   4.996 -31.721  1.00  0.00     0.106 A 
HETATM   12  O   UNL     1      -1.205   4.401 -30.886  1.00  0.00    -0.313 OA
HETATM   13  C   UNL     1      -0.102   5.201 -30.846  1.00  0.00     0.050 A 
HETATM   14  C   UNL     1       1.017   4.749 -29.996  1.00  0.00     0.076 C 
HETATM   15  C   UNL     1      -0.286   6.305 -31.647  1.00  0.00     0.035 A 
HETATM   16  C   UNL     1      -1.578   6.174 -32.210  1.00  0.00     0.042 A 
ENDBRANCH   9  11
ENDBRANCH   1   5
BRANCH   2  17
HETATM   17  N   UNL     1      -8.922   3.129 -33.637  1.00  0.00    -0.165 NA
HETATM   18  C   UNL     1      -9.603   2.060 -33.378  1.00  0.00     0.157 A 
HETATM   19  C   UNL     1      -9.193   0.845 -32.542  1.00  0.00     0.277 A 
HETATM   20  C   UNL     1     -10.953   1.782 -33.849  1.00  0.00     0.027 A 
HETATM   21  O   UNL     1      -8.122   0.721 -31.985  1.00  0.00    -0.266 OA
HETATM   22  N   UNL     1     -10.271  -0.012 -32.579  1.00  0.00    -0.321 N 
HETATM   23  C   UNL     1     -11.304   0.532 -33.342  1.00  0.00     0.048 A 
HETATM   24  H   UNL     1     -10.290  -0.905 -32.111  1.00  0.00     0.169 HD
HETATM   25  C   UNL     1     -12.535  -0.027 -33.608  1.00  0.00     0.030 A 
HETATM   26  C   UNL     1     -13.417   0.713 -34.407  1.00  0.00     0.002 A 
HETATM   27  C   UNL     1     -13.055   1.978 -34.917  1.00  0.00     0.001 A 
HETATM   28  C   UNL     1     -11.803   2.530 -34.638  1.00  0.00     0.016 A 
ENDBRANCH   2  17
TORSDOF 3
ENDMDL
MODEL 7
REMARK VINA RESULT:      -8.1      2.789      9.920
REMARK  3 active torsions:
REMARK  status: ('A' for Active; 'I' for Inactive)
REMARK    1  A    between atoms: C_4  and  C_5 
REMARK    2  A    between atoms: C_9  and  C_10 
REMARK       I    between atoms: C_10  and  N_11 
REMARK    3  A    between atoms: N_11  and  N_12 
ROOT
HETATM    1  C   UNL     1      -4.262   4.711 -30.764  1.00  0.00     0.289 C 
HETATM    2  N   UNL     1      -2.993   5.258 -30.858  1.00  0.00    -0.241 N 
HETATM    3  O   UNL     1      -5.164   5.183 -30.076  1.00  0.00    -0.264 OA
HETATM    4  H   UNL     1      -2.279   4.828 -31.444  1.00  0.00     0.192 HD
ENDROOT
BRANCH   1   5
HETATM    5  C   UNL     1      -4.476   3.518 -31.544  1.00  0.00     0.121 A 
HETATM    6  N   UNL     1      -3.477   2.591 -31.684  1.00  0.00    -0.272 N 
HETATM    7  N   UNL     1      -3.809   1.529 -32.435  1.00  0.00    -0.172 NA
HETATM    8  H   UNL     1      -2.545   2.642 -31.282  1.00  0.00     0.189 HD
HETATM    9  C   UNL     1      -5.074   1.779 -32.795  1.00  0.00     0.113 A 
HETATM   10  C   UNL     1      -5.539   3.007 -32.265  1.00  0.00     0.073 A 
BRANCH   9  11
HETATM   11  C   UNL     1      -5.864   0.849 -33.652  1.00  0.00     0.106 A 
HETATM   12  O   UNL     1      -5.809  -0.517 -33.582  1.00  0.00    -0.313 OA
HETATM   13  C   UNL     1      -6.669  -1.008 -34.519  1.00  0.00     0.050 A 
HETATM   14  C   UNL     1      -6.772  -2.477 -34.622  1.00  0.00     0.076 C 
HETATM   15  C   UNL     1      -7.279   0.026 -35.193  1.00  0.00     0.035 A 
HETATM   16  C   UNL     1      -6.762   1.220 -34.636  1.00  0.00     0.042 A 
ENDBRANCH   9  11
ENDBRANCH   1   5
BRANCH   2  17
HETATM   17  N   UNL     1      -2.685   6.392 -30.156  1.00  0.00    -0.165 NA
HETATM   18  C   UNL     1      -1.469   6.505 -29.727  1.00  0.00     0.157 A 
HETATM   19  C   UNL     1      -0.301   5.530 -29.897  1.00  0.00     0.277 A 
HETATM   20  C   UNL     1      -0.943   7.629 -28.964  1.00  0.00     0.027 A 
HETATM   21  O   UNL     1      -0.367   4.472 -30.486  1.00  0.00    -0.266 OA
HETATM   22  N   UNL     1       0.768   6.118 -29.257  1.00  0.00    -0.321 N 
HETATM   23  C   UNL     1       0.398   7.345 -28.710  1.00  0.00     0.048 A 
HETATM   24  H   UNL     1       1.685   5.699 -29.205  1.00  0.00     0.169 HD
HETATM   25  C   UNL     1       1.191   8.221 -27.999  1.00  0.00     0.030 A 
HETATM   26  C   UNL     1       0.593   9.403 -27.544  1.00  0.00     0.002 A 
HETATM   27  C   UNL     1      -0.765   9.683 -27.804  1.00  0.00     0.001 A 
HETATM   28  C   UNL     1      -1.554   8.785 -28.526  1.00  0.00     0.016 A 
ENDBRANCH   2  17
TORSDOF 3
ENDMDL
MODEL 8
REMARK VINA RESULT:      -8.1      1.731      2.518
REMARK  3 active torsions:
REMARK  status: ('A' for Active; 'I' for Inactive)
REMARK    1  A    between atoms: C_4  and  C_5 
REMARK    2  A    between atoms: C_9  and  C_10 
REMARK       I    between atoms: C_10  and  N_11 
REMARK    3  A    between atoms: N_11  and  N_12 
ROOT
HETATM    1  C   UNL     1      -6.359   1.558 -31.573  1.00  0.00     0.289 C 
HETATM    2  N   UNL     1      -5.811   1.179 -32.787  1.00  0.00    -0.241 N 
HETATM    3  O   UNL     1      -7.217   0.912 -30.975  1.00  0.00    -0.264 OA
HETATM    4  H   UNL     1      -5.102   1.750 -33.244  1.00  0.00     0.192 HD
ENDROOT
BRANCH   1   5
HETATM    5  C   UNL     1      -5.853   2.793 -31.029  1.00  0.00     0.121 A 
HETATM    6  N   UNL     1      -6.262   3.229 -29.797  1.00  0.00    -0.272 N 
HETATM    7  N   UNL     1      -5.714   4.392 -29.411  1.00  0.00    -0.172 NA
HETATM    8  H   UNL     1      -6.920   2.762 -29.178  1.00  0.00     0.189 HD
HETATM    9  C   UNL     1      -4.917   4.721 -30.436  1.00  0.00     0.113 A 
HETATM   10  C   UNL     1      -4.966   3.757 -31.471  1.00  0.00     0.073 A 
BRANCH   9  11
HETATM   11  C   UNL     1      -4.093   5.964 -30.445  1.00  0.00     0.106 A 
HETATM   12  O   UNL     1      -3.338   6.395 -31.503  1.00  0.00    -0.313 OA
HETATM   13  C   UNL     1      -2.737   7.559 -31.127  1.00  0.00     0.050 A 
HETATM   14  C   UNL     1      -1.865   8.209 -32.124  1.00  0.00     0.076 C 
HETATM   15  C   UNL     1      -3.096   7.885 -29.838  1.00  0.00     0.035 A 
HETATM   16  C   UNL     1      -3.967   6.859 -29.399  1.00  0.00     0.042 A 
ENDBRANCH   9  11
ENDBRANCH   1   5
BRANCH   2  17
HETATM   17  N   UNL     1      -6.225   0.022 -33.392  1.00  0.00    -0.165 NA
HETATM   18  C   UNL     1      -5.391  -0.967 -33.398  1.00  0.00     0.157 A 
HETATM   19  C   UNL     1      -3.977  -1.030 -32.814  1.00  0.00     0.277 A 
HETATM   20  C   UNL     1      -5.637  -2.276 -33.987  1.00  0.00     0.027 A 
HETATM   21  O   UNL     1      -3.428  -0.113 -32.240  1.00  0.00    -0.266 OA
HETATM   22  N   UNL     1      -3.520  -2.300 -33.087  1.00  0.00    -0.321 N 
HETATM   23  C   UNL     1      -4.487  -3.034 -33.772  1.00  0.00     0.048 A 
HETATM   24  H   UNL     1      -2.606  -2.633 -32.817  1.00  0.00     0.169 HD
HETATM   25  C   UNL     1      -4.396  -4.336 -34.215  1.00  0.00     0.030 A 
HETATM   26  C   UNL     1      -5.505  -4.865 -34.887  1.00  0.00     0.002 A 
HETATM   27  C   UNL     1      -6.667  -4.092 -35.101  1.00  0.00     0.001 A 
HETATM   28  C   UNL     1      -6.742  -2.774 -34.647  1.00  0.00     0.016 A 
ENDBRANCH   2  17
TORSDOF 3
ENDMDL
MODEL 9
REMARK VINA RESULT:      -8.0      2.005      3.267
REMARK  3 active torsions:
REMARK  status: ('A' for Active; 'I' for Inactive)
REMARK    1  A    between atoms: C_4  and  C_5 
REMARK    2  A    between atoms: C_9  and  C_10 
REMARK       I    between atoms: C_10  and  N_11 
REMARK    3  A    between atoms: N_11  and  N_12 
ROOT
HETATM    1  C   UNL     1      -4.682   4.061 -32.332  1.00  0.00     0.289 C 
HETATM    2  N   UNL     1      -5.151   2.896 -31.746  1.00  0.00    -0.241 N 
HETATM    3  O   UNL     1      -4.647   4.252 -33.545  1.00  0.00    -0.264 OA
HETATM    4  H   UNL     1      -5.159   2.785 -30.733  1.00  0.00     0.192 HD
ENDROOT
BRANCH   1   5
HETATM    5  C   UNL     1      -4.220   5.069 -31.412  1.00  0.00     0.121 A 
HETATM    6  N   UNL     1      -5.092   5.660 -30.535  1.00  0.00    -0.272 N 
HETATM    7  N   UNL     1      -4.532   6.581 -29.736  1.00  0.00    -0.172 NA
HETATM    8  H   UNL     1      -6.085   5.466 -30.447  1.00  0.00     0.189 HD
HETATM    9  C   UNL     1      -3.246   6.586 -30.110  1.00  0.00     0.113 A 
HETATM   10  C   UNL     1      -2.999   5.660 -31.152  1.00  0.00     0.073 A 
BRANCH   9  11
HETATM   11  C   UNL     1      -2.229   7.476 -29.478  1.00  0.00     0.106 A 
HETATM   12  O   UNL     1      -0.927   7.127 -29.235  1.00  0.00    -0.313 OA
HETATM   13  C   UNL     1      -0.321   8.199 -28.652  1.00  0.00     0.050 A 
HETATM   14  C   UNL     1       1.104   8.047 -28.299  1.00  0.00     0.076 C 
HETATM   15  C   UNL     1      -1.216   9.237 -28.518  1.00  0.00     0.035 A 
HETATM   16  C   UNL     1      -2.443   8.771 -29.048  1.00  0.00     0.042 A 
ENDBRANCH   9  11
ENDBRANCH   1   5
BRANCH   2  17
HETATM   17  N   UNL     1      -5.611   1.874 -32.531  1.00  0.00    -0.165 NA
HETATM   18  C   UNL     1      -4.882   0.807 -32.593  1.00  0.00     0.157 A 
HETATM   19  C   UNL     1      -3.550   0.518 -31.898  1.00  0.00     0.277 A 
HETATM   20  C   UNL     1      -5.194  -0.386 -33.369  1.00  0.00     0.027 A 
HETATM   21  O   UNL     1      -2.975   1.291 -31.161  1.00  0.00    -0.266 OA
HETATM   22  N   UNL     1      -3.194  -0.753 -32.293  1.00  0.00    -0.321 N 
HETATM   23  C   UNL     1      -4.152  -1.286 -33.153  1.00  0.00     0.048 A 
HETATM   24  H   UNL     1      -2.350  -1.215 -31.988  1.00  0.00     0.169 HD
HETATM   25  C   UNL     1      -4.145  -2.527 -33.753  1.00  0.00     0.030 A 
HETATM   26  C   UNL     1      -5.225  -2.845 -34.586  1.00  0.00     0.002 A 
HETATM   27  C   UNL     1      -6.276  -1.929 -34.800  1.00  0.00     0.001 A 
HETATM   28  C   UNL     1      -6.269  -0.675 -34.185  1.00  0.00     0.016 A 
ENDBRANCH   2  17
TORSDOF 3
ENDMDL
MODEL 10
REMARK VINA RESULT:      -7.9      3.107      8.755
REMARK  3 active torsions:
REMARK  status: ('A' for Active; 'I' for Inactive)
REMARK    1  A    between atoms: C_4  and  C_5 
REMARK    2  A    between atoms: C_9  and  C_10 
REMARK       I    between atoms: C_10  and  N_11 
REMARK    3  A    between atoms: N_11  and  N_12 
ROOT
HETATM    1  C   UNL     1      -3.988   1.828 -32.238  1.00  0.00     0.289 C 
HETATM    2  N   UNL     1      -3.657   3.072 -32.750  1.00  0.00    -0.241 N 
HETATM    3  O   UNL     1      -3.271   1.188 -31.472  1.00  0.00    -0.264 OA
HETATM    4  H   UNL     1      -4.286   3.563 -33.382  1.00  0.00     0.192 HD
ENDROOT
BRANCH   1   5
HETATM    5  C   UNL     1      -5.262   1.307 -32.666  1.00  0.00     0.121 A 
HETATM    6  N   UNL     1      -5.341   0.087 -33.283  1.00  0.00    -0.272 N 
HETATM    7  N   UNL     1      -6.585  -0.278 -33.630  1.00  0.00    -0.172 NA
HETATM    8  H   UNL     1      -4.566  -0.537 -33.491  1.00  0.00     0.189 HD
HETATM    9  C   UNL     1      -7.342   0.748 -33.220  1.00  0.00     0.113 A 
HETATM   10  C   UNL     1      -6.565   1.763 -32.611  1.00  0.00     0.073 A 
BRANCH   9  11
HETATM   11  C   UNL     1      -8.822   0.778 -33.401  1.00  0.00     0.106 A 
HETATM   12  O   UNL     1      -9.490   1.629 -34.240  1.00  0.00    -0.313 OA
HETATM   13  C   UNL     1     -10.820   1.351 -34.127  1.00  0.00     0.050 A 
HETATM   14  C   UNL     1     -11.740   2.157 -34.953  1.00  0.00     0.076 C 
HETATM   15  C   UNL     1     -11.017   0.329 -33.225  1.00  0.00     0.035 A 
HETATM   16  C   UNL     1      -9.733  -0.038 -32.758  1.00  0.00     0.042 A 
ENDBRANCH   9  11
ENDBRANCH   1   5
BRANCH   2  17
HETATM   17  N   UNL     1      -2.467   3.656 -32.407  1.00  0.00    -0.165 NA
HETATM   18  C   UNL     1      -2.518   4.654 -31.584  1.00  0.00     0.157 A 
HETATM   19  C   UNL     1      -3.746   5.287 -30.925  1.00  0.00     0.277 A 
HETATM   20  C   UNL     1      -1.371   5.408 -31.098  1.00  0.00     0.027 A 
HETATM   21  O   UNL     1      -4.889   4.917 -31.098  1.00  0.00    -0.266 OA
HETATM   22  N   UNL     1      -3.260   6.311 -30.143  1.00  0.00    -0.321 N 
HETATM   23  C   UNL     1      -1.871   6.386 -30.240  1.00  0.00     0.048 A 
HETATM   24  H   UNL     1      -3.847   6.912 -29.584  1.00  0.00     0.169 HD
HETATM   25  C   UNL     1      -1.033   7.278 -29.607  1.00  0.00     0.030 A 
HETATM   26  C   UNL     1       0.340   7.160 -29.861  1.00  0.00     0.002 A 
HETATM   27  C   UNL     1       0.840   6.168 -30.731  1.00  0.00     0.001 A 
HETATM   28  C   UNL     1      -0.024   5.272 -31.365  1.00  0.00     0.016 A 
ENDBRANCH   2  17
TORSDOF 3
ENDMDL
