MODEL 1
REMARK VINA RESULT:      -9.4      0.000      0.000
REMARK  6 active torsions:
REMARK  status: ('A' for Active; 'I' for Inactive)
REMARK    1  A    between atoms: C_3  and  C_4 
REMARK    2  A    between atoms: C_4  and  C_5 
REMARK       I    between atoms: C_5  and  N_6 
REMARK    3  A    between atoms: N_6  and  C_7 
REMARK    4  A    between atoms: C_7  and  C_8 
REMARK    5  A    between atoms: C_8  and  C_9 
REMARK    6  A    between atoms: C_27  and  O_28 
ROOT
HETATM    1  C   UNL     1      -7.802   1.564 -32.190  1.00  0.00     0.222 C 
HETATM    2  N   UNL     1      -8.254   1.204 -33.447  1.00  0.00    -0.360 N 
HETATM    3  O   UNL     1      -7.489   0.768 -31.312  1.00  0.00    -0.273 OA
HETATM    4  H   UNL     1      -8.105   1.904 -34.163  1.00  0.00     0.162 HD
ENDROOT
BRANCH   1   5
HETATM    5  C   UNL     1      -7.722   3.080 -31.989  1.00  0.00     0.148 C 
BRANCH   5   6
HETATM    6  C   UNL     1      -6.469   3.716 -32.551  1.00  0.00     0.033 C 
HETATM    7  C   UNL     1      -5.254   3.679 -31.957  1.00  0.00    -0.036 C 
HETATM    8  C   UNL     1      -4.985   3.034 -30.621  1.00  0.00     0.050 C 
HETATM    9  C   UNL     1      -4.113   4.324 -32.641  1.00  0.00     0.006 A 
HETATM   10  C   UNL     1      -4.279   4.743 -33.961  1.00  0.00     0.093 A 
HETATM   11  C   UNL     1      -2.855   4.518 -32.055  1.00  0.00     0.041 A 
HETATM   12  O   UNL     1      -5.527   4.679 -34.593  1.00  0.00    -0.274 OA
HETATM   13  C   UNL     1      -3.239   5.297 -34.712  1.00  0.00     0.076 A 
HETATM   14  C   UNL     1      -6.646   4.499 -33.805  1.00  0.00     0.295 C 
HETATM   15  O   UNL     1      -7.735   4.960 -34.131  1.00  0.00    -0.259 OA
HETATM   16  C   UNL     1      -1.998   5.476 -34.114  1.00  0.00     0.090 A 
HETATM   17  C   UNL     1      -1.807   5.100 -32.782  1.00  0.00     0.068 A 
HETATM   18 CL   UNL     1      -0.292   5.339 -31.989  1.00  0.00    -0.081 Cl
BRANCH  16  19
HETATM   19  O   UNL     1      -0.971   6.032 -34.823  1.00  0.00    -0.359 OA
HETATM   20  H   UNL     1      -0.167   6.048 -34.278  1.00  0.00     0.218 HD
ENDBRANCH  16  19
ENDBRANCH   5   6
ENDBRANCH   1   5
BRANCH   2  21
HETATM   21  C   UNL     1      -8.135  -0.162 -33.924  1.00  0.00     0.127 C 
BRANCH  21  22
HETATM   22  C   UNL     1      -7.077  -0.364 -35.011  1.00  0.00     0.060 C 
BRANCH  22  23
HETATM   23  C   UNL     1      -6.190  -1.527 -34.681  1.00  0.00    -0.029 A 
HETATM   24  C   UNL     1      -5.128  -1.553 -33.718  1.00  0.00    -0.000 A 
HETATM   25  C   UNL     1      -4.621  -2.854 -33.690  1.00  0.00     0.043 A 
HETATM   26  C   UNL     1      -4.561  -0.592 -32.856  1.00  0.00     0.038 A 
HETATM   27  C   UNL     1      -3.581  -3.247 -32.838  1.00  0.00     0.032 A 
HETATM   28  N   UNL     1      -5.333  -3.584 -34.613  1.00  0.00    -0.365 N 
HETATM   29  C   UNL     1      -3.035  -2.276 -31.993  1.00  0.00     0.026 A 
HETATM   30  C   UNL     1      -3.518  -0.970 -32.006  1.00  0.00     0.035 A 
HETATM   31 CL   UNL     1      -2.818   0.202 -30.953  1.00  0.00    -0.084 Cl
HETATM   32  H   UNL     1      -5.184  -4.565 -34.805  1.00  0.00     0.165 HD
HETATM   33  C   UNL     1      -6.275  -2.798 -35.215  1.00  0.00     0.096 A 
ENDBRANCH  22  23
ENDBRANCH  21  22
ENDBRANCH   2  21
TORSDOF 6
ENDMDL
MODEL 2
REMARK VINA RESULT:      -9.2      4.129      7.809
REMARK  6 active torsions:
REMARK  status: ('A' for Active; 'I' for Inactive)
REMARK    1  A    between atoms: C_3  and  C_4 
REMARK    2  A    between atoms: C_4  and  C_5 
REMARK       I    between atoms: C_5  and  N_6 
REMARK    3  A    between atoms: N_6  and  C_7 
REMARK    4  A    between atoms: C_7  and  C_8 
REMARK    5  A    between atoms: C_8  and  C_9 
REMARK    6  A    between atoms: C_27  and  O_28 
ROOT
HETATM    1  C   UNL     1      -5.612   2.365 -31.535  1.00  0.00     0.222 C 
HETATM    2  N   UNL     1      -6.397   3.318 -32.158  1.00  0.00    -0.360 N 
HETATM    3  O   UNL     1      -5.824   1.919 -30.413  1.00  0.00    -0.273 OA
HETATM    4  H   UNL     1      -6.348   3.306 -33.170  1.00  0.00     0.162 HD
ENDROOT
BRANCH   1   5
HETATM    5  C   UNL     1      -4.430   1.902 -32.391  1.00  0.00     0.148 C 
BRANCH   5   6
HETATM    6  C   UNL     1      -4.430   0.421 -32.702  1.00  0.00     0.033 C 
HETATM    7  C   UNL     1      -5.254  -0.178 -33.593  1.00  0.00    -0.036 C 
HETATM    8  C   UNL     1      -6.325   0.542 -34.373  1.00  0.00     0.050 C 
HETATM    9  C   UNL     1      -5.119  -1.634 -33.812  1.00  0.00     0.006 A 
HETATM   10  C   UNL     1      -4.013  -2.289 -33.270  1.00  0.00     0.093 A 
HETATM   11  C   UNL     1      -6.022  -2.402 -34.559  1.00  0.00     0.041 A 
HETATM   12  O   UNL     1      -3.114  -1.622 -32.429  1.00  0.00    -0.274 OA
HETATM   13  C   UNL     1      -3.762  -3.647 -33.483  1.00  0.00     0.076 A 
HETATM   14  C   UNL     1      -3.502  -0.412 -31.889  1.00  0.00     0.295 C 
HETATM   15  O   UNL     1      -3.094  -0.042 -30.794  1.00  0.00    -0.259 OA
HETATM   16  C   UNL     1      -4.668  -4.389 -34.230  1.00  0.00     0.090 A 
HETATM   17  C   UNL     1      -5.805  -3.772 -34.758  1.00  0.00     0.068 A 
HETATM   18 CL   UNL     1      -6.973  -4.666 -35.663  1.00  0.00    -0.081 Cl
BRANCH  16  19
HETATM   19  O   UNL     1      -4.452  -5.723 -34.437  1.00  0.00    -0.359 OA
HETATM   20  H   UNL     1      -3.674  -5.845 -35.006  1.00  0.00     0.218 HD
ENDBRANCH  16  19
ENDBRANCH   5   6
ENDBRANCH   1   5
BRANCH   2  21
HETATM   21  C   UNL     1      -7.704   3.673 -31.635  1.00  0.00     0.127 C 
BRANCH  21  22
HETATM   22  C   UNL     1      -8.800   2.644 -31.917  1.00  0.00     0.060 C 
BRANCH  22  23
HETATM   23  C   UNL     1      -9.583   3.022 -33.139  1.00  0.00    -0.029 A 
HETATM   24  C   UNL     1     -10.738   2.353 -33.664  1.00  0.00    -0.000 A 
HETATM   25  C   UNL     1     -11.181   3.087 -34.765  1.00  0.00     0.043 A 
HETATM   26  C   UNL     1     -11.455   1.198 -33.291  1.00  0.00     0.038 A 
HETATM   27  C   UNL     1     -12.312   2.730 -35.511  1.00  0.00     0.032 A 
HETATM   28  N   UNL     1     -10.319   4.148 -34.917  1.00  0.00    -0.365 N 
HETATM   29  C   UNL     1     -13.006   1.580 -35.124  1.00  0.00     0.026 A 
HETATM   30  C   UNL     1     -12.581   0.827 -34.033  1.00  0.00     0.035 A 
HETATM   31 CL   UNL     1     -13.460  -0.587 -33.586  1.00  0.00    -0.084 Cl
HETATM   32  H   UNL     1     -10.400   4.854 -35.636  1.00  0.00     0.165 HD
HETATM   33  C   UNL     1      -9.356   4.118 -33.948  1.00  0.00     0.096 A 
ENDBRANCH  22  23
ENDBRANCH  21  22
ENDBRANCH   2  21
TORSDOF 6
ENDMDL
MODEL 3
REMARK VINA RESULT:      -9.1      1.764      2.265
REMARK  6 active torsions:
REMARK  status: ('A' for Active; 'I' for Inactive)
REMARK    1  A    between atoms: C_3  and  C_4 
REMARK    2  A    between atoms: C_4  and  C_5 
REMARK       I    between atoms: C_5  and  N_6 
REMARK    3  A    between atoms: N_6  and  C_7 
REMARK    4  A    between atoms: C_7  and  C_8 
REMARK    5  A    between atoms: C_8  and  C_9 
REMARK    6  A    between atoms: C_27  and  O_28 
ROOT
HETATM    1  C   UNL     1      -8.460   2.481 -32.044  1.00  0.00     0.222 C 
HETATM    2  N   UNL     1      -8.865   2.310 -33.355  1.00  0.00    -0.360 N 
HETATM    3  O   UNL     1      -8.436   1.589 -31.204  1.00  0.00    -0.273 OA
HETATM    4  H   UNL     1      -8.482   2.987 -34.004  1.00  0.00     0.162 HD
ENDROOT
BRANCH   1   5
HETATM    5  C   UNL     1      -8.031   3.917 -31.727  1.00  0.00     0.148 C 
BRANCH   5   6
HETATM    6  C   UNL     1      -6.746   4.345 -32.402  1.00  0.00     0.033 C 
HETATM    7  C   UNL     1      -5.528   4.342 -31.813  1.00  0.00    -0.036 C 
HETATM    8  C   UNL     1      -5.284   3.952 -30.377  1.00  0.00     0.050 C 
HETATM    9  C   UNL     1      -4.356   4.762 -32.609  1.00  0.00     0.006 A 
HETATM   10  C   UNL     1      -4.512   4.926 -33.986  1.00  0.00     0.093 A 
HETATM   11  C   UNL     1      -3.080   4.980 -32.072  1.00  0.00     0.041 A 
HETATM   12  O   UNL     1      -5.770   4.826 -34.592  1.00  0.00    -0.274 OA
HETATM   13  C   UNL     1      -3.447   5.252 -34.831  1.00  0.00     0.076 A 
HETATM   14  C   UNL     1      -6.887   4.879 -33.785  1.00  0.00     0.295 C 
HETATM   15  O   UNL     1      -7.948   5.341 -34.193  1.00  0.00    -0.259 OA
HETATM   16  C   UNL     1      -2.189   5.460 -34.279  1.00  0.00     0.090 A 
HETATM   17  C   UNL     1      -2.006   5.337 -32.899  1.00  0.00     0.068 A 
HETATM   18 CL   UNL     1      -0.467   5.622 -32.169  1.00  0.00    -0.081 Cl
BRANCH  16  19
HETATM   19  O   UNL     1      -1.137   5.796 -35.084  1.00  0.00    -0.359 OA
HETATM   20  H   UNL     1      -1.245   5.379 -35.955  1.00  0.00     0.218 HD
ENDBRANCH  16  19
ENDBRANCH   5   6
ENDBRANCH   1   5
BRANCH   2  21
HETATM   21  C   UNL     1      -9.039   0.984 -33.919  1.00  0.00     0.127 C 
BRANCH  21  22
HETATM   22  C   UNL     1      -7.995   0.601 -34.971  1.00  0.00     0.060 C 
BRANCH  22  23
HETATM   23  C   UNL     1      -6.725   0.145 -34.317  1.00  0.00    -0.029 A 
HETATM   24  C   UNL     1      -6.160  -1.172 -34.358  1.00  0.00    -0.000 A 
HETATM   25  C   UNL     1      -4.943  -1.127 -33.676  1.00  0.00     0.043 A 
HETATM   26  C   UNL     1      -6.567  -2.397 -34.927  1.00  0.00     0.038 A 
HETATM   27  C   UNL     1      -4.104  -2.240 -33.540  1.00  0.00     0.032 A 
HETATM   28  N   UNL     1      -4.783   0.162 -33.222  1.00  0.00    -0.365 N 
HETATM   29  C   UNL     1      -4.530  -3.443 -34.111  1.00  0.00     0.026 A 
HETATM   30  C   UNL     1      -5.742  -3.518 -34.791  1.00  0.00     0.035 A 
HETATM   31 CL   UNL     1      -6.237  -5.019 -35.480  1.00  0.00    -0.084 Cl
HETATM   32  H   UNL     1      -3.984   0.489 -32.696  1.00  0.00     0.165 HD
HETATM   33  C   UNL     1      -5.847   0.933 -33.599  1.00  0.00     0.096 A 
ENDBRANCH  22  23
ENDBRANCH  21  22
ENDBRANCH   2  21
TORSDOF 6
ENDMDL
MODEL 4
REMARK VINA RESULT:      -9.1      3.467      7.924
REMARK  6 active torsions:
REMARK  status: ('A' for Active; 'I' for Inactive)
REMARK    1  A    between atoms: C_3  and  C_4 
REMARK    2  A    between atoms: C_4  and  C_5 
REMARK       I    between atoms: C_5  and  N_6 
REMARK    3  A    between atoms: N_6  and  C_7 
REMARK    4  A    between atoms: C_7  and  C_8 
REMARK    5  A    between atoms: C_8  and  C_9 
REMARK    6  A    between atoms: C_27  and  O_28 
ROOT
HETATM    1  C   UNL     1      -5.100   4.133 -33.749  1.00  0.00     0.222 C 
HETATM    2  N   UNL     1      -3.739   4.345 -33.630  1.00  0.00    -0.360 N 
HETATM    3  O   UNL     1      -5.806   4.633 -34.617  1.00  0.00    -0.273 OA
HETATM    4  H   UNL     1      -3.239   3.607 -33.148  1.00  0.00     0.162 HD
ENDROOT
BRANCH   1   5
HETATM    5  C   UNL     1      -5.660   3.192 -32.678  1.00  0.00     0.148 C 
BRANCH   5   6
HETATM    6  C   UNL     1      -5.317   1.734 -32.892  1.00  0.00     0.033 C 
HETATM    7  C   UNL     1      -6.040   0.875 -33.648  1.00  0.00    -0.036 C 
HETATM    8  C   UNL     1      -7.322   1.241 -34.352  1.00  0.00     0.050 C 
HETATM    9  C   UNL     1      -5.565  -0.518 -33.787  1.00  0.00     0.006 A 
HETATM   10  C   UNL     1      -4.286  -0.833 -33.327  1.00  0.00     0.093 A 
HETATM   11  C   UNL     1      -6.310  -1.546 -34.381  1.00  0.00     0.041 A 
HETATM   12  O   UNL     1      -3.512   0.104 -32.632  1.00  0.00    -0.274 OA
HETATM   13  C   UNL     1      -3.723  -2.103 -33.478  1.00  0.00     0.076 A 
HETATM   14  C   UNL     1      -4.141   1.226 -32.133  1.00  0.00     0.295 C 
HETATM   15  O   UNL     1      -3.743   1.780 -31.114  1.00  0.00    -0.259 OA
HETATM   16  C   UNL     1      -4.477  -3.107 -34.074  1.00  0.00     0.090 A 
HETATM   17  C   UNL     1      -5.775  -2.834 -34.514  1.00  0.00     0.068 A 
HETATM   18 CL   UNL     1      -6.757  -4.061 -35.228  1.00  0.00    -0.081 Cl
BRANCH  16  19
HETATM   19  O   UNL     1      -3.953  -4.361 -34.217  1.00  0.00    -0.359 OA
HETATM   20  H   UNL     1      -4.223  -4.916 -33.466  1.00  0.00     0.218 HD
ENDBRANCH  16  19
ENDBRANCH   5   6
ENDBRANCH   1   5
BRANCH   2  21
HETATM   21  C   UNL     1      -2.980   4.971 -34.698  1.00  0.00     0.127 C 
BRANCH  21  22
HETATM   22  C   UNL     1      -1.537   5.321 -34.329  1.00  0.00     0.060 C 
BRANCH  22  23
HETATM   23  C   UNL     1      -1.501   6.356 -33.244  1.00  0.00    -0.029 A 
HETATM   24  C   UNL     1      -0.826   6.259 -31.983  1.00  0.00    -0.000 A 
HETATM   25  C   UNL     1      -1.000   7.475 -31.321  1.00  0.00     0.043 A 
HETATM   26  C   UNL     1      -0.068   5.251 -31.352  1.00  0.00     0.038 A 
HETATM   27  C   UNL     1      -0.448   7.741 -30.061  1.00  0.00     0.032 A 
HETATM   28  N   UNL     1      -1.768   8.273 -32.137  1.00  0.00    -0.365 N 
HETATM   29  C   UNL     1       0.298   6.726 -29.454  1.00  0.00     0.026 A 
HETATM   30  C   UNL     1       0.481   5.502 -30.091  1.00  0.00     0.035 A 
HETATM   31 CL   UNL     1       1.405   4.272 -29.312  1.00  0.00    -0.084 Cl
HETATM   32  H   UNL     1      -2.049   9.217 -31.914  1.00  0.00     0.165 HD
HETATM   33  C   UNL     1      -2.076   7.611 -33.293  1.00  0.00     0.096 A 
ENDBRANCH  22  23
ENDBRANCH  21  22
ENDBRANCH   2  21
TORSDOF 6
ENDMDL
MODEL 5
REMARK VINA RESULT:      -9.0      3.324      7.867
REMARK  6 active torsions:
REMARK  status: ('A' for Active; 'I' for Inactive)
REMARK    1  A    between atoms: C_3  and  C_4 
REMARK    2  A    between atoms: C_4  and  C_5 
REMARK       I    between atoms: C_5  and  N_6 
REMARK    3  A    between atoms: N_6  and  C_7 
REMARK    4  A    between atoms: C_7  and  C_8 
REMARK    5  A    between atoms: C_8  and  C_9 
REMARK    6  A    between atoms: C_27  and  O_28 
ROOT
HETATM    1  C   UNL     1      -4.649   3.233 -32.630  1.00  0.00     0.222 C 
HETATM    2  N   UNL     1      -5.427   4.255 -33.141  1.00  0.00    -0.360 N 
HETATM    3  O   UNL     1      -3.430   3.170 -32.736  1.00  0.00    -0.273 OA
HETATM    4  H   UNL     1      -6.315   4.385 -32.669  1.00  0.00     0.162 HD
ENDROOT
BRANCH   1   5
HETATM    5  C   UNL     1      -5.465   2.162 -31.899  1.00  0.00     0.148 C 
BRANCH   5   6
HETATM    6  C   UNL     1      -5.575   0.850 -32.643  1.00  0.00     0.033 C 
HETATM    7  C   UNL     1      -4.739  -0.202 -32.478  1.00  0.00    -0.036 C 
HETATM    8  C   UNL     1      -3.546  -0.198 -31.556  1.00  0.00     0.050 C 
HETATM    9  C   UNL     1      -4.989  -1.433 -33.257  1.00  0.00     0.006 A 
HETATM   10  C   UNL     1      -6.192  -1.546 -33.955  1.00  0.00     0.093 A 
HETATM   11  C   UNL     1      -4.102  -2.516 -33.320  1.00  0.00     0.041 A 
HETATM   12  O   UNL     1      -7.092  -0.476 -34.031  1.00  0.00    -0.274 OA
HETATM   13  C   UNL     1      -6.548  -2.698 -34.662  1.00  0.00     0.076 A 
HETATM   14  C   UNL     1      -6.640   0.781 -33.682  1.00  0.00     0.295 C 
HETATM   15  O   UNL     1      -7.101   1.791 -34.202  1.00  0.00    -0.259 OA
HETATM   16  C   UNL     1      -5.656  -3.762 -34.707  1.00  0.00     0.090 A 
HETATM   17  C   UNL     1      -4.427  -3.668 -34.048  1.00  0.00     0.068 A 
HETATM   18 CL   UNL     1      -3.276  -4.954 -34.108  1.00  0.00    -0.081 Cl
BRANCH  16  19
HETATM   19  O   UNL     1      -5.975  -4.892 -35.405  1.00  0.00    -0.359 OA
HETATM   20  H   UNL     1      -6.209  -4.657 -36.319  1.00  0.00     0.218 HD
ENDBRANCH  16  19
ENDBRANCH   5   6
ENDBRANCH   1   5
BRANCH   2  21
HETATM   21  C   UNL     1      -4.827   5.489 -33.617  1.00  0.00     0.127 C 
BRANCH  21  22
HETATM   22  C   UNL     1      -4.357   6.433 -32.508  1.00  0.00     0.060 C 
BRANCH  22  23
HETATM   23  C   UNL     1      -2.880   6.675 -32.607  1.00  0.00    -0.029 A 
HETATM   24  C   UNL     1      -1.948   6.762 -31.521  1.00  0.00    -0.000 A 
HETATM   25  C   UNL     1      -0.676   6.924 -32.074  1.00  0.00     0.043 A 
HETATM   26  C   UNL     1      -2.068   6.703 -30.117  1.00  0.00     0.038 A 
HETATM   27  C   UNL     1       0.485   7.020 -31.297  1.00  0.00     0.032 A 
HETATM   28  N   UNL     1      -0.832   6.954 -33.441  1.00  0.00    -0.365 N 
HETATM   29  C   UNL     1       0.340   6.960 -29.908  1.00  0.00     0.026 A 
HETATM   30  C   UNL     1      -0.917   6.806 -29.331  1.00  0.00     0.035 A 
HETATM   31 CL   UNL     1      -1.059   6.738 -27.614  1.00  0.00    -0.084 Cl
HETATM   32  H   UNL     1      -0.074   7.057 -34.101  1.00  0.00     0.165 HD
HETATM   33  C   UNL     1      -2.150   6.808 -33.771  1.00  0.00     0.096 A 
ENDBRANCH  22  23
ENDBRANCH  21  22
ENDBRANCH   2  21
TORSDOF 6
ENDMDL
MODEL 6
REMARK VINA RESULT:      -8.9      3.684      4.917
REMARK  6 active torsions:
REMARK  status: ('A' for Active; 'I' for Inactive)
REMARK    1  A    between atoms: C_3  and  C_4 
REMARK    2  A    between atoms: C_4  and  C_5 
REMARK       I    between atoms: C_5  and  N_6 
REMARK    3  A    between atoms: N_6  and  C_7 
REMARK    4  A    between atoms: C_7  and  C_8 
REMARK    5  A    between atoms: C_8  and  C_9 
REMARK    6  A    between atoms: C_27  and  O_28 
ROOT
HETATM    1  C   UNL     1      -3.786   3.187 -31.738  1.00  0.00     0.222 C 
HETATM    2  N   UNL     1      -5.055   2.670 -31.922  1.00  0.00    -0.360 N 
HETATM    3  O   UNL     1      -2.846   2.563 -31.259  1.00  0.00    -0.273 OA
HETATM    4  H   UNL     1      -5.595   3.128 -32.646  1.00  0.00     0.162 HD
ENDROOT
BRANCH   1   5
HETATM    5  C   UNL     1      -3.655   4.642 -32.199  1.00  0.00     0.148 C 
BRANCH   5   6
HETATM    6  C   UNL     1      -2.602   5.435 -31.457  1.00  0.00     0.033 C 
HETATM    7  C   UNL     1      -2.844   6.218 -30.380  1.00  0.00    -0.036 C 
HETATM    8  C   UNL     1      -4.212   6.446 -29.791  1.00  0.00     0.050 C 
HETATM    9  C   UNL     1      -1.706   6.913 -29.741  1.00  0.00     0.006 A 
HETATM   10  C   UNL     1      -0.411   6.564 -30.126  1.00  0.00     0.093 A 
HETATM   11  C   UNL     1      -1.842   7.890 -28.745  1.00  0.00     0.041 A 
HETATM   12  O   UNL     1      -0.183   5.672 -31.182  1.00  0.00    -0.274 OA
HETATM   13  C   UNL     1       0.726   7.114 -29.530  1.00  0.00     0.076 A 
HETATM   14  C   UNL     1      -1.230   5.392 -32.036  1.00  0.00     0.295 C 
HETATM   15  O   UNL     1      -1.035   5.115 -33.214  1.00  0.00    -0.259 OA
HETATM   16  C   UNL     1       0.569   8.077 -28.541  1.00  0.00     0.090 A 
HETATM   17  C   UNL     1      -0.714   8.476 -28.156  1.00  0.00     0.068 A 
HETATM   18 CL   UNL     1      -0.953   9.694 -26.957  1.00  0.00    -0.081 Cl
BRANCH  16  19
HETATM   19  O   UNL     1       1.668   8.641 -27.956  1.00  0.00    -0.359 OA
HETATM   20  H   UNL     1       1.387   9.252 -27.254  1.00  0.00     0.218 HD
ENDBRANCH  16  19
ENDBRANCH   5   6
ENDBRANCH   1   5
BRANCH   2  21
HETATM   21  C   UNL     1      -5.308   1.244 -31.811  1.00  0.00     0.127 C 
BRANCH  21  22
HETATM   22  C   UNL     1      -4.936   0.436 -33.056  1.00  0.00     0.060 C 
BRANCH  22  23
HETATM   23  C   UNL     1      -4.221  -0.827 -32.677  1.00  0.00    -0.029 A 
HETATM   24  C   UNL     1      -4.417  -2.130 -33.241  1.00  0.00    -0.000 A 
HETATM   25  C   UNL     1      -3.494  -2.988 -32.642  1.00  0.00     0.043 A 
HETATM   26  C   UNL     1      -5.287  -2.654 -34.221  1.00  0.00     0.038 A 
HETATM   27  C   UNL     1      -3.388  -4.344 -32.976  1.00  0.00     0.032 A 
HETATM   28  N   UNL     1      -2.779  -2.242 -31.735  1.00  0.00    -0.365 N 
HETATM   29  C   UNL     1      -4.261  -4.841 -33.948  1.00  0.00     0.026 A 
HETATM   30  C   UNL     1      -5.195  -4.008 -34.557  1.00  0.00     0.035 A 
HETATM   31 CL   UNL     1      -6.258  -4.656 -35.750  1.00  0.00    -0.084 Cl
HETATM   32  H   UNL     1      -2.035  -2.604 -31.155  1.00  0.00     0.165 HD
HETATM   33  C   UNL     1      -3.208  -0.944 -31.746  1.00  0.00     0.096 A 
ENDBRANCH  22  23
ENDBRANCH  21  22
ENDBRANCH   2  21
TORSDOF 6
ENDMDL
MODEL 7
REMARK VINA RESULT:      -8.9      3.428      6.206
REMARK  6 active torsions:
REMARK  status: ('A' for Active; 'I' for Inactive)
REMARK    1  A    between atoms: C_3  and  C_4 
REMARK    2  A    between atoms: C_4  and  C_5 
REMARK       I    between atoms: C_5  and  N_6 
REMARK    3  A    between atoms: N_6  and  C_7 
REMARK    4  A    between atoms: C_7  and  C_8 
REMARK    5  A    between atoms: C_8  and  C_9 
REMARK    6  A    between atoms: C_27  and  O_28 
ROOT
HETATM    1  C   UNL     1      -5.555   2.810 -32.572  1.00  0.00     0.222 C 
HETATM    2  N   UNL     1      -4.641   2.408 -31.616  1.00  0.00    -0.360 N 
HETATM    3  O   UNL     1      -5.458   2.566 -33.769  1.00  0.00    -0.273 OA
HETATM    4  H   UNL     1      -5.018   2.333 -30.678  1.00  0.00     0.162 HD
ENDROOT
BRANCH   1   5
HETATM    5  C   UNL     1      -6.729   3.602 -31.989  1.00  0.00     0.148 C 
BRANCH   5   6
HETATM    6  C   UNL     1      -8.060   3.316 -32.649  1.00  0.00     0.033 C 
HETATM    7  C   UNL     1      -8.822   2.225 -32.405  1.00  0.00    -0.036 C 
HETATM    8  C   UNL     1      -8.429   1.112 -31.468  1.00  0.00     0.050 C 
HETATM    9  C   UNL     1     -10.116   2.095 -33.107  1.00  0.00     0.006 A 
HETATM   10  C   UNL     1     -10.603   3.195 -33.814  1.00  0.00     0.093 A 
HETATM   11  C   UNL     1     -10.907   0.938 -33.087  1.00  0.00     0.041 A 
HETATM   12  O   UNL     1      -9.836   4.355 -33.971  1.00  0.00    -0.274 OA
HETATM   13  C   UNL     1     -11.848   3.191 -34.450  1.00  0.00     0.076 A 
HETATM   14  C   UNL     1      -8.485   4.285 -33.697  1.00  0.00     0.295 C 
HETATM   15  O   UNL     1      -7.678   4.994 -34.288  1.00  0.00    -0.259 OA
HETATM   16  C   UNL     1     -12.618   2.035 -34.413  1.00  0.00     0.090 A 
HETATM   17  C   UNL     1     -12.144   0.904 -33.744  1.00  0.00     0.068 A 
HETATM   18 CL   UNL     1     -13.054  -0.563 -33.705  1.00  0.00    -0.081 Cl
BRANCH  16  19
HETATM   19  O   UNL     1     -13.831   2.002 -35.043  1.00  0.00    -0.359 OA
HETATM   20  H   UNL     1     -14.471   1.518 -34.495  1.00  0.00     0.218 HD
ENDBRANCH  16  19
ENDBRANCH   5   6
ENDBRANCH   1   5
BRANCH   2  21
HETATM   21  C   UNL     1      -3.620   1.421 -31.921  1.00  0.00     0.127 C 
BRANCH  21  22
HETATM   22  C   UNL     1      -3.687   0.155 -31.064  1.00  0.00     0.060 C 
BRANCH  22  23
HETATM   23  C   UNL     1      -3.833  -1.063 -31.926  1.00  0.00    -0.029 A 
HETATM   24  C   UNL     1      -4.806  -1.278 -32.956  1.00  0.00    -0.000 A 
HETATM   25  C   UNL     1      -4.528  -2.513 -33.544  1.00  0.00     0.043 A 
HETATM   26  C   UNL     1      -5.891  -0.525 -33.453  1.00  0.00     0.038 A 
HETATM   27  C   UNL     1      -5.273  -3.033 -34.609  1.00  0.00     0.032 A 
HETATM   28  N   UNL     1      -3.441  -3.038 -32.884  1.00  0.00    -0.365 N 
HETATM   29  C   UNL     1      -6.344  -2.270 -35.084  1.00  0.00     0.026 A 
HETATM   30  C   UNL     1      -6.647  -1.038 -34.511  1.00  0.00     0.035 A 
HETATM   31 CL   UNL     1      -7.976  -0.124 -35.119  1.00  0.00    -0.084 Cl
HETATM   32  H   UNL     1      -3.014  -3.928 -33.102  1.00  0.00     0.165 HD
HETATM   33  C   UNL     1      -3.017  -2.178 -31.910  1.00  0.00     0.096 A 
ENDBRANCH  22  23
ENDBRANCH  21  22
ENDBRANCH   2  21
TORSDOF 6
ENDMDL
MODEL 8
REMARK VINA RESULT:      -8.8      3.759      7.321
REMARK  6 active torsions:
REMARK  status: ('A' for Active; 'I' for Inactive)
REMARK    1  A    between atoms: C_3  and  C_4 
REMARK    2  A    between atoms: C_4  and  C_5 
REMARK       I    between atoms: C_5  and  N_6 
REMARK    3  A    between atoms: N_6  and  C_7 
REMARK    4  A    between atoms: C_7  and  C_8 
REMARK    5  A    between atoms: C_8  and  C_9 
REMARK    6  A    between atoms: C_27  and  O_28 
ROOT
HETATM    1  C   UNL     1      -5.593   2.572 -31.112  1.00  0.00     0.222 C 
HETATM    2  N   UNL     1      -6.469   3.609 -31.374  1.00  0.00    -0.360 N 
HETATM    3  O   UNL     1      -5.476   2.023 -30.022  1.00  0.00    -0.273 OA
HETATM    4  H   UNL     1      -6.736   3.698 -32.348  1.00  0.00     0.162 HD
ENDROOT
BRANCH   1   5
HETATM    5  C   UNL     1      -4.766   2.156 -32.332  1.00  0.00     0.148 C 
BRANCH   5   6
HETATM    6  C   UNL     1      -5.203   0.852 -32.963  1.00  0.00     0.033 C 
HETATM    7  C   UNL     1      -4.493  -0.299 -32.921  1.00  0.00    -0.036 C 
HETATM    8  C   UNL     1      -3.139  -0.435 -32.274  1.00  0.00     0.050 C 
HETATM    9  C   UNL     1      -5.062  -1.504 -33.562  1.00  0.00     0.006 A 
HETATM   10  C   UNL     1      -6.392  -1.469 -33.982  1.00  0.00     0.093 A 
HETATM   11  C   UNL     1      -4.356  -2.700 -33.751  1.00  0.00     0.041 A 
HETATM   12  O   UNL     1      -7.142  -0.288 -33.924  1.00  0.00    -0.274 OA
HETATM   13  C   UNL     1      -7.038  -2.579 -34.533  1.00  0.00     0.076 A 
HETATM   14  C   UNL     1      -6.467   0.903 -33.748  1.00  0.00     0.295 C 
HETATM   15  O   UNL     1      -6.897   1.954 -34.213  1.00  0.00    -0.259 OA
HETATM   16  C   UNL     1      -6.321  -3.757 -34.707  1.00  0.00     0.090 A 
HETATM   17  C   UNL     1      -4.977  -3.815 -34.329  1.00  0.00     0.068 A 
HETATM   18 CL   UNL     1      -4.041  -5.247 -34.561  1.00  0.00    -0.081 Cl
BRANCH  16  19
HETATM   19  O   UNL     1      -6.927  -4.850 -35.260  1.00  0.00    -0.359 OA
HETATM   20  H   UNL     1      -7.716  -4.572 -35.753  1.00  0.00     0.218 HD
ENDBRANCH  16  19
ENDBRANCH   5   6
ENDBRANCH   1   5
BRANCH   2  21
HETATM   21  C   UNL     1      -7.524   3.956 -30.439  1.00  0.00     0.127 C 
BRANCH  21  22
HETATM   22  C   UNL     1      -8.884   4.222 -31.089  1.00  0.00     0.060 C 
BRANCH  22  23
HETATM   23  C   UNL     1      -9.428   2.971 -31.713  1.00  0.00    -0.029 A 
HETATM   24  C   UNL     1     -10.327   2.886 -32.826  1.00  0.00    -0.000 A 
HETATM   25  C   UNL     1     -10.510   1.532 -33.113  1.00  0.00     0.043 A 
HETATM   26  C   UNL     1     -10.991   3.839 -33.627  1.00  0.00     0.038 A 
HETATM   27  C   UNL     1     -11.316   1.079 -34.166  1.00  0.00     0.032 A 
HETATM   28  N   UNL     1      -9.768   0.822 -32.198  1.00  0.00    -0.365 N 
HETATM   29  C   UNL     1     -11.964   2.042 -34.945  1.00  0.00     0.026 A 
HETATM   30  C   UNL     1     -11.804   3.399 -34.676  1.00  0.00     0.035 A 
HETATM   31 CL   UNL     1     -12.621   4.559 -35.655  1.00  0.00    -0.084 Cl
HETATM   32  H   UNL     1      -9.707  -0.186 -32.169  1.00  0.00     0.165 HD
HETATM   33  C   UNL     1      -9.117   1.675 -31.352  1.00  0.00     0.096 A 
ENDBRANCH  22  23
ENDBRANCH  21  22
ENDBRANCH   2  21
TORSDOF 6
ENDMDL
MODEL 9
REMARK VINA RESULT:      -8.8      4.613      7.944
REMARK  6 active torsions:
REMARK  status: ('A' for Active; 'I' for Inactive)
REMARK    1  A    between atoms: C_3  and  C_4 
REMARK    2  A    between atoms: C_4  and  C_5 
REMARK       I    between atoms: C_5  and  N_6 
REMARK    3  A    between atoms: N_6  and  C_7 
REMARK    4  A    between atoms: C_7  and  C_8 
REMARK    5  A    between atoms: C_8  and  C_9 
REMARK    6  A    between atoms: C_27  and  O_28 
ROOT
HETATM    1  C   UNL     1      -8.018   2.890 -32.554  1.00  0.00     0.222 C 
HETATM    2  N   UNL     1      -8.635   4.124 -32.651  1.00  0.00    -0.360 N 
HETATM    3  O   UNL     1      -8.393   1.984 -31.819  1.00  0.00    -0.273 OA
HETATM    4  H   UNL     1      -8.477   4.605 -33.528  1.00  0.00     0.162 HD
ENDROOT
BRANCH   1   5
HETATM    5  C   UNL     1      -6.799   2.751 -33.471  1.00  0.00     0.148 C 
BRANCH   5   6
HETATM    6  C   UNL     1      -6.205   1.360 -33.508  1.00  0.00     0.033 C 
HETATM    7  C   UNL     1      -6.676   0.342 -34.265  1.00  0.00    -0.036 C 
HETATM    8  C   UNL     1      -7.893   0.438 -35.150  1.00  0.00     0.050 C 
HETATM    9  C   UNL     1      -5.974  -0.958 -34.219  1.00  0.00     0.006 A 
HETATM   10  C   UNL     1      -4.735  -1.022 -33.580  1.00  0.00     0.093 A 
HETATM   11  C   UNL     1      -6.461  -2.135 -34.803  1.00  0.00     0.041 A 
HETATM   12  O   UNL     1      -4.218   0.078 -32.884  1.00  0.00    -0.274 OA
HETATM   13  C   UNL     1      -3.964  -2.187 -33.546  1.00  0.00     0.076 A 
HETATM   14  C   UNL     1      -5.077   1.111 -32.569  1.00  0.00     0.295 C 
HETATM   15  O   UNL     1      -4.912   1.793 -31.563  1.00  0.00    -0.259 OA
HETATM   16  C   UNL     1      -4.463  -3.342 -34.136  1.00  0.00     0.090 A 
HETATM   17  C   UNL     1      -5.717  -3.321 -34.753  1.00  0.00     0.068 A 
HETATM   18 CL   UNL     1      -6.389  -4.742 -35.467  1.00  0.00    -0.081 Cl
BRANCH  16  19
HETATM   19  O   UNL     1      -3.735  -4.497 -34.099  1.00  0.00    -0.359 OA
HETATM   20  H   UNL     1      -3.095  -4.458 -33.369  1.00  0.00     0.218 HD
ENDBRANCH  16  19
ENDBRANCH   5   6
ENDBRANCH   1   5
BRANCH   2  21
HETATM   21  C   UNL     1      -9.951   4.352 -32.082  1.00  0.00     0.127 C 
BRANCH  21  22
HETATM   22  C   UNL     1     -11.039   4.669 -33.110  1.00  0.00     0.060 C 
BRANCH  22  23
HETATM   23  C   UNL     1     -11.499   3.419 -33.801  1.00  0.00    -0.029 A 
HETATM   24  C   UNL     1     -12.744   2.736 -33.607  1.00  0.00    -0.000 A 
HETATM   25  C   UNL     1     -12.779   1.667 -34.505  1.00  0.00     0.043 A 
HETATM   26  C   UNL     1     -13.854   2.940 -32.761  1.00  0.00     0.038 A 
HETATM   27  C   UNL     1     -13.869   0.794 -34.606  1.00  0.00     0.032 A 
HETATM   28  N   UNL     1     -11.593   1.687 -35.201  1.00  0.00    -0.365 N 
HETATM   29  C   UNL     1     -14.956   1.015 -33.756  1.00  0.00     0.026 A 
HETATM   30  C   UNL     1     -14.945   2.070 -32.848  1.00  0.00     0.035 A 
HETATM   31 CL   UNL     1     -16.302   2.312 -31.812  1.00  0.00    -0.084 Cl
HETATM   32  H   UNL     1     -11.343   1.028 -35.925  1.00  0.00     0.165 HD
HETATM   33  C   UNL     1     -10.817   2.732 -34.786  1.00  0.00     0.096 A 
ENDBRANCH  22  23
ENDBRANCH  21  22
ENDBRANCH   2  21
TORSDOF 6
ENDMDL
MODEL 10
REMARK VINA RESULT:      -8.7      3.216      7.695
REMARK  6 active torsions:
REMARK  status: ('A' for Active; 'I' for Inactive)
REMARK    1  A    between atoms: C_3  and  C_4 
REMARK    2  A    between atoms: C_4  and  C_5 
REMARK       I    between atoms: C_5  and  N_6 
REMARK    3  A    between atoms: N_6  and  C_7 
REMARK    4  A    between atoms: C_7  and  C_8 
REMARK    5  A    between atoms: C_8  and  C_9 
REMARK    6  A    between atoms: C_27  and  O_28 
ROOT
HETATM    1  C   UNL     1      -6.375   3.674 -33.539  1.00  0.00     0.222 C 
HETATM    2  N   UNL     1      -6.456   4.845 -32.808  1.00  0.00    -0.360 N 
HETATM    3  O   UNL     1      -5.757   3.556 -34.591  1.00  0.00    -0.273 OA
HETATM    4  H   UNL     1      -6.649   4.713 -31.822  1.00  0.00     0.162 HD
ENDROOT
BRANCH   1   5
HETATM    5  C   UNL     1      -7.141   2.511 -32.902  1.00  0.00     0.148 C 
BRANCH   5   6
HETATM    6  C   UNL     1      -6.471   1.164 -33.064  1.00  0.00     0.033 C 
HETATM    7  C   UNL     1      -6.860   0.211 -33.942  1.00  0.00    -0.036 C 
HETATM    8  C   UNL     1      -8.050   0.339 -34.858  1.00  0.00     0.050 C 
HETATM    9  C   UNL     1      -6.088  -1.049 -34.006  1.00  0.00     0.006 A 
HETATM   10  C   UNL     1      -4.869  -1.117 -33.330  1.00  0.00     0.093 A 
HETATM   11  C   UNL     1      -6.490  -2.180 -34.730  1.00  0.00     0.041 A 
HETATM   12  O   UNL     1      -4.437  -0.074 -32.503  1.00  0.00    -0.274 OA
HETATM   13  C   UNL     1      -4.037  -2.239 -33.390  1.00  0.00     0.076 A 
HETATM   14  C   UNL     1      -5.362   0.873 -32.113  1.00  0.00     0.295 C 
HETATM   15  O   UNL     1      -5.268   1.451 -31.035  1.00  0.00    -0.259 OA
HETATM   16  C   UNL     1      -4.452  -3.347 -34.117  1.00  0.00     0.090 A 
HETATM   17  C   UNL     1      -5.684  -3.325 -34.777  1.00  0.00     0.068 A 
HETATM   18 CL   UNL     1      -6.253  -4.693 -35.662  1.00  0.00    -0.081 Cl
BRANCH  16  19
HETATM   19  O   UNL     1      -3.663  -4.461 -34.175  1.00  0.00    -0.359 OA
HETATM   20  H   UNL     1      -2.873  -4.332 -33.623  1.00  0.00     0.218 HD
ENDBRANCH  16  19
ENDBRANCH   5   6
ENDBRANCH   1   5
BRANCH   2  21
HETATM   21  C   UNL     1      -5.581   5.969 -33.091  1.00  0.00     0.127 C 
BRANCH  21  22
HETATM   22  C   UNL     1      -4.733   6.427 -31.903  1.00  0.00     0.060 C 
BRANCH  22  23
HETATM   23  C   UNL     1      -3.306   5.996 -32.071  1.00  0.00    -0.029 A 
HETATM   24  C   UNL     1      -2.177   6.438 -31.306  1.00  0.00    -0.000 A 
HETATM   25  C   UNL     1      -1.063   5.727 -31.755  1.00  0.00     0.043 A 
HETATM   26  C   UNL     1      -2.004   7.369 -30.260  1.00  0.00     0.038 A 
HETATM   27  C   UNL     1       0.216   5.891 -31.208  1.00  0.00     0.032 A 
HETATM   28  N   UNL     1      -1.493   4.901 -32.767  1.00  0.00    -0.365 N 
HETATM   29  C   UNL     1       0.362   6.820 -30.173  1.00  0.00     0.026 A 
HETATM   30  C   UNL     1      -0.731   7.546 -29.710  1.00  0.00     0.035 A 
HETATM   31 CL   UNL     1      -0.514   8.685 -28.435  1.00  0.00    -0.084 Cl
HETATM   32  H   UNL     1      -0.899   4.263 -33.278  1.00  0.00     0.165 HD
HETATM   33  C   UNL     1      -2.837   5.055 -32.966  1.00  0.00     0.096 A 
ENDBRANCH  22  23
ENDBRANCH  21  22
ENDBRANCH   2  21
TORSDOF 6
ENDMDL
