MODEL 1
REMARK VINA RESULT:     -10.3      0.000      0.000
REMARK  6 active torsions:
REMARK  status: ('A' for Active; 'I' for Inactive)
REMARK    1  A    between atoms: C_9  and  O_10 
REMARK    2  A    between atoms: O_10  and  C_11 
REMARK    3  A    between atoms: C_11  and  C_12 
REMARK       I    between atoms: C_12  and  N_13 
REMARK    4  A    between atoms: N_13  and  C_14 
REMARK    5  A    between atoms: N_15  and  C_16 
REMARK    6  A    between atoms: C_27  and  C_28 
ROOT
HETATM    1  C   UNL     1      -4.936   4.102 -32.034  1.00  0.00     0.152 A 
HETATM    2  N   UNL     1      -4.043   3.053 -32.210  1.00  0.00    -0.044 N 
HETATM    3  N   UNL     1      -2.754   3.410 -31.914  1.00  0.00    -0.150 NA
HETATM    4  C   UNL     1      -2.842   4.693 -31.541  1.00  0.00     0.099 A 
HETATM    5  C   UNL     1      -4.165   5.171 -31.629  1.00  0.00     0.086 A 
ENDROOT
BRANCH   1   6
HETATM    6  N   UNL     1      -6.309   3.982 -32.220  1.00  0.00    -0.309 N 
HETATM    7  C   UNL     1      -6.959   4.526 -33.314  1.00  0.00     0.247 C 
HETATM    8  O   UNL     1      -6.412   5.037 -34.290  1.00  0.00    -0.271 OA
HETATM    9  H   UNL     1      -6.859   3.483 -31.515  1.00  0.00     0.170 HD
BRANCH   7  10
HETATM   10  C   UNL     1      -8.480   4.577 -33.180  1.00  0.00     0.278 C 
BRANCH  10  11
HETATM   11  O   UNL     1      -9.193   4.092 -34.308  1.00  0.00    -0.342 OA
BRANCH  11  12
HETATM   12  C   UNL     1      -9.932   2.957 -34.072  1.00  0.00     0.070 A 
HETATM   13  C   UNL     1      -9.436   1.773 -33.523  1.00  0.00     0.037 A 
HETATM   14  C   UNL     1     -10.283   0.681 -33.311  1.00  0.00     0.015 A 
HETATM   15  C   UNL     1     -11.641   0.751 -33.647  1.00  0.00    -0.026 A 
HETATM   16  C   UNL     1     -12.501  -0.336 -33.425  1.00  0.00     0.012 A 
HETATM   17  C   UNL     1     -12.149   1.940 -34.217  1.00  0.00    -0.023 A 
HETATM   18  C   UNL     1     -13.852  -0.255 -33.760  1.00  0.00     0.001 A 
HETATM   19  C   UNL     1     -14.358   0.914 -34.321  1.00  0.00     0.001 A 
HETATM   20  C   UNL     1     -13.513   2.003 -34.550  1.00  0.00     0.012 A 
HETATM   21  C   UNL     1     -11.282   3.028 -34.430  1.00  0.00     0.049 A 
ENDBRANCH  11  12
ENDBRANCH  10  11
ENDBRANCH   7  10
ENDBRANCH   1   6
BRANCH   2  22
HETATM   22  C   UNL     1      -4.303   1.730 -32.615  1.00  0.00     0.732 A 
HETATM   23  N   UNL     1      -5.313   1.385 -33.358  1.00  0.00    -0.067 NA
HETATM   24  C   UNL     1      -5.370   0.044 -33.627  1.00  0.00     0.065 A 
HETATM   25  C   UNL     1      -4.506  -0.880 -33.205  1.00  0.00     0.036 A 
HETATM   26  C   UNL     1      -6.446  -0.570 -34.458  1.00  0.00     0.061 C 
HETATM   27  C   UNL     1      -4.828  -2.251 -33.659  1.00  0.00     0.047 C 
HETATM   28  C   UNL     1      -3.376  -0.476 -32.370  1.00  0.00     0.268 A 
HETATM   29  C   UNL     1      -6.258  -2.071 -34.186  1.00  0.00     0.011 C 
HETATM   30  O   UNL     1      -2.547  -1.268 -31.949  1.00  0.00    -0.267 OA
HETATM   31  N   UNL     1      -3.351   0.865 -32.118  1.00  0.00    -0.152 N 
HETATM   32  H   UNL     1      -2.603   1.241 -31.544  1.00  0.00     0.188 HD
ENDBRANCH   2  22
BRANCH   4  33
HETATM   33  C   UNL     1      -1.647   5.468 -31.069  1.00  0.00     0.035 A 
HETATM   34  S   UNL     1      -1.712   6.735 -29.921  1.00  0.00    -0.100 SA
HETATM   35  C   UNL     1      -0.018   6.963 -29.979  1.00  0.00     0.050 A 
HETATM   36  C   UNL     1       0.588   6.099 -30.862  1.00  0.00     0.008 A 
HETATM   37  C   UNL     1      -0.355   5.235 -31.495  1.00  0.00     0.022 A 
ENDBRANCH   4  33
TORSDOF 6
ENDMDL
MODEL 2
REMARK VINA RESULT:     -10.0      4.049      9.617
REMARK  6 active torsions:
REMARK  status: ('A' for Active; 'I' for Inactive)
REMARK    1  A    between atoms: C_9  and  O_10 
REMARK    2  A    between atoms: O_10  and  C_11 
REMARK    3  A    between atoms: C_11  and  C_12 
REMARK       I    between atoms: C_12  and  N_13 
REMARK    4  A    between atoms: N_13  and  C_14 
REMARK    5  A    between atoms: N_15  and  C_16 
REMARK    6  A    between atoms: C_27  and  C_28 
ROOT
HETATM    1  C   UNL     1      -4.916   2.732 -30.603  1.00  0.00     0.152 A 
HETATM    2  N   UNL     1      -3.987   2.895 -31.622  1.00  0.00    -0.044 N 
HETATM    3  N   UNL     1      -4.074   1.909 -32.569  1.00  0.00    -0.150 NA
HETATM    4  C   UNL     1      -5.071   1.126 -32.143  1.00  0.00     0.099 A 
HETATM    5  C   UNL     1      -5.601   1.578 -30.917  1.00  0.00     0.086 A 
ENDROOT
BRANCH   1   6
HETATM    6  N   UNL     1      -5.066   3.627 -29.549  1.00  0.00    -0.309 N 
HETATM    7  C   UNL     1      -5.553   4.910 -29.730  1.00  0.00     0.247 C 
HETATM    8  O   UNL     1      -6.030   5.354 -30.775  1.00  0.00    -0.271 OA
HETATM    9  H   UNL     1      -4.795   3.330 -28.607  1.00  0.00     0.170 HD
BRANCH   7  10
HETATM   10  C   UNL     1      -5.340   5.838 -28.536  1.00  0.00     0.278 C 
BRANCH  10  11
HETATM   11  O   UNL     1      -5.092   7.195 -28.874  1.00  0.00    -0.342 OA
BRANCH  11  12
HETATM   12  C   UNL     1      -3.772   7.571 -28.795  1.00  0.00     0.070 A 
HETATM   13  C   UNL     1      -3.162   8.540 -29.595  1.00  0.00     0.037 A 
HETATM   14  C   UNL     1      -1.811   8.856 -29.419  1.00  0.00     0.015 A 
HETATM   15  C   UNL     1      -1.045   8.209 -28.442  1.00  0.00    -0.026 A 
HETATM   16  C   UNL     1       0.308   8.530 -28.250  1.00  0.00     0.012 A 
HETATM   17  C   UNL     1      -1.650   7.217 -27.637  1.00  0.00    -0.023 A 
HETATM   18  C   UNL     1       1.062   7.882 -27.272  1.00  0.00     0.001 A 
HETATM   19  C   UNL     1       0.471   6.905 -26.477  1.00  0.00     0.001 A 
HETATM   20  C   UNL     1      -0.874   6.573 -26.658  1.00  0.00     0.012 A 
HETATM   21  C   UNL     1      -3.009   6.905 -27.832  1.00  0.00     0.049 A 
ENDBRANCH  11  12
ENDBRANCH  10  11
ENDBRANCH   7  10
ENDBRANCH   1   6
BRANCH   2  22
HETATM   22  C   UNL     1      -3.033   3.917 -31.793  1.00  0.00     0.732 A 
HETATM   23  N   UNL     1      -1.911   3.977 -31.138  1.00  0.00    -0.067 NA
HETATM   24  C   UNL     1      -1.138   5.058 -31.464  1.00  0.00     0.065 A 
HETATM   25  C   UNL     1      -1.439   5.999 -32.361  1.00  0.00     0.036 A 
HETATM   26  C   UNL     1       0.188   5.325 -30.834  1.00  0.00     0.061 C 
HETATM   27  C   UNL     1      -0.402   7.046 -32.498  1.00  0.00     0.047 C 
HETATM   28  C   UNL     1      -2.704   5.917 -33.088  1.00  0.00     0.268 A 
HETATM   29  C   UNL     1       0.478   6.770 -31.273  1.00  0.00     0.011 C 
HETATM   30  O   UNL     1      -3.044   6.743 -33.922  1.00  0.00    -0.267 OA
HETATM   31  N   UNL     1      -3.452   4.830 -32.737  1.00  0.00    -0.152 N 
HETATM   32  H   UNL     1      -4.351   4.689 -33.188  1.00  0.00     0.188 HD
ENDBRANCH   2  22
BRANCH   4  33
HETATM   33  C   UNL     1      -5.545  -0.060 -32.931  1.00  0.00     0.035 A 
HETATM   34  S   UNL     1      -4.531  -1.330 -33.465  1.00  0.00    -0.100 SA
HETATM   35  C   UNL     1      -5.843  -2.169 -34.173  1.00  0.00     0.050 A 
HETATM   36  C   UNL     1      -7.032  -1.493 -34.015  1.00  0.00     0.008 A 
HETATM   37  C   UNL     1      -6.859  -0.271 -33.298  1.00  0.00     0.022 A 
ENDBRANCH   4  33
TORSDOF 6
ENDMDL
MODEL 3
REMARK VINA RESULT:     -10.0      2.841      8.793
REMARK  6 active torsions:
REMARK  status: ('A' for Active; 'I' for Inactive)
REMARK    1  A    between atoms: C_9  and  O_10 
REMARK    2  A    between atoms: O_10  and  C_11 
REMARK    3  A    between atoms: C_11  and  C_12 
REMARK       I    between atoms: C_12  and  N_13 
REMARK    4  A    between atoms: N_13  and  C_14 
REMARK    5  A    between atoms: N_15  and  C_16 
REMARK    6  A    between atoms: C_27  and  C_28 
ROOT
HETATM    1  C   UNL     1      -8.550   2.546 -33.809  1.00  0.00     0.152 A 
HETATM    2  N   UNL     1      -8.405   1.222 -33.417  1.00  0.00    -0.044 N 
HETATM    3  N   UNL     1      -9.602   0.558 -33.367  1.00  0.00    -0.150 NA
HETATM    4  C   UNL     1     -10.505   1.474 -33.739  1.00  0.00     0.099 A 
HETATM    5  C   UNL     1      -9.905   2.724 -33.993  1.00  0.00     0.086 A 
ENDROOT
BRANCH   1   6
HETATM    6  N   UNL     1      -7.480   3.417 -33.986  1.00  0.00    -0.309 N 
HETATM    7  C   UNL     1      -7.144   4.378 -33.048  1.00  0.00     0.247 C 
HETATM    8  O   UNL     1      -7.635   4.484 -31.924  1.00  0.00    -0.271 OA
HETATM    9  H   UNL     1      -6.929   3.352 -34.847  1.00  0.00     0.170 HD
BRANCH   7  10
HETATM   10  C   UNL     1      -6.167   5.436 -33.555  1.00  0.00     0.278 C 
BRANCH  10  11
HETATM   11  O   UNL     1      -4.979   4.920 -34.137  1.00  0.00    -0.342 OA
BRANCH  11  12
HETATM   12  C   UNL     1      -3.912   4.833 -33.275  1.00  0.00     0.070 A 
HETATM   13  C   UNL     1      -3.657   3.765 -32.413  1.00  0.00     0.037 A 
HETATM   14  C   UNL     1      -2.528   3.773 -31.587  1.00  0.00     0.015 A 
HETATM   15  C   UNL     1      -1.636   4.853 -31.605  1.00  0.00    -0.026 A 
HETATM   16  C   UNL     1      -0.494   4.863 -30.789  1.00  0.00     0.012 A 
HETATM   17  C   UNL     1      -1.893   5.945 -32.463  1.00  0.00    -0.023 A 
HETATM   18  C   UNL     1       0.391   5.941 -30.816  1.00  0.00     0.001 A 
HETATM   19  C   UNL     1       0.143   7.019 -31.659  1.00  0.00     0.001 A 
HETATM   20  C   UNL     1      -0.991   7.024 -32.476  1.00  0.00     0.012 A 
HETATM   21  C   UNL     1      -3.037   5.924 -33.283  1.00  0.00     0.049 A 
ENDBRANCH  11  12
ENDBRANCH  10  11
ENDBRANCH   7  10
ENDBRANCH   1   6
BRANCH   2  22
HETATM   22  C   UNL     1      -7.227   0.517 -33.103  1.00  0.00     0.732 A 
HETATM   23  N   UNL     1      -6.371   0.901 -32.201  1.00  0.00    -0.067 NA
HETATM   24  C   UNL     1      -5.298   0.064 -32.065  1.00  0.00     0.065 A 
HETATM   25  C   UNL     1      -5.083  -1.059 -32.752  1.00  0.00     0.036 A 
HETATM   26  C   UNL     1      -4.195   0.313 -31.091  1.00  0.00     0.061 C 
HETATM   27  C   UNL     1      -3.832  -1.756 -32.382  1.00  0.00     0.047 C 
HETATM   28  C   UNL     1      -6.054  -1.476 -33.762  1.00  0.00     0.268 A 
HETATM   29  C   UNL     1      -3.118  -0.684 -31.549  1.00  0.00     0.011 C 
HETATM   30  O   UNL     1      -5.922  -2.492 -34.429  1.00  0.00    -0.267 OA
HETATM   31  N   UNL     1      -7.110  -0.618 -33.876  1.00  0.00    -0.152 N 
HETATM   32  H   UNL     1      -7.836  -0.824 -34.554  1.00  0.00     0.188 HD
ENDBRANCH   2  22
BRANCH   4  33
HETATM   33  C   UNL     1     -11.962   1.144 -33.880  1.00  0.00     0.035 A 
HETATM   34  S   UNL     1     -13.118   2.174 -34.607  1.00  0.00    -0.100 SA
HETATM   35  C   UNL     1     -14.376   1.039 -34.370  1.00  0.00     0.050 A 
HETATM   36  C   UNL     1     -13.930  -0.101 -33.741  1.00  0.00     0.008 A 
HETATM   37  C   UNL     1     -12.532  -0.040 -33.455  1.00  0.00     0.022 A 
ENDBRANCH   4  33
TORSDOF 6
ENDMDL
MODEL 4
REMARK VINA RESULT:      -9.8      3.507      7.990
REMARK  6 active torsions:
REMARK  status: ('A' for Active; 'I' for Inactive)
REMARK    1  A    between atoms: C_9  and  O_10 
REMARK    2  A    between atoms: O_10  and  C_11 
REMARK    3  A    between atoms: C_11  and  C_12 
REMARK       I    between atoms: C_12  and  N_13 
REMARK    4  A    between atoms: N_13  and  C_14 
REMARK    5  A    between atoms: N_15  and  C_16 
REMARK    6  A    between atoms: C_27  and  C_28 
ROOT
HETATM    1  C   UNL     1      -7.637   3.244 -33.599  1.00  0.00     0.152 A 
HETATM    2  N   UNL     1      -7.219   4.536 -33.888  1.00  0.00    -0.044 N 
HETATM    3  N   UNL     1      -8.249   5.335 -34.312  1.00  0.00    -0.150 NA
HETATM    4  C   UNL     1      -9.323   4.537 -34.280  1.00  0.00     0.099 A 
HETATM    5  C   UNL     1      -8.988   3.228 -33.875  1.00  0.00     0.086 A 
ENDROOT
BRANCH   1   6
HETATM    6  N   UNL     1      -6.793   2.256 -33.103  1.00  0.00    -0.309 N 
HETATM    7  C   UNL     1      -6.610   2.051 -31.746  1.00  0.00     0.247 C 
HETATM    8  O   UNL     1      -7.251   2.595 -30.847  1.00  0.00    -0.271 OA
HETATM    9  H   UNL     1      -6.281   1.667 -33.766  1.00  0.00     0.170 HD
BRANCH   7  10
HETATM   10  C   UNL     1      -5.419   1.160 -31.401  1.00  0.00     0.278 C 
BRANCH  10  11
HETATM   11  O   UNL     1      -4.562   0.862 -32.493  1.00  0.00    -0.342 OA
BRANCH  11  12
HETATM   12  C   UNL     1      -4.326  -0.479 -32.686  1.00  0.00     0.070 A 
HETATM   13  C   UNL     1      -3.366  -1.233 -32.008  1.00  0.00     0.037 A 
HETATM   14  C   UNL     1      -3.222  -2.598 -32.272  1.00  0.00     0.015 A 
HETATM   15  C   UNL     1      -4.032  -3.234 -33.221  1.00  0.00    -0.026 A 
HETATM   16  C   UNL     1      -3.902  -4.608 -33.482  1.00  0.00     0.012 A 
HETATM   17  C   UNL     1      -4.996  -2.476 -33.923  1.00  0.00    -0.023 A 
HETATM   18  C   UNL     1      -4.717  -5.233 -34.427  1.00  0.00     0.001 A 
HETATM   19  C   UNL     1      -5.668  -4.491 -35.120  1.00  0.00     0.001 A 
HETATM   20  C   UNL     1      -5.807  -3.123 -34.872  1.00  0.00     0.012 A 
HETATM   21  C   UNL     1      -5.124  -1.101 -33.649  1.00  0.00     0.049 A 
ENDBRANCH  11  12
ENDBRANCH  10  11
ENDBRANCH   7  10
ENDBRANCH   1   6
BRANCH   2  22
HETATM   22  C   UNL     1      -5.931   5.093 -33.780  1.00  0.00     0.732 A 
HETATM   23  N   UNL     1      -4.935   4.773 -34.554  1.00  0.00    -0.067 NA
HETATM   24  C   UNL     1      -3.774   5.438 -34.266  1.00  0.00     0.065 A 
HETATM   25  C   UNL     1      -3.606   6.345 -33.303  1.00  0.00     0.036 A 
HETATM   26  C   UNL     1      -2.509   5.224 -35.026  1.00  0.00     0.061 C 
HETATM   27  C   UNL     1      -2.234   6.895 -33.234  1.00  0.00     0.047 C 
HETATM   28  C   UNL     1      -4.734   6.693 -32.442  1.00  0.00     0.268 A 
HETATM   29  C   UNL     1      -1.466   5.919 -34.135  1.00  0.00     0.011 C 
HETATM   30  O   UNL     1      -4.651   7.514 -31.540  1.00  0.00    -0.267 OA
HETATM   31  N   UNL     1      -5.874   6.010 -32.752  1.00  0.00    -0.152 N 
HETATM   32  H   UNL     1      -6.712   6.184 -32.206  1.00  0.00     0.188 HD
ENDBRANCH   2  22
BRANCH   4  33
HETATM   33  C   UNL     1     -10.697   5.037 -34.617  1.00  0.00     0.035 A 
HETATM   34  S   UNL     1     -12.147   4.328 -34.050  1.00  0.00    -0.100 SA
HETATM   35  C   UNL     1     -13.108   5.498 -34.847  1.00  0.00     0.050 A 
HETATM   36  C   UNL     1     -12.342   6.408 -35.540  1.00  0.00     0.008 A 
HETATM   37  C   UNL     1     -10.946   6.140 -35.409  1.00  0.00     0.022 A 
ENDBRANCH   4  33
TORSDOF 6
ENDMDL
MODEL 5
REMARK VINA RESULT:      -9.7      2.599      6.170
REMARK  6 active torsions:
REMARK  status: ('A' for Active; 'I' for Inactive)
REMARK    1  A    between atoms: C_9  and  O_10 
REMARK    2  A    between atoms: O_10  and  C_11 
REMARK    3  A    between atoms: C_11  and  C_12 
REMARK       I    between atoms: C_12  and  N_13 
REMARK    4  A    between atoms: N_13  and  C_14 
REMARK    5  A    between atoms: N_15  and  C_16 
REMARK    6  A    between atoms: C_27  and  C_28 
ROOT
HETATM    1  C   UNL     1      -5.286   4.421 -30.471  1.00  0.00     0.152 A 
HETATM    2  N   UNL     1      -6.520   4.711 -31.039  1.00  0.00    -0.044 N 
HETATM    3  N   UNL     1      -6.797   6.053 -31.027  1.00  0.00    -0.150 NA
HETATM    4  C   UNL     1      -5.723   6.609 -30.453  1.00  0.00     0.099 A 
HETATM    5  C   UNL     1      -4.777   5.637 -30.066  1.00  0.00     0.086 A 
ENDROOT
BRANCH   1   6
HETATM    6  N   UNL     1      -4.751   3.139 -30.408  1.00  0.00    -0.309 N 
HETATM    7  C   UNL     1      -3.918   2.635 -31.392  1.00  0.00     0.247 C 
HETATM    8  O   UNL     1      -3.449   3.277 -32.331  1.00  0.00    -0.271 OA
HETATM    9  H   UNL     1      -4.992   2.543 -29.611  1.00  0.00     0.170 HD
BRANCH   7  10
HETATM   10  C   UNL     1      -3.701   1.125 -31.318  1.00  0.00     0.278 C 
BRANCH  10  11
HETATM   11  O   UNL     1      -3.297   0.522 -32.539  1.00  0.00    -0.342 OA
BRANCH  11  12
HETATM   12  C   UNL     1      -4.227  -0.325 -33.093  1.00  0.00     0.070 A 
HETATM   13  C   UNL     1      -5.520   0.038 -33.476  1.00  0.00     0.037 A 
HETATM   14  C   UNL     1      -6.381  -0.904 -34.047  1.00  0.00     0.015 A 
HETATM   15  C   UNL     1      -5.968  -2.228 -34.241  1.00  0.00    -0.026 A 
HETATM   16  C   UNL     1      -6.822  -3.176 -34.826  1.00  0.00     0.012 A 
HETATM   17  C   UNL     1      -4.666  -2.609 -33.843  1.00  0.00    -0.023 A 
HETATM   18  C   UNL     1      -6.399  -4.492 -35.019  1.00  0.00     0.001 A 
HETATM   19  C   UNL     1      -5.119  -4.872 -34.628  1.00  0.00     0.001 A 
HETATM   20  C   UNL     1      -4.259  -3.939 -34.044  1.00  0.00     0.012 A 
HETATM   21  C   UNL     1      -3.814  -1.650 -33.264  1.00  0.00     0.049 A 
ENDBRANCH  11  12
ENDBRANCH  10  11
ENDBRANCH   7  10
ENDBRANCH   1   6
BRANCH   2  22
HETATM   22  C   UNL     1      -7.457   3.832 -31.613  1.00  0.00     0.732 A 
HETATM   23  N   UNL     1      -7.580   2.581 -31.274  1.00  0.00    -0.067 NA
HETATM   24  C   UNL     1      -8.555   1.914 -31.965  1.00  0.00     0.065 A 
HETATM   25  C   UNL     1      -9.346   2.432 -32.906  1.00  0.00     0.036 A 
HETATM   26  C   UNL     1      -8.865   0.473 -31.739  1.00  0.00     0.061 C 
HETATM   27  C   UNL     1     -10.309   1.463 -33.475  1.00  0.00     0.047 C 
HETATM   28  C   UNL     1      -9.195   3.838 -33.275  1.00  0.00     0.268 A 
HETATM   29  C   UNL     1      -9.758   0.134 -32.944  1.00  0.00     0.011 C 
HETATM   30  O   UNL     1      -9.884   4.377 -34.128  1.00  0.00    -0.267 OA
HETATM   31  N   UNL     1      -8.213   4.472 -32.571  1.00  0.00    -0.152 N 
HETATM   32  H   UNL     1      -8.032   5.454 -32.760  1.00  0.00     0.188 HD
ENDBRANCH   2  22
BRANCH   4  33
HETATM   33  C   UNL     1      -5.584   8.095 -30.295  1.00  0.00     0.035 A 
HETATM   34  S   UNL     1      -4.728   8.853 -29.022  1.00  0.00    -0.100 SA
HETATM   35  C   UNL     1      -5.053  10.413 -29.644  1.00  0.00     0.050 A 
HETATM   36  C   UNL     1      -5.806  10.361 -30.795  1.00  0.00     0.008 A 
HETATM   37  C   UNL     1      -6.116   9.020 -31.171  1.00  0.00     0.022 A 
ENDBRANCH   4  33
TORSDOF 6
ENDMDL
MODEL 6
REMARK VINA RESULT:      -9.6      3.594      7.657
REMARK  6 active torsions:
REMARK  status: ('A' for Active; 'I' for Inactive)
REMARK    1  A    between atoms: C_9  and  O_10 
REMARK    2  A    between atoms: O_10  and  C_11 
REMARK    3  A    between atoms: C_11  and  C_12 
REMARK       I    between atoms: C_12  and  N_13 
REMARK    4  A    between atoms: N_13  and  C_14 
REMARK    5  A    between atoms: N_15  and  C_16 
REMARK    6  A    between atoms: C_27  and  C_28 
ROOT
HETATM    1  C   UNL     1      -9.848   3.709 -34.755  1.00  0.00     0.152 A 
HETATM    2  N   UNL     1      -8.886   4.614 -34.326  1.00  0.00    -0.044 N 
HETATM    3  N   UNL     1      -9.189   5.903 -34.679  1.00  0.00    -0.150 NA
HETATM    4  C   UNL     1     -10.356   5.805 -35.328  1.00  0.00     0.099 A 
HETATM    5  C   UNL     1     -10.786   4.466 -35.425  1.00  0.00     0.086 A 
ENDROOT
BRANCH   1   6
HETATM    6  N   UNL     1      -9.799   2.347 -34.478  1.00  0.00    -0.309 N 
HETATM    7  C   UNL     1     -10.684   1.736 -33.606  1.00  0.00     0.247 C 
HETATM    8  O   UNL     1     -11.671   2.268 -33.099  1.00  0.00    -0.271 OA
HETATM    9  H   UNL     1      -9.076   1.779 -34.928  1.00  0.00     0.170 HD
BRANCH   7  10
HETATM   10  C   UNL     1     -10.276   0.326 -33.183  1.00  0.00     0.278 C 
BRANCH  10  11
HETATM   11  O   UNL     1      -9.340   0.273 -32.116  1.00  0.00    -0.342 OA
BRANCH  11  12
HETATM   12  C   UNL     1      -8.049  -0.004 -32.502  1.00  0.00     0.070 A 
HETATM   13  C   UNL     1      -7.665  -0.447 -33.769  1.00  0.00     0.037 A 
HETATM   14  C   UNL     1      -6.318  -0.683 -34.059  1.00  0.00     0.015 A 
HETATM   15  C   UNL     1      -5.330  -0.484 -33.086  1.00  0.00    -0.026 A 
HETATM   16  C   UNL     1      -3.974  -0.706 -33.373  1.00  0.00     0.012 A 
HETATM   17  C   UNL     1      -5.711  -0.049 -31.796  1.00  0.00    -0.023 A 
HETATM   18  C   UNL     1      -2.997  -0.501 -32.398  1.00  0.00     0.001 A 
HETATM   19  C   UNL     1      -3.366  -0.073 -31.127  1.00  0.00     0.001 A 
HETATM   20  C   UNL     1      -4.713   0.150 -30.827  1.00  0.00     0.012 A 
HETATM   21  C   UNL     1      -7.072   0.178 -31.519  1.00  0.00     0.049 A 
ENDBRANCH  11  12
ENDBRANCH  10  11
ENDBRANCH   7  10
ENDBRANCH   1   6
BRANCH   2  22
HETATM   22  C   UNL     1      -7.710   4.372 -33.592  1.00  0.00     0.732 A 
HETATM   23  N   UNL     1      -6.514   4.420 -34.101  1.00  0.00    -0.067 NA
HETATM   24  C   UNL     1      -5.518   4.148 -33.203  1.00  0.00     0.065 A 
HETATM   25  C   UNL     1      -5.682   3.858 -31.911  1.00  0.00     0.036 A 
HETATM   26  C   UNL     1      -4.073   4.146 -33.573  1.00  0.00     0.061 C 
HETATM   27  C   UNL     1      -4.414   3.612 -31.190  1.00  0.00     0.047 C 
HETATM   28  C   UNL     1      -7.032   3.807 -31.354  1.00  0.00     0.268 A 
HETATM   29  C   UNL     1      -3.420   3.479 -32.351  1.00  0.00     0.011 C 
HETATM   30  O   UNL     1      -7.255   3.548 -30.182  1.00  0.00    -0.267 OA
HETATM   31  N   UNL     1      -8.001   4.079 -32.276  1.00  0.00    -0.152 N 
HETATM   32  H   UNL     1      -8.973   4.066 -31.983  1.00  0.00     0.188 HD
ENDBRANCH   2  22
BRANCH   4  33
HETATM   33  C   UNL     1     -11.085   7.011 -35.841  1.00  0.00     0.035 A 
HETATM   34  S   UNL     1     -12.751   7.310 -35.591  1.00  0.00    -0.100 SA
HETATM   35  C   UNL     1     -12.678   8.801 -36.425  1.00  0.00     0.050 A 
HETATM   36  C   UNL     1     -11.411   9.066 -36.895  1.00  0.00     0.008 A 
HETATM   37  C   UNL     1     -10.490   8.029 -36.559  1.00  0.00     0.022 A 
ENDBRANCH   4  33
TORSDOF 6
ENDMDL
MODEL 7
REMARK VINA RESULT:      -9.2      4.029      7.470
REMARK  6 active torsions:
REMARK  status: ('A' for Active; 'I' for Inactive)
REMARK    1  A    between atoms: C_9  and  O_10 
REMARK    2  A    between atoms: O_10  and  C_11 
REMARK    3  A    between atoms: C_11  and  C_12 
REMARK       I    between atoms: C_12  and  N_13 
REMARK    4  A    between atoms: N_13  and  C_14 
REMARK    5  A    between atoms: N_15  and  C_16 
REMARK    6  A    between atoms: C_27  and  C_28 
ROOT
HETATM    1  C   UNL     1      -5.878   5.666 -31.620  1.00  0.00     0.152 A 
HETATM    2  N   UNL     1      -5.020   6.756 -31.557  1.00  0.00    -0.044 N 
HETATM    3  N   UNL     1      -5.690   7.950 -31.598  1.00  0.00    -0.150 NA
HETATM    4  C   UNL     1      -6.981   7.604 -31.679  1.00  0.00     0.099 A 
HETATM    5  C   UNL     1      -7.143   6.204 -31.726  1.00  0.00     0.086 A 
ENDROOT
BRANCH   1   6
HETATM    6  N   UNL     1      -5.449   4.345 -31.545  1.00  0.00    -0.309 N 
HETATM    7  C   UNL     1      -5.156   3.596 -32.671  1.00  0.00     0.247 C 
HETATM    8  O   UNL     1      -5.101   4.027 -33.823  1.00  0.00    -0.271 OA
HETATM    9  H   UNL     1      -5.358   3.908 -30.623  1.00  0.00     0.170 HD
BRANCH   7  10
HETATM   10  C   UNL     1      -5.023   2.097 -32.412  1.00  0.00     0.278 C 
BRANCH  10  11
HETATM   11  O   UNL     1      -5.818   1.274 -33.254  1.00  0.00    -0.342 OA
BRANCH  11  12
HETATM   12  C   UNL     1      -5.343  -0.006 -33.415  1.00  0.00     0.070 A 
HETATM   13  C   UNL     1      -4.080  -0.452 -33.022  1.00  0.00     0.037 A 
HETATM   14  C   UNL     1      -3.705  -1.784 -33.220  1.00  0.00     0.015 A 
HETATM   15  C   UNL     1      -4.584  -2.695 -33.819  1.00  0.00    -0.026 A 
HETATM   16  C   UNL     1      -4.220  -4.037 -34.010  1.00  0.00     0.012 A 
HETATM   17  C   UNL     1      -5.860  -2.249 -34.234  1.00  0.00    -0.023 A 
HETATM   18  C   UNL     1      -5.105  -4.937 -34.605  1.00  0.00     0.001 A 
HETATM   19  C   UNL     1      -6.362  -4.503 -35.015  1.00  0.00     0.001 A 
HETATM   20  C   UNL     1      -6.737  -3.170 -34.833  1.00  0.00     0.012 A 
HETATM   21  C   UNL     1      -6.219  -0.903 -34.033  1.00  0.00     0.049 A 
ENDBRANCH  11  12
ENDBRANCH  10  11
ENDBRANCH   7  10
ENDBRANCH   1   6
BRANCH   2  22
HETATM   22  C   UNL     1      -3.617   6.771 -31.440  1.00  0.00     0.732 A 
HETATM   23  N   UNL     1      -2.979   6.513 -30.336  1.00  0.00    -0.067 NA
HETATM   24  C   UNL     1      -1.617   6.587 -30.454  1.00  0.00     0.065 A 
HETATM   25  C   UNL     1      -0.939   6.885 -31.563  1.00  0.00     0.036 A 
HETATM   26  C   UNL     1      -0.691   6.331 -29.313  1.00  0.00     0.061 C 
HETATM   27  C   UNL     1       0.530   6.887 -31.383  1.00  0.00     0.047 C 
HETATM   28  C   UNL     1      -1.671   7.173 -32.795  1.00  0.00     0.268 A 
HETATM   29  C   UNL     1       0.651   6.852 -29.854  1.00  0.00     0.011 C 
HETATM   30  O   UNL     1      -1.115   7.454 -33.846  1.00  0.00    -0.267 OA
HETATM   31  N   UNL     1      -3.025   7.094 -32.643  1.00  0.00    -0.152 N 
HETATM   32  H   UNL     1      -3.619   7.280 -33.445  1.00  0.00     0.188 HD
ENDBRANCH   2  22
BRANCH   4  33
HETATM   33  C   UNL     1      -8.080   8.625 -31.686  1.00  0.00     0.035 A 
HETATM   34  S   UNL     1      -7.925  10.205 -32.323  1.00  0.00    -0.100 SA
HETATM   35  C   UNL     1      -9.553  10.584 -31.959  1.00  0.00     0.050 A 
HETATM   36  C   UNL     1     -10.203   9.532 -31.356  1.00  0.00     0.008 A 
HETATM   37  C   UNL     1      -9.350   8.399 -31.195  1.00  0.00     0.022 A 
ENDBRANCH   4  33
TORSDOF 6
ENDMDL
MODEL 8
REMARK VINA RESULT:      -9.1      2.876      9.166
REMARK  6 active torsions:
REMARK  status: ('A' for Active; 'I' for Inactive)
REMARK    1  A    between atoms: C_9  and  O_10 
REMARK    2  A    between atoms: O_10  and  C_11 
REMARK    3  A    between atoms: C_11  and  C_12 
REMARK       I    between atoms: C_12  and  N_13 
REMARK    4  A    between atoms: N_13  and  C_14 
REMARK    5  A    between atoms: N_15  and  C_16 
REMARK    6  A    between atoms: C_27  and  C_28 
ROOT
HETATM    1  C   UNL     1      -6.865   1.656 -33.871  1.00  0.00     0.152 A 
HETATM    2  N   UNL     1      -8.125   1.073 -33.885  1.00  0.00    -0.044 N 
HETATM    3  N   UNL     1      -8.071  -0.281 -34.089  1.00  0.00    -0.150 NA
HETATM    4  C   UNL     1      -6.763  -0.548 -34.195  1.00  0.00     0.099 A 
HETATM    5  C   UNL     1      -5.983   0.621 -34.097  1.00  0.00     0.086 A 
ENDROOT
BRANCH   1   6
HETATM    6  N   UNL     1      -6.647   3.009 -33.631  1.00  0.00    -0.309 N 
HETATM    7  C   UNL     1      -6.259   3.489 -32.392  1.00  0.00     0.247 C 
HETATM    8  O   UNL     1      -5.932   2.797 -31.427  1.00  0.00    -0.271 OA
HETATM    9  H   UNL     1      -6.789   3.674 -34.396  1.00  0.00     0.170 HD
BRANCH   7  10
HETATM   10  C   UNL     1      -6.386   5.002 -32.236  1.00  0.00     0.278 C 
BRANCH  10  11
HETATM   11  O   UNL     1      -5.499   5.761 -33.045  1.00  0.00    -0.342 OA
BRANCH  11  12
HETATM   12  C   UNL     1      -4.403   6.258 -32.380  1.00  0.00     0.070 A 
HETATM   13  C   UNL     1      -4.387   7.426 -31.615  1.00  0.00     0.037 A 
HETATM   14  C   UNL     1      -3.217   7.831 -30.965  1.00  0.00     0.015 A 
HETATM   15  C   UNL     1      -2.040   7.079 -31.071  1.00  0.00    -0.026 A 
HETATM   16  C   UNL     1      -0.865   7.472 -30.412  1.00  0.00     0.012 A 
HETATM   17  C   UNL     1      -2.043   5.903 -31.855  1.00  0.00    -0.023 A 
HETATM   18  C   UNL     1       0.300   6.713 -30.521  1.00  0.00     0.001 A 
HETATM   19  C   UNL     1       0.303   5.555 -31.291  1.00  0.00     0.001 A 
HETATM   20  C   UNL     1      -0.859   5.152 -31.955  1.00  0.00     0.012 A 
HETATM   21  C   UNL     1      -3.228   5.512 -32.508  1.00  0.00     0.049 A 
ENDBRANCH  11  12
ENDBRANCH  10  11
ENDBRANCH   7  10
ENDBRANCH   1   6
BRANCH   2  22
HETATM   22  C   UNL     1      -9.382   1.680 -33.703  1.00  0.00     0.732 A 
HETATM   23  N   UNL     1      -9.661   2.488 -32.722  1.00  0.00    -0.067 NA
HETATM   24  C   UNL     1     -10.946   2.958 -32.741  1.00  0.00     0.065 A 
HETATM   25  C   UNL     1     -11.877   2.665 -33.650  1.00  0.00     0.036 A 
HETATM   26  C   UNL     1     -11.481   3.895 -31.711  1.00  0.00     0.061 C 
HETATM   27  C   UNL     1     -13.177   3.330 -33.408  1.00  0.00     0.047 C 
HETATM   28  C   UNL     1     -11.548   1.756 -34.746  1.00  0.00     0.268 A 
HETATM   29  C   UNL     1     -12.994   3.851 -31.977  1.00  0.00     0.011 C 
HETATM   30  O   UNL     1     -12.351   1.444 -35.612  1.00  0.00    -0.267 OA
HETATM   31  N   UNL     1     -10.261   1.302 -34.695  1.00  0.00    -0.152 N 
HETATM   32  H   UNL     1      -9.940   0.662 -35.415  1.00  0.00     0.188 HD
ENDBRANCH   2  22
BRANCH   4  33
HETATM   33  C   UNL     1      -6.248  -1.947 -34.367  1.00  0.00     0.035 A 
HETATM   34  S   UNL     1      -4.626  -2.418 -34.098  1.00  0.00    -0.100 SA
HETATM   35  C   UNL     1      -4.968  -4.052 -34.469  1.00  0.00     0.050 A 
HETATM   36  C   UNL     1      -6.291  -4.238 -34.801  1.00  0.00     0.008 A 
HETATM   37  C   UNL     1      -7.032  -3.020 -34.744  1.00  0.00     0.022 A 
ENDBRANCH   4  33
TORSDOF 6
ENDMDL
MODEL 9
REMARK VINA RESULT:      -9.1      3.366      8.037
REMARK  6 active torsions:
REMARK  status: ('A' for Active; 'I' for Inactive)
REMARK    1  A    between atoms: C_9  and  O_10 
REMARK    2  A    between atoms: O_10  and  C_11 
REMARK    3  A    between atoms: C_11  and  C_12 
REMARK       I    between atoms: C_12  and  N_13 
REMARK    4  A    between atoms: N_13  and  C_14 
REMARK    5  A    between atoms: N_15  and  C_16 
REMARK    6  A    between atoms: C_27  and  C_28 
ROOT
HETATM    1  C   UNL     1      -7.964   3.516 -33.734  1.00  0.00     0.152 A 
HETATM    2  N   UNL     1      -7.510   4.826 -33.822  1.00  0.00    -0.044 N 
HETATM    3  N   UNL     1      -8.486   5.689 -34.246  1.00  0.00    -0.150 NA
HETATM    4  C   UNL     1      -9.564   4.914 -34.416  1.00  0.00     0.099 A 
HETATM    5  C   UNL     1      -9.281   3.560 -34.141  1.00  0.00     0.086 A 
ENDROOT
BRANCH   1   6
HETATM    6  N   UNL     1      -7.182   2.460 -33.280  1.00  0.00    -0.309 N 
HETATM    7  C   UNL     1      -6.897   2.272 -31.938  1.00  0.00     0.247 C 
HETATM    8  O   UNL     1      -7.396   2.902 -31.006  1.00  0.00    -0.271 OA
HETATM    9  H   UNL     1      -6.793   1.805 -33.964  1.00  0.00     0.170 HD
BRANCH   7  10
HETATM   10  C   UNL     1      -5.774   1.273 -31.668  1.00  0.00     0.278 C 
BRANCH  10  11
HETATM   11  O   UNL     1      -4.972   0.960 -32.797  1.00  0.00    -0.342 OA
BRANCH  11  12
HETATM   12  C   UNL     1      -5.222  -0.273 -33.353  1.00  0.00     0.070 A 
HETATM   13  C   UNL     1      -6.268  -0.563 -34.231  1.00  0.00     0.037 A 
HETATM   14  C   UNL     1      -6.420  -1.852 -34.750  1.00  0.00     0.015 A 
HETATM   15  C   UNL     1      -5.532  -2.876 -34.398  1.00  0.00    -0.026 A 
HETATM   16  C   UNL     1      -5.671  -4.170 -34.925  1.00  0.00     0.012 A 
HETATM   17  C   UNL     1      -4.479  -2.595 -33.498  1.00  0.00    -0.023 A 
HETATM   18  C   UNL     1      -4.778  -5.182 -34.571  1.00  0.00     0.001 A 
HETATM   19  C   UNL     1      -3.740  -4.911 -33.686  1.00  0.00     0.001 A 
HETATM   20  C   UNL     1      -3.591  -3.628 -33.152  1.00  0.00     0.012 A 
HETATM   21  C   UNL     1      -4.343  -1.294 -32.980  1.00  0.00     0.049 A 
ENDBRANCH  11  12
ENDBRANCH  10  11
ENDBRANCH   7  10
ENDBRANCH   1   6
BRANCH   2  22
HETATM   22  C   UNL     1      -6.235   5.340 -33.522  1.00  0.00     0.732 A 
HETATM   23  N   UNL     1      -5.976   6.073 -32.478  1.00  0.00    -0.067 NA
HETATM   24  C   UNL     1      -4.668   6.465 -32.387  1.00  0.00     0.065 A 
HETATM   25  C   UNL     1      -3.694   6.159 -33.245  1.00  0.00     0.036 A 
HETATM   26  C   UNL     1      -4.152   7.311 -31.272  1.00  0.00     0.061 C 
HETATM   27  C   UNL     1      -2.377   6.727 -32.881  1.00  0.00     0.047 C 
HETATM   28  C   UNL     1      -4.001   5.336 -34.413  1.00  0.00     0.268 A 
HETATM   29  C   UNL     1      -2.768   7.733 -31.790  1.00  0.00     0.011 C 
HETATM   30  O   UNL     1      -3.159   5.018 -35.240  1.00  0.00    -0.267 OA
HETATM   31  N   UNL     1      -5.313   4.966 -34.476  1.00  0.00    -0.152 N 
HETATM   32  H   UNL     1      -5.623   4.392 -35.255  1.00  0.00     0.188 HD
ENDBRANCH   2  22
BRANCH   4  33
HETATM   33  C   UNL     1     -10.894   5.477 -34.823  1.00  0.00     0.035 A 
HETATM   34  S   UNL     1     -11.207   7.144 -35.045  1.00  0.00    -0.100 SA
HETATM   35  C   UNL     1     -12.828   6.846 -35.504  1.00  0.00     0.050 A 
HETATM   36  C   UNL     1     -13.131   5.503 -35.481  1.00  0.00     0.008 A 
HETATM   37  C   UNL     1     -12.012   4.711 -35.085  1.00  0.00     0.022 A 
ENDBRANCH   4  33
TORSDOF 6
ENDMDL
MODEL 10
REMARK VINA RESULT:      -9.1      3.714      8.389
REMARK  6 active torsions:
REMARK  status: ('A' for Active; 'I' for Inactive)
REMARK    1  A    between atoms: C_9  and  O_10 
REMARK    2  A    between atoms: O_10  and  C_11 
REMARK    3  A    between atoms: C_11  and  C_12 
REMARK       I    between atoms: C_12  and  N_13 
REMARK    4  A    between atoms: N_13  and  C_14 
REMARK    5  A    between atoms: N_15  and  C_16 
REMARK    6  A    between atoms: C_27  and  C_28 
ROOT
HETATM    1  C   UNL     1     -10.165   3.979 -34.873  1.00  0.00     0.152 A 
HETATM    2  N   UNL     1      -9.489   5.130 -34.488  1.00  0.00    -0.044 N 
HETATM    3  N   UNL     1     -10.205   6.268 -34.753  1.00  0.00    -0.150 NA
HETATM    4  C   UNL     1     -11.343   5.824 -35.301  1.00  0.00     0.099 A 
HETATM    5  C   UNL     1     -11.350   4.420 -35.423  1.00  0.00     0.086 A 
ENDROOT
BRANCH   1   6
HETATM    6  N   UNL     1      -9.675   2.694 -34.666  1.00  0.00    -0.309 N 
HETATM    7  C   UNL     1      -9.936   1.979 -33.509  1.00  0.00     0.247 C 
HETATM    8  O   UNL     1     -10.719   2.316 -32.621  1.00  0.00    -0.271 OA
HETATM    9  H   UNL     1      -9.090   2.267 -35.389  1.00  0.00     0.170 HD
BRANCH   7  10
HETATM   10  C   UNL     1      -9.059   0.743 -33.323  1.00  0.00     0.278 C 
BRANCH  10  11
HETATM   11  O   UNL     1      -8.467   0.248 -34.516  1.00  0.00    -0.342 OA
BRANCH  11  12
HETATM   12  C   UNL     1      -7.336  -0.509 -34.321  1.00  0.00     0.070 A 
HETATM   13  C   UNL     1      -6.134  -0.038 -33.789  1.00  0.00     0.037 A 
HETATM   14  C   UNL     1      -5.048  -0.902 -33.619  1.00  0.00     0.015 A 
HETATM   15  C   UNL     1      -5.141  -2.252 -33.982  1.00  0.00    -0.026 A 
HETATM   16  C   UNL     1      -4.060  -3.128 -33.802  1.00  0.00     0.012 A 
HETATM   17  C   UNL     1      -6.349  -2.734 -34.535  1.00  0.00    -0.023 A 
HETATM   18  C   UNL     1      -4.165  -4.471 -34.163  1.00  0.00     0.001 A 
HETATM   19  C   UNL     1      -5.351  -4.951 -34.708  1.00  0.00     0.001 A 
HETATM   20  C   UNL     1      -6.436  -4.090 -34.895  1.00  0.00     0.012 A 
HETATM   21  C   UNL     1      -7.431  -1.850 -34.705  1.00  0.00     0.049 A 
ENDBRANCH  11  12
ENDBRANCH  10  11
ENDBRANCH   7  10
ENDBRANCH   1   6
BRANCH   2  22
HETATM   22  C   UNL     1      -8.230   5.250 -33.871  1.00  0.00     0.732 A 
HETATM   23  N   UNL     1      -7.264   4.391 -34.021  1.00  0.00    -0.067 NA
HETATM   24  C   UNL     1      -6.129   4.708 -33.325  1.00  0.00     0.065 A 
HETATM   25  C   UNL     1      -5.954   5.780 -32.552  1.00  0.00     0.036 A 
HETATM   26  C   UNL     1      -4.900   3.862 -33.352  1.00  0.00     0.061 C 
HETATM   27  C   UNL     1      -4.614   5.855 -31.929  1.00  0.00     0.047 C 
HETATM   28  C   UNL     1      -7.049   6.736 -32.394  1.00  0.00     0.268 A 
HETATM   29  C   UNL     1      -4.073   4.444 -32.195  1.00  0.00     0.011 C 
HETATM   30  O   UNL     1      -6.958   7.738 -31.701  1.00  0.00    -0.267 OA
HETATM   31  N   UNL     1      -8.166   6.388 -33.096  1.00  0.00    -0.152 N 
HETATM   32  H   UNL     1      -8.982   6.991 -33.047  1.00  0.00     0.188 HD
ENDBRANCH   2  22
BRANCH   4  33
HETATM   33  C   UNL     1     -12.453   6.755 -35.692  1.00  0.00     0.035 A 
HETATM   34  S   UNL     1     -12.224   8.378 -36.180  1.00  0.00    -0.100 SA
HETATM   35  C   UNL     1     -13.899   8.605 -36.444  1.00  0.00     0.050 A 
HETATM   36  C   UNL     1     -14.624   7.470 -36.158  1.00  0.00     0.008 A 
HETATM   37  C   UNL     1     -13.787   6.399 -35.721  1.00  0.00     0.022 A 
ENDBRANCH   4  33
TORSDOF 6
ENDMDL
