MODEL 1
REMARK VINA RESULT:      -7.9      0.000      0.000
REMARK  2 active torsions:
REMARK  status: ('A' for Active; 'I' for Inactive)
REMARK    1  A    between atoms: C_5  and  C_6 
REMARK    2  A    between atoms: C_15  and  C_16 
ROOT
HETATM    1  C   UNL     1      -8.245   3.692 -32.914  1.00  0.00     0.190 A 
HETATM    2  N   UNL     1      -8.740   3.956 -31.587  1.00  0.00    -0.308 N 
HETATM    3  C   UNL     1      -9.664   3.021 -31.187  1.00  0.00     0.320 A 
HETATM    4  O   UNL     1     -10.296   3.058 -30.148  1.00  0.00    -0.247 OA
HETATM    5  N   UNL     1      -9.762   2.032 -32.137  1.00  0.00    -0.308 N 
HETATM    6  N   UNL     1      -8.892   4.609 -33.817  1.00  0.00    -0.308 N 
HETATM    7  C   UNL     1      -9.799   3.980 -34.634  1.00  0.00     0.320 A 
HETATM    8  O   UNL     1     -10.505   4.534 -35.457  1.00  0.00    -0.247 OA
HETATM    9  N   UNL     1      -9.783   2.629 -34.388  1.00  0.00    -0.308 N 
HETATM   10  C   UNL     1      -8.925   2.293 -33.282  1.00  0.00     0.190 A 
HETATM   11  H   UNL     1      -8.604   4.812 -31.075  1.00  0.00     0.167 HD
HETATM   12  H   UNL     1     -10.435   1.286 -32.062  1.00  0.00     0.167 HD
HETATM   13  H   UNL     1      -8.800   5.613 -33.797  1.00  0.00     0.167 HD
HETATM   14  H   UNL     1     -10.454   2.009 -34.813  1.00  0.00     0.167 HD
ENDROOT
BRANCH   1  15
HETATM   15  C   UNL     1      -6.728   3.782 -32.992  1.00  0.00    -0.005 A 
HETATM   16  C   UNL     1      -6.090   4.319 -34.125  1.00  0.00     0.012 A 
HETATM   17  C   UNL     1      -4.699   4.452 -34.178  1.00  0.00     0.007 A 
HETATM   18  C   UNL     1      -3.905   4.048 -33.103  1.00  0.00    -0.062 A 
HETATM   19  C   UNL     1      -2.417   4.224 -33.134  1.00  0.00     0.048 C 
HETATM   20  C   UNL     1      -4.525   3.523 -31.966  1.00  0.00     0.007 A 
HETATM   21  C   UNL     1      -5.916   3.392 -31.911  1.00  0.00     0.012 A 
ENDBRANCH   1  15
BRANCH  10  22
HETATM   22  C   UNL     1      -8.004   1.122 -33.597  1.00  0.00    -0.005 A 
HETATM   23  C   UNL     1      -7.687   0.779 -34.924  1.00  0.00     0.012 A 
HETATM   24  C   UNL     1      -6.885  -0.328 -35.215  1.00  0.00     0.007 A 
HETATM   25  C   UNL     1      -6.378  -1.127 -34.186  1.00  0.00    -0.062 A 
HETATM   26  C   UNL     1      -5.535  -2.330 -34.486  1.00  0.00     0.048 C 
HETATM   27  C   UNL     1      -6.689  -0.801 -32.863  1.00  0.00     0.007 A 
HETATM   28  C   UNL     1      -7.491   0.306 -32.572  1.00  0.00     0.012 A 
ENDBRANCH  10  22
TORSDOF 2
ENDMDL
MODEL 2
REMARK VINA RESULT:      -7.9      0.031      4.727
REMARK  2 active torsions:
REMARK  status: ('A' for Active; 'I' for Inactive)
REMARK    1  A    between atoms: C_5  and  C_6 
REMARK    2  A    between atoms: C_15  and  C_16 
ROOT
HETATM    1  C   UNL     1      -8.933   2.269 -33.275  1.00  0.00     0.190 A 
HETATM    2  N   UNL     1      -9.799   2.596 -34.379  1.00  0.00    -0.308 N 
HETATM    3  C   UNL     1      -9.822   3.945 -34.633  1.00  0.00     0.320 A 
HETATM    4  O   UNL     1     -10.534   4.493 -35.454  1.00  0.00    -0.247 OA
HETATM    5  N   UNL     1      -8.914   4.584 -33.822  1.00  0.00    -0.308 N 
HETATM    6  N   UNL     1      -9.762   2.011 -32.125  1.00  0.00    -0.308 N 
HETATM    7  C   UNL     1      -9.665   3.004 -31.182  1.00  0.00     0.320 A 
HETATM    8  O   UNL     1     -10.291   3.045 -30.139  1.00  0.00    -0.247 OA
HETATM    9  N   UNL     1      -8.747   3.941 -31.591  1.00  0.00    -0.308 N 
HETATM   10  C   UNL     1      -8.258   3.674 -32.918  1.00  0.00     0.190 A 
HETATM   11  H   UNL     1     -10.468   1.971 -34.798  1.00  0.00     0.167 HD
HETATM   12  H   UNL     1      -8.826   5.587 -33.809  1.00  0.00     0.167 HD
HETATM   13  H   UNL     1     -10.433   1.262 -32.043  1.00  0.00     0.167 HD
HETATM   14  H   UNL     1      -8.613   4.802 -31.084  1.00  0.00     0.167 HD
ENDROOT
BRANCH   1  15
HETATM   15  C   UNL     1      -8.009   1.102 -33.592  1.00  0.00    -0.005 A 
HETATM   16  C   UNL     1      -7.483   0.294 -32.567  1.00  0.00     0.012 A 
HETATM   17  C   UNL     1      -6.678  -0.812 -32.858  1.00  0.00     0.007 A 
HETATM   18  C   UNL     1      -6.370  -1.138 -34.180  1.00  0.00    -0.062 A 
HETATM   19  C   UNL     1      -5.540  -2.344 -34.504  1.00  0.00     0.048 C 
HETATM   20  C   UNL     1      -6.893  -0.351 -35.210  1.00  0.00     0.007 A 
HETATM   21  C   UNL     1      -7.701   0.753 -34.920  1.00  0.00     0.012 A 
ENDBRANCH   1  15
BRANCH  10  22
HETATM   22  C   UNL     1      -6.742   3.770 -33.007  1.00  0.00    -0.005 A 
HETATM   23  C   UNL     1      -5.920   3.376 -31.935  1.00  0.00     0.012 A 
HETATM   24  C   UNL     1      -4.530   3.515 -31.997  1.00  0.00     0.007 A 
HETATM   25  C   UNL     1      -3.921   4.056 -33.133  1.00  0.00    -0.062 A 
HETATM   26  C   UNL     1      -2.434   4.231 -33.203  1.00  0.00     0.048 C 
HETATM   27  C   UNL     1      -4.725   4.457 -34.203  1.00  0.00     0.007 A 
HETATM   28  C   UNL     1      -6.114   4.318 -34.142  1.00  0.00     0.012 A 
ENDBRANCH  10  22
TORSDOF 2
ENDMDL
MODEL 3
REMARK VINA RESULT:      -7.9      2.364      4.732
REMARK  2 active torsions:
REMARK  status: ('A' for Active; 'I' for Inactive)
REMARK    1  A    between atoms: C_5  and  C_6 
REMARK    2  A    between atoms: C_15  and  C_16 
ROOT
HETATM    1  C   UNL     1      -5.842   2.432 -32.842  1.00  0.00     0.190 A 
HETATM    2  N   UNL     1      -5.245   2.448 -31.531  1.00  0.00    -0.308 N 
HETATM    3  C   UNL     1      -5.911   3.288 -30.672  1.00  0.00     0.320 A 
HETATM    4  O   UNL     1      -5.565   3.548 -29.535  1.00  0.00    -0.247 OA
HETATM    5  N   UNL     1      -7.033   3.787 -31.291  1.00  0.00    -0.308 N 
HETATM    6  N   UNL     1      -5.019   3.234 -33.711  1.00  0.00    -0.308 N 
HETATM    7  C   UNL     1      -5.629   4.415 -34.059  1.00  0.00     0.320 A 
HETATM    8  O   UNL     1      -5.131   5.285 -34.751  1.00  0.00    -0.247 OA
HETATM    9  N   UNL     1      -6.889   4.462 -33.514  1.00  0.00    -0.308 N 
HETATM   10  C   UNL     1      -7.147   3.337 -32.655  1.00  0.00     0.190 A 
HETATM   11  H   UNL     1      -4.343   2.067 -31.298  1.00  0.00     0.167 HD
HETATM   12  H   UNL     1      -7.623   4.475 -30.850  1.00  0.00     0.167 HD
HETATM   13  H   UNL     1      -4.062   3.037 -33.958  1.00  0.00     0.167 HD
HETATM   14  H   UNL     1      -7.454   5.295 -33.568  1.00  0.00     0.167 HD
ENDROOT
BRANCH   1  15
HETATM   15  C   UNL     1      -6.033   1.019 -33.373  1.00  0.00    -0.005 A 
HETATM   16  C   UNL     1      -5.739  -0.102 -32.576  1.00  0.00     0.012 A 
HETATM   17  C   UNL     1      -5.964  -1.401 -33.042  1.00  0.00     0.007 A 
HETATM   18  C   UNL     1      -6.485  -1.617 -34.319  1.00  0.00    -0.062 A 
HETATM   19  C   UNL     1      -6.767  -3.004 -34.812  1.00  0.00     0.048 C 
HETATM   20  C   UNL     1      -6.792  -0.513 -35.119  1.00  0.00     0.007 A 
HETATM   21  C   UNL     1      -6.570   0.786 -34.653  1.00  0.00     0.012 A 
ENDBRANCH   1  15
BRANCH  10  22
HETATM   22  C   UNL     1      -8.498   2.692 -32.935  1.00  0.00    -0.005 A 
HETATM   23  C   UNL     1      -8.973   1.624 -32.153  1.00  0.00     0.012 A 
HETATM   24  C   UNL     1     -10.189   0.998 -32.443  1.00  0.00     0.007 A 
HETATM   25  C   UNL     1     -10.964   1.420 -33.527  1.00  0.00    -0.062 A 
HETATM   26  C   UNL     1     -12.258   0.742 -33.862  1.00  0.00     0.048 C 
HETATM   27  C   UNL     1     -10.501   2.477 -34.316  1.00  0.00     0.007 A 
HETATM   28  C   UNL     1      -9.287   3.103 -34.025  1.00  0.00     0.012 A 
ENDBRANCH  10  22
TORSDOF 2
ENDMDL
MODEL 4
REMARK VINA RESULT:      -7.8      2.128      4.878
REMARK  2 active torsions:
REMARK  status: ('A' for Active; 'I' for Inactive)
REMARK    1  A    between atoms: C_5  and  C_6 
REMARK    2  A    between atoms: C_15  and  C_16 
ROOT
HETATM    1  C   UNL     1      -7.837   3.551 -32.835  1.00  0.00     0.190 A 
HETATM    2  N   UNL     1      -7.395   4.667 -33.631  1.00  0.00    -0.308 N 
HETATM    3  C   UNL     1      -6.051   4.603 -33.905  1.00  0.00     0.320 A 
HETATM    4  O   UNL     1      -5.411   5.460 -34.486  1.00  0.00    -0.247 OA
HETATM    5  N   UNL     1      -5.538   3.420 -33.429  1.00  0.00    -0.308 N 
HETATM    6  N   UNL     1      -8.001   4.013 -31.480  1.00  0.00    -0.308 N 
HETATM    7  C   UNL     1      -7.036   3.511 -30.640  1.00  0.00     0.320 A 
HETATM    8  O   UNL     1      -6.927   3.779 -29.457  1.00  0.00    -0.247 OA
HETATM    9  N   UNL     1      -6.217   2.657 -31.337  1.00  0.00    -0.308 N 
HETATM   10  C   UNL     1      -6.531   2.634 -32.741  1.00  0.00     0.190 A 
HETATM   11  H   UNL     1      -7.928   5.503 -33.807  1.00  0.00     0.167 HD
HETATM   12  H   UNL     1      -4.553   3.211 -33.472  1.00  0.00     0.167 HD
HETATM   13  H   UNL     1      -8.661   4.711 -31.175  1.00  0.00     0.167 HD
HETATM   14  H   UNL     1      -5.384   2.270 -30.920  1.00  0.00     0.167 HD
ENDROOT
BRANCH   1  15
HETATM   15  C   UNL     1      -9.107   2.917 -33.383  1.00  0.00    -0.005 A 
HETATM   16  C   UNL     1      -9.702   1.813 -32.745  1.00  0.00     0.012 A 
HETATM   17  C   UNL     1     -10.898   1.263 -33.215  1.00  0.00     0.007 A 
HETATM   18  C   UNL     1     -11.531   1.795 -34.341  1.00  0.00    -0.062 A 
HETATM   19  C   UNL     1     -12.834   1.237 -34.829  1.00  0.00     0.048 C 
HETATM   20  C   UNL     1     -10.958   2.898 -34.980  1.00  0.00     0.007 A 
HETATM   21  C   UNL     1      -9.764   3.451 -34.508  1.00  0.00     0.012 A 
ENDBRANCH   1  15
BRANCH  10  22
HETATM   22  C   UNL     1      -6.623   1.218 -33.292  1.00  0.00    -0.005 A 
HETATM   23  C   UNL     1      -6.462   0.097 -32.456  1.00  0.00     0.012 A 
HETATM   24  C   UNL     1      -6.493  -1.202 -32.971  1.00  0.00     0.007 A 
HETATM   25  C   UNL     1      -6.683  -1.419 -34.339  1.00  0.00    -0.062 A 
HETATM   26  C   UNL     1      -6.696  -2.806 -34.906  1.00  0.00     0.048 C 
HETATM   27  C   UNL     1      -6.839  -0.315 -35.182  1.00  0.00     0.007 A 
HETATM   28  C   UNL     1      -6.808   0.983 -34.667  1.00  0.00     0.012 A 
ENDBRANCH  10  22
TORSDOF 2
ENDMDL
MODEL 5
REMARK VINA RESULT:      -7.5     16.180     18.440
REMARK  2 active torsions:
REMARK  status: ('A' for Active; 'I' for Inactive)
REMARK    1  A    between atoms: C_5  and  C_6 
REMARK    2  A    between atoms: C_15  and  C_16 
ROOT
HETATM    1  C   UNL     1      -4.421 -14.312 -39.051  1.00  0.00     0.190 A 
HETATM    2  N   UNL     1      -4.045 -15.390 -38.173  1.00  0.00    -0.308 N 
HETATM    3  C   UNL     1      -4.612 -15.262 -36.929  1.00  0.00     0.320 A 
HETATM    4  O   UNL     1      -4.390 -15.989 -35.978  1.00  0.00    -0.247 OA
HETATM    5  N   UNL     1      -5.471 -14.190 -36.920  1.00  0.00    -0.308 N 
HETATM    6  N   UNL     1      -3.306 -13.403 -39.136  1.00  0.00    -0.308 N 
HETATM    7  C   UNL     1      -3.552 -12.218 -38.488  1.00  0.00     0.320 A 
HETATM    8  O   UNL     1      -2.760 -11.300 -38.378  1.00  0.00    -0.247 OA
HETATM    9  N   UNL     1      -4.832 -12.222 -37.987  1.00  0.00    -0.308 N 
HETATM   10  C   UNL     1      -5.482 -13.491 -38.181  1.00  0.00     0.190 A 
HETATM   11  H   UNL     1      -3.307 -16.053 -38.349  1.00  0.00     0.167 HD
HETATM   12  H   UNL     1      -5.938 -13.888 -36.080  1.00  0.00     0.167 HD
HETATM   13  H   UNL     1      -2.398 -13.624 -39.516  1.00  0.00     0.167 HD
HETATM   14  H   UNL     1      -5.164 -11.484 -37.388  1.00  0.00     0.167 HD
ENDROOT
BRANCH   1  15
HETATM   15  C   UNL     1      -4.864 -14.809 -40.420  1.00  0.00    -0.005 A 
HETATM   16  C   UNL     1      -4.555 -14.089 -41.588  1.00  0.00     0.012 A 
HETATM   17  C   UNL     1      -4.913 -14.571 -42.851  1.00  0.00     0.007 A 
HETATM   18  C   UNL     1      -5.595 -15.783 -42.982  1.00  0.00    -0.062 A 
HETATM   19  C   UNL     1      -5.948 -16.326 -44.334  1.00  0.00     0.048 C 
HETATM   20  C   UNL     1      -5.900 -16.514 -41.831  1.00  0.00     0.007 A 
HETATM   21  C   UNL     1      -5.539 -16.035 -40.569  1.00  0.00     0.012 A 
ENDBRANCH   1  15
BRANCH  10  22
HETATM   22  C   UNL     1      -6.889 -13.342 -38.742  1.00  0.00    -0.005 A 
HETATM   23  C   UNL     1      -7.175 -12.414 -39.760  1.00  0.00     0.012 A 
HETATM   24  C   UNL     1      -8.477 -12.239 -40.238  1.00  0.00     0.007 A 
HETATM   25  C   UNL     1      -9.533 -12.986 -39.709  1.00  0.00    -0.062 A 
HETATM   26  C   UNL     1     -10.937 -12.792 -40.197  1.00  0.00     0.048 C 
HETATM   27  C   UNL     1      -9.265 -13.909 -38.693  1.00  0.00     0.007 A 
HETATM   28  C   UNL     1      -7.963 -14.083 -38.216  1.00  0.00     0.012 A 
ENDBRANCH  10  22
TORSDOF 2
ENDMDL
MODEL 6
REMARK VINA RESULT:      -7.5     16.236     18.406
REMARK  2 active torsions:
REMARK  status: ('A' for Active; 'I' for Inactive)
REMARK    1  A    between atoms: C_5  and  C_6 
REMARK    2  A    between atoms: C_15  and  C_16 
ROOT
HETATM    1  C   UNL     1      -5.530 -13.496 -38.054  1.00  0.00     0.190 A 
HETATM    2  N   UNL     1      -4.807 -12.262 -37.889  1.00  0.00    -0.308 N 
HETATM    3  C   UNL     1      -3.537 -12.336 -38.407  1.00  0.00     0.320 A 
HETATM    4  O   UNL     1      -2.693 -11.463 -38.325  1.00  0.00    -0.247 OA
HETATM    5  N   UNL     1      -3.366 -13.544 -39.039  1.00  0.00    -0.308 N 
HETATM    6  N   UNL     1      -5.540 -14.175 -36.783  1.00  0.00    -0.308 N 
HETATM    7  C   UNL     1      -4.741 -15.291 -36.784  1.00  0.00     0.320 A 
HETATM    8  O   UNL     1      -4.545 -16.016 -35.825  1.00  0.00    -0.247 OA
HETATM    9  N   UNL     1      -4.200 -15.471 -38.034  1.00  0.00    -0.308 N 
HETATM   10  C   UNL     1      -4.528 -14.388 -38.924  1.00  0.00     0.190 A 
HETATM   11  H   UNL     1      -5.090 -11.496 -37.299  1.00  0.00     0.167 HD
HETATM   12  H   UNL     1      -2.478 -13.820 -39.428  1.00  0.00     0.167 HD
HETATM   13  H   UNL     1      -5.976 -13.833 -35.940  1.00  0.00     0.167 HD
HETATM   14  H   UNL     1      -3.502 -16.176 -38.208  1.00  0.00     0.167 HD
ENDROOT
BRANCH   1  15
HETATM   15  C   UNL     1      -6.934 -13.276 -38.599  1.00  0.00    -0.005 A 
HETATM   16  C   UNL     1      -7.163 -12.416 -39.688  1.00  0.00     0.012 A 
HETATM   17  C   UNL     1      -8.443 -12.253 -40.226  1.00  0.00     0.007 A 
HETATM   18  C   UNL     1      -9.532 -12.942 -39.688  1.00  0.00    -0.062 A 
HETATM   19  C   UNL     1     -10.901 -12.805 -40.283  1.00  0.00     0.048 C 
HETATM   20  C   UNL     1      -9.319 -13.809 -38.613  1.00  0.00     0.007 A 
HETATM   21  C   UNL     1      -8.039 -13.974 -38.077  1.00  0.00     0.012 A 
ENDBRANCH   1  15
BRANCH  10  22
HETATM   22  C   UNL     1      -5.016 -14.880 -40.279  1.00  0.00    -0.005 A 
HETATM   23  C   UNL     1      -5.780 -16.056 -40.398  1.00  0.00     0.012 A 
HETATM   24  C   UNL     1      -6.183 -16.535 -41.648  1.00  0.00     0.007 A 
HETATM   25  C   UNL     1      -5.831 -15.854 -42.816  1.00  0.00    -0.062 A 
HETATM   26  C   UNL     1      -6.238 -16.370 -44.164  1.00  0.00     0.048 C 
HETATM   27  C   UNL     1      -5.068 -14.687 -42.714  1.00  0.00     0.007 A 
HETATM   28  C   UNL     1      -4.666 -14.208 -41.465  1.00  0.00     0.012 A 
ENDBRANCH  10  22
TORSDOF 2
ENDMDL
MODEL 7
REMARK VINA RESULT:      -7.2     16.251     18.058
REMARK  2 active torsions:
REMARK  status: ('A' for Active; 'I' for Inactive)
REMARK    1  A    between atoms: C_5  and  C_6 
REMARK    2  A    between atoms: C_15  and  C_16 
ROOT
HETATM    1  C   UNL     1      -3.918 -14.245 -37.577  1.00  0.00     0.190 A 
HETATM    2  N   UNL     1      -3.021 -13.155 -37.291  1.00  0.00    -0.308 N 
HETATM    3  C   UNL     1      -2.944 -12.265 -38.333  1.00  0.00     0.320 A 
HETATM    4  O   UNL     1      -2.198 -11.304 -38.383  1.00  0.00    -0.247 OA
HETATM    5  N   UNL     1      -3.842 -12.619 -39.312  1.00  0.00    -0.308 N 
HETATM    6  N   UNL     1      -3.120 -15.398 -37.907  1.00  0.00    -0.308 N 
HETATM    7  C   UNL     1      -3.198 -15.719 -39.240  1.00  0.00     0.320 A 
HETATM    8  O   UNL     1      -2.589 -16.624 -39.781  1.00  0.00    -0.247 OA
HETATM    9  N   UNL     1      -4.073 -14.867 -39.870  1.00  0.00    -0.308 N 
HETATM   10  C   UNL     1      -4.547 -13.834 -38.988  1.00  0.00     0.190 A 
HETATM   11  H   UNL     1      -2.368 -13.125 -36.525  1.00  0.00     0.167 HD
HETATM   12  H   UNL     1      -3.893 -12.129 -40.190  1.00  0.00     0.167 HD
HETATM   13  H   UNL     1      -2.479 -15.865 -37.284  1.00  0.00     0.167 HD
HETATM   14  H   UNL     1      -4.184 -14.875 -40.872  1.00  0.00     0.167 HD
ENDROOT
BRANCH   1  15
HETATM   15  C   UNL     1      -4.879 -14.520 -36.429  1.00  0.00    -0.005 A 
HETATM   16  C   UNL     1      -5.528 -15.762 -36.308  1.00  0.00     0.012 A 
HETATM   17  C   UNL     1      -6.369 -16.037 -35.225  1.00  0.00     0.007 A 
HETATM   18  C   UNL     1      -6.590 -15.076 -34.236  1.00  0.00    -0.062 A 
HETATM   19  C   UNL     1      -7.459 -15.375 -33.051  1.00  0.00     0.048 C 
HETATM   20  C   UNL     1      -5.945 -13.841 -34.337  1.00  0.00     0.007 A 
HETATM   21  C   UNL     1      -5.101 -13.567 -35.418  1.00  0.00     0.012 A 
ENDBRANCH   1  15
BRANCH  10  22
HETATM   22  C   UNL     1      -6.057 -13.657 -39.063  1.00  0.00    -0.005 A 
HETATM   23  C   UNL     1      -6.884 -14.656 -39.608  1.00  0.00     0.012 A 
HETATM   24  C   UNL     1      -8.265 -14.472 -39.724  1.00  0.00     0.007 A 
HETATM   25  C   UNL     1      -8.859 -13.279 -39.303  1.00  0.00    -0.062 A 
HETATM   26  C   UNL     1     -10.336 -13.060 -39.444  1.00  0.00     0.048 C 
HETATM   27  C   UNL     1      -8.050 -12.275 -38.764  1.00  0.00     0.007 A 
HETATM   28  C   UNL     1      -6.670 -12.460 -38.647  1.00  0.00     0.012 A 
ENDBRANCH  10  22
TORSDOF 2
ENDMDL
MODEL 8
REMARK VINA RESULT:      -7.2     16.283     18.103
REMARK  2 active torsions:
REMARK  status: ('A' for Active; 'I' for Inactive)
REMARK    1  A    between atoms: C_5  and  C_6 
REMARK    2  A    between atoms: C_15  and  C_16 
ROOT
HETATM    1  C   UNL     1      -4.375 -13.837 -39.003  1.00  0.00     0.190 A 
HETATM    2  N   UNL     1      -3.900 -14.887 -39.866  1.00  0.00    -0.308 N 
HETATM    3  C   UNL     1      -3.059 -15.752 -39.209  1.00  0.00     0.320 A 
HETATM    4  O   UNL     1      -2.456 -16.674 -39.727  1.00  0.00    -0.247 OA
HETATM    5  N   UNL     1      -3.007 -15.423 -37.876  1.00  0.00    -0.308 N 
HETATM    6  N   UNL     1      -3.637 -12.640 -39.317  1.00  0.00    -0.308 N 
HETATM    7  C   UNL     1      -2.756 -12.297 -38.321  1.00  0.00     0.320 A 
HETATM    8  O   UNL     1      -1.988 -11.353 -38.357  1.00  0.00    -0.247 OA
HETATM    9  N   UNL     1      -2.878 -13.177 -37.273  1.00  0.00    -0.308 N 
HETATM   10  C   UNL     1      -3.789 -14.250 -37.574  1.00  0.00     0.190 A 
HETATM   11  H   UNL     1      -3.988 -14.900 -40.869  1.00  0.00     0.167 HD
HETATM   12  H   UNL     1      -2.393 -15.897 -37.234  1.00  0.00     0.167 HD
HETATM   13  H   UNL     1      -3.656 -12.155 -40.201  1.00  0.00     0.167 HD
HETATM   14  H   UNL     1      -2.242 -13.156 -36.492  1.00  0.00     0.167 HD
ENDROOT
BRANCH   1  15
HETATM   15  C   UNL     1      -5.879 -13.631 -39.116  1.00  0.00    -0.005 A 
HETATM   16  C   UNL     1      -6.710 -14.631 -39.653  1.00  0.00     0.012 A 
HETATM   17  C   UNL     1      -8.097 -14.468 -39.709  1.00  0.00     0.007 A 
HETATM   18  C   UNL     1      -8.694 -13.297 -39.234  1.00  0.00    -0.062 A 
HETATM   19  C   UNL     1     -10.183 -13.129 -39.253  1.00  0.00     0.048 C 
HETATM   20  C   UNL     1      -7.883 -12.299 -38.688  1.00  0.00     0.007 A 
HETATM   21  C   UNL     1      -6.496 -12.464 -38.630  1.00  0.00     0.012 A 
ENDBRANCH   1  15
BRANCH  10  22
HETATM   22  C   UNL     1      -4.784 -14.499 -36.449  1.00  0.00    -0.005 A 
HETATM   23  C   UNL     1      -5.006 -13.538 -35.445  1.00  0.00     0.012 A 
HETATM   24  C   UNL     1      -5.880 -13.788 -34.383  1.00  0.00     0.007 A 
HETATM   25  C   UNL     1      -6.555 -15.009 -34.291  1.00  0.00    -0.062 A 
HETATM   26  C   UNL     1      -7.476 -15.298 -33.145  1.00  0.00     0.048 C 
HETATM   27  C   UNL     1      -6.339 -15.975 -35.279  1.00  0.00     0.007 A 
HETATM   28  C   UNL     1      -5.466 -15.725 -36.340  1.00  0.00     0.012 A 
ENDBRANCH  10  22
TORSDOF 2
ENDMDL
MODEL 9
REMARK VINA RESULT:      -7.1      2.041      2.523
REMARK  2 active torsions:
REMARK  status: ('A' for Active; 'I' for Inactive)
REMARK    1  A    between atoms: C_5  and  C_6 
REMARK    2  A    between atoms: C_15  and  C_16 
ROOT
HETATM    1  C   UNL     1      -6.656   4.310 -32.183  1.00  0.00     0.190 A 
HETATM    2  N   UNL     1      -6.766   5.122 -30.999  1.00  0.00    -0.308 N 
HETATM    3  C   UNL     1      -7.242   4.407 -29.927  1.00  0.00     0.320 A 
HETATM    4  O   UNL     1      -7.507   4.873 -28.834  1.00  0.00    -0.247 OA
HETATM    5  N   UNL     1      -7.369   3.084 -30.274  1.00  0.00    -0.308 N 
HETATM    6  N   UNL     1      -7.767   4.631 -33.043  1.00  0.00    -0.308 N 
HETATM    7  C   UNL     1      -8.686   3.612 -33.105  1.00  0.00     0.320 A 
HETATM    8  O   UNL     1      -9.731   3.647 -33.729  1.00  0.00    -0.247 OA
HETATM    9  N   UNL     1      -8.243   2.544 -32.364  1.00  0.00    -0.308 N 
HETATM   10  C   UNL     1      -7.028   2.848 -31.654  1.00  0.00     0.190 A 
HETATM   11  H   UNL     1      -6.705   6.127 -30.975  1.00  0.00     0.167 HD
HETATM   12  H   UNL     1      -7.767   2.404 -29.645  1.00  0.00     0.167 HD
HETATM   13  H   UNL     1      -7.939   5.529 -33.467  1.00  0.00     0.167 HD
HETATM   14  H   UNL     1      -8.827   1.739 -32.199  1.00  0.00     0.167 HD
ENDROOT
BRANCH   1  15
HETATM   15  C   UNL     1      -5.317   4.488 -32.884  1.00  0.00    -0.005 A 
HETATM   16  C   UNL     1      -5.250   4.786 -34.257  1.00  0.00     0.012 A 
HETATM   17  C   UNL     1      -4.023   5.003 -34.892  1.00  0.00     0.007 A 
HETATM   18  C   UNL     1      -2.828   4.924 -34.174  1.00  0.00    -0.062 A 
HETATM   19  C   UNL     1      -1.511   5.195 -34.837  1.00  0.00     0.048 C 
HETATM   20  C   UNL     1      -2.879   4.639 -32.807  1.00  0.00     0.007 A 
HETATM   21  C   UNL     1      -4.105   4.425 -32.171  1.00  0.00     0.012 A 
ENDBRANCH   1  15
BRANCH  10  22
HETATM   22  C   UNL     1      -5.979   1.755 -31.807  1.00  0.00    -0.005 A 
HETATM   23  C   UNL     1      -5.814   1.064 -33.021  1.00  0.00     0.012 A 
HETATM   24  C   UNL     1      -4.888   0.025 -33.145  1.00  0.00     0.007 A 
HETATM   25  C   UNL     1      -4.100  -0.357 -32.056  1.00  0.00    -0.062 A 
HETATM   26  C   UNL     1      -3.120  -1.485 -32.169  1.00  0.00     0.048 C 
HETATM   27  C   UNL     1      -4.257   0.317 -30.841  1.00  0.00     0.007 A 
HETATM   28  C   UNL     1      -5.182   1.356 -30.717  1.00  0.00     0.012 A 
ENDBRANCH  10  22
TORSDOF 2
ENDMDL
MODEL 10
REMARK VINA RESULT:      -7.1     16.223     18.625
REMARK  2 active torsions:
REMARK  status: ('A' for Active; 'I' for Inactive)
REMARK    1  A    between atoms: C_5  and  C_6 
REMARK    2  A    between atoms: C_15  and  C_16 
ROOT
HETATM    1  C   UNL     1      -3.936 -14.390 -39.288  1.00  0.00     0.190 A 
HETATM    2  N   UNL     1      -3.015 -13.765 -38.375  1.00  0.00    -0.308 N 
HETATM    3  C   UNL     1      -2.988 -12.400 -38.525  1.00  0.00     0.320 A 
HETATM    4  O   UNL     1      -2.236 -11.643 -37.937  1.00  0.00    -0.247 OA
HETATM    5  N   UNL     1      -3.942 -12.016 -39.436  1.00  0.00    -0.308 N 
HETATM    6  N   UNL     1      -3.169 -14.978 -40.356  1.00  0.00    -0.308 N 
HETATM    7  C   UNL     1      -3.325 -14.300 -41.541  1.00  0.00     0.320 A 
HETATM    8  O   UNL     1      -2.756 -14.569 -42.583  1.00  0.00    -0.247 OA
HETATM    9  N   UNL     1      -4.226 -13.276 -41.372  1.00  0.00    -0.308 N 
HETATM   10  C   UNL     1      -4.640 -13.144 -40.001  1.00  0.00     0.190 A 
HETATM   11  H   UNL     1      -2.319 -14.247 -37.829  1.00  0.00     0.167 HD
HETATM   12  H   UNL     1      -4.039 -11.059 -39.735  1.00  0.00     0.167 HD
HETATM   13  H   UNL     1      -2.498 -15.724 -40.254  1.00  0.00     0.167 HD
HETATM   14  H   UNL     1      -4.393 -12.599 -42.099  1.00  0.00     0.167 HD
ENDROOT
BRANCH   1  15
HETATM   15  C   UNL     1      -4.834 -15.407 -38.597  1.00  0.00    -0.005 A 
HETATM   16  C   UNL     1      -5.101 -15.321 -37.219  1.00  0.00     0.012 A 
HETATM   17  C   UNL     1      -5.968 -16.222 -36.592  1.00  0.00     0.007 A 
HETATM   18  C   UNL     1      -6.588 -17.237 -37.324  1.00  0.00    -0.062 A 
HETATM   19  C   UNL     1      -7.550 -18.183 -36.669  1.00  0.00     0.048 C 
HETATM   20  C   UNL     1      -6.340 -17.329 -38.696  1.00  0.00     0.007 A 
HETATM   21  C   UNL     1      -5.476 -16.427 -39.324  1.00  0.00     0.012 A 
ENDBRANCH   1  15
BRANCH  10  22
HETATM   22  C   UNL     1      -6.150 -13.012 -39.862  1.00  0.00    -0.005 A 
HETATM   23  C   UNL     1      -6.732 -12.454 -38.708  1.00  0.00     0.012 A 
HETATM   24  C   UNL     1      -8.120 -12.382 -38.559  1.00  0.00     0.007 A 
HETATM   25  C   UNL     1      -8.968 -12.869 -39.557  1.00  0.00    -0.062 A 
HETATM   26  C   UNL     1     -10.457 -12.819 -39.398  1.00  0.00     0.048 C 
HETATM   27  C   UNL     1      -8.404 -13.431 -40.706  1.00  0.00     0.007 A 
HETATM   28  C   UNL     1      -7.017 -13.502 -40.856  1.00  0.00     0.012 A 
ENDBRANCH  10  22
TORSDOF 2
ENDMDL
