MODEL 1
REMARK VINA RESULT:      -8.3      0.000      0.000
REMARK  1 active torsions:
REMARK  status: ('A' for Active; 'I' for Inactive)
REMARK    1  A    between atoms: C_6  and  N_7 
ROOT
HETATM    1  N   UNL     1      -6.496   1.158 -32.027  1.00  0.00    -0.320 N 
HETATM    2  C   UNL     1      -6.338   1.218 -30.604  1.00  0.00     0.141 C 
HETATM    3  N   UNL     1      -6.387   0.157 -29.849  1.00  0.00    -0.380 N 
HETATM    4  H   UNL     1      -6.543  -0.743 -30.283  1.00  0.00     0.158 HD
HETATM    5  H   UNL     1      -6.281   0.247 -28.850  1.00  0.00     0.158 HD
HETATM    6  S   UNL     1      -6.101   2.823 -30.008  1.00  0.00    -0.086 SA
HETATM    7  C   UNL     1      -6.600   3.505 -31.620  1.00  0.00     0.093 C 
HETATM    8  C   UNL     1      -6.107   2.446 -32.630  1.00  0.00     0.121 C 
HETATM    9  C   UNL     1      -6.067   4.817 -32.139  1.00  0.00     0.158 C 
HETATM   10  S   UNL     1      -6.398   4.663 -33.907  1.00  0.00     0.147 S 
HETATM   11  O   UNL     1      -7.633   5.352 -34.206  1.00  0.00    -0.228 OA
HETATM   12  O   UNL     1      -5.167   4.917 -34.622  1.00  0.00    -0.228 OA
HETATM   13  C   UNL     1      -6.720   2.887 -33.938  1.00  0.00     0.167 C 
ENDROOT
BRANCH   1  14
HETATM   14  C   UNL     1      -6.265   0.013 -32.817  1.00  0.00     0.048 A 
HETATM   15  C   UNL     1      -7.373  -0.672 -33.370  1.00  0.00    -0.034 A 
HETATM   16  C   UNL     1      -7.168  -1.821 -34.152  1.00  0.00     0.015 A 
HETATM   17  C   UNL     1      -8.797  -0.215 -33.175  1.00  0.00     0.050 C 
HETATM   18  C   UNL     1      -5.887  -2.326 -34.372  1.00  0.00    -0.061 A 
HETATM   19  C   UNL     1      -5.688  -3.589 -35.159  1.00  0.00     0.048 C 
HETATM   20  C   UNL     1      -4.799  -1.676 -33.788  1.00  0.00     0.015 A 
HETATM   21  C   UNL     1      -4.965  -0.505 -33.026  1.00  0.00    -0.034 A 
HETATM   22  C   UNL     1      -3.725   0.090 -32.408  1.00  0.00     0.050 C 
ENDBRANCH   1  14
TORSDOF 1
ENDMDL
MODEL 2
REMARK VINA RESULT:      -8.1      0.118      1.955
REMARK  1 active torsions:
REMARK  status: ('A' for Active; 'I' for Inactive)
REMARK    1  A    between atoms: C_6  and  N_7 
ROOT
HETATM    1  N   UNL     1      -6.493   1.228 -31.938  1.00  0.00    -0.320 N 
HETATM    2  C   UNL     1      -6.288   1.317 -30.522  1.00  0.00     0.141 C 
HETATM    3  N   UNL     1      -6.329   0.273 -29.743  1.00  0.00    -0.380 N 
HETATM    4  H   UNL     1      -6.512  -0.633 -30.151  1.00  0.00     0.158 HD
HETATM    5  H   UNL     1      -6.190   0.383 -28.750  1.00  0.00     0.158 HD
HETATM    6  S   UNL     1      -6.009   2.930 -29.969  1.00  0.00    -0.086 SA
HETATM    7  C   UNL     1      -6.548   3.585 -31.580  1.00  0.00     0.093 C 
HETATM    8  C   UNL     1      -6.103   2.497 -32.581  1.00  0.00     0.121 C 
HETATM    9  C   UNL     1      -6.012   4.877 -32.144  1.00  0.00     0.158 C 
HETATM   10  S   UNL     1      -6.401   4.689 -33.897  1.00  0.00     0.147 S 
HETATM   11  O   UNL     1      -7.635   5.392 -34.172  1.00  0.00    -0.228 OA
HETATM   12  O   UNL     1      -5.190   4.909 -34.656  1.00  0.00    -0.228 OA
HETATM   13  C   UNL     1      -6.751   2.919 -33.879  1.00  0.00     0.167 C 
ENDROOT
BRANCH   1  14
HETATM   14  C   UNL     1      -6.305   0.063 -32.710  1.00  0.00     0.048 A 
HETATM   15  C   UNL     1      -4.987  -0.394 -32.949  1.00  0.00    -0.034 A 
HETATM   16  C   UNL     1      -4.775  -1.547 -33.724  1.00  0.00     0.015 A 
HETATM   17  C   UNL     1      -3.769   0.295 -32.389  1.00  0.00     0.050 C 
HETATM   18  C   UNL     1      -5.842  -2.239 -34.296  1.00  0.00    -0.061 A 
HETATM   19  C   UNL     1      -5.597  -3.433 -35.172  1.00  0.00     0.048 C 
HETATM   20  C   UNL     1      -7.138  -1.760 -34.097  1.00  0.00     0.015 A 
HETATM   21  C   UNL     1      -7.389  -0.628 -33.301  1.00  0.00    -0.034 A 
HETATM   22  C   UNL     1      -8.823  -0.175 -33.189  1.00  0.00     0.050 C 
ENDBRANCH   1  14
TORSDOF 1
ENDMDL
MODEL 3
REMARK VINA RESULT:      -7.7      1.496      1.589
REMARK  1 active torsions:
REMARK  status: ('A' for Active; 'I' for Inactive)
REMARK    1  A    between atoms: C_6  and  N_7 
ROOT
HETATM    1  N   UNL     1      -7.267   1.610 -32.405  1.00  0.00    -0.320 N 
HETATM    2  C   UNL     1      -8.220   1.640 -31.334  1.00  0.00     0.141 C 
HETATM    3  N   UNL     1      -9.055   0.665 -31.114  1.00  0.00    -0.380 N 
HETATM    4  H   UNL     1      -9.030  -0.145 -31.720  1.00  0.00     0.158 HD
HETATM    5  H   UNL     1      -9.717   0.733 -30.355  1.00  0.00     0.158 HD
HETATM    6  S   UNL     1      -8.157   3.093 -30.401  1.00  0.00    -0.086 SA
HETATM    7  C   UNL     1      -7.107   3.872 -31.668  1.00  0.00     0.093 C 
HETATM    8  C   UNL     1      -6.282   2.694 -32.230  1.00  0.00     0.121 C 
HETATM    9  C   UNL     1      -6.090   4.934 -31.329  1.00  0.00     0.158 C 
HETATM   10  S   UNL     1      -5.008   4.864 -32.773  1.00  0.00     0.147 S 
HETATM   11  O   UNL     1      -5.398   5.909 -33.692  1.00  0.00    -0.228 OA
HETATM   12  O   UNL     1      -3.647   4.696 -32.311  1.00  0.00    -0.228 OA
HETATM   13  C   UNL     1      -5.585   3.286 -33.432  1.00  0.00     0.167 C 
ENDROOT
BRANCH   1  14
HETATM   14  C   UNL     1      -6.789   0.439 -33.027  1.00  0.00     0.048 A 
HETATM   15  C   UNL     1      -7.399   0.004 -34.228  1.00  0.00    -0.034 A 
HETATM   16  C   UNL     1      -6.947  -1.166 -34.860  1.00  0.00     0.015 A 
HETATM   17  C   UNL     1      -8.526   0.756 -34.890  1.00  0.00     0.050 C 
HETATM   18  C   UNL     1      -5.922  -1.934 -34.311  1.00  0.00    -0.061 A 
HETATM   19  C   UNL     1      -5.490  -3.215 -34.965  1.00  0.00     0.048 C 
HETATM   20  C   UNL     1      -5.352  -1.530 -33.103  1.00  0.00     0.015 A 
HETATM   21  C   UNL     1      -5.759  -0.347 -32.458  1.00  0.00    -0.034 A 
HETATM   22  C   UNL     1      -5.104  -0.028 -31.138  1.00  0.00     0.050 C 
ENDBRANCH   1  14
TORSDOF 1
ENDMDL
MODEL 4
REMARK VINA RESULT:      -7.4      1.624      2.376
REMARK  1 active torsions:
REMARK  status: ('A' for Active; 'I' for Inactive)
REMARK    1  A    between atoms: C_6  and  N_7 
ROOT
HETATM    1  N   UNL     1      -7.335   1.551 -32.350  1.00  0.00    -0.320 N 
HETATM    2  C   UNL     1      -8.465   1.526 -31.468  1.00  0.00     0.141 C 
HETATM    3  N   UNL     1      -9.206   0.466 -31.311  1.00  0.00    -0.380 N 
HETATM    4  H   UNL     1      -8.976  -0.371 -31.829  1.00  0.00     0.158 HD
HETATM    5  H   UNL     1      -9.999   0.496 -30.687  1.00  0.00     0.158 HD
HETATM    6  S   UNL     1      -8.745   3.033 -30.670  1.00  0.00    -0.086 SA
HETATM    7  C   UNL     1      -7.579   3.858 -31.799  1.00  0.00     0.093 C 
HETATM    8  C   UNL     1      -6.533   2.764 -32.103  1.00  0.00     0.121 C 
HETATM    9  C   UNL     1      -6.774   5.064 -31.384  1.00  0.00     0.158 C 
HETATM   10  S   UNL     1      -5.445   5.042 -32.606  1.00  0.00     0.147 S 
HETATM   11  O   UNL     1      -5.781   5.965 -33.667  1.00  0.00    -0.228 OA
HETATM   12  O   UNL     1      -4.182   5.085 -31.902  1.00  0.00    -0.228 OA
HETATM   13  C   UNL     1      -5.703   3.363 -33.214  1.00  0.00     0.167 C 
ENDROOT
BRANCH   1  14
HETATM   14  C   UNL     1      -6.618   0.415 -32.775  1.00  0.00     0.048 A 
HETATM   15  C   UNL     1      -5.636  -0.136 -31.918  1.00  0.00    -0.034 A 
HETATM   16  C   UNL     1      -4.901  -1.262 -32.326  1.00  0.00     0.015 A 
HETATM   17  C   UNL     1      -5.340   0.424 -30.550  1.00  0.00     0.050 C 
HETATM   18  C   UNL     1      -5.096  -1.836 -33.580  1.00  0.00    -0.061 A 
HETATM   19  C   UNL     1      -4.261  -3.002 -34.027  1.00  0.00     0.048 C 
HETATM   20  C   UNL     1      -6.032  -1.265 -34.444  1.00  0.00     0.015 A 
HETATM   21  C   UNL     1      -6.808  -0.156 -34.056  1.00  0.00    -0.034 A 
HETATM   22  C   UNL     1      -7.759   0.404 -35.083  1.00  0.00     0.050 C 
ENDBRANCH   1  14
TORSDOF 1
ENDMDL
MODEL 5
REMARK VINA RESULT:      -6.8      2.535      3.005
REMARK  1 active torsions:
REMARK  status: ('A' for Active; 'I' for Inactive)
REMARK    1  A    between atoms: C_6  and  N_7 
ROOT
HETATM    1  N   UNL     1      -8.606   2.471 -32.343  1.00  0.00    -0.320 N 
HETATM    2  C   UNL     1      -8.314   2.946 -31.022  1.00  0.00     0.141 C 
HETATM    3  N   UNL     1      -7.729   2.204 -30.126  1.00  0.00    -0.380 N 
HETATM    4  H   UNL     1      -7.471   1.257 -30.370  1.00  0.00     0.158 HD
HETATM    5  H   UNL     1      -7.552   2.576 -29.205  1.00  0.00     0.158 HD
HETATM    6  S   UNL     1      -8.833   4.571 -30.748  1.00  0.00    -0.086 SA
HETATM    7  C   UNL     1      -9.811   4.528 -32.283  1.00  0.00     0.093 C 
HETATM    8  C   UNL     1      -8.993   3.601 -33.209  1.00  0.00     0.121 C 
HETATM    9  C   UNL     1     -10.076   5.765 -33.104  1.00  0.00     0.158 C 
HETATM   10  S   UNL     1     -10.514   5.045 -34.701  1.00  0.00     0.147 S 
HETATM   11  O   UNL     1     -11.955   4.994 -34.803  1.00  0.00    -0.228 OA
HETATM   12  O   UNL     1      -9.678   5.651 -35.715  1.00  0.00    -0.228 OA
HETATM   13  C   UNL     1      -9.909   3.374 -34.388  1.00  0.00     0.167 C 
ENDROOT
BRANCH   1  14
HETATM   14  C   UNL     1      -7.941   1.405 -32.983  1.00  0.00     0.048 A 
HETATM   15  C   UNL     1      -8.615   0.170 -33.134  1.00  0.00    -0.034 A 
HETATM   16  C   UNL     1      -7.968  -0.909 -33.759  1.00  0.00     0.015 A 
HETATM   17  C   UNL     1     -10.030  -0.051 -32.664  1.00  0.00     0.050 C 
HETATM   18  C   UNL     1      -6.654  -0.801 -34.210  1.00  0.00    -0.061 A 
HETATM   19  C   UNL     1      -5.955  -1.981 -34.821  1.00  0.00     0.048 C 
HETATM   20  C   UNL     1      -5.974   0.403 -34.019  1.00  0.00     0.015 A 
HETATM   21  C   UNL     1      -6.601   1.514 -33.426  1.00  0.00    -0.034 A 
HETATM   22  C   UNL     1      -5.761   2.751 -33.232  1.00  0.00     0.050 C 
ENDBRANCH   1  14
TORSDOF 1
ENDMDL
MODEL 6
REMARK VINA RESULT:      -6.7      1.923      2.930
REMARK  1 active torsions:
REMARK  status: ('A' for Active; 'I' for Inactive)
REMARK    1  A    between atoms: C_6  and  N_7 
ROOT
HETATM    1  N   UNL     1      -7.868   2.191 -31.748  1.00  0.00    -0.320 N 
HETATM    2  C   UNL     1      -7.393   2.570 -30.450  1.00  0.00     0.141 C 
HETATM    3  N   UNL     1      -6.808   1.728 -29.646  1.00  0.00    -0.380 N 
HETATM    4  H   UNL     1      -6.683   0.771 -29.948  1.00  0.00     0.158 HD
HETATM    5  H   UNL     1      -6.498   2.036 -28.736  1.00  0.00     0.158 HD
HETATM    6  S   UNL     1      -7.697   4.227 -30.066  1.00  0.00    -0.086 SA
HETATM    7  C   UNL     1      -8.823   4.360 -31.490  1.00  0.00     0.093 C 
HETATM    8  C   UNL     1      -8.212   3.394 -32.528  1.00  0.00     0.121 C 
HETATM    9  C   UNL     1      -9.029   5.655 -32.235  1.00  0.00     0.158 C 
HETATM   10  S   UNL     1      -9.704   5.062 -33.801  1.00  0.00     0.147 S 
HETATM   11  O   UNL     1     -11.145   5.171 -33.752  1.00  0.00    -0.228 OA
HETATM   12  O   UNL     1      -8.913   5.620 -34.876  1.00  0.00    -0.228 OA
HETATM   13  C   UNL     1      -9.262   3.322 -33.611  1.00  0.00     0.167 C 
ENDROOT
BRANCH   1  14
HETATM   14  C   UNL     1      -7.396   1.090 -32.491  1.00  0.00     0.048 A 
HETATM   15  C   UNL     1      -6.067   1.112 -32.977  1.00  0.00    -0.034 A 
HETATM   16  C   UNL     1      -5.578   0.031 -33.729  1.00  0.00     0.015 A 
HETATM   17  C   UNL     1      -5.119   2.254 -32.712  1.00  0.00     0.050 C 
HETATM   18  C   UNL     1      -6.389  -1.060 -34.038  1.00  0.00    -0.061 A 
HETATM   19  C   UNL     1      -5.871  -2.180 -34.894  1.00  0.00     0.048 C 
HETATM   20  C   UNL     1      -7.713  -1.060 -33.597  1.00  0.00     0.015 A 
HETATM   21  C   UNL     1      -8.227  -0.009 -32.815  1.00  0.00    -0.034 A 
HETATM   22  C   UNL     1      -9.681  -0.093 -32.428  1.00  0.00     0.050 C 
ENDBRANCH   1  14
TORSDOF 1
ENDMDL
MODEL 7
REMARK VINA RESULT:      -6.7      2.258      3.628
REMARK  1 active torsions:
REMARK  status: ('A' for Active; 'I' for Inactive)
REMARK    1  A    between atoms: C_6  and  N_7 
ROOT
HETATM    1  N   UNL     1      -6.261   1.990 -32.318  1.00  0.00    -0.320 N 
HETATM    2  C   UNL     1      -5.403   0.976 -31.778  1.00  0.00     0.141 C 
HETATM    3  N   UNL     1      -5.866  -0.115 -31.238  1.00  0.00    -0.380 N 
HETATM    4  H   UNL     1      -6.866  -0.254 -31.198  1.00  0.00     0.158 HD
HETATM    5  H   UNL     1      -5.226  -0.798 -30.860  1.00  0.00     0.158 HD
HETATM    6  S   UNL     1      -3.723   1.363 -31.899  1.00  0.00    -0.086 SA
HETATM    7  C   UNL     1      -4.141   3.082 -32.330  1.00  0.00     0.093 C 
HETATM    8  C   UNL     1      -5.467   2.949 -33.110  1.00  0.00     0.121 C 
HETATM    9  C   UNL     1      -3.254   3.930 -33.208  1.00  0.00     0.158 C 
HETATM   10  S   UNL     1      -4.409   5.206 -33.752  1.00  0.00     0.147 S 
HETATM   11  O   UNL     1      -4.237   6.371 -32.912  1.00  0.00    -0.228 OA
HETATM   12  O   UNL     1      -4.366   5.270 -35.197  1.00  0.00    -0.228 OA
HETATM   13  C   UNL     1      -5.935   4.376 -33.264  1.00  0.00     0.167 C 
ENDROOT
BRANCH   1  14
HETATM   14  C   UNL     1      -7.585   1.780 -32.754  1.00  0.00     0.048 A 
HETATM   15  C   UNL     1      -8.652   2.228 -31.941  1.00  0.00    -0.034 A 
HETATM   16  C   UNL     1      -9.980   2.020 -32.350  1.00  0.00     0.015 A 
HETATM   17  C   UNL     1      -8.437   2.950 -30.635  1.00  0.00     0.050 C 
HETATM   18  C   UNL     1     -10.274   1.347 -33.534  1.00  0.00    -0.061 A 
HETATM   19  C   UNL     1     -11.698   1.078 -33.929  1.00  0.00     0.048 C 
HETATM   20  C   UNL     1      -9.221   0.865 -34.313  1.00  0.00     0.015 A 
HETATM   21  C   UNL     1      -7.879   1.083 -33.950  1.00  0.00    -0.034 A 
HETATM   22  C   UNL     1      -6.823   0.482 -34.843  1.00  0.00     0.050 C 
ENDBRANCH   1  14
TORSDOF 1
ENDMDL
MODEL 8
REMARK VINA RESULT:      -6.4      8.872     11.151
REMARK  1 active torsions:
REMARK  status: ('A' for Active; 'I' for Inactive)
REMARK    1  A    between atoms: C_6  and  N_7 
ROOT
HETATM    1  N   UNL     1      -1.766   7.596 -27.187  1.00  0.00    -0.320 N 
HETATM    2  C   UNL     1      -2.747   6.739 -26.588  1.00  0.00     0.141 C 
HETATM    3  N   UNL     1      -2.460   5.923 -25.614  1.00  0.00    -0.380 N 
HETATM    4  H   UNL     1      -1.512   5.892 -25.266  1.00  0.00     0.158 HD
HETATM    5  H   UNL     1      -3.180   5.330 -25.228  1.00  0.00     0.158 HD
HETATM    6  S   UNL     1      -4.314   6.888 -27.301  1.00  0.00    -0.086 SA
HETATM    7  C   UNL     1      -3.603   7.828 -28.689  1.00  0.00     0.093 C 
HETATM    8  C   UNL     1      -2.430   8.596 -28.044  1.00  0.00     0.121 C 
HETATM    9  C   UNL     1      -4.390   8.873 -29.439  1.00  0.00     0.158 C 
HETATM   10  S   UNL     1      -3.066   9.826 -30.214  1.00  0.00     0.147 S 
HETATM   11  O   UNL     1      -2.899   9.361 -31.573  1.00  0.00    -0.228 OA
HETATM   12  O   UNL     1      -3.258  11.221 -29.882  1.00  0.00    -0.228 OA
HETATM   13  C   UNL     1      -1.698   9.188 -29.225  1.00  0.00     0.167 C 
ENDROOT
BRANCH   1  14
HETATM   14  C   UNL     1      -0.571   8.013 -26.566  1.00  0.00     0.048 A 
HETATM   15  C   UNL     1       0.650   7.417 -26.961  1.00  0.00    -0.034 A 
HETATM   16  C   UNL     1       1.852   7.810 -26.348  1.00  0.00     0.015 A 
HETATM   17  C   UNL     1       0.736   6.370 -28.042  1.00  0.00     0.050 C 
HETATM   18  C   UNL     1       1.867   8.759 -25.328  1.00  0.00    -0.061 A 
HETATM   19  C   UNL     1       3.151   9.124 -24.640  1.00  0.00     0.048 C 
HETATM   20  C   UNL     1       0.656   9.313 -24.907  1.00  0.00     0.015 A 
HETATM   21  C   UNL     1      -0.562   8.966 -25.520  1.00  0.00    -0.034 A 
HETATM   22  C   UNL     1      -1.812   9.594 -24.958  1.00  0.00     0.050 C 
ENDBRANCH   1  14
TORSDOF 1
ENDMDL
MODEL 9
REMARK VINA RESULT:      -6.4      3.247      5.285
REMARK  1 active torsions:
REMARK  status: ('A' for Active; 'I' for Inactive)
REMARK    1  A    between atoms: C_6  and  N_7 
ROOT
HETATM    1  N   UNL     1      -5.847   3.361 -31.494  1.00  0.00    -0.320 N 
HETATM    2  C   UNL     1      -6.154   3.717 -30.140  1.00  0.00     0.141 C 
HETATM    3  N   UNL     1      -5.272   4.248 -29.340  1.00  0.00    -0.380 N 
HETATM    4  H   UNL     1      -4.338   4.415 -29.687  1.00  0.00     0.158 HD
HETATM    5  H   UNL     1      -5.529   4.473 -28.391  1.00  0.00     0.158 HD
HETATM    6  S   UNL     1      -7.780   3.352 -29.686  1.00  0.00    -0.086 SA
HETATM    7  C   UNL     1      -7.985   2.348 -31.191  1.00  0.00     0.093 C 
HETATM    8  C   UNL     1      -7.092   3.063 -32.228  1.00  0.00     0.121 C 
HETATM    9  C   UNL     1      -9.320   2.182 -31.873  1.00  0.00     0.158 C 
HETATM   10  S   UNL     1      -8.813   1.653 -33.523  1.00  0.00     0.147 S 
HETATM   11  O   UNL     1      -8.900   0.211 -33.591  1.00  0.00    -0.228 OA
HETATM   12  O   UNL     1      -9.445   2.522 -34.491  1.00  0.00    -0.228 OA
HETATM   13  C   UNL     1      -7.071   2.109 -33.399  1.00  0.00     0.167 C 
ENDROOT
BRANCH   1  14
HETATM   14  C   UNL     1      -4.800   3.915 -32.258  1.00  0.00     0.048 A 
HETATM   15  C   UNL     1      -3.583   3.202 -32.371  1.00  0.00    -0.034 A 
HETATM   16  C   UNL     1      -2.522   3.740 -33.118  1.00  0.00     0.015 A 
HETATM   17  C   UNL     1      -3.364   1.854 -31.731  1.00  0.00     0.050 C 
HETATM   18  C   UNL     1      -2.629   4.988 -33.730  1.00  0.00    -0.061 A 
HETATM   19  C   UNL     1      -1.466   5.577 -34.474  1.00  0.00     0.048 C 
HETATM   20  C   UNL     1      -3.814   5.711 -33.580  1.00  0.00     0.015 A 
HETATM   21  C   UNL     1      -4.907   5.189 -32.865  1.00  0.00    -0.034 A 
HETATM   22  C   UNL     1      -6.121   6.073 -32.731  1.00  0.00     0.050 C 
ENDBRANCH   1  14
TORSDOF 1
ENDMDL
MODEL 10
REMARK VINA RESULT:      -6.3      2.315      3.274
REMARK  1 active torsions:
REMARK  status: ('A' for Active; 'I' for Inactive)
REMARK    1  A    between atoms: C_6  and  N_7 
ROOT
HETATM    1  N   UNL     1      -5.836   1.935 -32.408  1.00  0.00    -0.320 N 
HETATM    2  C   UNL     1      -4.934   3.030 -32.615  1.00  0.00     0.141 C 
HETATM    3  N   UNL     1      -3.671   2.853 -32.881  1.00  0.00    -0.380 N 
HETATM    4  H   UNL     1      -3.313   1.910 -32.944  1.00  0.00     0.158 HD
HETATM    5  H   UNL     1      -3.069   3.653 -33.009  1.00  0.00     0.158 HD
HETATM    6  S   UNL     1      -5.685   4.577 -32.454  1.00  0.00    -0.086 SA
HETATM    7  C   UNL     1      -7.155   3.797 -31.716  1.00  0.00     0.093 C 
HETATM    8  C   UNL     1      -7.228   2.424 -32.418  1.00  0.00     0.121 C 
HETATM    9  C   UNL     1      -8.537   4.384 -31.863  1.00  0.00     0.158 C 
HETATM   10  S   UNL     1      -9.573   2.951 -31.497  1.00  0.00     0.147 S 
HETATM   11  O   UNL     1      -9.981   3.020 -30.111  1.00  0.00    -0.228 OA
HETATM   12  O   UNL     1     -10.514   2.783 -32.583  1.00  0.00    -0.228 OA
HETATM   13  C   UNL     1      -8.297   1.685 -31.648  1.00  0.00     0.167 C 
ENDROOT
BRANCH   1  14
HETATM   14  C   UNL     1      -5.640   0.625 -32.890  1.00  0.00     0.048 A 
HETATM   15  C   UNL     1      -4.870  -0.280 -32.122  1.00  0.00    -0.034 A 
HETATM   16  C   UNL     1      -4.652  -1.587 -32.587  1.00  0.00     0.015 A 
HETATM   17  C   UNL     1      -4.269   0.088 -30.789  1.00  0.00     0.050 C 
HETATM   18  C   UNL     1      -5.156  -2.009 -33.816  1.00  0.00    -0.061 A 
HETATM   19  C   UNL     1      -4.865  -3.390 -34.329  1.00  0.00     0.048 C 
HETATM   20  C   UNL     1      -5.877  -1.102 -34.595  1.00  0.00     0.015 A 
HETATM   21  C   UNL     1      -6.140   0.205 -34.146  1.00  0.00    -0.034 A 
HETATM   22  C   UNL     1      -6.892   1.112 -35.086  1.00  0.00     0.050 C 
ENDBRANCH   1  14
TORSDOF 1
ENDMDL
