MODEL 1
REMARK VINA RESULT:      -9.2      0.000      0.000
REMARK  2 active torsions:
REMARK  status: ('A' for Active; 'I' for Inactive)
REMARK    1  A    between atoms: C_5  and  C_6 
REMARK    2  A    between atoms: C_17  and  O_18 
ROOT
HETATM    1  C   UNL     1      -9.162   0.639 -33.707  1.00  0.00     0.200 C 
HETATM    2  N   UNL     1      -9.377   2.059 -33.806  1.00  0.00    -0.336 N 
HETATM    3  C   UNL     1     -10.519   2.536 -34.402  1.00  0.00     0.255 C 
HETATM    4  O   UNL     1     -10.539   3.629 -34.952  1.00  0.00    -0.268 OA
HETATM    5  C   UNL     1     -11.716   1.686 -34.274  1.00  0.00     0.053 A 
HETATM    6  C   UNL     1     -11.579   0.466 -33.603  1.00  0.00     0.026 A 
HETATM    7  N   UNL     1     -10.339   0.010 -33.132  1.00  0.00    -0.267 NA
HETATM    8  C   UNL     1     -12.958   2.132 -34.733  1.00  0.00     0.019 A 
HETATM    9  C   UNL     1     -14.093   1.355 -34.501  1.00  0.00     0.001 A 
HETATM   10  C   UNL     1     -13.978   0.150 -33.805  1.00  0.00     0.002 A 
HETATM   11  C   UNL     1     -12.730  -0.288 -33.353  1.00  0.00     0.024 A 
HETATM   12  H   UNL     1      -8.568   2.613 -34.059  1.00  0.00     0.164 HD
HETATM   13  H   UNL     1     -10.319   0.002 -32.113  1.00  0.00     0.130 HD
ENDROOT
BRANCH   1  14
HETATM   14  C   UNL     1      -7.950   0.332 -32.844  1.00  0.00     0.023 A 
HETATM   15  C   UNL     1      -6.907  -0.544 -33.290  1.00  0.00    -0.014 A 
HETATM   16  C   UNL     1      -5.806  -0.792 -32.424  1.00  0.00    -0.025 A 
HETATM   17  C   UNL     1      -6.883  -1.201 -34.548  1.00  0.00     0.013 A 
HETATM   18  C   UNL     1      -4.751  -1.626 -32.829  1.00  0.00     0.012 A 
HETATM   19  C   UNL     1      -5.762  -0.211 -31.150  1.00  0.00     0.015 A 
HETATM   20  C   UNL     1      -4.756  -2.237 -34.078  1.00  0.00     0.001 A 
HETATM   21  C   UNL     1      -5.825  -2.029 -34.935  1.00  0.00     0.001 A 
HETATM   22  C   UNL     1      -6.787   0.615 -30.709  1.00  0.00     0.038 A 
HETATM   23  C   UNL     1      -7.858   0.886 -31.548  1.00  0.00     0.076 A 
BRANCH  23  24
HETATM   24  O   UNL     1      -8.815   1.715 -31.025  1.00  0.00    -0.360 OA
HETATM   25  H   UNL     1      -8.768   1.683 -30.049  1.00  0.00     0.217 HD
ENDBRANCH  23  24
ENDBRANCH   1  14
TORSDOF 2
ENDMDL
MODEL 2
REMARK VINA RESULT:      -8.6      4.996      5.936
REMARK  2 active torsions:
REMARK  status: ('A' for Active; 'I' for Inactive)
REMARK    1  A    between atoms: C_5  and  C_6 
REMARK    2  A    between atoms: C_17  and  O_18 
ROOT
HETATM    1  C   UNL     1      -4.705  -0.089 -32.711  1.00  0.00     0.200 C 
HETATM    2  N   UNL     1      -3.569   0.792 -32.630  1.00  0.00    -0.336 N 
HETATM    3  C   UNL     1      -3.759   2.129 -32.382  1.00  0.00     0.255 C 
HETATM    4  O   UNL     1      -2.963   2.968 -32.782  1.00  0.00    -0.268 OA
HETATM    5  C   UNL     1      -4.929   2.470 -31.554  1.00  0.00     0.053 A 
HETATM    6  C   UNL     1      -5.756   1.423 -31.134  1.00  0.00     0.026 A 
HETATM    7  N   UNL     1      -5.545   0.097 -31.541  1.00  0.00    -0.267 NA
HETATM    8  C   UNL     1      -5.146   3.785 -31.136  1.00  0.00     0.019 A 
HETATM    9  C   UNL     1      -6.198   4.062 -30.263  1.00  0.00     0.001 A 
HETATM   10  C   UNL     1      -7.014   3.024 -29.810  1.00  0.00     0.002 A 
HETATM   11  C   UNL     1      -6.790   1.712 -30.237  1.00  0.00     0.024 A 
HETATM   12  H   UNL     1      -2.842   0.643 -33.321  1.00  0.00     0.164 HD
HETATM   13  H   UNL     1      -5.255  -0.482 -30.755  1.00  0.00     0.130 HD
ENDROOT
BRANCH   1  14
HETATM   14  C   UNL     1      -4.262  -1.540 -32.791  1.00  0.00     0.023 A 
HETATM   15  C   UNL     1      -4.920  -2.485 -33.644  1.00  0.00    -0.014 A 
HETATM   16  C   UNL     1      -4.456  -3.830 -33.661  1.00  0.00    -0.025 A 
HETATM   17  C   UNL     1      -6.022  -2.186 -34.487  1.00  0.00     0.013 A 
HETATM   18  C   UNL     1      -5.058  -4.784 -34.497  1.00  0.00     0.012 A 
HETATM   19  C   UNL     1      -3.395  -4.223 -32.836  1.00  0.00     0.015 A 
HETATM   20  C   UNL     1      -6.125  -4.446 -35.323  1.00  0.00     0.001 A 
HETATM   21  C   UNL     1      -6.610  -3.148 -35.314  1.00  0.00     0.001 A 
HETATM   22  C   UNL     1      -2.776  -3.313 -31.990  1.00  0.00     0.038 A 
HETATM   23  C   UNL     1      -3.201  -1.992 -31.976  1.00  0.00     0.076 A 
BRANCH  23  24
HETATM   24  O   UNL     1      -2.525  -1.170 -31.113  1.00  0.00    -0.360 OA
HETATM   25  H   UNL     1      -2.582  -1.538 -30.209  1.00  0.00     0.217 HD
ENDBRANCH  23  24
ENDBRANCH   1  14
TORSDOF 2
ENDMDL
MODEL 3
REMARK VINA RESULT:      -8.5      1.163      6.530
REMARK  2 active torsions:
REMARK  status: ('A' for Active; 'I' for Inactive)
REMARK    1  A    between atoms: C_5  and  C_6 
REMARK    2  A    between atoms: C_17  and  O_18 
ROOT
HETATM    1  C   UNL     1      -9.153   0.592 -33.123  1.00  0.00     0.200 C 
HETATM    2  N   UNL     1      -8.349   1.308 -32.167  1.00  0.00    -0.336 N 
HETATM    3  C   UNL     1      -7.240   0.707 -31.623  1.00  0.00     0.255 C 
HETATM    4  O   UNL     1      -6.833   1.015 -30.510  1.00  0.00    -0.268 OA
HETATM    5  C   UNL     1      -6.545  -0.265 -32.485  1.00  0.00     0.053 A 
HETATM    6  C   UNL     1      -7.090  -0.520 -33.748  1.00  0.00     0.026 A 
HETATM    7  N   UNL     1      -8.298   0.056 -34.169  1.00  0.00    -0.267 NA
HETATM    8  C   UNL     1      -5.337  -0.839 -32.081  1.00  0.00     0.019 A 
HETATM    9  C   UNL     1      -4.646  -1.671 -32.962  1.00  0.00     0.001 A 
HETATM   10  C   UNL     1      -5.160  -1.911 -34.237  1.00  0.00     0.002 A 
HETATM   11  C   UNL     1      -6.371  -1.333 -34.630  1.00  0.00     0.024 A 
HETATM   12  H   UNL     1      -8.857   1.845 -31.474  1.00  0.00     0.164 HD
HETATM   13  H   UNL     1      -8.139   0.722 -34.923  1.00  0.00     0.130 HD
ENDROOT
BRANCH   1  14
HETATM   14  C   UNL     1     -10.200   1.502 -33.741  1.00  0.00     0.023 A 
HETATM   15  C   UNL     1     -11.572   1.104 -33.860  1.00  0.00    -0.014 A 
HETATM   16  C   UNL     1     -12.496   2.005 -34.458  1.00  0.00    -0.025 A 
HETATM   17  C   UNL     1     -12.094  -0.143 -33.427  1.00  0.00     0.013 A 
HETATM   18  C   UNL     1     -13.853   1.665 -34.575  1.00  0.00     0.012 A 
HETATM   19  C   UNL     1     -12.062   3.244 -34.945  1.00  0.00     0.015 A 
HETATM   20  C   UNL     1     -14.330   0.439 -34.120  1.00  0.00     0.001 A 
HETATM   21  C   UNL     1     -13.449  -0.466 -33.551  1.00  0.00     0.001 A 
HETATM   22  C   UNL     1     -10.728   3.617 -34.854  1.00  0.00     0.038 A 
HETATM   23  C   UNL     1      -9.816   2.760 -34.254  1.00  0.00     0.076 A 
BRANCH  23  24
HETATM   24  O   UNL     1      -8.526   3.219 -34.207  1.00  0.00    -0.360 OA
HETATM   25  H   UNL     1      -7.978   2.583 -33.705  1.00  0.00     0.217 HD
ENDBRANCH  23  24
ENDBRANCH   1  14
TORSDOF 2
ENDMDL
MODEL 4
REMARK VINA RESULT:      -8.4      4.335      6.428
REMARK  2 active torsions:
REMARK  status: ('A' for Active; 'I' for Inactive)
REMARK    1  A    between atoms: C_5  and  C_6 
REMARK    2  A    between atoms: C_17  and  O_18 
ROOT
HETATM    1  C   UNL     1      -4.864   0.664 -32.064  1.00  0.00     0.200 C 
HETATM    2  N   UNL     1      -6.074   1.247 -31.543  1.00  0.00    -0.336 N 
HETATM    3  C   UNL     1      -6.007   2.379 -30.770  1.00  0.00     0.255 C 
HETATM    4  O   UNL     1      -6.858   2.622 -29.925  1.00  0.00    -0.268 OA
HETATM    5  C   UNL     1      -4.898   3.302 -31.072  1.00  0.00     0.053 A 
HETATM    6  C   UNL     1      -3.998   2.929 -32.077  1.00  0.00     0.026 A 
HETATM    7  N   UNL     1      -4.082   1.691 -32.730  1.00  0.00    -0.267 NA
HETATM    8  C   UNL     1      -4.809   4.541 -30.434  1.00  0.00     0.019 A 
HETATM    9  C   UNL     1      -3.813   5.439 -30.818  1.00  0.00     0.001 A 
HETATM   10  C   UNL     1      -2.927   5.096 -31.840  1.00  0.00     0.002 A 
HETATM   11  C   UNL     1      -3.023   3.851 -32.470  1.00  0.00     0.024 A 
HETATM   12  H   UNL     1      -6.762   0.594 -31.186  1.00  0.00     0.164 HD
HETATM   13  H   UNL     1      -4.346   1.813 -33.706  1.00  0.00     0.130 HD
ENDROOT
BRANCH   1  14
HETATM   14  C   UNL     1      -5.178  -0.451 -33.046  1.00  0.00     0.023 A 
HETATM   15  C   UNL     1      -4.522  -1.723 -32.979  1.00  0.00    -0.014 A 
HETATM   16  C   UNL     1      -4.860  -2.718 -33.938  1.00  0.00    -0.025 A 
HETATM   17  C   UNL     1      -3.539  -2.079 -32.019  1.00  0.00     0.013 A 
HETATM   18  C   UNL     1      -4.258  -3.986 -33.897  1.00  0.00     0.012 A 
HETATM   19  C   UNL     1      -5.796  -2.444 -34.943  1.00  0.00     0.015 A 
HETATM   20  C   UNL     1      -3.312  -4.302 -32.927  1.00  0.00     0.001 A 
HETATM   21  C   UNL     1      -2.949  -3.346 -31.991  1.00  0.00     0.001 A 
HETATM   22  C   UNL     1      -6.410  -1.201 -35.023  1.00  0.00     0.038 A 
HETATM   23  C   UNL     1      -6.109  -0.226 -34.084  1.00  0.00     0.076 A 
BRANCH  23  24
HETATM   24  O   UNL     1      -6.770   0.963 -34.243  1.00  0.00    -0.360 OA
HETATM   25  H   UNL     1      -7.544   0.824 -34.825  1.00  0.00     0.217 HD
ENDBRANCH  23  24
ENDBRANCH   1  14
TORSDOF 2
ENDMDL
MODEL 5
REMARK VINA RESULT:      -8.4      4.786      6.547
REMARK  2 active torsions:
REMARK  status: ('A' for Active; 'I' for Inactive)
REMARK    1  A    between atoms: C_5  and  C_6 
REMARK    2  A    between atoms: C_17  and  O_18 
ROOT
HETATM    1  C   UNL     1      -4.394   1.749 -32.374  1.00  0.00     0.200 C 
HETATM    2  N   UNL     1      -3.138   2.445 -32.475  1.00  0.00    -0.336 N 
HETATM    3  C   UNL     1      -3.078   3.789 -32.202  1.00  0.00     0.255 C 
HETATM    4  O   UNL     1      -2.236   4.506 -32.724  1.00  0.00    -0.268 OA
HETATM    5  C   UNL     1      -4.038   4.286 -31.199  1.00  0.00     0.053 A 
HETATM    6  C   UNL     1      -4.940   3.367 -30.652  1.00  0.00     0.026 A 
HETATM    7  N   UNL     1      -5.002   2.035 -31.085  1.00  0.00    -0.267 NA
HETATM    8  C   UNL     1      -3.981   5.609 -30.754  1.00  0.00     0.019 A 
HETATM    9  C   UNL     1      -4.829   6.022 -29.726  1.00  0.00     0.001 A 
HETATM   10  C   UNL     1      -5.713   5.111 -29.148  1.00  0.00     0.002 A 
HETATM   11  C   UNL     1      -5.763   3.790 -29.604  1.00  0.00     0.024 A 
HETATM   12  H   UNL     1      -2.560   2.203 -33.272  1.00  0.00     0.164 HD
HETATM   13  H   UNL     1      -4.685   1.400 -30.354  1.00  0.00     0.130 HD
ENDROOT
BRANCH   1  14
HETATM   14  C   UNL     1      -4.198   0.250 -32.520  1.00  0.00     0.023 A 
HETATM   15  C   UNL     1      -5.026  -0.539 -33.384  1.00  0.00    -0.014 A 
HETATM   16  C   UNL     1      -4.790  -1.940 -33.465  1.00  0.00    -0.025 A 
HETATM   17  C   UNL     1      -6.086  -0.030 -34.179  1.00  0.00     0.013 A 
HETATM   18  C   UNL     1      -5.562  -2.748 -34.315  1.00  0.00     0.012 A 
HETATM   19  C   UNL     1      -3.786  -2.534 -32.691  1.00  0.00     0.015 A 
HETATM   20  C   UNL     1      -6.581  -2.206 -35.092  1.00  0.00     0.001 A 
HETATM   21  C   UNL     1      -6.846  -0.848 -35.020  1.00  0.00     0.001 A 
HETATM   22  C   UNL     1      -3.004  -1.773 -31.833  1.00  0.00     0.038 A 
HETATM   23  C   UNL     1      -3.204  -0.402 -31.758  1.00  0.00     0.076 A 
BRANCH  23  24
HETATM   24  O   UNL     1      -2.380   0.263 -30.889  1.00  0.00    -0.360 OA
HETATM   25  H   UNL     1      -2.279  -0.268 -30.074  1.00  0.00     0.217 HD
ENDBRANCH  23  24
ENDBRANCH   1  14
TORSDOF 2
ENDMDL
MODEL 6
REMARK VINA RESULT:      -8.2      4.730      6.902
REMARK  2 active torsions:
REMARK  status: ('A' for Active; 'I' for Inactive)
REMARK    1  A    between atoms: C_5  and  C_6 
REMARK    2  A    between atoms: C_17  and  O_18 
ROOT
HETATM    1  C   UNL     1      -4.730   0.460 -32.666  1.00  0.00     0.200 C 
HETATM    2  N   UNL     1      -5.875  -0.019 -33.395  1.00  0.00    -0.336 N 
HETATM    3  C   UNL     1      -5.767  -1.148 -34.168  1.00  0.00     0.255 C 
HETATM    4  O   UNL     1      -6.478  -1.316 -35.150  1.00  0.00    -0.268 OA
HETATM    5  C   UNL     1      -4.802  -2.160 -33.701  1.00  0.00     0.053 A 
HETATM    6  C   UNL     1      -4.060  -1.868 -32.551  1.00  0.00     0.026 A 
HETATM    7  N   UNL     1      -4.156  -0.631 -31.897  1.00  0.00    -0.267 NA
HETATM    8  C   UNL     1      -4.704  -3.399 -34.339  1.00  0.00     0.019 A 
HETATM    9  C   UNL     1      -3.862  -4.377 -33.810  1.00  0.00     0.001 A 
HETATM   10  C   UNL     1      -3.139  -4.113 -32.646  1.00  0.00     0.002 A 
HETATM   11  C   UNL     1      -3.243  -2.869 -32.017  1.00  0.00     0.024 A 
HETATM   12  H   UNL     1      -6.438   0.690 -33.851  1.00  0.00     0.164 HD
HETATM   13  H   UNL     1      -4.592  -0.737 -30.982  1.00  0.00     0.130 HD
ENDROOT
BRANCH   1  14
HETATM   14  C   UNL     1      -5.117   1.591 -31.729  1.00  0.00     0.023 A 
HETATM   15  C   UNL     1      -4.405   2.834 -31.710  1.00  0.00    -0.014 A 
HETATM   16  C   UNL     1      -4.819   3.846 -30.800  1.00  0.00    -0.025 A 
HETATM   17  C   UNL     1      -3.294   3.145 -32.538  1.00  0.00     0.013 A 
HETATM   18  C   UNL     1      -4.163   5.087 -30.763  1.00  0.00     0.012 A 
HETATM   19  C   UNL     1      -5.884   3.615 -29.921  1.00  0.00     0.015 A 
HETATM   20  C   UNL     1      -3.090   5.359 -31.605  1.00  0.00     0.001 A 
HETATM   21  C   UNL     1      -2.652   4.386 -32.489  1.00  0.00     0.001 A 
HETATM   22  C   UNL     1      -6.556   2.400 -29.921  1.00  0.00     0.038 A 
HETATM   23  C   UNL     1      -6.180   1.409 -30.817  1.00  0.00     0.076 A 
BRANCH  23  24
HETATM   24  O   UNL     1      -6.906   0.249 -30.744  1.00  0.00    -0.360 OA
HETATM   25  H   UNL     1      -6.796  -0.142 -29.855  1.00  0.00     0.217 HD
ENDBRANCH  23  24
ENDBRANCH   1  14
TORSDOF 2
ENDMDL
MODEL 7
REMARK VINA RESULT:      -8.1      3.489      3.781
REMARK  2 active torsions:
REMARK  status: ('A' for Active; 'I' for Inactive)
REMARK    1  A    between atoms: C_5  and  C_6 
REMARK    2  A    between atoms: C_17  and  O_18 
ROOT
HETATM    1  C   UNL     1      -6.517   1.363 -32.992  1.00  0.00     0.200 C 
HETATM    2  N   UNL     1      -5.986   2.642 -33.383  1.00  0.00    -0.336 N 
HETATM    3  C   UNL     1      -6.824   3.724 -33.493  1.00  0.00     0.255 C 
HETATM    4  O   UNL     1      -6.576   4.645 -34.260  1.00  0.00    -0.268 OA
HETATM    5  C   UNL     1      -7.988   3.732 -32.588  1.00  0.00     0.053 A 
HETATM    6  C   UNL     1      -8.157   2.634 -31.737  1.00  0.00     0.026 A 
HETATM    7  N   UNL     1      -7.310   1.518 -31.784  1.00  0.00    -0.267 NA
HETATM    8  C   UNL     1      -8.834   4.842 -32.526  1.00  0.00     0.019 A 
HETATM    9  C   UNL     1      -9.861   4.868 -31.584  1.00  0.00     0.001 A 
HETATM   10  C   UNL     1     -10.025   3.795 -30.707  1.00  0.00     0.002 A 
HETATM   11  C   UNL     1      -9.174   2.688 -30.779  1.00  0.00     0.024 A 
HETATM   12  H   UNL     1      -5.300   2.628 -34.130  1.00  0.00     0.164 HD
HETATM   13  H   UNL     1      -6.748   1.453 -30.937  1.00  0.00     0.130 HD
ENDROOT
BRANCH   1  14
HETATM   14  C   UNL     1      -5.399   0.365 -32.740  1.00  0.00     0.023 A 
HETATM   15  C   UNL     1      -5.361  -0.908 -33.397  1.00  0.00    -0.014 A 
HETATM   16  C   UNL     1      -4.287  -1.795 -33.105  1.00  0.00    -0.025 A 
HETATM   17  C   UNL     1      -6.326  -1.368 -34.330  1.00  0.00     0.013 A 
HETATM   18  C   UNL     1      -4.198  -3.043 -33.743  1.00  0.00     0.012 A 
HETATM   19  C   UNL     1      -3.307  -1.438 -32.172  1.00  0.00     0.015 A 
HETATM   20  C   UNL     1      -5.156  -3.450 -34.666  1.00  0.00     0.001 A 
HETATM   21  C   UNL     1      -6.222  -2.614 -34.956  1.00  0.00     0.001 A 
HETATM   22  C   UNL     1      -3.361  -0.216 -31.515  1.00  0.00     0.038 A 
HETATM   23  C   UNL     1      -4.388   0.672 -31.803  1.00  0.00     0.076 A 
BRANCH  23  24
HETATM   24  O   UNL     1      -4.352   1.853 -31.109  1.00  0.00    -0.360 OA
HETATM   25  H   UNL     1      -4.974   1.801 -30.357  1.00  0.00     0.217 HD
ENDBRANCH  23  24
ENDBRANCH   1  14
TORSDOF 2
ENDMDL
MODEL 8
REMARK VINA RESULT:      -8.1      1.441      2.212
REMARK  2 active torsions:
REMARK  status: ('A' for Active; 'I' for Inactive)
REMARK    1  A    between atoms: C_5  and  C_6 
REMARK    2  A    between atoms: C_17  and  O_18 
ROOT
HETATM    1  C   UNL     1      -9.104   1.101 -32.313  1.00  0.00     0.200 C 
HETATM    2  N   UNL     1      -9.880  -0.045 -32.710  1.00  0.00    -0.336 N 
HETATM    3  C   UNL     1     -11.146   0.129 -33.214  1.00  0.00     0.255 C 
HETATM    4  O   UNL     1     -12.001  -0.738 -33.096  1.00  0.00    -0.268 OA
HETATM    5  C   UNL     1     -11.378   1.383 -33.954  1.00  0.00     0.053 A 
HETATM    6  C   UNL     1     -10.318   2.291 -34.043  1.00  0.00     0.026 A 
HETATM    7  N   UNL     1      -9.095   2.076 -33.390  1.00  0.00    -0.267 NA
HETATM    8  C   UNL     1     -12.589   1.606 -34.614  1.00  0.00     0.019 A 
HETATM    9  C   UNL     1     -12.741   2.750 -35.397  1.00  0.00     0.001 A 
HETATM   10  C   UNL     1     -11.683   3.651 -35.522  1.00  0.00     0.002 A 
HETATM   11  C   UNL     1     -10.476   3.419 -34.854  1.00  0.00     0.024 A 
HETATM   12  H   UNL     1      -9.834  -0.847 -32.093  1.00  0.00     0.164 HD
HETATM   13  H   UNL     1      -8.349   1.906 -34.064  1.00  0.00     0.130 HD
ENDROOT
BRANCH   1  14
HETATM   14  C   UNL     1      -7.678   0.701 -31.978  1.00  0.00     0.023 A 
HETATM   15  C   UNL     1      -6.967  -0.276 -32.748  1.00  0.00    -0.014 A 
HETATM   16  C   UNL     1      -5.636  -0.608 -32.370  1.00  0.00    -0.025 A 
HETATM   17  C   UNL     1      -7.493  -0.959 -33.876  1.00  0.00     0.013 A 
HETATM   18  C   UNL     1      -4.894  -1.544 -33.109  1.00  0.00     0.012 A 
HETATM   19  C   UNL     1      -5.047  -0.008 -31.250  1.00  0.00     0.015 A 
HETATM   20  C   UNL     1      -5.440  -2.178 -34.221  1.00  0.00     0.001 A 
HETATM   21  C   UNL     1      -6.741  -1.889 -34.601  1.00  0.00     0.001 A 
HETATM   22  C   UNL     1      -5.748   0.918 -30.489  1.00  0.00     0.038 A 
HETATM   23  C   UNL     1      -7.039   1.270 -30.854  1.00  0.00     0.076 A 
BRANCH  23  24
HETATM   24  O   UNL     1      -7.644   2.195 -30.045  1.00  0.00    -0.360 OA
HETATM   25  H   UNL     1      -8.614   2.094 -30.114  1.00  0.00     0.217 HD
ENDBRANCH  23  24
ENDBRANCH   1  14
TORSDOF 2
ENDMDL
MODEL 9
REMARK VINA RESULT:      -7.9      3.927      6.843
REMARK  2 active torsions:
REMARK  status: ('A' for Active; 'I' for Inactive)
REMARK    1  A    between atoms: C_5  and  C_6 
REMARK    2  A    between atoms: C_17  and  O_18 
ROOT
HETATM    1  C   UNL     1      -4.887   1.941 -32.499  1.00  0.00     0.200 C 
HETATM    2  N   UNL     1      -5.677   2.704 -31.567  1.00  0.00    -0.336 N 
HETATM    3  C   UNL     1      -5.075   3.660 -30.786  1.00  0.00     0.255 C 
HETATM    4  O   UNL     1      -5.529   3.964 -29.691  1.00  0.00    -0.268 OA
HETATM    5  C   UNL     1      -3.904   4.333 -31.378  1.00  0.00     0.053 A 
HETATM    6  C   UNL     1      -3.489   3.917 -32.648  1.00  0.00     0.026 A 
HETATM    7  N   UNL     1      -4.098   2.846 -33.318  1.00  0.00    -0.267 NA
HETATM    8  C   UNL     1      -3.294   5.406 -30.724  1.00  0.00     0.019 A 
HETATM    9  C   UNL     1      -2.259   6.094 -31.357  1.00  0.00     0.001 A 
HETATM   10  C   UNL     1      -1.853   5.712 -32.636  1.00  0.00     0.002 A 
HETATM   11  C   UNL     1      -2.469   4.635 -33.280  1.00  0.00     0.024 A 
HETATM   12  H   UNL     1      -6.372   2.184 -31.046  1.00  0.00     0.164 HD
HETATM   13  H   UNL     1      -4.605   3.172 -34.139  1.00  0.00     0.130 HD
ENDROOT
BRANCH   1  14
HETATM   14  C   UNL     1      -5.774   1.092 -33.393  1.00  0.00     0.023 A 
HETATM   15  C   UNL     1      -5.480  -0.285 -33.661  1.00  0.00    -0.014 A 
HETATM   16  C   UNL     1      -6.351  -1.017 -34.515  1.00  0.00    -0.025 A 
HETATM   17  C   UNL     1      -4.366  -0.992 -33.138  1.00  0.00     0.013 A 
HETATM   18  C   UNL     1      -6.113  -2.374 -34.787  1.00  0.00     0.012 A 
HETATM   19  C   UNL     1      -7.457  -0.390 -35.103  1.00  0.00     0.015 A 
HETATM   20  C   UNL     1      -5.019  -3.036 -34.239  1.00  0.00     0.001 A 
HETATM   21  C   UNL     1      -4.143  -2.344 -33.418  1.00  0.00     0.001 A 
HETATM   22  C   UNL     1      -7.725   0.951 -34.865  1.00  0.00     0.038 A 
HETATM   23  C   UNL     1      -6.899   1.675 -34.017  1.00  0.00     0.076 A 
BRANCH  23  24
HETATM   24  O   UNL     1      -7.249   2.988 -33.841  1.00  0.00    -0.360 OA
HETATM   25  H   UNL     1      -7.864   3.056 -33.084  1.00  0.00     0.217 HD
ENDBRANCH  23  24
ENDBRANCH   1  14
TORSDOF 2
ENDMDL
MODEL 10
REMARK VINA RESULT:      -7.7      2.127      6.715
REMARK  2 active torsions:
REMARK  status: ('A' for Active; 'I' for Inactive)
REMARK    1  A    between atoms: C_5  and  C_6 
REMARK    2  A    between atoms: C_17  and  O_18 
ROOT
HETATM    1  C   UNL     1      -9.109   1.860 -33.847  1.00  0.00     0.200 C 
HETATM    2  N   UNL     1      -8.720   0.834 -34.780  1.00  0.00    -0.336 N 
HETATM    3  C   UNL     1      -7.470   0.272 -34.693  1.00  0.00     0.255 C 
HETATM    4  O   UNL     1      -6.912  -0.190 -35.678  1.00  0.00    -0.268 OA
HETATM    5  C   UNL     1      -6.889   0.201 -33.340  1.00  0.00     0.053 A 
HETATM    6  C   UNL     1      -7.631   0.742 -32.284  1.00  0.00     0.026 A 
HETATM    7  N   UNL     1      -8.849   1.405 -32.492  1.00  0.00    -0.267 NA
HETATM    8  C   UNL     1      -5.680  -0.464 -33.119  1.00  0.00     0.019 A 
HETATM    9  C   UNL     1      -5.208  -0.611 -31.815  1.00  0.00     0.001 A 
HETATM   10  C   UNL     1      -5.951  -0.105 -30.747  1.00  0.00     0.002 A 
HETATM   11  C   UNL     1      -7.158   0.561 -30.980  1.00  0.00     0.024 A 
HETATM   12  H   UNL     1      -8.991   0.986 -35.744  1.00  0.00     0.164 HD
HETATM   13  H   UNL     1      -9.624   0.871 -32.103  1.00  0.00     0.130 HD
ENDROOT
BRANCH   1  14
HETATM   14  C   UNL     1     -10.583   2.196 -33.994  1.00  0.00     0.023 A 
HETATM   15  C   UNL     1     -11.023   3.473 -34.473  1.00  0.00    -0.014 A 
HETATM   16  C   UNL     1     -12.420   3.720 -34.577  1.00  0.00    -0.025 A 
HETATM   17  C   UNL     1     -10.163   4.535 -34.856  1.00  0.00     0.013 A 
HETATM   18  C   UNL     1     -12.895   4.950 -35.062  1.00  0.00     0.012 A 
HETATM   19  C   UNL     1     -13.343   2.741 -34.189  1.00  0.00     0.015 A 
HETATM   20  C   UNL     1     -12.018   5.959 -35.445  1.00  0.00     0.001 A 
HETATM   21  C   UNL     1     -10.652   5.754 -35.337  1.00  0.00     0.001 A 
HETATM   22  C   UNL     1     -12.916   1.515 -33.699  1.00  0.00     0.038 A 
HETATM   23  C   UNL     1     -11.557   1.247 -33.612  1.00  0.00     0.076 A 
BRANCH  23  24
HETATM   24  O   UNL     1     -11.235   0.009 -33.122  1.00  0.00    -0.360 OA
HETATM   25  H   UNL     1     -10.792  -0.508 -33.825  1.00  0.00     0.217 HD
ENDBRANCH  23  24
ENDBRANCH   1  14
TORSDOF 2
ENDMDL
