MODEL 1
REMARK VINA RESULT:      -8.4      0.000      0.000
REMARK  4 active torsions:
REMARK  status: ('A' for Active; 'I' for Inactive)
REMARK    1  A    between atoms: C_6  and  N_7 
REMARK       I    between atoms: N_7  and  C_8 
REMARK    2  A    between atoms: C_8  and  C_9 
REMARK    3  A    between atoms: C_9  and  S_10 
REMARK    4  A    between atoms: S_10  and  C_11 
ROOT
HETATM    1  C   UNL     1      -6.278  -4.599 -35.046  1.00  0.00     0.001 A 
HETATM    2  C   UNL     1      -6.733  -3.287 -34.950  1.00  0.00     0.018 A 
HETATM    3  C   UNL     1      -5.936  -2.310 -34.329  1.00  0.00     0.049 A 
HETATM    4  C   UNL     1      -4.692  -2.637 -33.794  1.00  0.00     0.024 A 
HETATM    5  S   UNL     1      -3.616  -1.502 -32.957  1.00  0.00    -0.053 SA
HETATM    6  C   UNL     1      -4.465  -0.011 -33.155  1.00  0.00     0.154 A 
HETATM    7  N   UNL     1      -5.642   0.083 -33.719  1.00  0.00    -0.303 N 
HETATM    8  H   UNL     1      -6.055   1.015 -33.756  1.00  0.00     0.171 HD
HETATM    9  C   UNL     1      -6.440  -0.935 -34.273  1.00  0.00     0.259 A 
HETATM   10  O   UNL     1      -7.526  -0.588 -34.698  1.00  0.00    -0.267 OA
HETATM   11  C   UNL     1      -4.248  -3.965 -33.903  1.00  0.00     0.020 A 
HETATM   12  C   UNL     1      -5.033  -4.938 -34.526  1.00  0.00     0.001 A 
ENDROOT
BRANCH   6  13
HETATM   13  N   UNL     1      -3.826   1.037 -32.684  1.00  0.00    -0.306 N 
HETATM   14  C   UNL     1      -4.375   2.120 -31.945  1.00  0.00     0.233 C 
HETATM   15  O   UNL     1      -5.574   2.063 -31.707  1.00  0.00    -0.272 OA
HETATM   16  H   UNL     1      -2.820   1.023 -32.822  1.00  0.00     0.171 HD
BRANCH  14  17
HETATM   17  C   UNL     1      -3.466   3.249 -31.506  1.00  0.00     0.184 C 
BRANCH  17  18
HETATM   18  S   UNL     1      -2.631   4.090 -32.892  1.00  0.00    -0.101 SA
BRANCH  18  19
HETATM   19  C   UNL     1      -1.430   5.041 -31.987  1.00  0.00     0.093 A 
HETATM   20  N   UNL     1      -0.860   4.417 -30.928  1.00  0.00    -0.254 NA
HETATM   21  C   UNL     1       0.057   5.129 -30.228  1.00  0.00     0.118 A 
HETATM   22  C   UNL     1       0.461   6.411 -30.565  1.00  0.00     0.019 A 
HETATM   23  C   UNL     1      -0.111   7.006 -31.682  1.00  0.00     0.004 A 
HETATM   24  C   UNL     1      -1.074   6.313 -32.411  1.00  0.00     0.039 A 
ENDBRANCH  18  19
ENDBRANCH  17  18
ENDBRANCH  14  17
ENDBRANCH   6  13
TORSDOF 4
ENDMDL
MODEL 2
REMARK VINA RESULT:      -7.9      2.346      2.788
REMARK  4 active torsions:
REMARK  status: ('A' for Active; 'I' for Inactive)
REMARK    1  A    between atoms: C_6  and  N_7 
REMARK       I    between atoms: N_7  and  C_8 
REMARK    2  A    between atoms: C_8  and  C_9 
REMARK    3  A    between atoms: C_9  and  S_10 
REMARK    4  A    between atoms: S_10  and  C_11 
ROOT
HETATM    1  C   UNL     1      -4.949  -4.769 -34.484  1.00  0.00     0.001 A 
HETATM    2  C   UNL     1      -4.230  -3.886 -33.684  1.00  0.00     0.018 A 
HETATM    3  C   UNL     1      -4.628  -2.542 -33.583  1.00  0.00     0.049 A 
HETATM    4  C   UNL     1      -5.735  -2.071 -34.286  1.00  0.00     0.024 A 
HETATM    5  S   UNL     1      -6.311  -0.393 -34.268  1.00  0.00    -0.053 SA
HETATM    6  C   UNL     1      -5.257   0.322 -33.101  1.00  0.00     0.154 A 
HETATM    7  N   UNL     1      -4.268  -0.318 -32.530  1.00  0.00    -0.303 N 
HETATM    8  H   UNL     1      -3.698   0.217 -31.875  1.00  0.00     0.171 HD
HETATM    9  C   UNL     1      -3.859  -1.652 -32.708  1.00  0.00     0.259 A 
HETATM   10  O   UNL     1      -2.870  -1.994 -32.087  1.00  0.00    -0.267 OA
HETATM   11  C   UNL     1      -6.451  -2.976 -35.087  1.00  0.00     0.020 A 
HETATM   12  C   UNL     1      -6.063  -4.314 -35.184  1.00  0.00     0.001 A 
ENDROOT
BRANCH   6  13
HETATM   13  N   UNL     1      -5.530   1.578 -32.830  1.00  0.00    -0.306 N 
HETATM   14  C   UNL     1      -4.603   2.629 -32.588  1.00  0.00     0.233 C 
HETATM   15  O   UNL     1      -3.417   2.332 -32.654  1.00  0.00    -0.272 OA
HETATM   16  H   UNL     1      -6.516   1.819 -32.860  1.00  0.00     0.171 HD
BRANCH  14  17
HETATM   17  C   UNL     1      -5.124   4.015 -32.273  1.00  0.00     0.184 C 
BRANCH  17  18
HETATM   18  S   UNL     1      -5.237   5.098 -33.736  1.00  0.00    -0.101 SA
BRANCH  18  19
HETATM   19  C   UNL     1      -3.578   5.744 -33.760  1.00  0.00     0.093 A 
HETATM   20  N   UNL     1      -3.306   6.706 -32.846  1.00  0.00    -0.254 NA
HETATM   21  C   UNL     1      -2.047   7.207 -32.853  1.00  0.00     0.118 A 
HETATM   22  C   UNL     1      -1.042   6.760 -33.695  1.00  0.00     0.019 A 
HETATM   23  C   UNL     1      -1.342   5.742 -34.591  1.00  0.00     0.004 A 
HETATM   24  C   UNL     1      -2.632   5.220 -34.628  1.00  0.00     0.039 A 
ENDBRANCH  18  19
ENDBRANCH  17  18
ENDBRANCH  14  17
ENDBRANCH   6  13
TORSDOF 4
ENDMDL
MODEL 3
REMARK VINA RESULT:      -7.9      1.778      1.968
REMARK  4 active torsions:
REMARK  status: ('A' for Active; 'I' for Inactive)
REMARK    1  A    between atoms: C_6  and  N_7 
REMARK       I    between atoms: N_7  and  C_8 
REMARK    2  A    between atoms: C_8  and  C_9 
REMARK    3  A    between atoms: C_9  and  S_10 
REMARK    4  A    between atoms: S_10  and  C_11 
ROOT
HETATM    1  C   UNL     1      -5.564  -4.734 -34.871  1.00  0.00     0.001 A 
HETATM    2  C   UNL     1      -6.132  -3.465 -34.941  1.00  0.00     0.018 A 
HETATM    3  C   UNL     1      -5.546  -2.391 -34.250  1.00  0.00     0.049 A 
HETATM    4  C   UNL     1      -4.400  -2.578 -33.479  1.00  0.00     0.024 A 
HETATM    5  S   UNL     1      -3.592  -1.312 -32.536  1.00  0.00    -0.053 SA
HETATM    6  C   UNL     1      -4.507   0.086 -32.979  1.00  0.00     0.154 A 
HETATM    7  N   UNL     1      -5.563   0.045 -33.750  1.00  0.00    -0.303 N 
HETATM    8  H   UNL     1      -6.035   0.933 -33.921  1.00  0.00     0.171 HD
HETATM    9  C   UNL     1      -6.160  -1.066 -34.373  1.00  0.00     0.259 A 
HETATM   10  O   UNL     1      -7.172  -0.840 -35.009  1.00  0.00    -0.267 OA
HETATM   11  C   UNL     1      -3.839  -3.864 -33.422  1.00  0.00     0.020 A 
HETATM   12  C   UNL     1      -4.414  -4.933 -34.113  1.00  0.00     0.001 A 
ENDROOT
BRANCH   6  13
HETATM   13  N   UNL     1      -4.052   1.208 -32.467  1.00  0.00    -0.306 N 
HETATM   14  C   UNL     1      -4.813   2.268 -31.902  1.00  0.00     0.233 C 
HETATM   15  O   UNL     1      -6.027   2.110 -31.874  1.00  0.00    -0.272 OA
HETATM   16  H   UNL     1      -3.041   1.282 -32.427  1.00  0.00     0.171 HD
BRANCH  14  17
HETATM   17  C   UNL     1      -4.096   3.494 -31.380  1.00  0.00     0.184 C 
BRANCH  17  18
HETATM   18  S   UNL     1      -4.785   5.061 -32.010  1.00  0.00    -0.101 SA
BRANCH  18  19
HETATM   19  C   UNL     1      -3.393   5.645 -32.952  1.00  0.00     0.093 A 
HETATM   20  N   UNL     1      -2.938   6.880 -32.631  1.00  0.00    -0.254 NA
HETATM   21  C   UNL     1      -1.878   7.338 -33.340  1.00  0.00     0.118 A 
HETATM   22  C   UNL     1      -1.228   6.604 -34.318  1.00  0.00     0.019 A 
HETATM   23  C   UNL     1      -1.691   5.323 -34.593  1.00  0.00     0.004 A 
HETATM   24  C   UNL     1      -2.792   4.829 -33.900  1.00  0.00     0.039 A 
ENDBRANCH  18  19
ENDBRANCH  17  18
ENDBRANCH  14  17
ENDBRANCH   6  13
TORSDOF 4
ENDMDL
MODEL 4
REMARK VINA RESULT:      -7.7      2.178      8.199
REMARK  4 active torsions:
REMARK  status: ('A' for Active; 'I' for Inactive)
REMARK    1  A    between atoms: C_6  and  N_7 
REMARK       I    between atoms: N_7  and  C_8 
REMARK    2  A    between atoms: C_8  and  C_9 
REMARK    3  A    between atoms: C_9  and  S_10 
REMARK    4  A    between atoms: S_10  and  C_11 
ROOT
HETATM    1  C   UNL     1      -0.781   7.075 -32.906  1.00  0.00     0.001 A 
HETATM    2  C   UNL     1      -1.849   6.614 -33.669  1.00  0.00     0.018 A 
HETATM    3  C   UNL     1      -2.553   5.463 -33.274  1.00  0.00     0.049 A 
HETATM    4  C   UNL     1      -2.189   4.764 -32.125  1.00  0.00     0.024 A 
HETATM    5  S   UNL     1      -2.975   3.283 -31.547  1.00  0.00    -0.053 SA
HETATM    6  C   UNL     1      -4.281   3.124 -32.667  1.00  0.00     0.154 A 
HETATM    7  N   UNL     1      -4.458   3.920 -33.691  1.00  0.00    -0.303 N 
HETATM    8  H   UNL     1      -5.251   3.711 -34.297  1.00  0.00     0.171 HD
HETATM    9  C   UNL     1      -3.689   5.027 -34.092  1.00  0.00     0.259 A 
HETATM   10  O   UNL     1      -4.042   5.579 -35.117  1.00  0.00    -0.267 OA
HETATM   11  C   UNL     1      -1.111   5.245 -31.366  1.00  0.00     0.020 A 
HETATM   12  C   UNL     1      -0.413   6.392 -31.751  1.00  0.00     0.001 A 
ENDROOT
BRANCH   6  13
HETATM   13  N   UNL     1      -5.092   2.123 -32.407  1.00  0.00    -0.306 N 
HETATM   14  C   UNL     1      -6.453   2.199 -32.004  1.00  0.00     0.233 C 
HETATM   15  O   UNL     1      -6.927   3.323 -31.903  1.00  0.00    -0.272 OA
HETATM   16  H   UNL     1      -4.703   1.201 -32.575  1.00  0.00     0.171 HD
BRANCH  14  17
HETATM   17  C   UNL     1      -7.215   0.920 -31.733  1.00  0.00     0.184 C 
BRANCH  17  18
HETATM   18  S   UNL     1      -7.947   0.178 -33.231  1.00  0.00    -0.101 SA
BRANCH  18  19
HETATM   19  C   UNL     1      -6.667  -0.988 -33.644  1.00  0.00     0.093 A 
HETATM   20  N   UNL     1      -5.497  -0.840 -32.977  1.00  0.00    -0.254 NA
HETATM   21  C   UNL     1      -4.513  -1.721 -33.282  1.00  0.00     0.118 A 
HETATM   22  C   UNL     1      -4.660  -2.763 -34.182  1.00  0.00     0.019 A 
HETATM   23  C   UNL     1      -5.887  -2.913 -34.817  1.00  0.00     0.004 A 
HETATM   24  C   UNL     1      -6.913  -2.013 -34.545  1.00  0.00     0.039 A 
ENDBRANCH  18  19
ENDBRANCH  17  18
ENDBRANCH  14  17
ENDBRANCH   6  13
TORSDOF 4
ENDMDL
MODEL 5
REMARK VINA RESULT:      -7.6      6.142      9.394
REMARK  4 active torsions:
REMARK  status: ('A' for Active; 'I' for Inactive)
REMARK    1  A    between atoms: C_6  and  N_7 
REMARK       I    between atoms: N_7  and  C_8 
REMARK    2  A    between atoms: C_8  and  C_9 
REMARK    3  A    between atoms: C_9  and  S_10 
REMARK    4  A    between atoms: S_10  and  C_11 
ROOT
HETATM    1  C   UNL     1     -15.691   3.251 -31.831  1.00  0.00     0.001 A 
HETATM    2  C   UNL     1     -15.271   2.115 -32.518  1.00  0.00     0.018 A 
HETATM    3  C   UNL     1     -13.971   2.054 -33.048  1.00  0.00     0.049 A 
HETATM    4  C   UNL     1     -13.091   3.125 -32.907  1.00  0.00     0.024 A 
HETATM    5  S   UNL     1     -11.443   3.178 -33.562  1.00  0.00    -0.053 SA
HETATM    6  C   UNL     1     -11.277   1.585 -34.210  1.00  0.00     0.154 A 
HETATM    7  N   UNL     1     -12.245   0.705 -34.225  1.00  0.00    -0.303 N 
HETATM    8  H   UNL     1     -12.034  -0.195 -34.658  1.00  0.00     0.171 HD
HETATM    9  C   UNL     1     -13.559   0.829 -33.740  1.00  0.00     0.259 A 
HETATM   10  O   UNL     1     -14.286  -0.130 -33.919  1.00  0.00    -0.267 OA
HETATM   11  C   UNL     1     -13.530   4.261 -32.209  1.00  0.00     0.020 A 
HETATM   12  C   UNL     1     -14.819   4.323 -31.674  1.00  0.00     0.001 A 
ENDROOT
BRANCH   6  13
HETATM   13  N   UNL     1     -10.084   1.327 -34.697  1.00  0.00    -0.306 N 
HETATM   14  C   UNL     1      -9.021   0.635 -34.053  1.00  0.00     0.233 C 
HETATM   15  O   UNL     1      -9.249   0.221 -32.923  1.00  0.00    -0.272 OA
HETATM   16  H   UNL     1      -9.945   1.607 -35.663  1.00  0.00     0.171 HD
BRANCH  14  17
HETATM   17  C   UNL     1      -7.708   0.456 -34.783  1.00  0.00     0.184 C 
BRANCH  17  18
HETATM   18  S   UNL     1      -6.310   0.066 -33.678  1.00  0.00    -0.101 SA
BRANCH  18  19
HETATM   19  C   UNL     1      -6.020  -1.627 -34.144  1.00  0.00     0.093 A 
HETATM   20  N   UNL     1      -4.727  -2.031 -34.124  1.00  0.00    -0.254 NA
HETATM   21  C   UNL     1      -4.491  -3.318 -34.477  1.00  0.00     0.118 A 
HETATM   22  C   UNL     1      -5.486  -4.225 -34.802  1.00  0.00     0.019 A 
HETATM   23  C   UNL     1      -6.805  -3.790 -34.771  1.00  0.00     0.004 A 
HETATM   24  C   UNL     1      -7.083  -2.468 -34.436  1.00  0.00     0.039 A 
ENDBRANCH  18  19
ENDBRANCH  17  18
ENDBRANCH  14  17
ENDBRANCH   6  13
TORSDOF 4
ENDMDL
MODEL 6
REMARK VINA RESULT:      -7.5      4.669      7.766
REMARK  4 active torsions:
REMARK  status: ('A' for Active; 'I' for Inactive)
REMARK    1  A    between atoms: C_6  and  N_7 
REMARK       I    between atoms: N_7  and  C_8 
REMARK    2  A    between atoms: C_8  and  C_9 
REMARK    3  A    between atoms: C_9  and  S_10 
REMARK    4  A    between atoms: S_10  and  C_11 
ROOT
HETATM    1  C   UNL     1     -12.669   2.524 -34.300  1.00  0.00     0.001 A 
HETATM    2  C   UNL     1     -12.196   1.338 -33.745  1.00  0.00     0.018 A 
HETATM    3  C   UNL     1     -10.813   1.106 -33.651  1.00  0.00     0.049 A 
HETATM    4  C   UNL     1      -9.898   2.047 -34.120  1.00  0.00     0.024 A 
HETATM    5  S   UNL     1      -8.136   1.852 -34.091  1.00  0.00    -0.053 SA
HETATM    6  C   UNL     1      -7.967   0.357 -33.241  1.00  0.00     0.154 A 
HETATM    7  N   UNL     1      -8.981  -0.379 -32.864  1.00  0.00    -0.303 N 
HETATM    8  H   UNL     1      -8.756  -1.255 -32.391  1.00  0.00     0.171 HD
HETATM    9  C   UNL     1     -10.357  -0.143 -33.035  1.00  0.00     0.259 A 
HETATM   10  O   UNL     1     -11.103  -1.014 -32.629  1.00  0.00    -0.267 OA
HETATM   11  C   UNL     1     -10.393   3.238 -34.675  1.00  0.00     0.020 A 
HETATM   12  C   UNL     1     -11.767   3.476 -34.763  1.00  0.00     0.001 A 
ENDROOT
BRANCH   6  13
HETATM   13  N   UNL     1      -6.721   0.012 -33.005  1.00  0.00    -0.306 N 
HETATM   14  C   UNL     1      -6.146  -0.331 -31.750  1.00  0.00     0.233 C 
HETATM   15  O   UNL     1      -6.899  -0.318 -30.785  1.00  0.00    -0.272 OA
HETATM   16  H   UNL     1      -6.135  -0.071 -33.829  1.00  0.00     0.171 HD
BRANCH  14  17
HETATM   17  C   UNL     1      -4.675  -0.684 -31.685  1.00  0.00     0.184 C 
BRANCH  17  18
HETATM   18  S   UNL     1      -3.883  -0.798 -33.324  1.00  0.00    -0.101 SA
BRANCH  18  19
HETATM   19  C   UNL     1      -4.393  -2.438 -33.791  1.00  0.00     0.093 A 
HETATM   20  N   UNL     1      -5.493  -2.512 -34.579  1.00  0.00    -0.254 NA
HETATM   21  C   UNL     1      -5.894  -3.755 -34.943  1.00  0.00     0.118 A 
HETATM   22  C   UNL     1      -5.223  -4.915 -34.594  1.00  0.00     0.019 A 
HETATM   23  C   UNL     1      -4.074  -4.802 -33.821  1.00  0.00     0.004 A 
HETATM   24  C   UNL     1      -3.646  -3.543 -33.410  1.00  0.00     0.039 A 
ENDBRANCH  18  19
ENDBRANCH  17  18
ENDBRANCH  14  17
ENDBRANCH   6  13
TORSDOF 4
ENDMDL
MODEL 7
REMARK VINA RESULT:      -7.5      2.558      3.717
REMARK  4 active torsions:
REMARK  status: ('A' for Active; 'I' for Inactive)
REMARK    1  A    between atoms: C_6  and  N_7 
REMARK       I    between atoms: N_7  and  C_8 
REMARK    2  A    between atoms: C_8  and  C_9 
REMARK    3  A    between atoms: C_9  and  S_10 
REMARK    4  A    between atoms: S_10  and  C_11 
ROOT
HETATM    1  C   UNL     1      -6.714  -0.773 -34.359  1.00  0.00     0.001 A 
HETATM    2  C   UNL     1      -6.717   0.608 -34.188  1.00  0.00     0.018 A 
HETATM    3  C   UNL     1      -5.749   1.219 -33.372  1.00  0.00     0.049 A 
HETATM    4  C   UNL     1      -4.784   0.457 -32.717  1.00  0.00     0.024 A 
HETATM    5  S   UNL     1      -3.537   1.109 -31.636  1.00  0.00    -0.053 SA
HETATM    6  C   UNL     1      -3.802   2.809 -31.788  1.00  0.00     0.154 A 
HETATM    7  N   UNL     1      -4.778   3.330 -32.486  1.00  0.00    -0.303 N 
HETATM    8  H   UNL     1      -4.848   4.348 -32.481  1.00  0.00     0.171 HD
HETATM    9  C   UNL     1      -5.771   2.679 -33.240  1.00  0.00     0.259 A 
HETATM   10  O   UNL     1      -6.600   3.398 -33.764  1.00  0.00    -0.267 OA
HETATM   11  C   UNL     1      -4.794  -0.934 -32.904  1.00  0.00     0.020 A 
HETATM   12  C   UNL     1      -5.749  -1.545 -33.719  1.00  0.00     0.001 A 
ENDROOT
BRANCH   6  13
HETATM   13  N   UNL     1      -2.934   3.547 -31.133  1.00  0.00    -0.306 N 
HETATM   14  C   UNL     1      -1.978   4.445 -31.683  1.00  0.00     0.233 C 
HETATM   15  O   UNL     1      -1.973   4.553 -32.903  1.00  0.00    -0.272 OA
HETATM   16  H   UNL     1      -3.010   3.504 -30.122  1.00  0.00     0.171 HD
BRANCH  14  17
HETATM   17  C   UNL     1      -1.048   5.194 -30.752  1.00  0.00     0.184 C 
BRANCH  17  18
HETATM   18  S   UNL     1      -1.779   6.720 -30.070  1.00  0.00    -0.101 SA
BRANCH  18  19
HETATM   19  C   UNL     1      -0.595   7.073 -28.788  1.00  0.00     0.093 A 
HETATM   20  N   UNL     1      -0.752   6.381 -27.633  1.00  0.00    -0.254 NA
HETATM   21  C   UNL     1       0.142   6.639 -26.648  1.00  0.00     0.118 A 
HETATM   22  C   UNL     1       1.205   7.517 -26.781  1.00  0.00     0.019 A 
HETATM   23  C   UNL     1       1.364   8.177 -27.993  1.00  0.00     0.004 A 
HETATM   24  C   UNL     1       0.451   7.954 -29.019  1.00  0.00     0.039 A 
ENDBRANCH  18  19
ENDBRANCH  17  18
ENDBRANCH  14  17
ENDBRANCH   6  13
TORSDOF 4
ENDMDL
MODEL 8
REMARK VINA RESULT:      -7.4      2.582      9.660
REMARK  4 active torsions:
REMARK  status: ('A' for Active; 'I' for Inactive)
REMARK    1  A    between atoms: C_6  and  N_7 
REMARK       I    between atoms: N_7  and  C_8 
REMARK    2  A    between atoms: C_8  and  C_9 
REMARK    3  A    between atoms: C_9  and  S_10 
REMARK    4  A    between atoms: S_10  and  C_11 
ROOT
HETATM    1  C   UNL     1       0.670   8.224 -28.215  1.00  0.00     0.001 A 
HETATM    2  C   UNL     1       0.759   6.999 -28.869  1.00  0.00     0.018 A 
HETATM    3  C   UNL     1      -0.364   6.469 -29.528  1.00  0.00     0.049 A 
HETATM    4  C   UNL     1      -1.579   7.151 -29.527  1.00  0.00     0.024 A 
HETATM    5  S   UNL     1      -3.071   6.567 -30.290  1.00  0.00    -0.053 SA
HETATM    6  C   UNL     1      -2.520   5.127 -31.070  1.00  0.00     0.154 A 
HETATM    7  N   UNL     1      -1.302   4.662 -30.954  1.00  0.00    -0.303 N 
HETATM    8  H   UNL     1      -1.102   3.788 -31.442  1.00  0.00     0.171 HD
HETATM    9  C   UNL     1      -0.219   5.190 -30.229  1.00  0.00     0.259 A 
HETATM   10  O   UNL     1       0.805   4.534 -30.247  1.00  0.00    -0.267 OA
HETATM   11  C   UNL     1      -1.650   8.386 -28.864  1.00  0.00     0.020 A 
HETATM   12  C   UNL     1      -0.534   8.920 -28.215  1.00  0.00     0.001 A 
ENDROOT
BRANCH   6  13
HETATM   13  N   UNL     1      -3.436   4.527 -31.796  1.00  0.00    -0.306 N 
HETATM   14  C   UNL     1      -3.665   3.128 -31.910  1.00  0.00     0.233 C 
HETATM   15  O   UNL     1      -2.936   2.403 -31.245  1.00  0.00    -0.272 OA
HETATM   16  H   UNL     1      -4.080   5.149 -32.274  1.00  0.00     0.171 HD
BRANCH  14  17
HETATM   17  C   UNL     1      -4.768   2.632 -32.821  1.00  0.00     0.184 C 
BRANCH  17  18
HETATM   18  S   UNL     1      -5.974   1.552 -31.980  1.00  0.00    -0.101 SA
BRANCH  18  19
HETATM   19  C   UNL     1      -5.822   0.092 -32.987  1.00  0.00     0.093 A 
HETATM   20  N   UNL     1      -4.616  -0.525 -32.953  1.00  0.00    -0.254 NA
HETATM   21  C   UNL     1      -4.485  -1.638 -33.714  1.00  0.00     0.118 A 
HETATM   22  C   UNL     1      -5.511  -2.185 -34.466  1.00  0.00     0.019 A 
HETATM   23  C   UNL     1      -6.748  -1.553 -34.445  1.00  0.00     0.004 A 
HETATM   24  C   UNL     1      -6.912  -0.394 -33.692  1.00  0.00     0.039 A 
ENDBRANCH  18  19
ENDBRANCH  17  18
ENDBRANCH  14  17
ENDBRANCH   6  13
TORSDOF 4
ENDMDL
MODEL 9
REMARK VINA RESULT:      -7.2      2.384      8.490
REMARK  4 active torsions:
REMARK  status: ('A' for Active; 'I' for Inactive)
REMARK    1  A    between atoms: C_6  and  N_7 
REMARK       I    between atoms: N_7  and  C_8 
REMARK    2  A    between atoms: C_8  and  C_9 
REMARK    3  A    between atoms: C_9  and  S_10 
REMARK    4  A    between atoms: S_10  and  C_11 
ROOT
HETATM    1  C   UNL     1      -0.471   7.149 -30.349  1.00  0.00     0.001 A 
HETATM    2  C   UNL     1      -1.850   7.027 -30.206  1.00  0.00     0.018 A 
HETATM    3  C   UNL     1      -2.553   6.063 -30.949  1.00  0.00     0.049 A 
HETATM    4  C   UNL     1      -1.888   5.226 -31.843  1.00  0.00     0.024 A 
HETATM    5  S   UNL     1      -2.669   4.001 -32.860  1.00  0.00    -0.053 SA
HETATM    6  C   UNL     1      -4.304   4.084 -32.307  1.00  0.00     0.154 A 
HETATM    7  N   UNL     1      -4.726   4.952 -31.424  1.00  0.00    -0.303 N 
HETATM    8  H   UNL     1      -5.720   4.921 -31.195  1.00  0.00     0.171 HD
HETATM    9  C   UNL     1      -4.000   5.949 -30.748  1.00  0.00     0.259 A 
HETATM   10  O   UNL     1      -4.643   6.664 -30.002  1.00  0.00    -0.267 OA
HETATM   11  C   UNL     1      -0.496   5.361 -31.973  1.00  0.00     0.020 A 
HETATM   12  C   UNL     1       0.208   6.313 -31.231  1.00  0.00     0.001 A 
ENDROOT
BRANCH   6  13
HETATM   13  N   UNL     1      -5.101   3.195 -32.856  1.00  0.00    -0.306 N 
HETATM   14  C   UNL     1      -6.075   3.419 -33.868  1.00  0.00     0.233 C 
HETATM   15  O   UNL     1      -6.171   4.567 -34.284  1.00  0.00    -0.272 OA
HETATM   16  H   UNL     1      -4.949   2.238 -32.555  1.00  0.00     0.171 HD
BRANCH  14  17
HETATM   17  C   UNL     1      -6.912   2.257 -34.357  1.00  0.00     0.184 C 
BRANCH  17  18
HETATM   18  S   UNL     1      -7.319   1.054 -33.048  1.00  0.00    -0.101 SA
BRANCH  18  19
HETATM   19  C   UNL     1      -6.212  -0.265 -33.497  1.00  0.00     0.093 A 
HETATM   20  N   UNL     1      -4.919  -0.102 -33.126  1.00  0.00    -0.254 NA
HETATM   21  C   UNL     1      -4.064  -1.099 -33.462  1.00  0.00     0.118 A 
HETATM   22  C   UNL     1      -4.449  -2.263 -34.105  1.00  0.00     0.019 A 
HETATM   23  C   UNL     1      -5.790  -2.419 -34.433  1.00  0.00     0.004 A 
HETATM   24  C   UNL     1      -6.692  -1.405 -34.124  1.00  0.00     0.039 A 
ENDBRANCH  18  19
ENDBRANCH  17  18
ENDBRANCH  14  17
ENDBRANCH   6  13
TORSDOF 4
ENDMDL
MODEL 10
REMARK VINA RESULT:      -7.1      4.230      5.710
REMARK  4 active torsions:
REMARK  status: ('A' for Active; 'I' for Inactive)
REMARK    1  A    between atoms: C_6  and  N_7 
REMARK       I    between atoms: N_7  and  C_8 
REMARK    2  A    between atoms: C_8  and  C_9 
REMARK    3  A    between atoms: C_9  and  S_10 
REMARK    4  A    between atoms: S_10  and  C_11 
ROOT
HETATM    1  C   UNL     1     -13.014   1.880 -34.812  1.00  0.00     0.001 A 
HETATM    2  C   UNL     1     -12.249   0.960 -34.102  1.00  0.00     0.018 A 
HETATM    3  C   UNL     1     -10.905   1.243 -33.801  1.00  0.00     0.049 A 
HETATM    4  C   UNL     1     -10.317   2.436 -34.215  1.00  0.00     0.024 A 
HETATM    5  S   UNL     1      -8.626   2.888 -33.929  1.00  0.00    -0.053 SA
HETATM    6  C   UNL     1      -8.080   1.578 -32.945  1.00  0.00     0.154 A 
HETATM    7  N   UNL     1      -8.817   0.537 -32.651  1.00  0.00    -0.303 N 
HETATM    8  H   UNL     1      -8.376  -0.186 -32.082  1.00  0.00     0.171 HD
HETATM    9  C   UNL     1     -10.143   0.258 -33.027  1.00  0.00     0.259 A 
HETATM   10  O   UNL     1     -10.589  -0.811 -32.657  1.00  0.00    -0.267 OA
HETATM   11  C   UNL     1     -11.105   3.355 -34.928  1.00  0.00     0.020 A 
HETATM   12  C   UNL     1     -12.443   3.080 -35.223  1.00  0.00     0.001 A 
ENDROOT
BRANCH   6  13
HETATM   13  N   UNL     1      -6.846   1.710 -32.512  1.00  0.00    -0.306 N 
HETATM   14  C   UNL     1      -5.735   0.872 -32.806  1.00  0.00     0.233 C 
HETATM   15  O   UNL     1      -5.950  -0.070 -33.558  1.00  0.00    -0.272 OA
HETATM   16  H   UNL     1      -6.673   2.542 -31.957  1.00  0.00     0.171 HD
BRANCH  14  17
HETATM   17  C   UNL     1      -4.390   1.187 -32.188  1.00  0.00     0.184 C 
BRANCH  17  18
HETATM   18  S   UNL     1      -4.314   2.838 -31.416  1.00  0.00    -0.101 SA
BRANCH  18  19
HETATM   19  C   UNL     1      -3.828   3.808 -32.827  1.00  0.00     0.093 A 
HETATM   20  N   UNL     1      -4.841   4.297 -33.583  1.00  0.00    -0.254 NA
HETATM   21  C   UNL     1      -4.486   5.037 -34.661  1.00  0.00     0.118 A 
HETATM   22  C   UNL     1      -3.177   5.347 -34.989  1.00  0.00     0.019 A 
HETATM   23  C   UNL     1      -2.164   4.867 -34.168  1.00  0.00     0.004 A 
HETATM   24  C   UNL     1      -2.490   4.083 -33.065  1.00  0.00     0.039 A 
ENDBRANCH  18  19
ENDBRANCH  17  18
ENDBRANCH  14  17
ENDBRANCH   6  13
TORSDOF 4
ENDMDL
