MODEL 1
REMARK VINA RESULT:      -9.1      0.000      0.000
REMARK  3 active torsions:
REMARK  status: ('A' for Active; 'I' for Inactive)
REMARK    1  A    between atoms: C_6  and  N_7 
REMARK    2  A    between atoms: N_7  and  N_8 
REMARK    3  A    between atoms: C_9  and  C_10 
ROOT
HETATM    1  C   UNL     1      -6.195   2.015 -33.217  1.00  0.00     0.024 A 
HETATM    2  C   UNL     1      -7.462   1.740 -33.702  1.00  0.00     0.138 A 
HETATM    3 CL   UNL     1      -8.724   2.906 -33.790  1.00  0.00    -0.061 Cl
HETATM    4  N   UNL     1      -7.851   0.526 -34.162  1.00  0.00    -0.235 NA
HETATM    5  C   UNL     1      -6.954  -0.476 -34.149  1.00  0.00     0.071 A 
HETATM    6  C   UNL     1      -5.637  -0.296 -33.672  1.00  0.00    -0.004 A 
HETATM    7  C   UNL     1      -5.270   0.970 -33.205  1.00  0.00     0.030 A 
HETATM    8  C   UNL     1      -7.316  -1.732 -34.618  1.00  0.00     0.072 A 
HETATM    9  C   UNL     1      -6.409  -2.792 -34.627  1.00  0.00     0.104 A 
HETATM   10  C   UNL     1      -5.119  -2.614 -34.130  1.00  0.00     0.103 A 
HETATM   11  O   UNL     1      -4.184  -3.614 -34.075  1.00  0.00    -0.346 OA
HETATM   12  C   UNL     1      -4.786  -4.902 -34.251  1.00  0.00     0.202 C 
HETATM   13  C   UNL     1      -5.771  -4.880 -35.409  1.00  0.00     0.202 C 
HETATM   14  O   UNL     1      -6.858  -3.986 -35.132  1.00  0.00    -0.346 OA
HETATM   15  C   UNL     1      -4.726  -1.364 -33.667  1.00  0.00     0.053 A 
ENDROOT
BRANCH   1  16
HETATM   16  C   UNL     1      -5.798   3.348 -32.725  1.00  0.00     0.154 C 
HETATM   17  N   UNL     1      -5.238   3.475 -31.563  1.00  0.00    -0.172 NA
BRANCH  17  18
HETATM   18  N   UNL     1      -4.909   4.745 -31.201  1.00  0.00    -0.108 N 
HETATM   19  H   UNL     1      -5.623   5.443 -30.999  1.00  0.00     0.208 HD
BRANCH  18  20
HETATM   20  C   UNL     1      -3.631   5.163 -31.098  1.00  0.00     0.721 A 
HETATM   21  N   UNL     1      -2.586   4.812 -31.808  1.00  0.00    -0.061 NA
HETATM   22  C   UNL     1      -1.537   5.536 -31.284  1.00  0.00     0.103 A 
HETATM   23  C   UNL     1      -1.960   6.345 -30.233  1.00  0.00     0.078 A 
HETATM   24  C   UNL     1      -0.185   5.557 -31.655  1.00  0.00     0.034 A 
HETATM   25  C   UNL     1      -1.111   7.188 -29.515  1.00  0.00     0.032 A 
HETATM   26  N   UNL     1      -3.298   6.083 -30.141  1.00  0.00    -0.186 N 
HETATM   27  C   UNL     1       0.235   7.194 -29.900  1.00  0.00     0.002 A 
HETATM   28  C   UNL     1       0.693   6.394 -30.952  1.00  0.00     0.002 A 
HETATM   29  H   UNL     1      -3.968   6.474 -29.497  1.00  0.00     0.184 HD
ENDBRANCH  18  20
ENDBRANCH  17  18
ENDBRANCH   1  16
TORSDOF 3
ENDMDL
MODEL 2
REMARK VINA RESULT:      -8.6      1.782      2.391
REMARK  3 active torsions:
REMARK  status: ('A' for Active; 'I' for Inactive)
REMARK    1  A    between atoms: C_6  and  N_7 
REMARK    2  A    between atoms: N_7  and  N_8 
REMARK    3  A    between atoms: C_9  and  C_10 
ROOT
HETATM    1  C   UNL     1      -4.210   1.697 -31.987  1.00  0.00     0.024 A 
HETATM    2  C   UNL     1      -5.511   1.947 -32.390  1.00  0.00     0.138 A 
HETATM    3 CL   UNL     1      -6.324   3.439 -32.118  1.00  0.00    -0.061 Cl
HETATM    4  N   UNL     1      -6.290   1.048 -33.041  1.00  0.00    -0.235 NA
HETATM    5  C   UNL     1      -5.771  -0.161 -33.316  1.00  0.00     0.071 A 
HETATM    6  C   UNL     1      -4.454  -0.513 -32.946  1.00  0.00    -0.004 A 
HETATM    7  C   UNL     1      -3.679   0.439 -32.275  1.00  0.00     0.030 A 
HETATM    8  C   UNL     1      -6.538  -1.104 -33.988  1.00  0.00     0.072 A 
HETATM    9  C   UNL     1      -6.029  -2.366 -34.297  1.00  0.00     0.104 A 
HETATM   10  C   UNL     1      -4.738  -2.715 -33.905  1.00  0.00     0.103 A 
HETATM   11  O   UNL     1      -4.181  -3.944 -34.143  1.00  0.00    -0.346 OA
HETATM   12  C   UNL     1      -5.177  -4.907 -34.510  1.00  0.00     0.202 C 
HETATM   13  C   UNL     1      -6.133  -4.322 -35.537  1.00  0.00     0.202 C 
HETATM   14  O   UNL     1      -6.859  -3.217 -34.982  1.00  0.00    -0.346 OA
HETATM   15  C   UNL     1      -3.943  -1.786 -33.244  1.00  0.00     0.053 A 
ENDROOT
BRANCH   1  16
HETATM   16  C   UNL     1      -3.385   2.695 -31.282  1.00  0.00     0.154 C 
HETATM   17  N   UNL     1      -2.598   3.480 -31.949  1.00  0.00    -0.172 NA
BRANCH  17  18
HETATM   18  N   UNL     1      -1.880   4.366 -31.206  1.00  0.00    -0.108 N 
HETATM   19  H   UNL     1      -1.013   4.094 -30.744  1.00  0.00     0.208 HD
BRANCH  18  20
HETATM   20  C   UNL     1      -2.268   5.644 -31.023  1.00  0.00     0.721 A 
HETATM   21  N   UNL     1      -3.315   6.269 -31.507  1.00  0.00    -0.061 NA
HETATM   22  C   UNL     1      -3.230   7.551 -31.010  1.00  0.00     0.103 A 
HETATM   23  C   UNL     1      -2.104   7.704 -30.206  1.00  0.00     0.078 A 
HETATM   24  C   UNL     1      -4.081   8.648 -31.202  1.00  0.00     0.034 A 
HETATM   25  C   UNL     1      -1.765   8.898 -29.569  1.00  0.00     0.032 A 
HETATM   26  N   UNL     1      -1.514   6.472 -30.236  1.00  0.00    -0.186 N 
HETATM   27  C   UNL     1      -2.627   9.982 -29.774  1.00  0.00     0.002 A 
HETATM   28  C   UNL     1      -3.766   9.862 -30.576  1.00  0.00     0.002 A 
HETATM   29  H   UNL     1      -0.670   6.173 -29.774  1.00  0.00     0.184 HD
ENDBRANCH  18  20
ENDBRANCH  17  18
ENDBRANCH   1  16
TORSDOF 3
ENDMDL
MODEL 3
REMARK VINA RESULT:      -8.5      4.330      7.984
REMARK  3 active torsions:
REMARK  status: ('A' for Active; 'I' for Inactive)
REMARK    1  A    between atoms: C_6  and  N_7 
REMARK    2  A    between atoms: N_7  and  N_8 
REMARK    3  A    between atoms: C_9  and  C_10 
ROOT
HETATM    1  C   UNL     1      -7.570   1.488 -33.255  1.00  0.00     0.024 A 
HETATM    2  C   UNL     1      -6.225   1.736 -33.041  1.00  0.00     0.138 A 
HETATM    3 CL   UNL     1      -5.602   3.262 -32.547  1.00  0.00    -0.061 Cl
HETATM    4  N   UNL     1      -5.249   0.808 -33.194  1.00  0.00    -0.235 NA
HETATM    5  C   UNL     1      -5.604  -0.431 -33.577  1.00  0.00     0.071 A 
HETATM    6  C   UNL     1      -6.951  -0.782 -33.821  1.00  0.00    -0.004 A 
HETATM    7  C   UNL     1      -7.931   0.201 -33.653  1.00  0.00     0.030 A 
HETATM    8  C   UNL     1      -4.632  -1.409 -33.738  1.00  0.00     0.072 A 
HETATM    9  C   UNL     1      -4.966  -2.707 -34.126  1.00  0.00     0.104 A 
HETATM   10  C   UNL     1      -6.293  -3.039 -34.392  1.00  0.00     0.103 A 
HETATM   11  O   UNL     1      -6.694  -4.281 -34.808  1.00  0.00    -0.346 OA
HETATM   12  C   UNL     1      -5.583  -5.063 -35.265  1.00  0.00     0.202 C 
HETATM   13  C   UNL     1      -4.417  -4.954 -34.296  1.00  0.00     0.202 C 
HETATM   14  O   UNL     1      -3.934  -3.605 -34.236  1.00  0.00    -0.346 OA
HETATM   15  C   UNL     1      -7.288  -2.084 -34.225  1.00  0.00     0.053 A 
ENDROOT
BRANCH   1  16
HETATM   16  C   UNL     1      -8.611   2.518 -33.078  1.00  0.00     0.154 C 
HETATM   17  N   UNL     1      -9.274   2.959 -34.100  1.00  0.00    -0.172 NA
BRANCH  17  18
HETATM   18  N   UNL     1     -10.213   3.906 -33.831  1.00  0.00    -0.108 N 
HETATM   19  H   UNL     1     -10.000   4.901 -33.896  1.00  0.00     0.208 HD
BRANCH  18  20
HETATM   20  C   UNL     1     -11.471   3.597 -33.455  1.00  0.00     0.721 A 
HETATM   21  N   UNL     1     -12.275   4.244 -32.646  1.00  0.00    -0.061 NA
HETATM   22  C   UNL     1     -13.430   3.493 -32.613  1.00  0.00     0.103 A 
HETATM   23  C   UNL     1     -13.320   2.366 -33.422  1.00  0.00     0.078 A 
HETATM   24  C   UNL     1     -14.623   3.710 -31.909  1.00  0.00     0.034 A 
HETATM   25  C   UNL     1     -14.338   1.425 -33.580  1.00  0.00     0.032 A 
HETATM   26  N   UNL     1     -12.061   2.462 -33.943  1.00  0.00    -0.186 N 
HETATM   27  C   UNL     1     -15.521   1.660 -32.869  1.00  0.00     0.002 A 
HETATM   28  C   UNL     1     -15.664   2.782 -32.048  1.00  0.00     0.002 A 
HETATM   29  H   UNL     1     -11.600   1.834 -34.582  1.00  0.00     0.184 HD
ENDBRANCH  18  20
ENDBRANCH  17  18
ENDBRANCH   1  16
TORSDOF 3
ENDMDL
MODEL 4
REMARK VINA RESULT:      -8.5      3.290      9.005
REMARK  3 active torsions:
REMARK  status: ('A' for Active; 'I' for Inactive)
REMARK    1  A    between atoms: C_6  and  N_7 
REMARK    2  A    between atoms: N_7  and  N_8 
REMARK    3  A    between atoms: C_9  and  C_10 
ROOT
HETATM    1  C   UNL     1      -5.650   2.827 -32.262  1.00  0.00     0.024 A 
HETATM    2  C   UNL     1      -6.309   3.809 -31.541  1.00  0.00     0.138 A 
HETATM    3 CL   UNL     1      -8.006   3.810 -31.261  1.00  0.00    -0.061 Cl
HETATM    4  N   UNL     1      -5.693   4.877 -30.977  1.00  0.00    -0.235 NA
HETATM    5  C   UNL     1      -4.362   4.993 -31.121  1.00  0.00     0.071 A 
HETATM    6  C   UNL     1      -3.601   4.044 -31.840  1.00  0.00    -0.004 A 
HETATM    7  C   UNL     1      -4.268   2.956 -32.410  1.00  0.00     0.030 A 
HETATM    8  C   UNL     1      -3.697   6.071 -30.550  1.00  0.00     0.072 A 
HETATM    9  C   UNL     1      -2.315   6.219 -30.674  1.00  0.00     0.104 A 
HETATM   10  C   UNL     1      -1.575   5.293 -31.407  1.00  0.00     0.103 A 
HETATM   11  O   UNL     1      -0.222   5.389 -31.600  1.00  0.00    -0.346 OA
HETATM   12  C   UNL     1       0.261   6.697 -31.272  1.00  0.00     0.202 C 
HETATM   13  C   UNL     1      -0.328   7.171 -29.953  1.00  0.00     0.202 C 
HETATM   14  O   UNL     1      -1.752   7.305 -30.054  1.00  0.00    -0.346 OA
HETATM   15  C   UNL     1      -2.212   4.198 -31.977  1.00  0.00     0.053 A 
ENDROOT
BRANCH   1  16
HETATM   16  C   UNL     1      -6.346   1.674 -32.865  1.00  0.00     0.154 C 
HETATM   17  N   UNL     1      -6.268   1.458 -34.140  1.00  0.00    -0.172 NA
BRANCH  17  18
HETATM   18  N   UNL     1      -6.943   0.369 -34.597  1.00  0.00    -0.108 N 
HETATM   19  H   UNL     1      -7.876   0.451 -34.999  1.00  0.00     0.208 HD
BRANCH  18  20
HETATM   20  C   UNL     1      -6.434  -0.878 -34.539  1.00  0.00     0.721 A 
HETATM   21  N   UNL     1      -6.944  -2.001 -34.988  1.00  0.00    -0.061 NA
HETATM   22  C   UNL     1      -6.017  -2.969 -34.666  1.00  0.00     0.103 A 
HETATM   23  C   UNL     1      -4.922  -2.417 -34.008  1.00  0.00     0.078 A 
HETATM   24  C   UNL     1      -6.041  -4.351 -34.903  1.00  0.00     0.034 A 
HETATM   25  C   UNL     1      -3.830  -3.163 -33.564  1.00  0.00     0.032 A 
HETATM   26  N   UNL     1      -5.219  -1.085 -33.944  1.00  0.00    -0.186 N 
HETATM   27  C   UNL     1      -3.873  -4.540 -33.811  1.00  0.00     0.002 A 
HETATM   28  C   UNL     1      -4.958  -5.127 -34.469  1.00  0.00     0.002 A 
HETATM   29  H   UNL     1      -4.672  -0.342 -33.540  1.00  0.00     0.184 HD
ENDBRANCH  18  20
ENDBRANCH  17  18
ENDBRANCH   1  16
TORSDOF 3
ENDMDL
MODEL 5
REMARK VINA RESULT:      -8.3      4.149      6.958
REMARK  3 active torsions:
REMARK  status: ('A' for Active; 'I' for Inactive)
REMARK    1  A    between atoms: C_6  and  N_7 
REMARK    2  A    between atoms: N_7  and  N_8 
REMARK    3  A    between atoms: C_9  and  C_10 
ROOT
HETATM    1  C   UNL     1      -6.362   2.110 -33.098  1.00  0.00     0.024 A 
HETATM    2  C   UNL     1      -5.042   1.940 -32.718  1.00  0.00     0.138 A 
HETATM    3 CL   UNL     1      -4.082   3.185 -32.019  1.00  0.00    -0.061 Cl
HETATM    4  N   UNL     1      -4.358   0.777 -32.852  1.00  0.00    -0.235 NA
HETATM    5  C   UNL     1      -4.996  -0.279 -33.386  1.00  0.00     0.071 A 
HETATM    6  C   UNL     1      -6.343  -0.205 -33.805  1.00  0.00    -0.004 A 
HETATM    7  C   UNL     1      -7.018   1.010 -33.652  1.00  0.00     0.030 A 
HETATM    8  C   UNL     1      -4.328  -1.487 -33.532  1.00  0.00     0.072 A 
HETATM    9  C   UNL     1      -4.963  -2.606 -34.075  1.00  0.00     0.104 A 
HETATM   10  C   UNL     1      -6.283  -2.519 -34.512  1.00  0.00     0.103 A 
HETATM   11  O   UNL     1      -6.962  -3.562 -35.083  1.00  0.00    -0.346 OA
HETATM   12  C   UNL     1      -6.068  -4.606 -35.490  1.00  0.00     0.202 C 
HETATM   13  C   UNL     1      -5.056  -4.900 -34.395  1.00  0.00     0.202 C 
HETATM   14  O   UNL     1      -4.222  -3.758 -34.156  1.00  0.00    -0.346 OA
HETATM   15  C   UNL     1      -6.980  -1.325 -34.364  1.00  0.00     0.053 A 
ENDROOT
BRANCH   1  16
HETATM   16  C   UNL     1      -7.083   3.386 -32.938  1.00  0.00     0.154 C 
HETATM   17  N   UNL     1      -7.830   3.839 -33.896  1.00  0.00    -0.172 NA
BRANCH  17  18
HETATM   18  N   UNL     1      -8.453   5.023 -33.649  1.00  0.00    -0.108 N 
HETATM   19  H   UNL     1      -8.078   5.693 -32.980  1.00  0.00     0.208 HD
BRANCH  18  20
HETATM   20  C   UNL     1      -9.601   5.381 -34.259  1.00  0.00     0.721 A 
HETATM   21  N   UNL     1     -10.713   4.699 -34.397  1.00  0.00    -0.061 NA
HETATM   22  C   UNL     1     -11.560   5.530 -35.098  1.00  0.00     0.103 A 
HETATM   23  C   UNL     1     -10.945   6.743 -35.389  1.00  0.00     0.078 A 
HETATM   24  C   UNL     1     -12.878   5.316 -35.525  1.00  0.00     0.034 A 
HETATM   25  C   UNL     1     -11.566   7.777 -36.091  1.00  0.00     0.032 A 
HETATM   26  N   UNL     1      -9.699   6.616 -34.842  1.00  0.00    -0.186 N 
HETATM   27  C   UNL     1     -12.882   7.545 -36.509  1.00  0.00     0.002 A 
HETATM   28  C   UNL     1     -13.529   6.337 -36.233  1.00  0.00     0.002 A 
HETATM   29  H   UNL     1      -8.947   7.286 -34.839  1.00  0.00     0.184 HD
ENDBRANCH  18  20
ENDBRANCH  17  18
ENDBRANCH   1  16
TORSDOF 3
ENDMDL
MODEL 6
REMARK VINA RESULT:      -8.3      4.684     10.169
REMARK  3 active torsions:
REMARK  status: ('A' for Active; 'I' for Inactive)
REMARK    1  A    between atoms: C_6  and  N_7 
REMARK    2  A    between atoms: N_7  and  N_8 
REMARK    3  A    between atoms: C_9  and  C_10 
ROOT
HETATM    1  C   UNL     1      -3.080   5.786 -31.704  1.00  0.00     0.024 A 
HETATM    2  C   UNL     1      -1.833   5.697 -32.301  1.00  0.00     0.138 A 
HETATM    3 CL   UNL     1      -1.564   4.993 -33.847  1.00  0.00    -0.061 Cl
HETATM    4  N   UNL     1      -0.688   6.154 -31.737  1.00  0.00    -0.235 NA
HETATM    5  C   UNL     1      -0.762   6.730 -30.524  1.00  0.00     0.071 A 
HETATM    6  C   UNL     1      -1.988   6.866 -29.834  1.00  0.00    -0.004 A 
HETATM    7  C   UNL     1      -3.149   6.384 -30.445  1.00  0.00     0.030 A 
HETATM    8  C   UNL     1       0.389   7.214 -29.919  1.00  0.00     0.072 A 
HETATM    9  C   UNL     1       0.348   7.825 -28.665  1.00  0.00     0.104 A 
HETATM   10  C   UNL     1      -0.860   7.932 -27.978  1.00  0.00     0.103 A 
HETATM   11  O   UNL     1      -0.975   8.488 -26.731  1.00  0.00    -0.346 OA
HETATM   12  C   UNL     1       0.303   8.614 -26.096  1.00  0.00     0.202 C 
HETATM   13  C   UNL     1       1.328   9.185 -27.063  1.00  0.00     0.202 C 
HETATM   14  O   UNL     1       1.537   8.290 -28.164  1.00  0.00    -0.346 OA
HETATM   15  C   UNL     1      -2.030   7.468 -28.566  1.00  0.00     0.053 A 
ENDROOT
BRANCH   1  16
HETATM   16  C   UNL     1      -4.310   5.282 -32.343  1.00  0.00     0.154 C 
HETATM   17  N   UNL     1      -5.090   4.467 -31.705  1.00  0.00    -0.172 NA
BRANCH  17  18
HETATM   18  N   UNL     1      -6.200   4.062 -32.380  1.00  0.00    -0.108 N 
HETATM   19  H   UNL     1      -7.012   4.668 -32.483  1.00  0.00     0.208 HD
BRANCH  18  20
HETATM   20  C   UNL     1      -6.303   2.840 -32.943  1.00  0.00     0.721 A 
HETATM   21  N   UNL     1      -6.866   2.497 -34.077  1.00  0.00    -0.061 NA
HETATM   22  C   UNL     1      -6.689   1.133 -34.166  1.00  0.00     0.103 A 
HETATM   23  C   UNL     1      -6.001   0.642 -33.061  1.00  0.00     0.078 A 
HETATM   24  C   UNL     1      -7.090   0.238 -35.169  1.00  0.00     0.034 A 
HETATM   25  C   UNL     1      -5.680  -0.704 -32.884  1.00  0.00     0.032 A 
HETATM   26  N   UNL     1      -5.770   1.755 -32.301  1.00  0.00    -0.186 N 
HETATM   27  C   UNL     1      -6.090  -1.581 -33.895  1.00  0.00     0.002 A 
HETATM   28  C   UNL     1      -6.782  -1.121 -35.019  1.00  0.00     0.002 A 
HETATM   29  H   UNL     1      -5.295   1.819 -31.416  1.00  0.00     0.184 HD
ENDBRANCH  18  20
ENDBRANCH  17  18
ENDBRANCH   1  16
TORSDOF 3
ENDMDL
MODEL 7
REMARK VINA RESULT:      -8.2      7.215     12.342
REMARK  3 active torsions:
REMARK  status: ('A' for Active; 'I' for Inactive)
REMARK    1  A    between atoms: C_6  and  N_7 
REMARK    2  A    between atoms: N_7  and  N_8 
REMARK    3  A    between atoms: C_9  and  C_10 
ROOT
HETATM    1  C   UNL     1       0.095   7.891 -28.800  1.00  0.00     0.024 A 
HETATM    2  C   UNL     1      -0.862   8.876 -28.625  1.00  0.00     0.138 A 
HETATM    3 CL   UNL     1      -2.227   9.074 -29.654  1.00  0.00    -0.061 Cl
HETATM    4  N   UNL     1      -0.833   9.793 -27.627  1.00  0.00    -0.235 NA
HETATM    5  C   UNL     1       0.185   9.747 -26.750  1.00  0.00     0.071 A 
HETATM    6  C   UNL     1       1.211   8.780 -26.844  1.00  0.00    -0.004 A 
HETATM    7  C   UNL     1       1.149   7.849 -27.886  1.00  0.00     0.030 A 
HETATM    8  C   UNL     1       0.244  10.667 -25.712  1.00  0.00     0.072 A 
HETATM    9  C   UNL     1       1.282  10.642 -24.779  1.00  0.00     0.104 A 
HETATM   10  C   UNL     1       2.305   9.703 -24.894  1.00  0.00     0.103 A 
HETATM   11  O   UNL     1       3.372   9.637 -24.038  1.00  0.00    -0.346 OA
HETATM   12  C   UNL     1       3.489  10.832 -23.256  1.00  0.00     0.202 C 
HETATM   13  C   UNL     1       2.133  11.249 -22.710  1.00  0.00     0.202 C 
HETATM   14  O   UNL     1       1.236  11.580 -23.779  1.00  0.00    -0.346 OA
HETATM   15  C   UNL     1       2.263   8.761 -25.916  1.00  0.00     0.053 A 
ENDROOT
BRANCH   1  16
HETATM   16  C   UNL     1       0.036   6.903 -29.894  1.00  0.00     0.154 C 
HETATM   17  N   UNL     1      -0.262   5.667 -29.643  1.00  0.00    -0.172 NA
BRANCH  17  18
HETATM   18  N   UNL     1      -0.290   4.836 -30.719  1.00  0.00    -0.108 N 
HETATM   19  H   UNL     1       0.466   4.179 -30.906  1.00  0.00     0.208 HD
BRANCH  18  20
HETATM   20  C   UNL     1      -1.304   4.833 -31.609  1.00  0.00     0.721 A 
HETATM   21  N   UNL     1      -2.569   4.542 -31.421  1.00  0.00    -0.061 NA
HETATM   22  C   UNL     1      -3.160   4.697 -32.656  1.00  0.00     0.103 A 
HETATM   23  C   UNL     1      -2.230   5.091 -33.612  1.00  0.00     0.078 A 
HETATM   24  C   UNL     1      -4.496   4.517 -33.042  1.00  0.00     0.034 A 
HETATM   25  C   UNL     1      -2.547   5.323 -34.951  1.00  0.00     0.032 A 
HETATM   26  N   UNL     1      -1.058   5.169 -32.913  1.00  0.00    -0.186 N 
HETATM   27  C   UNL     1      -3.885   5.137 -35.317  1.00  0.00     0.002 A 
HETATM   28  C   UNL     1      -4.846   4.742 -34.380  1.00  0.00     0.002 A 
HETATM   29  H   UNL     1      -0.145   5.424 -33.252  1.00  0.00     0.184 HD
ENDBRANCH  18  20
ENDBRANCH  17  18
ENDBRANCH   1  16
TORSDOF 3
ENDMDL
MODEL 8
REMARK VINA RESULT:      -8.2      9.098     13.243
REMARK  3 active torsions:
REMARK  status: ('A' for Active; 'I' for Inactive)
REMARK    1  A    between atoms: C_6  and  N_7 
REMARK    2  A    between atoms: N_7  and  N_8 
REMARK    3  A    between atoms: C_9  and  C_10 
ROOT
HETATM    1  C   UNL     1       1.807   9.261 -24.682  1.00  0.00     0.024 A 
HETATM    2  C   UNL     1       0.833  10.210 -24.942  1.00  0.00     0.138 A 
HETATM    3 CL   UNL     1       0.544  11.580 -23.942  1.00  0.00    -0.061 Cl
HETATM    4  N   UNL     1      -0.001  10.167 -26.010  1.00  0.00    -0.235 NA
HETATM    5  C   UNL     1       0.123   9.144 -26.874  1.00  0.00     0.071 A 
HETATM    6  C   UNL     1       1.086   8.126 -26.695  1.00  0.00    -0.004 A 
HETATM    7  C   UNL     1       1.929   8.201 -25.582  1.00  0.00     0.030 A 
HETATM    8  C   UNL     1      -0.710   9.072 -27.982  1.00  0.00     0.072 A 
HETATM    9  C   UNL     1      -0.604   8.028 -28.902  1.00  0.00     0.104 A 
HETATM   10  C   UNL     1       0.330   7.013 -28.706  1.00  0.00     0.103 A 
HETATM   11  O   UNL     1       0.472   5.941 -29.546  1.00  0.00    -0.346 OA
HETATM   12  C   UNL     1      -0.656   5.810 -30.420  1.00  0.00     0.202 C 
HETATM   13  C   UNL     1      -1.037   7.159 -31.008  1.00  0.00     0.202 C 
HETATM   14  O   UNL     1      -1.459   8.060 -29.975  1.00  0.00    -0.346 OA
HETATM   15  C   UNL     1       1.186   7.068 -27.612  1.00  0.00     0.053 A 
ENDROOT
BRANCH   1  16
HETATM   16  C   UNL     1       2.703   9.334 -23.513  1.00  0.00     0.154 C 
HETATM   17  N   UNL     1       2.931   8.277 -22.798  1.00  0.00    -0.172 NA
BRANCH  17  18
HETATM   18  N   UNL     1       3.772   8.448 -21.742  1.00  0.00    -0.108 N 
HETATM   19  H   UNL     1       3.633   9.199 -21.067  1.00  0.00     0.208 HD
BRANCH  18  20
HETATM   20  C   UNL     1       4.839   7.653 -21.526  1.00  0.00     0.721 A 
HETATM   21  N   UNL     1       5.483   7.418 -20.408  1.00  0.00    -0.061 NA
HETATM   22  C   UNL     1       6.487   6.537 -20.751  1.00  0.00     0.103 A 
HETATM   23  C   UNL     1       6.446   6.233 -22.108  1.00  0.00     0.078 A 
HETATM   24  C   UNL     1       7.478   5.950 -19.952  1.00  0.00     0.034 A 
HETATM   25  C   UNL     1       7.344   5.367 -22.734  1.00  0.00     0.032 A 
HETATM   26  N   UNL     1       5.386   6.960 -22.572  1.00  0.00    -0.186 N 
HETATM   27  C   UNL     1       8.326   4.791 -21.919  1.00  0.00     0.002 A 
HETATM   28  C   UNL     1       8.394   5.075 -20.552  1.00  0.00     0.002 A 
HETATM   29  H   UNL     1       5.028   7.011 -23.513  1.00  0.00     0.184 HD
ENDBRANCH  18  20
ENDBRANCH  17  18
ENDBRANCH   1  16
TORSDOF 3
ENDMDL
MODEL 9
REMARK VINA RESULT:      -8.1      3.950      5.059
REMARK  3 active torsions:
REMARK  status: ('A' for Active; 'I' for Inactive)
REMARK    1  A    between atoms: C_6  and  N_7 
REMARK    2  A    between atoms: N_7  and  N_8 
REMARK    3  A    between atoms: C_9  and  C_10 
ROOT
HETATM    1  C   UNL     1      -6.630   3.764 -33.713  1.00  0.00     0.024 A 
HETATM    2  C   UNL     1      -6.434   2.478 -33.240  1.00  0.00     0.138 A 
HETATM    3 CL   UNL     1      -4.903   1.864 -32.752  1.00  0.00    -0.061 Cl
HETATM    4  N   UNL     1      -7.423   1.560 -33.108  1.00  0.00    -0.235 NA
HETATM    5  C   UNL     1      -8.672   1.915 -33.454  1.00  0.00     0.071 A 
HETATM    6  C   UNL     1      -8.974   3.204 -33.948  1.00  0.00    -0.004 A 
HETATM    7  C   UNL     1      -7.930   4.126 -34.072  1.00  0.00     0.030 A 
HETATM    8  C   UNL     1      -9.710   1.002 -33.326  1.00  0.00     0.072 A 
HETATM    9  C   UNL     1     -11.020   1.341 -33.669  1.00  0.00     0.104 A 
HETATM   10  C   UNL     1     -11.306   2.605 -34.181  1.00  0.00     0.103 A 
HETATM   11  O   UNL     1     -12.559   2.999 -34.570  1.00  0.00    -0.346 OA
HETATM   12  C   UNL     1     -13.437   1.876 -34.716  1.00  0.00     0.202 C 
HETATM   13  C   UNL     1     -13.298   0.930 -33.535  1.00  0.00     0.202 C 
HETATM   14  O   UNL     1     -11.977   0.375 -33.484  1.00  0.00    -0.346 OA
HETATM   15  C   UNL     1     -10.288   3.543 -34.307  1.00  0.00     0.053 A 
ENDROOT
BRANCH   1  16
HETATM   16  C   UNL     1      -5.536   4.744 -33.844  1.00  0.00     0.154 C 
HETATM   17  N   UNL     1      -4.727   4.688 -34.855  1.00  0.00    -0.172 NA
BRANCH  17  18
HETATM   18  N   UNL     1      -3.752   5.637 -34.885  1.00  0.00    -0.108 N 
HETATM   19  H   UNL     1      -3.671   6.293 -35.660  1.00  0.00     0.208 HD
BRANCH  18  20
HETATM   20  C   UNL     1      -2.832   5.764 -33.908  1.00  0.00     0.721 A 
HETATM   21  N   UNL     1      -1.894   4.924 -33.539  1.00  0.00    -0.061 NA
HETATM   22  C   UNL     1      -1.241   5.549 -32.499  1.00  0.00     0.103 A 
HETATM   23  C   UNL     1      -1.798   6.796 -32.233  1.00  0.00     0.078 A 
HETATM   24  C   UNL     1      -0.157   5.110 -31.725  1.00  0.00     0.034 A 
HETATM   25  C   UNL     1      -1.338   7.651 -31.231  1.00  0.00     0.032 A 
HETATM   26  N   UNL     1      -2.808   6.902 -33.148  1.00  0.00    -0.186 N 
HETATM   27  C   UNL     1      -0.256   7.195 -30.470  1.00  0.00     0.002 A 
HETATM   28  C   UNL     1       0.327   5.947 -30.711  1.00  0.00     0.002 A 
HETATM   29  H   UNL     1      -3.452   7.666 -33.281  1.00  0.00     0.184 HD
ENDBRANCH  18  20
ENDBRANCH  17  18
ENDBRANCH   1  16
TORSDOF 3
ENDMDL
MODEL 10
REMARK VINA RESULT:      -8.1      5.657     11.427
REMARK  3 active torsions:
REMARK  status: ('A' for Active; 'I' for Inactive)
REMARK    1  A    between atoms: C_6  and  N_7 
REMARK    2  A    between atoms: N_7  and  N_8 
REMARK    3  A    between atoms: C_9  and  C_10 
ROOT
HETATM    1  C   UNL     1      -0.819   7.027 -30.038  1.00  0.00     0.024 A 
HETATM    2  C   UNL     1      -1.555   8.198 -29.953  1.00  0.00     0.138 A 
HETATM    3 CL   UNL     1      -2.814   8.615 -31.048  1.00  0.00    -0.061 Cl
HETATM    4  N   UNL     1      -1.366   9.143 -29.000  1.00  0.00    -0.235 NA
HETATM    5  C   UNL     1      -0.409   8.937 -28.079  1.00  0.00     0.071 A 
HETATM    6  C   UNL     1       0.394   7.775 -28.081  1.00  0.00    -0.004 A 
HETATM    7  C   UNL     1       0.173   6.820 -29.079  1.00  0.00     0.030 A 
HETATM    8  C   UNL     1      -0.193   9.882 -27.084  1.00  0.00     0.072 A 
HETATM    9  C   UNL     1       0.786   9.696 -26.107  1.00  0.00     0.104 A 
HETATM   10  C   UNL     1       1.593   8.560 -26.132  1.00  0.00     0.103 A 
HETATM   11  O   UNL     1       2.595   8.323 -25.229  1.00  0.00    -0.346 OA
HETATM   12  C   UNL     1       2.934   9.511 -24.501  1.00  0.00     0.202 C 
HETATM   13  C   UNL     1       1.678  10.229 -24.035  1.00  0.00     0.202 C 
HETATM   14  O   UNL     1       0.905  10.677 -25.156  1.00  0.00    -0.346 OA
HETATM   15  C   UNL     1       1.389   7.591 -27.108  1.00  0.00     0.053 A 
ENDROOT
BRANCH   1  16
HETATM   16  C   UNL     1      -1.048   6.013 -31.084  1.00  0.00     0.154 C 
HETATM   17  N   UNL     1      -2.091   5.247 -31.034  1.00  0.00    -0.172 NA
BRANCH  17  18
HETATM   18  N   UNL     1      -2.211   4.345 -32.046  1.00  0.00    -0.108 N 
HETATM   19  H   UNL     1      -1.700   4.456 -32.921  1.00  0.00     0.208 HD
BRANCH  18  20
HETATM   20  C   UNL     1      -3.013   3.264 -31.966  1.00  0.00     0.721 A 
HETATM   21  N   UNL     1      -2.905   2.210 -31.192  1.00  0.00    -0.061 NA
HETATM   22  C   UNL     1      -3.983   1.415 -31.518  1.00  0.00     0.103 A 
HETATM   23  C   UNL     1      -4.759   2.003 -32.511  1.00  0.00     0.078 A 
HETATM   24  C   UNL     1      -4.367   0.167 -31.006  1.00  0.00     0.034 A 
HETATM   25  C   UNL     1      -5.914   1.422 -33.037  1.00  0.00     0.032 A 
HETATM   26  N   UNL     1      -4.114   3.179 -32.774  1.00  0.00    -0.186 N 
HETATM   27  C   UNL     1      -6.280   0.177 -32.513  1.00  0.00     0.002 A 
HETATM   28  C   UNL     1      -5.522  -0.442 -31.514  1.00  0.00     0.002 A 
HETATM   29  H   UNL     1      -4.366   3.894 -33.438  1.00  0.00     0.184 HD
ENDBRANCH  18  20
ENDBRANCH  17  18
ENDBRANCH   1  16
TORSDOF 3
ENDMDL
