MODEL 1
REMARK VINA RESULT:      -8.7      0.000      0.000
REMARK  8 active torsions:
REMARK  status: ('A' for Active; 'I' for Inactive)
REMARK    1  A    between atoms: C_4  and  O_5 
REMARK    2  A    between atoms: O_5  and  C_6 
REMARK    3  A    between atoms: C_6  and  C_7 
REMARK       I    between atoms: C_7  and  N_8 
REMARK    4  A    between atoms: N_8  and  N_9 
REMARK       I    between atoms: N_9  and  C_10 
REMARK    5  A    between atoms: C_10  and  C_11 
REMARK    6  A    between atoms: C_11  and  C_12 
REMARK    7  A    between atoms: C_12  and  N_13 
REMARK    8  A    between atoms: C_12  and  C_17 
REMARK       I    between atoms: N_13  and  C_14 
REMARK       I    between atoms: C_14  and  N_15 
ROOT
HETATM    1  N   UNL     1      -3.909   3.403 -30.953  1.00  0.00    -0.267 N 
HETATM    2  C   UNL     1      -3.991   4.518 -31.771  1.00  0.00     0.238 C 
HETATM    3  O   UNL     1      -4.360   4.476 -32.942  1.00  0.00    -0.272 OA
HETATM    4  H   UNL     1      -3.833   3.529 -29.945  1.00  0.00     0.190 HD
ENDROOT
BRANCH   2   5
HETATM    5  C   UNL     1      -3.599   5.798 -31.072  1.00  0.00     0.134 C 
BRANCH   5   6
HETATM    6  C   UNL     1      -2.266   6.373 -31.585  1.00  0.00     0.130 C 
BRANCH   6   7
HETATM    7  N   UNL     1      -1.765   5.674 -32.771  1.00  0.00    -0.334 N 
HETATM    8  C   UNL     1      -1.479   6.347 -33.919  1.00  0.00     0.314 C 
HETATM    9  N   UNL     1      -1.139   5.516 -34.931  1.00  0.00    -0.352 N 
HETATM   10  O   UNL     1      -1.570   7.554 -34.075  1.00  0.00    -0.248 OA
HETATM   11  H   UNL     1      -0.671   4.652 -34.690  1.00  0.00     0.160 HD
HETATM   12  H   UNL     1      -0.791   5.984 -35.759  1.00  0.00     0.160 HD
HETATM   13  H   UNL     1      -2.035   4.702 -32.908  1.00  0.00     0.165 HD
ENDBRANCH   6   7
BRANCH   6  14
HETATM   14  C   UNL     1      -1.220   6.515 -30.484  1.00  0.00    -0.013 A 
HETATM   15  C   UNL     1      -1.064   7.726 -29.776  1.00  0.00     0.042 A 
HETATM   16 CL   UNL     1      -2.047   9.117 -30.092  1.00  0.00    -0.084 Cl
HETATM   17  C   UNL     1      -0.097   7.859 -28.774  1.00  0.00     0.024 A 
HETATM   18  C   UNL     1       0.733   6.790 -28.452  1.00  0.00     0.002 A 
HETATM   19  C   UNL     1       0.588   5.582 -29.125  1.00  0.00     0.001 A 
HETATM   20  C   UNL     1      -0.381   5.443 -30.123  1.00  0.00     0.011 A 
ENDBRANCH   6  14
ENDBRANCH   5   6
ENDBRANCH   2   5
BRANCH   1  21
HETATM   21  N   UNL     1      -4.571   2.242 -31.366  1.00  0.00    -0.266 N 
HETATM   22  C   UNL     1      -3.895   1.033 -31.300  1.00  0.00     0.260 C 
HETATM   23  O   UNL     1      -2.692   0.943 -31.045  1.00  0.00    -0.269 OA
HETATM   24  H   UNL     1      -5.589   2.247 -31.310  1.00  0.00     0.190 HD
BRANCH  22  25
HETATM   25  C   UNL     1      -4.802  -0.175 -31.522  1.00  0.00     0.280 C 
BRANCH  25  26
HETATM   26  O   UNL     1      -5.144  -0.228 -32.904  1.00  0.00    -0.342 OA
BRANCH  26  27
HETATM   27  C   UNL     1      -5.221  -1.457 -33.494  1.00  0.00     0.069 A 
HETATM   28  C   UNL     1      -4.236  -2.445 -33.468  1.00  0.00     0.043 A 
HETATM   29  C   UNL     1      -4.454  -3.682 -34.099  1.00  0.00    -0.059 A 
HETATM   30  C   UNL     1      -3.424  -4.770 -34.034  1.00  0.00     0.048 C 
HETATM   31  C   UNL     1      -5.676  -3.919 -34.742  1.00  0.00     0.007 A 
HETATM   32  C   UNL     1      -6.660  -2.935 -34.770  1.00  0.00     0.003 A 
HETATM   33  C   UNL     1      -6.431  -1.709 -34.144  1.00  0.00     0.037 A 
ENDBRANCH  26  27
ENDBRANCH  25  26
ENDBRANCH  22  25
ENDBRANCH   1  21
TORSDOF 8
ENDMDL
MODEL 2
REMARK VINA RESULT:      -8.7      1.121      1.349
REMARK  8 active torsions:
REMARK  status: ('A' for Active; 'I' for Inactive)
REMARK    1  A    between atoms: C_4  and  O_5 
REMARK    2  A    between atoms: O_5  and  C_6 
REMARK    3  A    between atoms: C_6  and  C_7 
REMARK       I    between atoms: C_7  and  N_8 
REMARK    4  A    between atoms: N_8  and  N_9 
REMARK       I    between atoms: N_9  and  C_10 
REMARK    5  A    between atoms: C_10  and  C_11 
REMARK    6  A    between atoms: C_11  and  C_12 
REMARK    7  A    between atoms: C_12  and  N_13 
REMARK    8  A    between atoms: C_12  and  C_17 
REMARK       I    between atoms: N_13  and  C_14 
REMARK       I    between atoms: C_14  and  N_15 
ROOT
HETATM    1  N   UNL     1      -4.882   3.632 -32.112  1.00  0.00    -0.267 N 
HETATM    2  C   UNL     1      -3.625   3.999 -31.656  1.00  0.00     0.238 C 
HETATM    3  O   UNL     1      -2.668   3.231 -31.611  1.00  0.00    -0.272 OA
HETATM    4  H   UNL     1      -5.556   4.357 -32.350  1.00  0.00     0.190 HD
ENDROOT
BRANCH   2   5
HETATM    5  C   UNL     1      -3.545   5.448 -31.237  1.00  0.00     0.134 C 
BRANCH   5   6
HETATM    6  C   UNL     1      -2.276   6.148 -31.755  1.00  0.00     0.130 C 
BRANCH   6   7
HETATM    7  N   UNL     1      -1.719   5.505 -32.948  1.00  0.00    -0.334 N 
HETATM    8  C   UNL     1      -1.323   6.237 -34.025  1.00  0.00     0.314 C 
HETATM    9  N   UNL     1      -0.945   5.458 -35.065  1.00  0.00    -0.352 N 
HETATM   10  O   UNL     1      -1.352   7.454 -34.105  1.00  0.00    -0.248 OA
HETATM   11  H   UNL     1      -0.532   4.560 -34.851  1.00  0.00     0.160 HD
HETATM   12  H   UNL     1      -0.518   5.963 -35.833  1.00  0.00     0.160 HD
HETATM   13  H   UNL     1      -2.019   4.557 -33.170  1.00  0.00     0.165 HD
ENDBRANCH   6   7
BRANCH   6  14
HETATM   14  C   UNL     1      -1.240   6.383 -30.660  1.00  0.00    -0.013 A 
HETATM   15  C   UNL     1      -1.126   7.636 -30.020  1.00  0.00     0.042 A 
HETATM   16 CL   UNL     1      -2.151   8.975 -30.414  1.00  0.00    -0.084 Cl
HETATM   17  C   UNL     1      -0.169   7.854 -29.024  1.00  0.00     0.024 A 
HETATM   18  C   UNL     1       0.693   6.831 -28.641  1.00  0.00     0.002 A 
HETATM   19  C   UNL     1       0.590   5.585 -29.247  1.00  0.00     0.001 A 
HETATM   20  C   UNL     1      -0.370   5.360 -30.239  1.00  0.00     0.011 A 
ENDBRANCH   6  14
ENDBRANCH   5   6
ENDBRANCH   2   5
BRANCH   1  21
HETATM   21  N   UNL     1      -4.988   2.447 -32.846  1.00  0.00    -0.266 N 
HETATM   22  C   UNL     1      -6.174   1.730 -32.783  1.00  0.00     0.260 C 
HETATM   23  O   UNL     1      -7.084   1.997 -31.995  1.00  0.00    -0.269 OA
HETATM   24  H   UNL     1      -4.399   2.363 -33.674  1.00  0.00     0.190 HD
BRANCH  22  25
HETATM   25  C   UNL     1      -6.258   0.616 -33.823  1.00  0.00     0.280 C 
BRANCH  25  26
HETATM   26  O   UNL     1      -5.088  -0.189 -33.710  1.00  0.00    -0.342 OA
BRANCH  26  27
HETATM   27  C   UNL     1      -5.195  -1.515 -34.014  1.00  0.00     0.069 A 
HETATM   28  C   UNL     1      -4.225  -2.493 -33.791  1.00  0.00     0.043 A 
HETATM   29  C   UNL     1      -4.475  -3.833 -34.131  1.00  0.00    -0.059 A 
HETATM   30  C   UNL     1      -3.459  -4.900 -33.848  1.00  0.00     0.048 C 
HETATM   31  C   UNL     1      -5.714  -4.183 -34.684  1.00  0.00     0.007 A 
HETATM   32  C   UNL     1      -6.684  -3.209 -34.908  1.00  0.00     0.003 A 
HETATM   33  C   UNL     1      -6.424  -1.881 -34.570  1.00  0.00     0.037 A 
ENDBRANCH  26  27
ENDBRANCH  25  26
ENDBRANCH  22  25
ENDBRANCH   1  21
TORSDOF 8
ENDMDL
MODEL 3
REMARK VINA RESULT:      -8.5      1.345      1.886
REMARK  8 active torsions:
REMARK  status: ('A' for Active; 'I' for Inactive)
REMARK    1  A    between atoms: C_4  and  O_5 
REMARK    2  A    between atoms: O_5  and  C_6 
REMARK    3  A    between atoms: C_6  and  C_7 
REMARK       I    between atoms: C_7  and  N_8 
REMARK    4  A    between atoms: N_8  and  N_9 
REMARK       I    between atoms: N_9  and  C_10 
REMARK    5  A    between atoms: C_10  and  C_11 
REMARK    6  A    between atoms: C_11  and  C_12 
REMARK    7  A    between atoms: C_12  and  N_13 
REMARK    8  A    between atoms: C_12  and  C_17 
REMARK       I    between atoms: N_13  and  C_14 
REMARK       I    between atoms: C_14  and  N_15 
ROOT
HETATM    1  N   UNL     1      -3.392   4.008 -30.763  1.00  0.00    -0.267 N 
HETATM    2  C   UNL     1      -3.660   4.966 -31.728  1.00  0.00     0.238 C 
HETATM    3  O   UNL     1      -4.156   4.708 -32.822  1.00  0.00    -0.272 OA
HETATM    4  H   UNL     1      -3.211   4.303 -29.805  1.00  0.00     0.190 HD
ENDROOT
BRANCH   2   5
HETATM    5  C   UNL     1      -3.296   6.366 -31.293  1.00  0.00     0.134 C 
BRANCH   5   6
HETATM    6  C   UNL     1      -1.833   6.727 -31.608  1.00  0.00     0.130 C 
BRANCH   6   7
HETATM    7  N   UNL     1      -1.294   5.972 -32.741  1.00  0.00    -0.334 N 
HETATM    8  C   UNL     1      -1.273   6.499 -33.997  1.00  0.00     0.314 C 
HETATM    9  N   UNL     1      -0.844   5.609 -34.921  1.00  0.00    -0.352 N 
HETATM   10  O   UNL     1      -1.652   7.618 -34.302  1.00  0.00    -0.248 OA
HETATM   11  H   UNL     1      -0.171   4.914 -34.625  1.00  0.00     0.160 HD
HETATM   12  H   UNL     1      -0.688   6.003 -35.841  1.00  0.00     0.160 HD
HETATM   13  H   UNL     1      -1.345   4.955 -32.712  1.00  0.00     0.165 HD
ENDBRANCH   6   7
BRANCH   6  14
HETATM   14  C   UNL     1      -0.934   6.687 -30.376  1.00  0.00    -0.013 A 
HETATM   15  C   UNL     1      -0.877   7.775 -29.480  1.00  0.00     0.042 A 
HETATM   16 CL   UNL     1      -1.821   9.210 -29.700  1.00  0.00    -0.084 Cl
HETATM   17  C   UNL     1      -0.044   7.742 -28.356  1.00  0.00     0.024 A 
HETATM   18  C   UNL     1       0.746   6.626 -28.099  1.00  0.00     0.002 A 
HETATM   19  C   UNL     1       0.694   5.536 -28.960  1.00  0.00     0.001 A 
HETATM   20  C   UNL     1      -0.141   5.562 -30.081  1.00  0.00     0.011 A 
ENDBRANCH   6  14
ENDBRANCH   5   6
ENDBRANCH   2   5
BRANCH   1  21
HETATM   21  N   UNL     1      -4.000   2.756 -30.902  1.00  0.00    -0.266 N 
HETATM   22  C   UNL     1      -5.241   2.551 -30.316  1.00  0.00     0.260 C 
HETATM   23  O   UNL     1      -5.769   3.360 -29.550  1.00  0.00    -0.269 OA
HETATM   24  H   UNL     1      -3.737   2.204 -31.717  1.00  0.00     0.190 HD
BRANCH  22  25
HETATM   25  C   UNL     1      -5.906   1.251 -30.760  1.00  0.00     0.280 C 
BRANCH  25  26
HETATM   26  O   UNL     1      -5.098   0.659 -31.773  1.00  0.00    -0.342 OA
BRANCH  26  27
HETATM   27  C   UNL     1      -5.725   0.159 -32.878  1.00  0.00     0.069 A 
HETATM   28  C   UNL     1      -5.884  -1.191 -33.194  1.00  0.00     0.043 A 
HETATM   29  C   UNL     1      -6.576  -1.571 -34.356  1.00  0.00    -0.059 A 
HETATM   30  C   UNL     1      -6.798  -3.019 -34.679  1.00  0.00     0.048 C 
HETATM   31  C   UNL     1      -7.120  -0.583 -35.187  1.00  0.00     0.007 A 
HETATM   32  C   UNL     1      -6.962   0.764 -34.875  1.00  0.00     0.003 A 
HETATM   33  C   UNL     1      -6.270   1.131 -33.720  1.00  0.00     0.037 A 
ENDBRANCH  26  27
ENDBRANCH  25  26
ENDBRANCH  22  25
ENDBRANCH   1  21
TORSDOF 8
ENDMDL
MODEL 4
REMARK VINA RESULT:      -8.4      5.472      8.719
REMARK  8 active torsions:
REMARK  status: ('A' for Active; 'I' for Inactive)
REMARK    1  A    between atoms: C_4  and  O_5 
REMARK    2  A    between atoms: O_5  and  C_6 
REMARK    3  A    between atoms: C_6  and  C_7 
REMARK       I    between atoms: C_7  and  N_8 
REMARK    4  A    between atoms: N_8  and  N_9 
REMARK       I    between atoms: N_9  and  C_10 
REMARK    5  A    between atoms: C_10  and  C_11 
REMARK    6  A    between atoms: C_11  and  C_12 
REMARK    7  A    between atoms: C_12  and  N_13 
REMARK    8  A    between atoms: C_12  and  C_17 
REMARK       I    between atoms: N_13  and  C_14 
REMARK       I    between atoms: C_14  and  N_15 
ROOT
HETATM    1  N   UNL     1      -8.273   1.827 -30.508  1.00  0.00    -0.267 N 
HETATM    2  C   UNL     1      -7.948   0.743 -31.309  1.00  0.00     0.238 C 
HETATM    3  O   UNL     1      -8.764   0.145 -32.006  1.00  0.00    -0.272 OA
HETATM    4  H   UNL     1      -7.528   2.422 -30.149  1.00  0.00     0.190 HD
ENDROOT
BRANCH   2   5
HETATM    5  C   UNL     1      -6.483   0.382 -31.253  1.00  0.00     0.134 C 
BRANCH   5   6
HETATM    6  C   UNL     1      -5.778   0.544 -32.613  1.00  0.00     0.130 C 
BRANCH   6   7
HETATM    7  N   UNL     1      -6.340   1.630 -33.419  1.00  0.00    -0.334 N 
HETATM    8  C   UNL     1      -5.761   2.862 -33.447  1.00  0.00     0.314 C 
HETATM    9  N   UNL     1      -6.489   3.756 -34.155  1.00  0.00    -0.352 N 
HETATM   10  O   UNL     1      -4.739   3.178 -32.860  1.00  0.00    -0.248 OA
HETATM   11  H   UNL     1      -7.033   3.406 -34.932  1.00  0.00     0.160 HD
HETATM   12  H   UNL     1      -6.026   4.643 -34.310  1.00  0.00     0.160 HD
HETATM   13  H   UNL     1      -7.344   1.632 -33.593  1.00  0.00     0.165 HD
ENDBRANCH   6   7
BRANCH   6  14
HETATM   14  C   UNL     1      -5.656  -0.771 -33.377  1.00  0.00    -0.013 A 
HETATM   15  C   UNL     1      -4.498  -1.570 -33.274  1.00  0.00     0.042 A 
HETATM   16 CL   UNL     1      -3.154  -1.131 -32.275  1.00  0.00    -0.084 Cl
HETATM   17  C   UNL     1      -4.383  -2.770 -33.984  1.00  0.00     0.024 A 
HETATM   18  C   UNL     1      -5.417  -3.202 -34.808  1.00  0.00     0.002 A 
HETATM   19  C   UNL     1      -6.575  -2.439 -34.913  1.00  0.00     0.001 A 
HETATM   20  C   UNL     1      -6.697  -1.242 -34.201  1.00  0.00     0.011 A 
ENDBRANCH   6  14
ENDBRANCH   5   6
ENDBRANCH   2   5
BRANCH   1  21
HETATM   21  N   UNL     1      -9.494   2.467 -30.742  1.00  0.00    -0.266 N 
HETATM   22  C   UNL     1      -9.507   3.602 -31.541  1.00  0.00     0.260 C 
HETATM   23  O   UNL     1      -8.482   4.167 -31.930  1.00  0.00    -0.269 OA
HETATM   24  H   UNL     1     -10.335   1.895 -30.677  1.00  0.00     0.190 HD
BRANCH  22  25
HETATM   25  C   UNL     1     -10.914   4.044 -31.933  1.00  0.00     0.280 C 
BRANCH  25  26
HETATM   26  O   UNL     1     -11.245   3.429 -33.175  1.00  0.00    -0.342 OA
BRANCH  26  27
HETATM   27  C   UNL     1     -12.308   2.573 -33.199  1.00  0.00     0.069 A 
HETATM   28  C   UNL     1     -13.601   2.853 -32.753  1.00  0.00     0.043 A 
HETATM   29  C   UNL     1     -14.613   1.885 -32.857  1.00  0.00    -0.059 A 
HETATM   30  C   UNL     1     -16.018   2.192 -32.429  1.00  0.00     0.048 C 
HETATM   31  C   UNL     1     -14.318   0.640 -33.427  1.00  0.00     0.007 A 
HETATM   32  C   UNL     1     -13.029   0.357 -33.872  1.00  0.00     0.003 A 
HETATM   33  C   UNL     1     -12.030   1.324 -33.761  1.00  0.00     0.037 A 
ENDBRANCH  26  27
ENDBRANCH  25  26
ENDBRANCH  22  25
ENDBRANCH   1  21
TORSDOF 8
ENDMDL
MODEL 5
REMARK VINA RESULT:      -8.2      5.669      8.766
REMARK  8 active torsions:
REMARK  status: ('A' for Active; 'I' for Inactive)
REMARK    1  A    between atoms: C_4  and  O_5 
REMARK    2  A    between atoms: O_5  and  C_6 
REMARK    3  A    between atoms: C_6  and  C_7 
REMARK       I    between atoms: C_7  and  N_8 
REMARK    4  A    between atoms: N_8  and  N_9 
REMARK       I    between atoms: N_9  and  C_10 
REMARK    5  A    between atoms: C_10  and  C_11 
REMARK    6  A    between atoms: C_11  and  C_12 
REMARK    7  A    between atoms: C_12  and  N_13 
REMARK    8  A    between atoms: C_12  and  C_17 
REMARK       I    between atoms: N_13  and  C_14 
REMARK       I    between atoms: C_14  and  N_15 
ROOT
HETATM    1  N   UNL     1      -8.490   1.189 -31.057  1.00  0.00    -0.267 N 
HETATM    2  C   UNL     1      -7.218   1.244 -30.510  1.00  0.00     0.238 C 
HETATM    3  O   UNL     1      -6.756   2.242 -29.962  1.00  0.00    -0.272 OA
HETATM    4  H   UNL     1      -8.899   0.282 -31.275  1.00  0.00     0.190 HD
ENDROOT
BRANCH   2   5
HETATM    5  C   UNL     1      -6.460  -0.056 -30.635  1.00  0.00     0.134 C 
BRANCH   5   6
HETATM    6  C   UNL     1      -5.272   0.039 -31.610  1.00  0.00     0.130 C 
BRANCH   6   7
HETATM    7  N   UNL     1      -5.006   1.410 -32.050  1.00  0.00    -0.334 N 
HETATM    8  C   UNL     1      -3.811   2.013 -31.802  1.00  0.00     0.314 C 
HETATM    9  N   UNL     1      -3.800   3.311 -32.184  1.00  0.00    -0.352 N 
HETATM   10  O   UNL     1      -2.858   1.495 -31.242  1.00  0.00    -0.248 OA
HETATM   11  H   UNL     1      -4.372   3.569 -32.977  1.00  0.00     0.160 HD
HETATM   12  H   UNL     1      -2.890   3.753 -32.139  1.00  0.00     0.160 HD
HETATM   13  H   UNL     1      -5.793   2.052 -32.131  1.00  0.00     0.165 HD
ENDBRANCH   6   7
BRANCH   6  14
HETATM   14  C   UNL     1      -5.372  -0.954 -32.764  1.00  0.00    -0.013 A 
HETATM   15  C   UNL     1      -4.359  -1.909 -32.996  1.00  0.00     0.042 A 
HETATM   16 CL   UNL     1      -2.955  -2.034 -31.991  1.00  0.00    -0.084 Cl
HETATM   17  C   UNL     1      -4.447  -2.812 -34.061  1.00  0.00     0.024 A 
HETATM   18  C   UNL     1      -5.545  -2.786 -34.916  1.00  0.00     0.002 A 
HETATM   19  C   UNL     1      -6.562  -1.864 -34.699  1.00  0.00     0.001 A 
HETATM   20  C   UNL     1      -6.481  -0.964 -33.632  1.00  0.00     0.011 A 
ENDBRANCH   6  14
ENDBRANCH   5   6
ENDBRANCH   2   5
BRANCH   1  21
HETATM   21  N   UNL     1      -9.398   2.188 -30.695  1.00  0.00    -0.266 N 
HETATM   22  C   UNL     1      -9.679   3.193 -31.609  1.00  0.00     0.260 C 
HETATM   23  O   UNL     1      -9.057   3.342 -32.663  1.00  0.00    -0.269 OA
HETATM   24  H   UNL     1     -10.095   1.945 -29.993  1.00  0.00     0.190 HD
BRANCH  22  25
HETATM   25  C   UNL     1     -10.869   4.059 -31.203  1.00  0.00     0.280 C 
BRANCH  25  26
HETATM   26  O   UNL     1     -11.698   4.244 -32.348  1.00  0.00    -0.342 OA
BRANCH  26  27
HETATM   27  C   UNL     1     -12.753   3.394 -32.514  1.00  0.00     0.069 A 
HETATM   28  C   UNL     1     -12.759   2.229 -33.283  1.00  0.00     0.043 A 
HETATM   29  C   UNL     1     -13.911   1.428 -33.349  1.00  0.00    -0.059 A 
HETATM   30  C   UNL     1     -13.914   0.148 -34.131  1.00  0.00     0.048 C 
HETATM   31  C   UNL     1     -15.050   1.800 -32.623  1.00  0.00     0.007 A 
HETATM   32  C   UNL     1     -15.047   2.962 -31.855  1.00  0.00     0.003 A 
HETATM   33  C   UNL     1     -13.899   3.752 -31.799  1.00  0.00     0.037 A 
ENDBRANCH  26  27
ENDBRANCH  25  26
ENDBRANCH  22  25
ENDBRANCH   1  21
TORSDOF 8
ENDMDL
MODEL 6
REMARK VINA RESULT:      -8.2      4.370      7.635
REMARK  8 active torsions:
REMARK  status: ('A' for Active; 'I' for Inactive)
REMARK    1  A    between atoms: C_4  and  O_5 
REMARK    2  A    between atoms: O_5  and  C_6 
REMARK    3  A    between atoms: C_6  and  C_7 
REMARK       I    between atoms: C_7  and  N_8 
REMARK    4  A    between atoms: N_8  and  N_9 
REMARK       I    between atoms: N_9  and  C_10 
REMARK    5  A    between atoms: C_10  and  C_11 
REMARK    6  A    between atoms: C_11  and  C_12 
REMARK    7  A    between atoms: C_12  and  N_13 
REMARK    8  A    between atoms: C_12  and  C_17 
REMARK       I    between atoms: N_13  and  C_14 
REMARK       I    between atoms: C_14  and  N_15 
ROOT
HETATM    1  N   UNL     1      -6.696   1.683 -29.695  1.00  0.00    -0.267 N 
HETATM    2  C   UNL     1      -6.627   0.640 -30.604  1.00  0.00     0.238 C 
HETATM    3  O   UNL     1      -7.573   0.285 -31.303  1.00  0.00    -0.272 OA
HETATM    4  H   UNL     1      -5.833   2.081 -29.328  1.00  0.00     0.190 HD
ENDROOT
BRANCH   2   5
HETATM    5  C   UNL     1      -5.264  -0.008 -30.664  1.00  0.00     0.134 C 
BRANCH   5   6
HETATM    6  C   UNL     1      -4.566   0.200 -32.021  1.00  0.00     0.130 C 
BRANCH   6   7
HETATM    7  N   UNL     1      -4.801   1.532 -32.583  1.00  0.00    -0.334 N 
HETATM    8  C   UNL     1      -3.959   2.568 -32.318  1.00  0.00     0.314 C 
HETATM    9  N   UNL     1      -4.405   3.738 -32.833  1.00  0.00    -0.352 N 
HETATM   10  O   UNL     1      -2.944   2.503 -31.644  1.00  0.00    -0.248 OA
HETATM   11  H   UNL     1      -4.947   3.697 -33.685  1.00  0.00     0.160 HD
HETATM   12  H   UNL     1      -3.743   4.501 -32.772  1.00  0.00     0.160 HD
HETATM   13  H   UNL     1      -5.760   1.809 -32.784  1.00  0.00     0.165 HD
ENDBRANCH   6   7
BRANCH   6  14
HETATM   14  C   UNL     1      -4.847  -0.928 -33.010  1.00  0.00    -0.013 A 
HETATM   15  C   UNL     1      -4.097  -2.123 -32.986  1.00  0.00     0.042 A 
HETATM   16 CL   UNL     1      -2.830  -2.400 -31.839  1.00  0.00    -0.084 Cl
HETATM   17  C   UNL     1      -4.348  -3.152 -33.900  1.00  0.00     0.024 A 
HETATM   18  C   UNL     1      -5.352  -3.016 -34.854  1.00  0.00     0.002 A 
HETATM   19  C   UNL     1      -6.114  -1.853 -34.887  1.00  0.00     0.001 A 
HETATM   20  C   UNL     1      -5.871  -0.825 -33.971  1.00  0.00     0.011 A 
ENDBRANCH   6  14
ENDBRANCH   5   6
ENDBRANCH   2   5
BRANCH   1  21
HETATM   21  N   UNL     1      -7.770   2.571 -29.802  1.00  0.00    -0.266 N 
HETATM   22  C   UNL     1      -7.542   3.827 -30.346  1.00  0.00     0.260 C 
HETATM   23  O   UNL     1      -6.416   4.261 -30.599  1.00  0.00    -0.269 OA
HETATM   24  H   UNL     1      -8.702   2.163 -29.865  1.00  0.00     0.190 HD
BRANCH  22  25
HETATM   25  C   UNL     1      -8.828   4.592 -30.651  1.00  0.00     0.280 C 
BRANCH  25  26
HETATM   26  O   UNL     1      -8.983   4.658 -32.066  1.00  0.00    -0.342 OA
BRANCH  26  27
HETATM   27  C   UNL     1      -9.194   3.488 -32.738  1.00  0.00     0.069 A 
HETATM   28  C   UNL     1     -10.363   2.726 -32.718  1.00  0.00     0.043 A 
HETATM   29  C   UNL     1     -10.456   1.549 -33.479  1.00  0.00    -0.059 A 
HETATM   30  C   UNL     1     -11.725   0.749 -33.505  1.00  0.00     0.048 C 
HETATM   31  C   UNL     1      -9.371   1.155 -34.272  1.00  0.00     0.007 A 
HETATM   32  C   UNL     1      -8.203   1.913 -34.295  1.00  0.00     0.003 A 
HETATM   33  C   UNL     1      -8.119   3.078 -33.532  1.00  0.00     0.037 A 
ENDBRANCH  26  27
ENDBRANCH  25  26
ENDBRANCH  22  25
ENDBRANCH   1  21
TORSDOF 8
ENDMDL
MODEL 7
REMARK VINA RESULT:      -8.2      2.885      9.437
REMARK  8 active torsions:
REMARK  status: ('A' for Active; 'I' for Inactive)
REMARK    1  A    between atoms: C_4  and  O_5 
REMARK    2  A    between atoms: O_5  and  C_6 
REMARK    3  A    between atoms: C_6  and  C_7 
REMARK       I    between atoms: C_7  and  N_8 
REMARK    4  A    between atoms: N_8  and  N_9 
REMARK       I    between atoms: N_9  and  C_10 
REMARK    5  A    between atoms: C_10  and  C_11 
REMARK    6  A    between atoms: C_11  and  C_12 
REMARK    7  A    between atoms: C_12  and  N_13 
REMARK    8  A    between atoms: C_12  and  C_17 
REMARK       I    between atoms: N_13  and  C_14 
REMARK       I    between atoms: C_14  and  N_15 
ROOT
HETATM    1  N   UNL     1      -3.384   1.904 -32.552  1.00  0.00    -0.267 N 
HETATM    2  C   UNL     1      -3.097   0.654 -32.027  1.00  0.00     0.238 C 
HETATM    3  O   UNL     1      -2.635   0.480 -30.902  1.00  0.00    -0.272 OA
HETATM    4  H   UNL     1      -3.979   1.973 -33.376  1.00  0.00     0.190 HD
ENDROOT
BRANCH   2   5
HETATM    5  C   UNL     1      -3.430  -0.478 -32.970  1.00  0.00     0.134 C 
BRANCH   5   6
HETATM    6  C   UNL     1      -4.934  -0.806 -33.000  1.00  0.00     0.130 C 
BRANCH   6   7
HETATM    7  N   UNL     1      -5.565  -0.702 -31.682  1.00  0.00    -0.334 N 
HETATM    8  C   UNL     1      -6.338   0.369 -31.352  1.00  0.00     0.314 C 
HETATM    9  N   UNL     1      -6.736   0.336 -30.058  1.00  0.00    -0.352 N 
HETATM   10  O   UNL     1      -6.610   1.302 -32.089  1.00  0.00    -0.248 OA
HETATM   11  H   UNL     1      -6.873  -0.571 -29.634  1.00  0.00     0.160 HD
HETATM   12  H   UNL     1      -7.419   1.042 -29.813  1.00  0.00     0.160 HD
HETATM   13  H   UNL     1      -5.107  -1.151 -30.891  1.00  0.00     0.165 HD
ENDBRANCH   6   7
BRANCH   6  14
HETATM   14  C   UNL     1      -5.240  -2.121 -33.711  1.00  0.00    -0.013 A 
HETATM   15  C   UNL     1      -6.460  -2.315 -34.393  1.00  0.00     0.042 A 
HETATM   16 CL   UNL     1      -7.677  -1.087 -34.486  1.00  0.00    -0.084 Cl
HETATM   17  C   UNL     1      -6.743  -3.525 -35.035  1.00  0.00     0.024 A 
HETATM   18  C   UNL     1      -5.820  -4.566 -35.015  1.00  0.00     0.002 A 
HETATM   19  C   UNL     1      -4.605  -4.391 -34.362  1.00  0.00     0.001 A 
HETATM   20  C   UNL     1      -4.314  -3.182 -33.724  1.00  0.00     0.011 A 
ENDBRANCH   6  14
ENDBRANCH   5   6
ENDBRANCH   2   5
BRANCH   1  21
HETATM   21  N   UNL     1      -3.456   2.982 -31.666  1.00  0.00    -0.266 N 
HETATM   22  C   UNL     1      -4.264   4.061 -31.996  1.00  0.00     0.260 C 
HETATM   23  O   UNL     1      -4.802   4.191 -33.098  1.00  0.00    -0.269 OA
HETATM   24  H   UNL     1      -3.264   2.786 -30.684  1.00  0.00     0.190 HD
BRANCH  22  25
HETATM   25  C   UNL     1      -4.463   5.038 -30.840  1.00  0.00     0.280 C 
BRANCH  25  26
HETATM   26  O   UNL     1      -3.972   6.313 -31.245  1.00  0.00    -0.342 OA
BRANCH  26  27
HETATM   27  C   UNL     1      -2.623   6.521 -31.196  1.00  0.00     0.069 A 
HETATM   28  C   UNL     1      -1.816   6.424 -30.061  1.00  0.00     0.043 A 
HETATM   29  C   UNL     1      -0.431   6.641 -30.154  1.00  0.00    -0.059 A 
HETATM   30  C   UNL     1       0.453   6.489 -28.952  1.00  0.00     0.048 C 
HETATM   31  C   UNL     1       0.136   6.939 -31.400  1.00  0.00     0.007 A 
HETATM   32  C   UNL     1      -0.667   7.036 -32.534  1.00  0.00     0.003 A 
HETATM   33  C   UNL     1      -2.042   6.824 -32.429  1.00  0.00     0.037 A 
ENDBRANCH  26  27
ENDBRANCH  25  26
ENDBRANCH  22  25
ENDBRANCH   1  21
TORSDOF 8
ENDMDL
MODEL 8
REMARK VINA RESULT:      -8.1      2.988      9.472
REMARK  8 active torsions:
REMARK  status: ('A' for Active; 'I' for Inactive)
REMARK    1  A    between atoms: C_4  and  O_5 
REMARK    2  A    between atoms: O_5  and  C_6 
REMARK    3  A    between atoms: C_6  and  C_7 
REMARK       I    between atoms: C_7  and  N_8 
REMARK    4  A    between atoms: N_8  and  N_9 
REMARK       I    between atoms: N_9  and  C_10 
REMARK    5  A    between atoms: C_10  and  C_11 
REMARK    6  A    between atoms: C_11  and  C_12 
REMARK    7  A    between atoms: C_12  and  N_13 
REMARK    8  A    between atoms: C_12  and  C_17 
REMARK       I    between atoms: N_13  and  C_14 
REMARK       I    between atoms: C_14  and  N_15 
ROOT
HETATM    1  N   UNL     1      -3.194   3.518 -32.778  1.00  0.00    -0.267 N 
HETATM    2  C   UNL     1      -4.540   3.841 -32.719  1.00  0.00     0.238 C 
HETATM    3  O   UNL     1      -4.995   4.726 -31.999  1.00  0.00    -0.272 OA
HETATM    4  H   UNL     1      -2.851   2.955 -33.554  1.00  0.00     0.190 HD
ENDROOT
BRANCH   2   5
HETATM    5  C   UNL     1      -5.393   3.009 -33.647  1.00  0.00     0.134 C 
BRANCH   5   6
HETATM    6  C   UNL     1      -6.179   1.910 -32.908  1.00  0.00     0.130 C 
BRANCH   6   7
HETATM    7  N   UNL     1      -6.126   2.056 -31.451  1.00  0.00    -0.334 N 
HETATM    8  C   UNL     1      -7.263   2.156 -30.709  1.00  0.00     0.314 C 
HETATM    9  N   UNL     1      -7.005   2.398 -29.403  1.00  0.00    -0.352 N 
HETATM   10  O   UNL     1      -8.401   2.106 -31.146  1.00  0.00    -0.248 OA
HETATM   11  H   UNL     1      -6.150   2.020 -29.018  1.00  0.00     0.160 HD
HETATM   12  H   UNL     1      -7.816   2.345 -28.800  1.00  0.00     0.160 HD
HETATM   13  H   UNL     1      -5.313   2.513 -31.041  1.00  0.00     0.165 HD
ENDBRANCH   6   7
BRANCH   6  14
HETATM   14  C   UNL     1      -5.824   0.505 -33.385  1.00  0.00    -0.013 A 
HETATM   15  C   UNL     1      -6.665  -0.197 -34.276  1.00  0.00     0.042 A 
HETATM   16 CL   UNL     1      -8.132   0.481 -34.895  1.00  0.00    -0.084 Cl
HETATM   17  C   UNL     1      -6.344  -1.489 -34.704  1.00  0.00     0.024 A 
HETATM   18  C   UNL     1      -5.180  -2.109 -34.260  1.00  0.00     0.002 A 
HETATM   19  C   UNL     1      -4.329  -1.431 -33.394  1.00  0.00     0.001 A 
HETATM   20  C   UNL     1      -4.643  -0.137 -32.968  1.00  0.00     0.011 A 
ENDBRANCH   6  14
ENDBRANCH   5   6
ENDBRANCH   2   5
BRANCH   1  21
HETATM   21  N   UNL     1      -2.280   4.433 -32.249  1.00  0.00    -0.266 N 
HETATM   22  C   UNL     1      -1.532   5.207 -33.124  1.00  0.00     0.260 C 
HETATM   23  O   UNL     1      -1.515   5.024 -34.344  1.00  0.00    -0.269 OA
HETATM   24  H   UNL     1      -2.470   4.785 -31.312  1.00  0.00     0.190 HD
BRANCH  22  25
HETATM   25  C   UNL     1      -0.777   6.338 -32.431  1.00  0.00     0.280 C 
BRANCH  25  26
HETATM   26  O   UNL     1      -0.489   5.930 -31.097  1.00  0.00    -0.342 OA
BRANCH  26  27
HETATM   27  C   UNL     1      -0.476   6.890 -30.126  1.00  0.00     0.069 A 
HETATM   28  C   UNL     1       0.598   7.200 -29.289  1.00  0.00     0.043 A 
HETATM   29  C   UNL     1       0.486   8.233 -28.344  1.00  0.00    -0.059 A 
HETATM   30  C   UNL     1       1.649   8.609 -27.475  1.00  0.00     0.048 C 
HETATM   31  C   UNL     1      -0.708   8.961 -28.259  1.00  0.00     0.007 A 
HETATM   32  C   UNL     1      -1.781   8.654 -29.092  1.00  0.00     0.003 A 
HETATM   33  C   UNL     1      -1.660   7.623 -30.025  1.00  0.00     0.037 A 
ENDBRANCH  26  27
ENDBRANCH  25  26
ENDBRANCH  22  25
ENDBRANCH   1  21
TORSDOF 8
ENDMDL
MODEL 9
REMARK VINA RESULT:      -8.1      2.816      9.468
REMARK  8 active torsions:
REMARK  status: ('A' for Active; 'I' for Inactive)
REMARK    1  A    between atoms: C_4  and  O_5 
REMARK    2  A    between atoms: O_5  and  C_6 
REMARK    3  A    between atoms: C_6  and  C_7 
REMARK       I    between atoms: C_7  and  N_8 
REMARK    4  A    between atoms: N_8  and  N_9 
REMARK       I    between atoms: N_9  and  C_10 
REMARK    5  A    between atoms: C_10  and  C_11 
REMARK    6  A    between atoms: C_11  and  C_12 
REMARK    7  A    between atoms: C_12  and  N_13 
REMARK    8  A    between atoms: C_12  and  C_17 
REMARK       I    between atoms: N_13  and  C_14 
REMARK       I    between atoms: C_14  and  N_15 
ROOT
HETATM    1  N   UNL     1      -3.842   2.898 -31.013  1.00  0.00    -0.267 N 
HETATM    2  C   UNL     1      -5.060   2.437 -30.539  1.00  0.00     0.238 C 
HETATM    3  O   UNL     1      -5.717   3.017 -29.678  1.00  0.00    -0.272 OA
HETATM    4  H   UNL     1      -3.468   2.515 -31.880  1.00  0.00     0.190 HD
ENDROOT
BRANCH   2   5
HETATM    5  C   UNL     1      -5.510   1.157 -31.202  1.00  0.00     0.134 C 
BRANCH   5   6
HETATM    6  C   UNL     1      -5.515   1.253 -32.739  1.00  0.00     0.130 C 
BRANCH   6   7
HETATM    7  N   UNL     1      -6.495   2.217 -33.245  1.00  0.00    -0.334 N 
HETATM    8  C   UNL     1      -6.119   3.462 -33.646  1.00  0.00     0.314 C 
HETATM    9  N   UNL     1      -7.178   4.240 -33.971  1.00  0.00    -0.352 N 
HETATM   10  O   UNL     1      -4.975   3.886 -33.662  1.00  0.00    -0.248 OA
HETATM   11  H   UNL     1      -7.994   3.782 -34.353  1.00  0.00     0.160 HD
HETATM   12  H   UNL     1      -6.932   5.123 -34.400  1.00  0.00     0.160 HD
HETATM   13  H   UNL     1      -7.453   2.155 -32.904  1.00  0.00     0.165 HD
ENDBRANCH   6   7
BRANCH   6  14
HETATM   14  C   UNL     1      -5.609  -0.111 -33.417  1.00  0.00    -0.013 A 
HETATM   15  C   UNL     1      -4.489  -0.967 -33.491  1.00  0.00     0.042 A 
HETATM   16 CL   UNL     1      -2.952  -0.545 -32.815  1.00  0.00    -0.084 Cl
HETATM   17  C   UNL     1      -4.573  -2.213 -34.123  1.00  0.00     0.024 A 
HETATM   18  C   UNL     1      -5.771  -2.634 -34.690  1.00  0.00     0.002 A 
HETATM   19  C   UNL     1      -6.891  -1.815 -34.615  1.00  0.00     0.001 A 
HETATM   20  C   UNL     1      -6.814  -0.571 -33.980  1.00  0.00     0.011 A 
ENDBRANCH   6  14
ENDBRANCH   5   6
ENDBRANCH   2   5
BRANCH   1  21
HETATM   21  N   UNL     1      -3.498   4.226 -30.744  1.00  0.00    -0.266 N 
HETATM   22  C   UNL     1      -2.432   4.789 -31.431  1.00  0.00     0.260 C 
HETATM   23  O   UNL     1      -1.673   4.137 -32.152  1.00  0.00    -0.269 OA
HETATM   24  H   UNL     1      -4.238   4.832 -30.392  1.00  0.00     0.190 HD
BRANCH  22  25
HETATM   25  C   UNL     1      -2.330   6.300 -31.247  1.00  0.00     0.280 C 
BRANCH  25  26
HETATM   26  O   UNL     1      -0.975   6.621 -30.942  1.00  0.00    -0.342 OA
BRANCH  26  27
HETATM   27  C   UNL     1      -0.741   7.474 -29.901  1.00  0.00     0.069 A 
HETATM   28  C   UNL     1       0.372   7.460 -29.060  1.00  0.00     0.043 A 
HETATM   29  C   UNL     1       0.501   8.415 -28.037  1.00  0.00    -0.059 A 
HETATM   30  C   UNL     1       1.717   8.442 -27.160  1.00  0.00     0.048 C 
HETATM   31  C   UNL     1      -0.492   9.391 -27.879  1.00  0.00     0.007 A 
HETATM   32  C   UNL     1      -1.603   9.407 -28.716  1.00  0.00     0.003 A 
HETATM   33  C   UNL     1      -1.723   8.452 -29.726  1.00  0.00     0.037 A 
ENDBRANCH  26  27
ENDBRANCH  25  26
ENDBRANCH  22  25
ENDBRANCH   1  21
TORSDOF 8
ENDMDL
MODEL 10
REMARK VINA RESULT:      -7.9      2.299      3.301
REMARK  8 active torsions:
REMARK  status: ('A' for Active; 'I' for Inactive)
REMARK    1  A    between atoms: C_4  and  O_5 
REMARK    2  A    between atoms: O_5  and  C_6 
REMARK    3  A    between atoms: C_6  and  C_7 
REMARK       I    between atoms: C_7  and  N_8 
REMARK    4  A    between atoms: N_8  and  N_9 
REMARK       I    between atoms: N_9  and  C_10 
REMARK    5  A    between atoms: C_10  and  C_11 
REMARK    6  A    between atoms: C_11  and  C_12 
REMARK    7  A    between atoms: C_12  and  N_13 
REMARK    8  A    between atoms: C_12  and  C_17 
REMARK       I    between atoms: N_13  and  C_14 
REMARK       I    between atoms: C_14  and  N_15 
ROOT
HETATM    1  N   UNL     1      -5.290   6.516 -32.743  1.00  0.00    -0.267 N 
HETATM    2  C   UNL     1      -4.826   6.852 -31.481  1.00  0.00     0.238 C 
HETATM    3  O   UNL     1      -5.418   6.569 -30.442  1.00  0.00    -0.272 OA
HETATM    4  H   UNL     1      -4.652   6.560 -33.536  1.00  0.00     0.190 HD
ENDROOT
BRANCH   2   5
HETATM    5  C   UNL     1      -3.506   7.586 -31.509  1.00  0.00     0.134 C 
BRANCH   5   6
HETATM    6  C   UNL     1      -2.320   6.693 -31.100  1.00  0.00     0.130 C 
BRANCH   6   7
HETATM    7  N   UNL     1      -2.727   5.328 -30.760  1.00  0.00    -0.334 N 
HETATM    8  C   UNL     1      -2.571   4.303 -31.643  1.00  0.00     0.314 C 
HETATM    9  N   UNL     1      -3.109   3.147 -31.190  1.00  0.00    -0.352 N 
HETATM   10  O   UNL     1      -2.068   4.393 -32.751  1.00  0.00    -0.248 OA
HETATM   11  H   UNL     1      -3.111   2.993 -30.191  1.00  0.00     0.160 HD
HETATM   12  H   UNL     1      -2.895   2.336 -31.757  1.00  0.00     0.160 HD
HETATM   13  H   UNL     1      -3.493   5.203 -30.100  1.00  0.00     0.165 HD
ENDBRANCH   6   7
BRANCH   6  14
HETATM   14  C   UNL     1      -1.432   7.337 -30.039  1.00  0.00    -0.013 A 
HETATM   15  C   UNL     1      -0.071   6.986 -29.916  1.00  0.00     0.042 A 
HETATM   16 CL   UNL     1       0.685   5.825 -30.955  1.00  0.00    -0.084 Cl
HETATM   17  C   UNL     1       0.740   7.569 -28.936  1.00  0.00     0.024 A 
HETATM   18  C   UNL     1       0.215   8.515 -28.061  1.00  0.00     0.002 A 
HETATM   19  C   UNL     1      -1.119   8.888 -28.174  1.00  0.00     0.001 A 
HETATM   20  C   UNL     1      -1.932   8.313 -29.155  1.00  0.00     0.011 A 
ENDBRANCH   6  14
ENDBRANCH   5   6
ENDBRANCH   2   5
BRANCH   1  21
HETATM   21  N   UNL     1      -6.293   5.546 -32.831  1.00  0.00    -0.266 N 
HETATM   22  C   UNL     1      -6.208   4.591 -33.834  1.00  0.00     0.260 C 
HETATM   23  O   UNL     1      -5.380   4.642 -34.747  1.00  0.00    -0.269 OA
HETATM   24  H   UNL     1      -6.796   5.323 -31.974  1.00  0.00     0.190 HD
BRANCH  22  25
HETATM   25  C   UNL     1      -7.204   3.448 -33.661  1.00  0.00     0.280 C 
BRANCH  25  26
HETATM   26  O   UNL     1      -6.550   2.389 -32.966  1.00  0.00    -0.342 OA
BRANCH  26  27
HETATM   27  C   UNL     1      -6.487   1.170 -33.576  1.00  0.00     0.069 A 
HETATM   28  C   UNL     1      -5.542   0.173 -33.328  1.00  0.00     0.043 A 
HETATM   29  C   UNL     1      -5.606  -1.052 -34.013  1.00  0.00    -0.059 A 
HETATM   30  C   UNL     1      -4.628  -2.150 -33.716  1.00  0.00     0.048 C 
HETATM   31  C   UNL     1      -6.636  -1.271 -34.937  1.00  0.00     0.007 A 
HETATM   32  C   UNL     1      -7.579  -0.278 -35.187  1.00  0.00     0.003 A 
HETATM   33  C   UNL     1      -7.504   0.937 -34.505  1.00  0.00     0.037 A 
ENDBRANCH  26  27
ENDBRANCH  25  26
ENDBRANCH  22  25
ENDBRANCH   1  21
TORSDOF 8
ENDMDL
