MODEL 1
REMARK VINA RESULT:      -8.7      0.000      0.000
REMARK  10 active torsions:
REMARK  status: ('A' for Active; 'I' for Inactive)
REMARK    1  A    between atoms: C_2  and  N_3 
REMARK    2  A    between atoms: N_3  and  C_5 
REMARK    3  A    between atoms: N_3  and  C_34 
REMARK    4  A    between atoms: C_5  and  C_6 
REMARK    5  A    between atoms: N_7  and  C_8 
REMARK    6  A    between atoms: C_12  and  N_13 
REMARK    7  A    between atoms: C_16  and  C_17 
REMARK       I    between atoms: C_17  and  N_18 
REMARK    8  A    between atoms: N_18  and  N_19 
REMARK    9  A    between atoms: C_20  and  C_21 
REMARK   10  A    between atoms: C_23  and  C_24 
ROOT
HETATM    1  C   UNL     1      -4.755  -1.234 -32.992  1.00  0.00     0.096 A 
HETATM    2  N   UNL     1      -4.445  -2.555 -33.308  1.00  0.00    -0.215 N 
HETATM    3  N   UNL     1      -3.329  -2.917 -32.620  1.00  0.00     0.012 NA
HETATM    4  N   UNL     1      -2.975  -1.932 -31.812  1.00  0.00    -0.152 NA
HETATM    5  C   UNL     1      -3.832  -0.891 -32.013  1.00  0.00     0.170 A 
ENDROOT
BRANCH   5   6
HETATM    6  C   UNL     1      -3.767   0.368 -31.282  1.00  0.00     0.293 C 
HETATM    7  N   UNL     1      -3.224   1.416 -32.002  1.00  0.00    -0.242 N 
HETATM    8  H   UNL     1      -2.908   1.275 -32.960  1.00  0.00     0.192 HD
HETATM    9  O   UNL     1      -4.147   0.422 -30.114  1.00  0.00    -0.264 OA
BRANCH   7  10
HETATM   10  N   UNL     1      -3.119   2.641 -31.412  1.00  0.00    -0.181 NA
HETATM   11  C   UNL     1      -2.878   3.645 -32.194  1.00  0.00     0.175 C 
BRANCH  11  12
HETATM   12  C   UNL     1      -2.764   4.968 -31.651  1.00  0.00     0.095 A 
HETATM   13  O   UNL     1      -1.832   5.189 -30.679  1.00  0.00    -0.309 OA
HETATM   14  C   UNL     1      -1.914   6.508 -30.316  1.00  0.00     0.086 A 
HETATM   15  C   UNL     1      -2.896   7.126 -31.067  1.00  0.00     0.041 A 
HETATM   16  C   UNL     1      -3.443   6.138 -31.919  1.00  0.00     0.041 A 
BRANCH  14  17
HETATM   17  C   UNL     1      -1.000   6.958 -29.269  1.00  0.00    -0.002 A 
HETATM   18  C   UNL     1       0.281   7.445 -29.576  1.00  0.00     0.015 A 
HETATM   19  C   UNL     1       1.153   7.864 -28.565  1.00  0.00     0.020 A 
HETATM   20  C   UNL     1       0.751   7.800 -27.234  1.00  0.00     0.011 A 
HETATM   21 BR   UNL     1       1.928   8.363 -25.868  1.00  0.00    -0.051 Br
HETATM   22  C   UNL     1      -0.514   7.322 -26.905  1.00  0.00     0.020 A 
HETATM   23  C   UNL     1      -1.383   6.903 -27.919  1.00  0.00     0.015 A 
ENDBRANCH  14  17
ENDBRANCH  11  12
ENDBRANCH   7  10
ENDBRANCH   5   6
BRANCH   1  24
HETATM   24  C   UNL     1      -5.784  -0.403 -33.663  1.00  0.00     0.296 C 
BRANCH  24  25
HETATM   25  N   UNL     1      -7.187  -0.473 -33.079  1.00  0.00    -0.066 N 
HETATM   26  H   UNL     1      -7.363  -1.466 -32.862  1.00  0.00     0.280 HD
BRANCH  25  27
HETATM   27  C   UNL     1      -8.226  -0.041 -34.107  1.00  0.00     0.231 C 
HETATM   28  C   UNL     1      -7.580   0.282 -35.443  1.00  0.00     0.034 C 
ENDBRANCH  25  27
BRANCH  25  29
HETATM   29  C   UNL     1      -7.321   0.331 -31.793  1.00  0.00     0.231 C 
HETATM   30  C   UNL     1      -7.038   1.804 -32.039  1.00  0.00     0.034 C 
ENDBRANCH  25  29
ENDBRANCH  24  25
ENDBRANCH   1  24
BRANCH   2  31
HETATM   31  C   UNL     1      -5.151  -3.453 -34.142  1.00  0.00     0.225 A 
HETATM   32  N   UNL     1      -6.281  -3.059 -34.737  1.00  0.00    -0.081 NA
HETATM   33  O   UNL     1      -6.693  -4.193 -35.444  1.00  0.00    -0.103 OA
HETATM   34  N   UNL     1      -5.824  -5.254 -35.240  1.00  0.00    -0.083 NA
HETATM   35  C   UNL     1      -4.869  -4.798 -34.431  1.00  0.00     0.201 A 
BRANCH  35  36
HETATM   36  N   UNL     1      -3.828  -5.524 -33.997  1.00  0.00    -0.379 N 
HETATM   37  H   UNL     1      -2.951  -5.523 -34.512  1.00  0.00     0.158 HD
HETATM   38  H   UNL     1      -3.888  -6.225 -33.261  1.00  0.00     0.158 HD
ENDBRANCH  35  36
ENDBRANCH   2  31
TORSDOF 10
ENDMDL
MODEL 2
REMARK VINA RESULT:      -8.3      2.950      4.887
REMARK  10 active torsions:
REMARK  status: ('A' for Active; 'I' for Inactive)
REMARK    1  A    between atoms: C_2  and  N_3 
REMARK    2  A    between atoms: N_3  and  C_5 
REMARK    3  A    between atoms: N_3  and  C_34 
REMARK    4  A    between atoms: C_5  and  C_6 
REMARK    5  A    between atoms: N_7  and  C_8 
REMARK    6  A    between atoms: C_12  and  N_13 
REMARK    7  A    between atoms: C_16  and  C_17 
REMARK       I    between atoms: C_17  and  N_18 
REMARK    8  A    between atoms: N_18  and  N_19 
REMARK    9  A    between atoms: C_20  and  C_21 
REMARK   10  A    between atoms: C_23  and  C_24 
ROOT
HETATM    1  C   UNL     1      -7.681   2.492 -32.277  1.00  0.00     0.096 A 
HETATM    2  N   UNL     1      -9.059   2.649 -32.150  1.00  0.00    -0.215 N 
HETATM    3  N   UNL     1      -9.327   3.177 -30.927  1.00  0.00     0.012 NA
HETATM    4  N   UNL     1      -8.189   3.455 -30.312  1.00  0.00    -0.152 NA
HETATM    5  C   UNL     1      -7.165   3.053 -31.116  1.00  0.00     0.170 A 
ENDROOT
BRANCH   5   6
HETATM    6  C   UNL     1      -5.756   3.216 -30.781  1.00  0.00     0.293 C 
HETATM    7  N   UNL     1      -5.057   4.037 -31.646  1.00  0.00    -0.242 N 
HETATM    8  H   UNL     1      -5.527   4.471 -32.439  1.00  0.00     0.192 HD
HETATM    9  O   UNL     1      -5.280   2.620 -29.817  1.00  0.00    -0.264 OA
BRANCH   7  10
HETATM   10  N   UNL     1      -3.731   4.259 -31.422  1.00  0.00    -0.181 NA
HETATM   11  C   UNL     1      -3.340   5.494 -31.419  1.00  0.00     0.175 C 
BRANCH  11  12
HETATM   12  C   UNL     1      -1.962   5.812 -31.180  1.00  0.00     0.095 A 
HETATM   13  O   UNL     1      -1.612   6.285 -29.949  1.00  0.00    -0.309 OA
HETATM   14  C   UNL     1      -0.263   6.521 -29.961  1.00  0.00     0.086 A 
HETATM   15  C   UNL     1       0.246   6.188 -31.202  1.00  0.00     0.041 A 
HETATM   16  C   UNL     1      -0.844   5.738 -31.984  1.00  0.00     0.041 A 
BRANCH  14  17
HETATM   17  C   UNL     1       0.321   7.048 -28.730  1.00  0.00    -0.002 A 
HETATM   18  C   UNL     1       0.082   6.439 -27.487  1.00  0.00     0.015 A 
HETATM   19  C   UNL     1       0.638   6.957 -26.312  1.00  0.00     0.020 A 
HETATM   20  C   UNL     1       1.441   8.092 -26.369  1.00  0.00     0.011 A 
HETATM   21 BR   UNL     1       2.190   8.794 -24.783  1.00  0.00    -0.051 Br
HETATM   22  C   UNL     1       1.693   8.713 -27.588  1.00  0.00     0.020 A 
HETATM   23  C   UNL     1       1.135   8.192 -28.761  1.00  0.00     0.015 A 
ENDBRANCH  14  17
ENDBRANCH  11  12
ENDBRANCH   7  10
ENDBRANCH   5   6
BRANCH   1  24
HETATM   24  C   UNL     1      -6.989   1.782 -33.381  1.00  0.00     0.296 C 
BRANCH  24  25
HETATM   25  N   UNL     1      -6.811   0.282 -33.206  1.00  0.00    -0.066 N 
HETATM   26  H   UNL     1      -7.334   0.024 -32.356  1.00  0.00     0.280 HD
BRANCH  25  27
HETATM   27  C   UNL     1      -5.348  -0.067 -32.962  1.00  0.00     0.231 C 
HETATM   28  C   UNL     1      -5.107  -0.460 -31.514  1.00  0.00     0.034 C 
ENDBRANCH  25  27
BRANCH  25  29
HETATM   29  C   UNL     1      -7.375  -0.510 -34.377  1.00  0.00     0.231 C 
HETATM   30  C   UNL     1      -6.382  -1.557 -34.856  1.00  0.00     0.034 C 
ENDBRANCH  25  29
ENDBRANCH  24  25
ENDBRANCH   1  24
BRANCH   2  31
HETATM   31  C   UNL     1     -10.070   2.386 -33.105  1.00  0.00     0.225 A 
HETATM   32  N   UNL     1     -10.539   3.379 -33.867  1.00  0.00    -0.081 NA
HETATM   33  O   UNL     1     -11.515   2.757 -34.653  1.00  0.00    -0.103 OA
HETATM   34  N   UNL     1     -11.636   1.413 -34.331  1.00  0.00    -0.083 NA
HETATM   35  C   UNL     1     -10.743   1.182 -33.370  1.00  0.00     0.201 A 
BRANCH  35  36
HETATM   36  N   UNL     1     -10.542  -0.009 -32.788  1.00  0.00    -0.379 N 
HETATM   37  H   UNL     1      -9.612  -0.420 -32.765  1.00  0.00     0.158 HD
HETATM   38  H   UNL     1     -11.291  -0.635 -32.496  1.00  0.00     0.158 HD
ENDBRANCH  35  36
ENDBRANCH   2  31
TORSDOF 10
ENDMDL
MODEL 3
REMARK VINA RESULT:      -8.2      5.204     10.994
REMARK  10 active torsions:
REMARK  status: ('A' for Active; 'I' for Inactive)
REMARK    1  A    between atoms: C_2  and  N_3 
REMARK    2  A    between atoms: N_3  and  C_5 
REMARK    3  A    between atoms: N_3  and  C_34 
REMARK    4  A    between atoms: C_5  and  C_6 
REMARK    5  A    between atoms: N_7  and  C_8 
REMARK    6  A    between atoms: C_12  and  N_13 
REMARK    7  A    between atoms: C_16  and  C_17 
REMARK       I    between atoms: C_17  and  N_18 
REMARK    8  A    between atoms: N_18  and  N_19 
REMARK    9  A    between atoms: C_20  and  C_21 
REMARK   10  A    between atoms: C_23  and  C_24 
ROOT
HETATM    1  C   UNL     1      -3.527   7.018 -28.451  1.00  0.00     0.096 A 
HETATM    2  N   UNL     1      -3.223   7.463 -27.166  1.00  0.00    -0.215 N 
HETATM    3  N   UNL     1      -4.323   7.313 -26.382  1.00  0.00     0.012 NA
HETATM    4  N   UNL     1      -5.274   6.705 -27.072  1.00  0.00    -0.152 NA
HETATM    5  C   UNL     1      -4.814   6.506 -28.340  1.00  0.00     0.170 A 
ENDROOT
BRANCH   5   6
HETATM    6  C   UNL     1      -5.579   5.841 -29.387  1.00  0.00     0.293 C 
HETATM    7  N   UNL     1      -5.258   4.509 -29.566  1.00  0.00    -0.242 N 
HETATM    8  H   UNL     1      -4.540   4.069 -28.993  1.00  0.00     0.192 HD
HETATM    9  O   UNL     1      -6.402   6.475 -30.043  1.00  0.00    -0.264 OA
BRANCH   7  10
HETATM   10  N   UNL     1      -5.918   3.792 -30.520  1.00  0.00    -0.181 NA
HETATM   11  C   UNL     1      -5.212   3.362 -31.518  1.00  0.00     0.175 C 
BRANCH  11  12
HETATM   12  C   UNL     1      -5.831   2.591 -32.557  1.00  0.00     0.095 A 
HETATM   13  O   UNL     1      -5.505   1.270 -32.663  1.00  0.00    -0.309 OA
HETATM   14  C   UNL     1      -6.206   0.752 -33.719  1.00  0.00     0.086 A 
HETATM   15  C   UNL     1      -6.986   1.746 -34.279  1.00  0.00     0.041 A 
HETATM   16  C   UNL     1      -6.741   2.926 -33.537  1.00  0.00     0.041 A 
BRANCH  14  17
HETATM   17  C   UNL     1      -5.993  -0.663 -34.016  1.00  0.00    -0.002 A 
HETATM   18  C   UNL     1      -7.008  -1.452 -34.581  1.00  0.00     0.015 A 
HETATM   19  C   UNL     1      -6.798  -2.809 -34.854  1.00  0.00     0.020 A 
HETATM   20  C   UNL     1      -5.568  -3.390 -34.563  1.00  0.00     0.011 A 
HETATM   21 BR   UNL     1      -5.284  -5.222 -34.927  1.00  0.00    -0.051 Br
HETATM   22  C   UNL     1      -4.546  -2.628 -34.004  1.00  0.00     0.020 A 
HETATM   23  C   UNL     1      -4.760  -1.272 -33.732  1.00  0.00     0.015 A 
ENDBRANCH  14  17
ENDBRANCH  11  12
ENDBRANCH   7  10
ENDBRANCH   5   6
BRANCH   1  24
HETATM   24  C   UNL     1      -2.667   7.178 -29.648  1.00  0.00     0.296 C 
BRANCH  24  25
HETATM   25  N   UNL     1      -1.861   5.957 -30.063  1.00  0.00    -0.066 N 
HETATM   26  H   UNL     1      -2.128   5.199 -29.417  1.00  0.00     0.280 HD
BRANCH  25  27
HETATM   27  C   UNL     1      -0.368   6.204 -29.880  1.00  0.00     0.231 C 
HETATM   28  C   UNL     1       0.274   6.688 -31.169  1.00  0.00     0.034 C 
ENDBRANCH  25  27
BRANCH  25  29
HETATM   29  C   UNL     1      -2.172   5.510 -31.484  1.00  0.00     0.231 C 
HETATM   30  C   UNL     1      -3.175   6.444 -32.142  1.00  0.00     0.034 C 
ENDBRANCH  25  29
ENDBRANCH  24  25
ENDBRANCH   1  24
BRANCH   2  31
HETATM   31  C   UNL     1      -1.991   7.946 -26.668  1.00  0.00     0.225 A 
HETATM   32  N   UNL     1      -1.798   9.262 -26.532  1.00  0.00    -0.081 NA
HETATM   33  O   UNL     1      -0.490   9.355 -26.046  1.00  0.00    -0.103 OA
HETATM   34  N   UNL     1       0.090   8.100 -25.926  1.00  0.00    -0.083 NA
HETATM   35  C   UNL     1      -0.838   7.227 -26.314  1.00  0.00     0.201 A 
BRANCH  35  36
HETATM   36  N   UNL     1      -0.668   5.897 -26.339  1.00  0.00    -0.379 N 
HETATM   37  H   UNL     1      -1.463   5.274 -26.209  1.00  0.00     0.158 HD
HETATM   38  H   UNL     1       0.240   5.436 -26.316  1.00  0.00     0.158 HD
ENDBRANCH  35  36
ENDBRANCH   2  31
TORSDOF 10
ENDMDL
MODEL 4
REMARK VINA RESULT:      -8.2      5.293     11.378
REMARK  10 active torsions:
REMARK  status: ('A' for Active; 'I' for Inactive)
REMARK    1  A    between atoms: C_2  and  N_3 
REMARK    2  A    between atoms: N_3  and  C_5 
REMARK    3  A    between atoms: N_3  and  C_34 
REMARK    4  A    between atoms: C_5  and  C_6 
REMARK    5  A    between atoms: N_7  and  C_8 
REMARK    6  A    between atoms: C_12  and  N_13 
REMARK    7  A    between atoms: C_16  and  C_17 
REMARK       I    between atoms: C_17  and  N_18 
REMARK    8  A    between atoms: N_18  and  N_19 
REMARK    9  A    between atoms: C_20  and  C_21 
REMARK   10  A    between atoms: C_23  and  C_24 
ROOT
HETATM    1  C   UNL     1      -1.381   7.690 -28.877  1.00  0.00     0.096 A 
HETATM    2  N   UNL     1      -0.121   8.059 -28.411  1.00  0.00    -0.215 N 
HETATM    3  N   UNL     1       0.816   7.609 -29.287  1.00  0.00     0.012 NA
HETATM    4  N   UNL     1       0.213   7.065 -30.331  1.00  0.00    -0.152 NA
HETATM    5  C   UNL     1      -1.132   7.105 -30.112  1.00  0.00     0.170 A 
ENDROOT
BRANCH   5   6
HETATM    6  C   UNL     1      -2.125   6.612 -31.057  1.00  0.00     0.293 C 
HETATM    7  N   UNL     1      -2.473   5.287 -30.877  1.00  0.00    -0.242 N 
HETATM    8  H   UNL     1      -2.047   4.738 -30.133  1.00  0.00     0.192 HD
HETATM    9  O   UNL     1      -2.553   7.352 -31.941  1.00  0.00    -0.264 OA
BRANCH   7  10
HETATM   10  N   UNL     1      -3.398   4.727 -31.708  1.00  0.00    -0.181 NA
HETATM   11  C   UNL     1      -3.871   3.572 -31.359  1.00  0.00     0.175 C 
BRANCH  11  12
HETATM   12  C   UNL     1      -4.855   2.922 -32.175  1.00  0.00     0.095 A 
HETATM   13  O   UNL     1      -4.694   1.595 -32.447  1.00  0.00    -0.309 OA
HETATM   14  C   UNL     1      -5.740   1.202 -33.238  1.00  0.00     0.086 A 
HETATM   15  C   UNL     1      -6.573   2.283 -33.462  1.00  0.00     0.041 A 
HETATM   16  C   UNL     1      -6.003   3.386 -32.784  1.00  0.00     0.041 A 
BRANCH  14  17
HETATM   17  C   UNL     1      -5.755  -0.197 -33.660  1.00  0.00    -0.002 A 
HETATM   18  C   UNL     1      -4.614  -1.008 -33.543  1.00  0.00     0.015 A 
HETATM   19  C   UNL     1      -4.634  -2.344 -33.959  1.00  0.00     0.020 A 
HETATM   20  C   UNL     1      -5.799  -2.883 -34.496  1.00  0.00     0.011 A 
HETATM   21 BR   UNL     1      -5.828  -4.686 -35.060  1.00  0.00    -0.051 Br
HETATM   22  C   UNL     1      -6.943  -2.101 -34.620  1.00  0.00     0.020 A 
HETATM   23  C   UNL     1      -6.918  -0.765 -34.204  1.00  0.00     0.015 A 
ENDBRANCH  14  17
ENDBRANCH  11  12
ENDBRANCH   7  10
ENDBRANCH   5   6
BRANCH   1  24
HETATM   24  C   UNL     1      -2.654   7.825 -28.128  1.00  0.00     0.296 C 
BRANCH  24  25
HETATM   25  N   UNL     1      -3.074   6.623 -27.297  1.00  0.00    -0.066 N 
HETATM   26  H   UNL     1      -2.742   5.788 -27.802  1.00  0.00     0.280 HD
BRANCH  25  27
HETATM   27  C   UNL     1      -4.593   6.526 -27.210  1.00  0.00     0.231 C 
HETATM   28  C   UNL     1      -5.211   6.288 -28.576  1.00  0.00     0.034 C 
ENDBRANCH  25  27
BRANCH  25  29
HETATM   29  C   UNL     1      -2.445   6.628 -25.911  1.00  0.00     0.231 C 
HETATM   30  C   UNL     1      -2.747   7.925 -25.178  1.00  0.00     0.034 C 
ENDBRANCH  25  29
ENDBRANCH  24  25
ENDBRANCH   1  24
BRANCH   2  31
HETATM   31  C   UNL     1       0.209   8.821 -27.266  1.00  0.00     0.225 A 
HETATM   32  N   UNL     1      -0.375  10.007 -27.067  1.00  0.00    -0.081 NA
HETATM   33  O   UNL     1       0.203  10.461 -25.876  1.00  0.00    -0.103 OA
HETATM   34  N   UNL     1       1.141   9.558 -25.398  1.00  0.00    -0.083 NA
HETATM   35  C   UNL     1       1.148   8.543 -26.260  1.00  0.00     0.201 A 
BRANCH  35  36
HETATM   36  N   UNL     1       1.923   7.454 -26.148  1.00  0.00    -0.379 N 
HETATM   37  H   UNL     1       1.661   6.587 -26.609  1.00  0.00     0.158 HD
HETATM   38  H   UNL     1       2.695   7.368 -25.489  1.00  0.00     0.158 HD
ENDBRANCH  35  36
ENDBRANCH   2  31
TORSDOF 10
ENDMDL
MODEL 5
REMARK VINA RESULT:      -8.1      4.214      6.289
REMARK  10 active torsions:
REMARK  status: ('A' for Active; 'I' for Inactive)
REMARK    1  A    between atoms: C_2  and  N_3 
REMARK    2  A    between atoms: N_3  and  C_5 
REMARK    3  A    between atoms: N_3  and  C_34 
REMARK    4  A    between atoms: C_5  and  C_6 
REMARK    5  A    between atoms: N_7  and  C_8 
REMARK    6  A    between atoms: C_12  and  N_13 
REMARK    7  A    between atoms: C_16  and  C_17 
REMARK       I    between atoms: C_17  and  N_18 
REMARK    8  A    between atoms: N_18  and  N_19 
REMARK    9  A    between atoms: C_20  and  C_21 
REMARK   10  A    between atoms: C_23  and  C_24 
ROOT
HETATM    1  C   UNL     1      -9.904   3.444 -33.451  1.00  0.00     0.096 A 
HETATM    2  N   UNL     1     -11.296   3.494 -33.460  1.00  0.00    -0.215 N 
HETATM    3  N   UNL     1     -11.696   4.601 -32.779  1.00  0.00     0.012 NA
HETATM    4  N   UNL     1     -10.634   5.306 -32.427  1.00  0.00    -0.152 NA
HETATM    5  C   UNL     1      -9.523   4.626 -32.829  1.00  0.00     0.170 A 
ENDROOT
BRANCH   5   6
HETATM    6  C   UNL     1      -8.161   5.106 -32.633  1.00  0.00     0.293 C 
HETATM    7  N   UNL     1      -7.471   5.353 -33.804  1.00  0.00    -0.242 N 
HETATM    8  H   UNL     1      -7.915   5.199 -34.708  1.00  0.00     0.192 HD
HETATM    9  O   UNL     1      -7.710   5.227 -31.495  1.00  0.00    -0.264 OA
BRANCH   7  10
HETATM   10  N   UNL     1      -6.187   5.809 -33.733  1.00  0.00    -0.181 NA
HETATM   11  C   UNL     1      -5.249   4.943 -33.952  1.00  0.00     0.175 C 
BRANCH  11  12
HETATM   12  C   UNL     1      -3.874   5.346 -33.906  1.00  0.00     0.095 A 
HETATM   13  O   UNL     1      -3.362   5.761 -32.711  1.00  0.00    -0.309 OA
HETATM   14  C   UNL     1      -2.050   6.097 -32.914  1.00  0.00     0.086 A 
HETATM   15  C   UNL     1      -1.727   5.887 -34.242  1.00  0.00     0.041 A 
HETATM   16  C   UNL     1      -2.897   5.409 -34.878  1.00  0.00     0.041 A 
BRANCH  14  17
HETATM   17  C   UNL     1      -1.310   6.583 -31.752  1.00  0.00    -0.002 A 
HETATM   18  C   UNL     1      -1.864   7.531 -30.877  1.00  0.00     0.015 A 
HETATM   19  C   UNL     1      -1.144   7.999 -29.771  1.00  0.00     0.020 A 
HETATM   20  C   UNL     1       0.140   7.522 -29.531  1.00  0.00     0.011 A 
HETATM   21 BR   UNL     1       1.115   8.154 -28.041  1.00  0.00    -0.051 Br
HETATM   22  C   UNL     1       0.711   6.581 -30.383  1.00  0.00     0.020 A 
HETATM   23  C   UNL     1      -0.012   6.116 -31.488  1.00  0.00     0.015 A 
ENDBRANCH  14  17
ENDBRANCH  11  12
ENDBRANCH   7  10
ENDBRANCH   5   6
BRANCH   1  24
HETATM   24  C   UNL     1      -9.076   2.307 -33.921  1.00  0.00     0.296 C 
BRANCH  24  25
HETATM   25  N   UNL     1      -8.077   1.746 -32.921  1.00  0.00    -0.066 N 
HETATM   26  H   UNL     1      -7.833   2.522 -32.287  1.00  0.00     0.280 HD
BRANCH  25  27
HETATM   27  C   UNL     1      -6.795   1.310 -33.620  1.00  0.00     0.231 C 
HETATM   28  C   UNL     1      -7.084   0.720 -34.989  1.00  0.00     0.034 C 
ENDBRANCH  25  27
BRANCH  25  29
HETATM   29  C   UNL     1      -8.661   0.612 -32.090  1.00  0.00     0.231 C 
HETATM   30  C   UNL     1      -9.872   0.001 -32.777  1.00  0.00     0.034 C 
ENDBRANCH  25  29
ENDBRANCH  24  25
ENDBRANCH   1  24
BRANCH   2  31
HETATM   31  C   UNL     1     -12.207   2.618 -34.095  1.00  0.00     0.225 A 
HETATM   32  N   UNL     1     -12.036   2.301 -35.382  1.00  0.00    -0.081 NA
HETATM   33  O   UNL     1     -13.115   1.454 -35.658  1.00  0.00    -0.103 OA
HETATM   34  N   UNL     1     -13.929   1.301 -34.545  1.00  0.00    -0.083 NA
HETATM   35  C   UNL     1     -13.369   2.024 -33.577  1.00  0.00     0.201 A 
BRANCH  35  36
HETATM   36  N   UNL     1     -13.854   2.134 -32.331  1.00  0.00    -0.379 N 
HETATM   37  H   UNL     1     -14.444   2.923 -32.077  1.00  0.00     0.158 HD
HETATM   38  H   UNL     1     -13.544   1.565 -31.545  1.00  0.00     0.158 HD
ENDBRANCH  35  36
ENDBRANCH   2  31
TORSDOF 10
ENDMDL
MODEL 6
REMARK VINA RESULT:      -8.0      3.562      5.664
REMARK  10 active torsions:
REMARK  status: ('A' for Active; 'I' for Inactive)
REMARK    1  A    between atoms: C_2  and  N_3 
REMARK    2  A    between atoms: N_3  and  C_5 
REMARK    3  A    between atoms: N_3  and  C_34 
REMARK    4  A    between atoms: C_5  and  C_6 
REMARK    5  A    between atoms: N_7  and  C_8 
REMARK    6  A    between atoms: C_12  and  N_13 
REMARK    7  A    between atoms: C_16  and  C_17 
REMARK       I    between atoms: C_17  and  N_18 
REMARK    8  A    between atoms: N_18  and  N_19 
REMARK    9  A    between atoms: C_20  and  C_21 
REMARK   10  A    between atoms: C_23  and  C_24 
ROOT
HETATM    1  C   UNL     1      -8.325   3.491 -33.551  1.00  0.00     0.096 A 
HETATM    2  N   UNL     1      -9.587   3.978 -33.882  1.00  0.00    -0.215 N 
HETATM    3  N   UNL     1      -9.476   5.296 -34.197  1.00  0.00     0.012 NA
HETATM    4  N   UNL     1      -8.200   5.644 -34.182  1.00  0.00    -0.152 NA
HETATM    5  C   UNL     1      -7.471   4.558 -33.796  1.00  0.00     0.170 A 
ENDROOT
BRANCH   5   6
HETATM    6  C   UNL     1      -6.018   4.554 -33.683  1.00  0.00     0.293 C 
HETATM    7  N   UNL     1      -5.548   4.611 -32.384  1.00  0.00    -0.242 N 
HETATM    8  H   UNL     1      -6.199   4.652 -31.602  1.00  0.00     0.192 HD
HETATM    9  O   UNL     1      -5.322   4.534 -34.697  1.00  0.00    -0.264 OA
BRANCH   7  10
HETATM   10  N   UNL     1      -4.202   4.609 -32.166  1.00  0.00    -0.181 NA
HETATM   11  C   UNL     1      -3.715   5.624 -31.525  1.00  0.00     0.175 C 
BRANCH  11  12
HETATM   12  C   UNL     1      -2.310   5.692 -31.247  1.00  0.00     0.095 A 
HETATM   13  O   UNL     1      -1.909   6.279 -30.082  1.00  0.00    -0.309 OA
HETATM   14  C   UNL     1      -0.541   6.232 -30.041  1.00  0.00     0.086 A 
HETATM   15  C   UNL     1      -0.073   5.606 -31.181  1.00  0.00     0.041 A 
HETATM   16  C   UNL     1      -1.206   5.264 -31.956  1.00  0.00     0.041 A 
BRANCH  14  17
HETATM   17  C   UNL     1       0.101   6.823 -28.869  1.00  0.00    -0.002 A 
HETATM   18  C   UNL     1       0.912   7.965 -28.978  1.00  0.00     0.015 A 
HETATM   19  C   UNL     1       1.530   8.519 -27.852  1.00  0.00     0.020 A 
HETATM   20  C   UNL     1       1.344   7.934 -26.603  1.00  0.00     0.011 A 
HETATM   21 BR   UNL     1       2.181   8.679 -25.081  1.00  0.00    -0.051 Br
HETATM   22  C   UNL     1       0.543   6.804 -26.469  1.00  0.00     0.020 A 
HETATM   23  C   UNL     1      -0.073   6.252 -27.598  1.00  0.00     0.015 A 
ENDBRANCH  14  17
ENDBRANCH  11  12
ENDBRANCH   7  10
ENDBRANCH   5   6
BRANCH   1  24
HETATM   24  C   UNL     1      -8.037   2.155 -32.974  1.00  0.00     0.296 C 
BRANCH  24  25
HETATM   25  N   UNL     1      -7.612   1.076 -33.958  1.00  0.00    -0.066 N 
HETATM   26  H   UNL     1      -7.691   1.493 -34.899  1.00  0.00     0.280 HD
BRANCH  25  27
HETATM   27  C   UNL     1      -8.564  -0.112 -33.907  1.00  0.00     0.231 C 
HETATM   28  C   UNL     1      -9.512  -0.011 -32.724  1.00  0.00     0.034 C 
ENDBRANCH  25  27
BRANCH  25  29
HETATM   29  C   UNL     1      -6.171   0.633 -33.749  1.00  0.00     0.231 C 
HETATM   30  C   UNL     1      -6.005  -0.846 -34.055  1.00  0.00     0.034 C 
ENDBRANCH  25  29
ENDBRANCH  24  25
ENDBRANCH   1  24
BRANCH   2  31
HETATM   31  C   UNL     1     -10.812   3.276 -33.959  1.00  0.00     0.225 A 
HETATM   32  N   UNL     1     -11.259   2.847 -35.143  1.00  0.00    -0.081 NA
HETATM   33  O   UNL     1     -12.477   2.232 -34.832  1.00  0.00    -0.103 OA
HETATM   34  N   UNL     1     -12.754   2.327 -33.476  1.00  0.00    -0.083 NA
HETATM   35  C   UNL     1     -11.725   2.977 -32.934  1.00  0.00     0.201 A 
BRANCH  35  36
HETATM   36  N   UNL     1     -11.610   3.268 -31.630  1.00  0.00    -0.379 N 
HETATM   37  H   UNL     1     -11.644   2.527 -30.933  1.00  0.00     0.158 HD
HETATM   38  H   UNL     1     -11.653   4.211 -31.250  1.00  0.00     0.158 HD
ENDBRANCH  35  36
ENDBRANCH   2  31
TORSDOF 10
ENDMDL
MODEL 7
REMARK VINA RESULT:      -7.9      2.672      3.912
REMARK  10 active torsions:
REMARK  status: ('A' for Active; 'I' for Inactive)
REMARK    1  A    between atoms: C_2  and  N_3 
REMARK    2  A    between atoms: N_3  and  C_5 
REMARK    3  A    between atoms: N_3  and  C_34 
REMARK    4  A    between atoms: C_5  and  C_6 
REMARK    5  A    between atoms: N_7  and  C_8 
REMARK    6  A    between atoms: C_12  and  N_13 
REMARK    7  A    between atoms: C_16  and  C_17 
REMARK       I    between atoms: C_17  and  N_18 
REMARK    8  A    between atoms: N_18  and  N_19 
REMARK    9  A    between atoms: C_20  and  C_21 
REMARK   10  A    between atoms: C_23  and  C_24 
ROOT
HETATM    1  C   UNL     1      -5.955   1.552 -32.555  1.00  0.00     0.096 A 
HETATM    2  N   UNL     1      -6.834   0.532 -32.910  1.00  0.00    -0.215 N 
HETATM    3  N   UNL     1      -6.168  -0.653 -32.860  1.00  0.00     0.012 NA
HETATM    4  N   UNL     1      -4.946  -0.449 -32.397  1.00  0.00    -0.152 NA
HETATM    5  C   UNL     1      -4.789   0.890 -32.195  1.00  0.00     0.170 A 
ENDROOT
BRANCH   5   6
HETATM    6  C   UNL     1      -3.572   1.495 -31.669  1.00  0.00     0.293 C 
HETATM    7  N   UNL     1      -3.451   2.847 -31.929  1.00  0.00    -0.242 N 
HETATM    8  H   UNL     1      -4.175   3.340 -32.449  1.00  0.00     0.192 HD
HETATM    9  O   UNL     1      -2.745   0.801 -31.081  1.00  0.00    -0.264 OA
BRANCH   7  10
HETATM   10  N   UNL     1      -2.349   3.512 -31.477  1.00  0.00    -0.181 NA
HETATM   11  C   UNL     1      -2.305   4.787 -31.703  1.00  0.00     0.175 C 
BRANCH  11  12
HETATM   12  C   UNL     1      -1.185   5.560 -31.250  1.00  0.00     0.095 A 
HETATM   13  O   UNL     1      -1.255   6.138 -30.016  1.00  0.00    -0.309 OA
HETATM   14  C   UNL     1      -0.086   6.821 -29.809  1.00  0.00     0.086 A 
HETATM   15  C   UNL     1       0.731   6.668 -30.913  1.00  0.00     0.041 A 
HETATM   16  C   UNL     1       0.025   5.864 -31.838  1.00  0.00     0.041 A 
BRANCH  14  17
HETATM   17  C   UNL     1       0.043   7.530 -28.538  1.00  0.00    -0.002 A 
HETATM   18  C   UNL     1      -0.992   7.522 -27.588  1.00  0.00     0.015 A 
HETATM   19  C   UNL     1      -0.863   8.212 -26.377  1.00  0.00     0.020 A 
HETATM   20  C   UNL     1       0.304   8.919 -26.105  1.00  0.00     0.011 A 
HETATM   21 BR   UNL     1       0.478   9.854 -24.472  1.00  0.00    -0.051 Br
HETATM   22  C   UNL     1       1.343   8.940 -27.030  1.00  0.00     0.020 A 
HETATM   23  C   UNL     1       1.211   8.249 -28.240  1.00  0.00     0.015 A 
ENDBRANCH  14  17
ENDBRANCH  11  12
ENDBRANCH   7  10
ENDBRANCH   5   6
BRANCH   1  24
HETATM   24  C   UNL     1      -6.230   3.006 -32.660  1.00  0.00     0.296 C 
BRANCH  24  25
HETATM   25  N   UNL     1      -7.115   3.601 -31.576  1.00  0.00    -0.066 N 
HETATM   26  H   UNL     1      -7.535   2.805 -31.072  1.00  0.00     0.280 HD
BRANCH  25  27
HETATM   27  C   UNL     1      -8.257   4.405 -32.186  1.00  0.00     0.231 C 
HETATM   28  C   UNL     1      -8.275   4.279 -33.699  1.00  0.00     0.034 C 
ENDBRANCH  25  27
BRANCH  25  29
HETATM   29  C   UNL     1      -6.328   4.438 -30.577  1.00  0.00     0.231 C 
HETATM   30  C   UNL     1      -5.922   5.771 -31.184  1.00  0.00     0.034 C 
ENDBRANCH  25  29
ENDBRANCH  24  25
ENDBRANCH   1  24
BRANCH   2  31
HETATM   31  C   UNL     1      -8.210   0.620 -33.223  1.00  0.00     0.225 A 
HETATM   32  N   UNL     1      -8.597   0.722 -34.498  1.00  0.00    -0.081 NA
HETATM   33  O   UNL     1      -9.991   0.807 -34.413  1.00  0.00    -0.103 OA
HETATM   34  N   UNL     1     -10.415   0.785 -33.093  1.00  0.00    -0.083 NA
HETATM   35  C   UNL     1      -9.313   0.672 -32.354  1.00  0.00     0.201 A 
BRANCH  35  36
HETATM   36  N   UNL     1      -9.297   0.611 -31.014  1.00  0.00    -0.379 N 
HETATM   37  H   UNL     1      -9.727   1.348 -30.461  1.00  0.00     0.158 HD
HETATM   38  H   UNL     1      -8.735  -0.049 -30.479  1.00  0.00     0.158 HD
ENDBRANCH  35  36
ENDBRANCH   2  31
TORSDOF 10
ENDMDL
MODEL 8
REMARK VINA RESULT:      -7.9      4.989     11.301
REMARK  10 active torsions:
REMARK  status: ('A' for Active; 'I' for Inactive)
REMARK    1  A    between atoms: C_2  and  N_3 
REMARK    2  A    between atoms: N_3  and  C_5 
REMARK    3  A    between atoms: N_3  and  C_34 
REMARK    4  A    between atoms: C_5  and  C_6 
REMARK    5  A    between atoms: N_7  and  C_8 
REMARK    6  A    between atoms: C_12  and  N_13 
REMARK    7  A    between atoms: C_16  and  C_17 
REMARK       I    between atoms: C_17  and  N_18 
REMARK    8  A    between atoms: N_18  and  N_19 
REMARK    9  A    between atoms: C_20  and  C_21 
REMARK   10  A    between atoms: C_23  and  C_24 
ROOT
HETATM    1  C   UNL     1      -2.656   7.421 -28.980  1.00  0.00     0.096 A 
HETATM    2  N   UNL     1      -2.944   8.485 -28.129  1.00  0.00    -0.215 N 
HETATM    3  N   UNL     1      -4.054   9.121 -28.587  1.00  0.00     0.012 NA
HETATM    4  N   UNL     1      -4.542   8.459 -29.623  1.00  0.00    -0.152 NA
HETATM    5  C   UNL     1      -3.711   7.410 -29.884  1.00  0.00     0.170 A 
ENDROOT
BRANCH   5   6
HETATM    6  C   UNL     1      -3.936   6.440 -30.947  1.00  0.00     0.293 C 
HETATM    7  N   UNL     1      -4.306   5.184 -30.501  1.00  0.00    -0.242 N 
HETATM    8  H   UNL     1      -4.401   4.998 -29.504  1.00  0.00     0.192 HD
HETATM    9  O   UNL     1      -3.761   6.761 -32.120  1.00  0.00    -0.264 OA
BRANCH   7  10
HETATM   10  N   UNL     1      -4.544   4.201 -31.416  1.00  0.00    -0.181 NA
HETATM   11  C   UNL     1      -5.784   3.962 -31.705  1.00  0.00     0.175 C 
BRANCH  11  12
HETATM   12  C   UNL     1      -6.116   2.950 -32.665  1.00  0.00     0.095 A 
HETATM   13  O   UNL     1      -5.516   1.730 -32.552  1.00  0.00    -0.309 OA
HETATM   14  C   UNL     1      -5.980   0.942 -33.571  1.00  0.00     0.086 A 
HETATM   15  C   UNL     1      -6.883   1.663 -34.329  1.00  0.00     0.041 A 
HETATM   16  C   UNL     1      -6.967   2.951 -33.750  1.00  0.00     0.041 A 
BRANCH  14  17
HETATM   17  C   UNL     1      -5.450  -0.418 -33.642  1.00  0.00    -0.002 A 
HETATM   18  C   UNL     1      -6.024  -1.383 -34.485  1.00  0.00     0.015 A 
HETATM   19  C   UNL     1      -5.515  -2.686 -34.540  1.00  0.00     0.020 A 
HETATM   20  C   UNL     1      -4.426  -3.036 -33.749  1.00  0.00     0.011 A 
HETATM   21 BR   UNL     1      -3.740  -4.795 -33.818  1.00  0.00    -0.051 Br
HETATM   22  C   UNL     1      -3.839  -2.097 -32.906  1.00  0.00     0.020 A 
HETATM   23  C   UNL     1      -4.351  -0.795 -32.854  1.00  0.00     0.015 A 
ENDBRANCH  14  17
ENDBRANCH  11  12
ENDBRANCH   7  10
ENDBRANCH   5   6
BRANCH   1  24
HETATM   24  C   UNL     1      -1.428   6.590 -28.941  1.00  0.00     0.296 C 
BRANCH  24  25
HETATM   25  N   UNL     1      -0.121   7.309 -29.234  1.00  0.00    -0.066 N 
HETATM   26  H   UNL     1      -0.365   8.295 -29.416  1.00  0.00     0.280 HD
BRANCH  25  27
HETATM   27  C   UNL     1       0.529   6.763 -30.500  1.00  0.00     0.231 C 
HETATM   28  C   UNL     1      -0.320   7.051 -31.726  1.00  0.00     0.034 C 
ENDBRANCH  25  27
BRANCH  25  29
HETATM   29  C   UNL     1       0.844   7.262 -28.058  1.00  0.00     0.231 C 
HETATM   30  C   UNL     1       1.542   8.599 -27.872  1.00  0.00     0.034 C 
ENDBRANCH  25  29
ENDBRANCH  24  25
ENDBRANCH   1  24
BRANCH   2  31
HETATM   31  C   UNL     1      -2.282   8.868 -26.939  1.00  0.00     0.225 A 
HETATM   32  N   UNL     1      -1.566   9.996 -26.910  1.00  0.00    -0.081 NA
HETATM   33  O   UNL     1      -1.057  10.030 -25.607  1.00  0.00    -0.103 OA
HETATM   34  N   UNL     1      -1.449   8.911 -24.887  1.00  0.00    -0.083 NA
HETATM   35  C   UNL     1      -2.206   8.189 -25.712  1.00  0.00     0.201 A 
BRANCH  35  36
HETATM   36  N   UNL     1      -2.787   7.024 -25.389  1.00  0.00    -0.379 N 
HETATM   37  H   UNL     1      -3.266   6.918 -24.497  1.00  0.00     0.158 HD
HETATM   38  H   UNL     1      -2.651   6.156 -25.903  1.00  0.00     0.158 HD
ENDBRANCH  35  36
ENDBRANCH   2  31
TORSDOF 10
ENDMDL
MODEL 9
REMARK VINA RESULT:      -7.6      5.666      9.226
REMARK  10 active torsions:
REMARK  status: ('A' for Active; 'I' for Inactive)
REMARK    1  A    between atoms: C_2  and  N_3 
REMARK    2  A    between atoms: N_3  and  C_5 
REMARK    3  A    between atoms: N_3  and  C_34 
REMARK    4  A    between atoms: C_5  and  C_6 
REMARK    5  A    between atoms: N_7  and  C_8 
REMARK    6  A    between atoms: C_12  and  N_13 
REMARK    7  A    between atoms: C_16  and  C_17 
REMARK       I    between atoms: C_17  and  N_18 
REMARK    8  A    between atoms: N_18  and  N_19 
REMARK    9  A    between atoms: C_20  and  C_21 
REMARK   10  A    between atoms: C_23  and  C_24 
ROOT
HETATM    1  C   UNL     1      -0.991   6.087 -29.869  1.00  0.00     0.096 A 
HETATM    2  N   UNL     1      -0.646   5.203 -30.889  1.00  0.00    -0.215 N 
HETATM    3  N   UNL     1       0.556   4.643 -30.592  1.00  0.00     0.012 NA
HETATM    4  N   UNL     1       0.944   5.049 -29.394  1.00  0.00    -0.152 NA
HETATM    5  C   UNL     1       0.015   5.928 -28.924  1.00  0.00     0.170 A 
ENDROOT
BRANCH   5   6
HETATM    6  C   UNL     1       0.092   6.572 -27.619  1.00  0.00     0.293 C 
HETATM    7  N   UNL     1       0.801   7.759 -27.612  1.00  0.00    -0.242 N 
HETATM    8  H   UNL     1       1.219   8.116 -28.470  1.00  0.00     0.192 HD
HETATM    9  O   UNL     1      -0.422   6.038 -26.639  1.00  0.00    -0.264 OA
BRANCH   7  10
HETATM   10  N   UNL     1       0.932   8.445 -26.441  1.00  0.00    -0.181 NA
HETATM   11  C   UNL     1       2.052   8.303 -25.804  1.00  0.00     0.175 C 
BRANCH  11  12
HETATM   12  C   UNL     1       2.271   9.000 -24.570  1.00  0.00     0.095 A 
HETATM   13  O   UNL     1       3.383   8.691 -23.843  1.00  0.00    -0.309 OA
HETATM   14  C   UNL     1       3.373   9.470 -22.716  1.00  0.00     0.086 A 
HETATM   15  C   UNL     1       2.254  10.281 -22.734  1.00  0.00     0.041 A 
HETATM   16  C   UNL     1       1.546   9.976 -23.920  1.00  0.00     0.041 A 
BRANCH  14  17
HETATM   17  C   UNL     1       4.483   9.288 -21.783  1.00  0.00    -0.002 A 
HETATM   18  C   UNL     1       5.225  10.381 -21.307  1.00  0.00     0.015 A 
HETATM   19  C   UNL     1       6.292  10.196 -20.422  1.00  0.00     0.020 A 
HETATM   20  C   UNL     1       6.629   8.913 -20.003  1.00  0.00     0.011 A 
HETATM   21 BR   UNL     1       8.072   8.661 -18.810  1.00  0.00    -0.051 Br
HETATM   22  C   UNL     1       5.909   7.814 -20.460  1.00  0.00     0.020 A 
HETATM   23  C   UNL     1       4.842   8.002 -21.346  1.00  0.00     0.015 A 
ENDBRANCH  14  17
ENDBRANCH  11  12
ENDBRANCH   7  10
ENDBRANCH   5   6
BRANCH   1  24
HETATM   24  C   UNL     1      -2.132   7.035 -29.894  1.00  0.00     0.296 C 
BRANCH  24  25
HETATM   25  N   UNL     1      -3.358   6.628 -29.093  1.00  0.00    -0.066 N 
HETATM   26  H   UNL     1      -3.164   5.686 -28.719  1.00  0.00     0.280 HD
BRANCH  25  27
HETATM   27  C   UNL     1      -4.583   6.515 -29.993  1.00  0.00     0.231 C 
HETATM   28  C   UNL     1      -4.370   7.242 -31.309  1.00  0.00     0.034 C 
ENDBRANCH  25  27
BRANCH  25  29
HETATM   29  C   UNL     1      -3.623   7.564 -27.921  1.00  0.00     0.231 C 
HETATM   30  C   UNL     1      -2.999   8.928 -28.162  1.00  0.00     0.034 C 
ENDBRANCH  25  29
ENDBRANCH  24  25
ENDBRANCH   1  24
BRANCH   2  31
HETATM   31  C   UNL     1      -1.391   4.847 -32.037  1.00  0.00     0.225 A 
HETATM   32  N   UNL     1      -1.064   5.360 -33.227  1.00  0.00    -0.081 NA
HETATM   33  O   UNL     1      -2.012   4.809 -34.095  1.00  0.00    -0.103 OA
HETATM   34  N   UNL     1      -2.907   3.999 -33.411  1.00  0.00    -0.083 NA
HETATM   35  C   UNL     1      -2.525   4.024 -32.135  1.00  0.00     0.201 A 
BRANCH  35  36
HETATM   36  N   UNL     1      -3.136   3.358 -31.145  1.00  0.00    -0.379 N 
HETATM   37  H   UNL     1      -2.589   2.846 -30.456  1.00  0.00     0.158 HD
HETATM   38  H   UNL     1      -4.138   3.179 -31.110  1.00  0.00     0.158 HD
ENDBRANCH  35  36
ENDBRANCH   2  31
TORSDOF 10
ENDMDL
MODEL 10
REMARK VINA RESULT:      -7.5      1.675      2.995
REMARK  10 active torsions:
REMARK  status: ('A' for Active; 'I' for Inactive)
REMARK    1  A    between atoms: C_2  and  N_3 
REMARK    2  A    between atoms: N_3  and  C_5 
REMARK    3  A    between atoms: N_3  and  C_34 
REMARK    4  A    between atoms: C_5  and  C_6 
REMARK    5  A    between atoms: N_7  and  C_8 
REMARK    6  A    between atoms: C_12  and  N_13 
REMARK    7  A    between atoms: C_16  and  C_17 
REMARK       I    between atoms: C_17  and  N_18 
REMARK    8  A    between atoms: N_18  and  N_19 
REMARK    9  A    between atoms: C_20  and  C_21 
REMARK   10  A    between atoms: C_23  and  C_24 
ROOT
HETATM    1  C   UNL     1      -6.478  -0.497 -33.407  1.00  0.00     0.096 A 
HETATM    2  N   UNL     1      -6.841  -1.394 -34.409  1.00  0.00    -0.215 N 
HETATM    3  N   UNL     1      -7.641  -0.751 -35.300  1.00  0.00     0.012 NA
HETATM    4  N   UNL     1      -7.724   0.528 -34.971  1.00  0.00    -0.152 NA
HETATM    5  C   UNL     1      -7.017   0.715 -33.820  1.00  0.00     0.170 A 
ENDROOT
BRANCH   5   6
HETATM    6  C   UNL     1      -6.862   2.006 -33.163  1.00  0.00     0.293 C 
HETATM    7  N   UNL     1      -5.695   2.672 -33.487  1.00  0.00    -0.242 N 
HETATM    8  H   UNL     1      -5.027   2.259 -34.136  1.00  0.00     0.192 HD
HETATM    9  O   UNL     1      -7.715   2.399 -32.370  1.00  0.00    -0.264 OA
BRANCH   7  10
HETATM   10  N   UNL     1      -5.452   3.892 -32.928  1.00  0.00    -0.181 NA
HETATM   11  C   UNL     1      -4.214   4.184 -32.682  1.00  0.00     0.175 C 
BRANCH  11  12
HETATM   12  C   UNL     1      -3.876   5.452 -32.104  1.00  0.00     0.095 A 
HETATM   13  O   UNL     1      -2.874   5.494 -31.179  1.00  0.00    -0.309 OA
HETATM   14  C   UNL     1      -2.738   6.794 -30.770  1.00  0.00     0.086 A 
HETATM   15  C   UNL     1      -3.652   7.581 -31.445  1.00  0.00     0.041 A 
HETATM   16  C   UNL     1      -4.384   6.720 -32.297  1.00  0.00     0.041 A 
BRANCH  14  17
HETATM   17  C   UNL     1      -1.715   7.061 -29.761  1.00  0.00    -0.002 A 
HETATM   18  C   UNL     1      -2.054   7.273 -28.415  1.00  0.00     0.015 A 
HETATM   19  C   UNL     1      -1.069   7.537 -27.457  1.00  0.00     0.020 A 
HETATM   20  C   UNL     1       0.268   7.593 -27.838  1.00  0.00     0.011 A 
HETATM   21 BR   UNL     1       1.599   7.954 -26.547  1.00  0.00    -0.051 Br
HETATM   22  C   UNL     1       0.629   7.385 -29.165  1.00  0.00     0.020 A 
HETATM   23  C   UNL     1      -0.359   7.121 -30.121  1.00  0.00     0.015 A 
ENDBRANCH  14  17
ENDBRANCH  11  12
ENDBRANCH   7  10
ENDBRANCH   5   6
BRANCH   1  24
HETATM   24  C   UNL     1      -5.765  -0.842 -32.153  1.00  0.00     0.296 C 
BRANCH  24  25
HETATM   25  N   UNL     1      -4.518  -0.028 -31.844  1.00  0.00    -0.066 N 
HETATM   26  H   UNL     1      -4.579   0.827 -32.417  1.00  0.00     0.280 HD
BRANCH  25  27
HETATM   27  C   UNL     1      -3.261  -0.774 -32.275  1.00  0.00     0.231 C 
HETATM   28  C   UNL     1      -3.284  -2.216 -31.800  1.00  0.00     0.034 C 
ENDBRANCH  25  27
BRANCH  25  29
HETATM   29  C   UNL     1      -4.439   0.380 -30.380  1.00  0.00     0.231 C 
HETATM   30  C   UNL     1      -5.821   0.669 -29.818  1.00  0.00     0.034 C 
ENDBRANCH  25  29
ENDBRANCH  24  25
ENDBRANCH   1  24
BRANCH   2  31
HETATM   31  C   UNL     1      -6.440  -2.740 -34.577  1.00  0.00     0.225 A 
HETATM   32  N   UNL     1      -7.316  -3.726 -34.362  1.00  0.00    -0.081 NA
HETATM   33  O   UNL     1      -6.570  -4.886 -34.600  1.00  0.00    -0.103 OA
HETATM   34  N   UNL     1      -5.257  -4.579 -34.923  1.00  0.00    -0.083 NA
HETATM   35  C   UNL     1      -5.173  -3.250 -34.906  1.00  0.00     0.201 A 
BRANCH  35  36
HETATM   36  N   UNL     1      -4.059  -2.553 -35.173  1.00  0.00    -0.379 N 
HETATM   37  H   UNL     1      -3.616  -2.621 -36.086  1.00  0.00     0.158 HD
HETATM   38  H   UNL     1      -3.505  -2.070 -34.468  1.00  0.00     0.158 HD
ENDBRANCH  35  36
ENDBRANCH   2  31
TORSDOF 10
ENDMDL
