MODEL 1
REMARK VINA RESULT:      -8.9      0.000      0.000
REMARK  8 active torsions:
REMARK  status: ('A' for Active; 'I' for Inactive)
REMARK    1  A    between atoms: C_2  and  C_3 
REMARK    2  A    between atoms: C_3  and  N_4 
REMARK    3  A    between atoms: N_9  and  C_11 
REMARK    4  A    between atoms: C_11  and  C_12 
REMARK    5  A    between atoms: C_14  and  C_15 
REMARK    6  A    between atoms: C_15  and  C_16 
REMARK    7  A    between atoms: C_16  and  C_17 
REMARK    8  A    between atoms: C_17  and  O_18 
ROOT
HETATM    1  N   UNL     1      -5.985   0.358 -32.854  1.00  0.00    -0.066 N 
HETATM    2  H   UNL     1      -5.025   0.007 -32.961  1.00  0.00     0.280 HD
HETATM    3  C   UNL     1      -5.996   1.860 -33.039  1.00  0.00     0.246 C 
HETATM    4  C   UNL     1      -5.064   2.540 -32.019  1.00  0.00     0.009 C 
HETATM    5  C   UNL     1      -5.105   4.069 -32.196  1.00  0.00     0.246 C 
HETATM    6  N   UNL     1      -3.793   4.554 -31.623  1.00  0.00    -0.066 N 
HETATM    7  H   UNL     1      -3.954   4.827 -30.640  1.00  0.00     0.280 HD
HETATM    8  C   UNL     1      -2.817   3.404 -31.626  1.00  0.00     0.236 C 
HETATM    9  C   UNL     1      -3.575   2.264 -32.297  1.00  0.00     0.040 C 
HETATM   10  C   UNL     1      -5.484   2.121 -30.593  1.00  0.00     0.014 C 
HETATM   11  C   UNL     1      -5.580   0.602 -30.426  1.00  0.00     0.029 C 
HETATM   12  C   UNL     1      -6.468  -0.050 -31.480  1.00  0.00     0.235 C 
ENDROOT
BRANCH   1  13
HETATM   13  C   UNL     1      -6.773  -0.379 -33.941  1.00  0.00     0.273 C 
BRANCH  13  14
HETATM   14  C   UNL     1      -6.214  -1.749 -34.225  1.00  0.00    -0.032 A 
HETATM   15  C   UNL     1      -7.062  -2.807 -34.602  1.00  0.00     0.012 A 
HETATM   16  C   UNL     1      -6.546  -4.090 -34.791  1.00  0.00     0.043 A 
HETATM   17  C   UNL     1      -5.187  -4.319 -34.617  1.00  0.00     0.116 A 
HETATM   18  C   UNL     1      -4.329  -3.285 -34.270  1.00  0.00     0.043 A 
HETATM   19  F   UNL     1      -4.700  -5.554 -34.782  1.00  0.00    -0.206 F 
HETATM   20  C   UNL     1      -4.838  -1.999 -34.076  1.00  0.00     0.012 A 
ENDBRANCH  13  14
ENDBRANCH   1  13
BRANCH   6  21
HETATM   21  C   UNL     1      -3.251   5.819 -32.264  1.00  0.00     0.280 C 
BRANCH  21  22
HETATM   22  C   UNL     1      -1.962   6.252 -31.653  1.00  0.00     0.009 A 
HETATM   23  S   UNL     1      -1.947   6.846 -30.044  1.00  0.00    -0.084 SA
HETATM   24  C   UNL     1      -0.262   7.109 -30.081  1.00  0.00     0.058 A 
HETATM   25  C   UNL     1       0.286   6.749 -31.293  1.00  0.00     0.029 A 
HETATM   26  C   UNL     1      -0.696   6.250 -32.203  1.00  0.00     0.018 A 
BRANCH  24  27
HETATM   27  C   UNL     1       0.466   7.640 -28.978  1.00  0.00    -0.057 C 
BRANCH  27  28
HETATM   28  C   UNL     1       1.102   8.088 -28.062  1.00  0.00    -0.075 C 
BRANCH  28  29
HETATM   29  C   UNL     1       1.864   8.603 -26.927  1.00  0.00     0.258 C 
BRANCH  29  30
HETATM   30  O   UNL     1       1.951   7.599 -25.927  1.00  0.00    -0.389 OA
HETATM   31  H   UNL     1       2.150   8.052 -25.090  1.00  0.00     0.210 HD
ENDBRANCH  29  30
ENDBRANCH  28  29
ENDBRANCH  27  28
ENDBRANCH  24  27
ENDBRANCH  21  22
ENDBRANCH   6  21
TORSDOF 8
ENDMDL
MODEL 2
REMARK VINA RESULT:      -8.4      5.026     10.812
REMARK  8 active torsions:
REMARK  status: ('A' for Active; 'I' for Inactive)
REMARK    1  A    between atoms: C_2  and  C_3 
REMARK    2  A    between atoms: C_3  and  N_4 
REMARK    3  A    between atoms: N_9  and  C_11 
REMARK    4  A    between atoms: C_11  and  C_12 
REMARK    5  A    between atoms: C_14  and  C_15 
REMARK    6  A    between atoms: C_15  and  C_16 
REMARK    7  A    between atoms: C_16  and  C_17 
REMARK    8  A    between atoms: C_17  and  O_18 
ROOT
HETATM    1  N   UNL     1      -1.876   6.814 -31.448  1.00  0.00    -0.066 N 
HETATM    2  H   UNL     1      -1.343   6.083 -30.960  1.00  0.00     0.280 HD
HETATM    3  C   UNL     1      -3.302   6.351 -31.648  1.00  0.00     0.246 C 
HETATM    4  C   UNL     1      -3.340   5.041 -32.454  1.00  0.00     0.009 C 
HETATM    5  C   UNL     1      -4.797   4.594 -32.678  1.00  0.00     0.246 C 
HETATM    6  N   UNL     1      -4.707   3.102 -32.908  1.00  0.00    -0.066 N 
HETATM    7  H   UNL     1      -4.671   2.936 -33.927  1.00  0.00     0.280 HD
HETATM    8  C   UNL     1      -3.411   2.606 -32.316  1.00  0.00     0.236 C 
HETATM    9  C   UNL     1      -2.795   3.839 -31.662  1.00  0.00     0.040 C 
HETATM   10  C   UNL     1      -2.597   5.249 -33.793  1.00  0.00     0.014 C 
HETATM   11  C   UNL     1      -1.188   5.819 -33.606  1.00  0.00     0.029 C 
HETATM   12  C   UNL     1      -1.176   7.088 -32.761  1.00  0.00     0.235 C 
ENDROOT
BRANCH   1  13
HETATM   13  C   UNL     1      -1.771   8.029 -30.521  1.00  0.00     0.273 C 
BRANCH  13  14
HETATM   14  C   UNL     1      -0.812   7.800 -29.381  1.00  0.00    -0.032 A 
HETATM   15  C   UNL     1      -0.526   8.829 -28.466  1.00  0.00     0.012 A 
HETATM   16  C   UNL     1       0.420   8.633 -27.457  1.00  0.00     0.043 A 
HETATM   17  C   UNL     1       1.072   7.410 -27.353  1.00  0.00     0.116 A 
HETATM   18  C   UNL     1       0.786   6.373 -28.231  1.00  0.00     0.043 A 
HETATM   19  F   UNL     1       1.990   7.232 -26.397  1.00  0.00    -0.206 F 
HETATM   20  C   UNL     1      -0.156   6.564 -29.244  1.00  0.00     0.012 A 
ENDBRANCH  13  14
ENDBRANCH   1  13
BRANCH   6  21
HETATM   21  C   UNL     1      -5.926   2.318 -32.457  1.00  0.00     0.280 C 
BRANCH  21  22
HETATM   22  C   UNL     1      -6.244   1.192 -33.380  1.00  0.00     0.009 A 
HETATM   23  S   UNL     1      -5.692  -0.390 -33.007  1.00  0.00    -0.084 SA
HETATM   24  C   UNL     1      -6.395  -1.044 -34.417  1.00  0.00     0.058 A 
HETATM   25  C   UNL     1      -7.043  -0.083 -35.160  1.00  0.00     0.029 A 
HETATM   26  C   UNL     1      -6.960   1.211 -34.560  1.00  0.00     0.018 A 
BRANCH  24  27
HETATM   27  C   UNL     1      -6.305  -2.424 -34.760  1.00  0.00    -0.057 C 
BRANCH  27  28
HETATM   28  C   UNL     1      -6.217  -3.593 -35.025  1.00  0.00    -0.075 C 
BRANCH  28  29
HETATM   29  C   UNL     1      -6.079  -5.016 -35.325  1.00  0.00     0.258 C 
BRANCH  29  30
HETATM   30  O   UNL     1      -4.985  -5.545 -34.592  1.00  0.00    -0.389 OA
HETATM   31  H   UNL     1      -5.002  -6.509 -34.716  1.00  0.00     0.210 HD
ENDBRANCH  29  30
ENDBRANCH  28  29
ENDBRANCH  27  28
ENDBRANCH  24  27
ENDBRANCH  21  22
ENDBRANCH   6  21
TORSDOF 8
ENDMDL
MODEL 3
REMARK VINA RESULT:      -8.0      2.408      3.165
REMARK  8 active torsions:
REMARK  status: ('A' for Active; 'I' for Inactive)
REMARK    1  A    between atoms: C_2  and  C_3 
REMARK    2  A    between atoms: C_3  and  N_4 
REMARK    3  A    between atoms: N_9  and  C_11 
REMARK    4  A    between atoms: C_11  and  C_12 
REMARK    5  A    between atoms: C_14  and  C_15 
REMARK    6  A    between atoms: C_15  and  C_16 
REMARK    7  A    between atoms: C_16  and  C_17 
REMARK    8  A    between atoms: C_17  and  O_18 
ROOT
HETATM    1  N   UNL     1      -7.766   0.179 -33.838  1.00  0.00    -0.066 N 
HETATM    2  H   UNL     1      -7.057  -0.011 -33.119  1.00  0.00     0.280 HD
HETATM    3  C   UNL     1      -7.603   1.596 -34.344  1.00  0.00     0.246 C 
HETATM    4  C   UNL     1      -7.734   2.604 -33.188  1.00  0.00     0.009 C 
HETATM    5  C   UNL     1      -7.596   4.044 -33.718  1.00  0.00     0.246 C 
HETATM    6  N   UNL     1      -7.145   4.849 -32.520  1.00  0.00    -0.066 N 
HETATM    7  H   UNL     1      -7.981   5.265 -32.079  1.00  0.00     0.280 HD
HETATM    8  C   UNL     1      -6.520   3.907 -31.521  1.00  0.00     0.236 C 
HETATM    9  C   UNL     1      -6.545   2.548 -32.212  1.00  0.00     0.040 C 
HETATM   10  C   UNL     1      -9.089   2.387 -32.478  1.00  0.00     0.014 C 
HETATM   11  C   UNL     1      -9.310   0.931 -32.057  1.00  0.00     0.029 C 
HETATM   12  C   UNL     1      -9.124  -0.048 -33.210  1.00  0.00     0.235 C 
ENDROOT
BRANCH   1  13
HETATM   13  C   UNL     1      -7.492  -0.871 -34.918  1.00  0.00     0.273 C 
BRANCH  13  14
HETATM   14  C   UNL     1      -6.320  -1.754 -34.575  1.00  0.00    -0.032 A 
HETATM   15  C   UNL     1      -6.310  -3.111 -34.945  1.00  0.00     0.012 A 
HETATM   16  C   UNL     1      -5.255  -3.940 -34.559  1.00  0.00     0.043 A 
HETATM   17  C   UNL     1      -4.205  -3.416 -33.815  1.00  0.00     0.116 A 
HETATM   18  C   UNL     1      -4.183  -2.074 -33.460  1.00  0.00     0.043 A 
HETATM   19  F   UNL     1      -3.206  -4.217 -33.431  1.00  0.00    -0.206 F 
HETATM   20  C   UNL     1      -5.236  -1.241 -33.840  1.00  0.00     0.012 A 
ENDBRANCH  13  14
ENDBRANCH   1  13
BRANCH   6  21
HETATM   21  C   UNL     1      -6.278   6.049 -32.855  1.00  0.00     0.280 C 
BRANCH  21  22
HETATM   22  C   UNL     1      -4.829   5.701 -32.906  1.00  0.00     0.009 A 
HETATM   23  S   UNL     1      -3.862   5.895 -31.502  1.00  0.00    -0.084 SA
HETATM   24  C   UNL     1      -2.462   5.339 -32.303  1.00  0.00     0.058 A 
HETATM   25  C   UNL     1      -2.721   5.005 -33.614  1.00  0.00     0.029 A 
HETATM   26  C   UNL     1      -4.091   5.210 -33.964  1.00  0.00     0.018 A 
BRANCH  24  27
HETATM   27  C   UNL     1      -1.191   5.244 -31.667  1.00  0.00    -0.057 C 
BRANCH  27  28
HETATM   28  C   UNL     1      -0.110   5.147 -31.151  1.00  0.00    -0.075 C 
BRANCH  28  29
HETATM   29  C   UNL     1       1.193   4.997 -30.507  1.00  0.00     0.258 C 
BRANCH  29  30
HETATM   30  O   UNL     1       1.116   3.972 -29.529  1.00  0.00    -0.389 OA
HETATM   31  H   UNL     1       0.554   3.271 -29.900  1.00  0.00     0.210 HD
ENDBRANCH  29  30
ENDBRANCH  28  29
ENDBRANCH  27  28
ENDBRANCH  24  27
ENDBRANCH  21  22
ENDBRANCH   6  21
TORSDOF 8
ENDMDL
MODEL 4
REMARK VINA RESULT:      -7.7      5.281      8.295
REMARK  8 active torsions:
REMARK  status: ('A' for Active; 'I' for Inactive)
REMARK    1  A    between atoms: C_2  and  C_3 
REMARK    2  A    between atoms: C_3  and  N_4 
REMARK    3  A    between atoms: N_9  and  C_11 
REMARK    4  A    between atoms: C_11  and  C_12 
REMARK    5  A    between atoms: C_14  and  C_15 
REMARK    6  A    between atoms: C_15  and  C_16 
REMARK    7  A    between atoms: C_16  and  C_17 
REMARK    8  A    between atoms: C_17  and  O_18 
ROOT
HETATM    1  N   UNL     1      -4.787   1.168 -32.123  1.00  0.00    -0.066 N 
HETATM    2  H   UNL     1      -4.871   1.135 -33.147  1.00  0.00     0.280 HD
HETATM    3  C   UNL     1      -5.920   1.991 -31.550  1.00  0.00     0.246 C 
HETATM    4  C   UNL     1      -5.902   3.417 -32.131  1.00  0.00     0.009 C 
HETATM    5  C   UNL     1      -7.040   4.256 -31.519  1.00  0.00     0.246 C 
HETATM    6  N   UNL     1      -7.300   5.344 -32.537  1.00  0.00    -0.066 N 
HETATM    7  H   UNL     1      -6.757   6.178 -32.260  1.00  0.00     0.280 HD
HETATM    8  C   UNL     1      -6.781   4.879 -33.874  1.00  0.00     0.236 C 
HETATM    9  C   UNL     1      -6.291   3.458 -33.620  1.00  0.00     0.040 C 
HETATM   10  C   UNL     1      -4.520   4.055 -31.865  1.00  0.00     0.014 C 
HETATM   11  C   UNL     1      -3.361   3.177 -32.346  1.00  0.00     0.029 C 
HETATM   12  C   UNL     1      -3.432   1.757 -31.796  1.00  0.00     0.235 C 
ENDROOT
BRANCH   1  13
HETATM   13  C   UNL     1      -4.849  -0.302 -31.698  1.00  0.00     0.273 C 
BRANCH  13  14
HETATM   14  C   UNL     1      -5.126  -1.224 -32.858  1.00  0.00    -0.032 A 
HETATM   15  C   UNL     1      -6.378  -1.215 -33.499  1.00  0.00     0.012 A 
HETATM   16  C   UNL     1      -6.652  -2.123 -34.523  1.00  0.00     0.043 A 
HETATM   17  C   UNL     1      -5.677  -3.032 -34.917  1.00  0.00     0.116 A 
HETATM   18  C   UNL     1      -4.427  -3.041 -34.315  1.00  0.00     0.043 A 
HETATM   19  F   UNL     1      -5.950  -3.912 -35.886  1.00  0.00    -0.206 F 
HETATM   20  C   UNL     1      -4.147  -2.138 -33.287  1.00  0.00     0.012 A 
ENDBRANCH  13  14
ENDBRANCH   1  13
BRANCH   6  21
HETATM   21  C   UNL     1      -8.733   5.843 -32.576  1.00  0.00     0.280 C 
BRANCH  21  22
HETATM   22  C   UNL     1      -9.637   4.903 -33.299  1.00  0.00     0.009 A 
HETATM   23  S   UNL     1     -10.593   3.792 -32.406  1.00  0.00    -0.084 SA
HETATM   24  C   UNL     1     -11.279   3.134 -33.822  1.00  0.00     0.058 A 
HETATM   25  C   UNL     1     -10.797   3.747 -34.957  1.00  0.00     0.029 A 
HETATM   26  C   UNL     1      -9.850   4.773 -34.657  1.00  0.00     0.018 A 
BRANCH  24  27
HETATM   27  C   UNL     1     -12.233   2.076 -33.802  1.00  0.00    -0.057 C 
BRANCH  27  28
HETATM   28  C   UNL     1     -13.052   1.198 -33.768  1.00  0.00    -0.075 C 
BRANCH  28  29
HETATM   29  C   UNL     1     -14.076   0.156 -33.718  1.00  0.00     0.258 C 
BRANCH  29  30
HETATM   30  O   UNL     1     -13.495  -1.048 -33.241  1.00  0.00    -0.389 OA
HETATM   31  H   UNL     1     -14.017  -1.325 -32.469  1.00  0.00     0.210 HD
ENDBRANCH  29  30
ENDBRANCH  28  29
ENDBRANCH  27  28
ENDBRANCH  24  27
ENDBRANCH  21  22
ENDBRANCH   6  21
TORSDOF 8
ENDMDL
MODEL 5
REMARK VINA RESULT:      -7.5      7.095     11.107
REMARK  8 active torsions:
REMARK  status: ('A' for Active; 'I' for Inactive)
REMARK    1  A    between atoms: C_2  and  C_3 
REMARK    2  A    between atoms: C_3  and  N_4 
REMARK    3  A    between atoms: N_9  and  C_11 
REMARK    4  A    between atoms: C_11  and  C_12 
REMARK    5  A    between atoms: C_14  and  C_15 
REMARK    6  A    between atoms: C_15  and  C_16 
REMARK    7  A    between atoms: C_16  and  C_17 
REMARK    8  A    between atoms: C_17  and  O_18 
ROOT
HETATM    1  N   UNL     1      -4.761   1.819 -31.522  1.00  0.00    -0.066 N 
HETATM    2  H   UNL     1      -5.102   2.616 -30.970  1.00  0.00     0.280 HD
HETATM    3  C   UNL     1      -5.680   1.595 -32.704  1.00  0.00     0.246 C 
HETATM    4  C   UNL     1      -7.121   1.336 -32.230  1.00  0.00     0.009 C 
HETATM    5  C   UNL     1      -8.042   1.080 -33.439  1.00  0.00     0.246 C 
HETATM    6  N   UNL     1      -9.426   1.435 -32.945  1.00  0.00    -0.066 N 
HETATM    7  H   UNL     1      -9.883   0.567 -32.620  1.00  0.00     0.280 HD
HETATM    8  C   UNL     1      -9.287   2.353 -31.756  1.00  0.00     0.236 C 
HETATM    9  C   UNL     1      -7.785   2.588 -31.630  1.00  0.00     0.040 C 
HETATM   10  C   UNL     1      -7.124   0.141 -31.251  1.00  0.00     0.014 C 
HETATM   11  C   UNL     1      -6.119   0.310 -30.108  1.00  0.00     0.029 C 
HETATM   12  C   UNL     1      -4.711   0.617 -30.605  1.00  0.00     0.235 C 
ENDROOT
BRANCH   1  13
HETATM   13  C   UNL     1      -3.348   2.235 -31.940  1.00  0.00     0.273 C 
BRANCH  13  14
HETATM   14  C   UNL     1      -3.226   3.722 -32.153  1.00  0.00    -0.032 A 
HETATM   15  C   UNL     1      -2.322   4.242 -33.096  1.00  0.00     0.012 A 
HETATM   16  C   UNL     1      -2.162   5.622 -33.234  1.00  0.00     0.043 A 
HETATM   17  C   UNL     1      -2.909   6.484 -32.442  1.00  0.00     0.116 A 
HETATM   18  C   UNL     1      -3.825   5.993 -31.521  1.00  0.00     0.043 A 
HETATM   19  F   UNL     1      -2.739   7.805 -32.564  1.00  0.00    -0.206 F 
HETATM   20  C   UNL     1      -3.988   4.614 -31.376  1.00  0.00     0.012 A 
ENDBRANCH  13  14
ENDBRANCH   1  13
BRANCH   6  21
HETATM   21  C   UNL     1     -10.365   1.958 -34.017  1.00  0.00     0.280 C 
BRANCH  21  22
HETATM   22  C   UNL     1     -11.788   1.617 -33.733  1.00  0.00     0.009 A 
HETATM   23  S   UNL     1     -12.845   2.828 -33.132  1.00  0.00    -0.084 SA
HETATM   24  C   UNL     1     -14.163   1.748 -33.070  1.00  0.00     0.058 A 
HETATM   25  C   UNL     1     -13.813   0.488 -33.502  1.00  0.00     0.029 A 
HETATM   26  C   UNL     1     -12.441   0.411 -33.889  1.00  0.00     0.018 A 
BRANCH  24  27
HETATM   27  C   UNL     1     -15.459   2.130 -32.619  1.00  0.00    -0.057 C 
BRANCH  27  28
HETATM   28  C   UNL     1     -16.545   2.448 -32.213  1.00  0.00    -0.075 C 
BRANCH  28  29
HETATM   29  C   UNL     1     -17.871   2.852 -31.752  1.00  0.00     0.258 C 
BRANCH  29  30
HETATM   30  O   UNL     1     -18.831   2.528 -32.746  1.00  0.00    -0.389 OA
HETATM   31  H   UNL     1     -18.362   2.034 -33.440  1.00  0.00     0.210 HD
ENDBRANCH  29  30
ENDBRANCH  28  29
ENDBRANCH  27  28
ENDBRANCH  24  27
ENDBRANCH  21  22
ENDBRANCH   6  21
TORSDOF 8
ENDMDL
MODEL 6
REMARK VINA RESULT:      -7.4      2.869      3.766
REMARK  8 active torsions:
REMARK  status: ('A' for Active; 'I' for Inactive)
REMARK    1  A    between atoms: C_2  and  C_3 
REMARK    2  A    between atoms: C_3  and  N_4 
REMARK    3  A    between atoms: N_9  and  C_11 
REMARK    4  A    between atoms: C_11  and  C_12 
REMARK    5  A    between atoms: C_14  and  C_15 
REMARK    6  A    between atoms: C_15  and  C_16 
REMARK    7  A    between atoms: C_16  and  C_17 
REMARK    8  A    between atoms: C_17  and  O_18 
ROOT
HETATM    1  N   UNL     1      -6.403   1.024 -32.041  1.00  0.00    -0.066 N 
HETATM    2  H   UNL     1      -6.589   1.342 -33.001  1.00  0.00     0.280 HD
HETATM    3  C   UNL     1      -5.854   2.174 -31.225  1.00  0.00     0.246 C 
HETATM    4  C   UNL     1      -4.565   2.724 -31.861  1.00  0.00     0.009 C 
HETATM    5  C   UNL     1      -3.998   3.874 -31.008  1.00  0.00     0.246 C 
HETATM    6  N   UNL     1      -3.162   4.686 -31.971  1.00  0.00    -0.066 N 
HETATM    7  H   UNL     1      -2.183   4.365 -31.896  1.00  0.00     0.280 HD
HETATM    8  C   UNL     1      -3.634   4.396 -33.374  1.00  0.00     0.236 C 
HETATM    9  C   UNL     1      -4.823   3.459 -33.189  1.00  0.00     0.040 C 
HETATM   10  C   UNL     1      -3.545   1.573 -32.014  1.00  0.00     0.014 C 
HETATM   11  C   UNL     1      -4.127   0.360 -32.746  1.00  0.00     0.029 C 
HETATM   12  C   UNL     1      -5.430  -0.131 -32.125  1.00  0.00     0.235 C 
ENDROOT
BRANCH   1  13
HETATM   13  C   UNL     1      -7.767   0.540 -31.540  1.00  0.00     0.273 C 
BRANCH  13  14
HETATM   14  C   UNL     1      -8.888   0.910 -32.478  1.00  0.00    -0.032 A 
HETATM   15  C   UNL     1     -10.049   0.121 -32.557  1.00  0.00     0.012 A 
HETATM   16  C   UNL     1     -11.049   0.429 -33.481  1.00  0.00     0.043 A 
HETATM   17  C   UNL     1     -10.899   1.527 -34.319  1.00  0.00     0.116 A 
HETATM   18  C   UNL     1      -9.771   2.333 -34.241  1.00  0.00     0.043 A 
HETATM   19  F   UNL     1     -11.850   1.807 -35.215  1.00  0.00    -0.206 F 
HETATM   20  C   UNL     1      -8.766   2.029 -33.321  1.00  0.00     0.012 A 
ENDBRANCH  13  14
ENDBRANCH   1  13
BRANCH   6  21
HETATM   21  C   UNL     1      -3.082   6.167 -31.645  1.00  0.00     0.280 C 
BRANCH  21  22
HETATM   22  C   UNL     1      -1.769   6.542 -31.046  1.00  0.00     0.009 A 
HETATM   23  S   UNL     1      -1.706   7.085 -29.420  1.00  0.00    -0.084 SA
HETATM   24  C   UNL     1      -0.015   7.297 -29.482  1.00  0.00     0.058 A 
HETATM   25  C   UNL     1       0.499   6.957 -30.714  1.00  0.00     0.029 A 
HETATM   26  C   UNL     1      -0.514   6.516 -31.619  1.00  0.00     0.018 A 
BRANCH  24  27
HETATM   27  C   UNL     1       0.749   7.772 -28.377  1.00  0.00    -0.057 C 
BRANCH  27  28
HETATM   28  C   UNL     1       1.377   8.195 -27.444  1.00  0.00    -0.075 C 
BRANCH  28  29
HETATM   29  C   UNL     1       2.120   8.688 -26.287  1.00  0.00     0.258 C 
BRANCH  29  30
HETATM   30  O   UNL     1       1.948  10.093 -26.183  1.00  0.00    -0.389 OA
HETATM   31  H   UNL     1       2.715  10.435 -25.694  1.00  0.00     0.210 HD
ENDBRANCH  29  30
ENDBRANCH  28  29
ENDBRANCH  27  28
ENDBRANCH  24  27
ENDBRANCH  21  22
ENDBRANCH   6  21
TORSDOF 8
ENDMDL
MODEL 7
REMARK VINA RESULT:      -7.2      6.050      9.208
REMARK  8 active torsions:
REMARK  status: ('A' for Active; 'I' for Inactive)
REMARK    1  A    between atoms: C_2  and  C_3 
REMARK    2  A    between atoms: C_3  and  N_4 
REMARK    3  A    between atoms: N_9  and  C_11 
REMARK    4  A    between atoms: C_11  and  C_12 
REMARK    5  A    between atoms: C_14  and  C_15 
REMARK    6  A    between atoms: C_15  and  C_16 
REMARK    7  A    between atoms: C_16  and  C_17 
REMARK    8  A    between atoms: C_17  and  O_18 
ROOT
HETATM    1  N   UNL     1     -10.915   4.430 -32.039  1.00  0.00    -0.066 N 
HETATM    2  H   UNL     1     -11.021   3.559 -31.503  1.00  0.00     0.280 HD
HETATM    3  C   UNL     1      -9.629   4.377 -32.835  1.00  0.00     0.246 C 
HETATM    4  C   UNL     1      -8.421   4.176 -31.903  1.00  0.00     0.009 C 
HETATM    5  C   UNL     1      -7.115   4.154 -32.720  1.00  0.00     0.246 C 
HETATM    6  N   UNL     1      -6.139   3.385 -31.858  1.00  0.00    -0.066 N 
HETATM    7  H   UNL     1      -5.592   4.066 -31.307  1.00  0.00     0.280 HD
HETATM    8  C   UNL     1      -6.926   2.537 -30.889  1.00  0.00     0.236 C 
HETATM    9  C   UNL     1      -8.383   2.772 -31.273  1.00  0.00     0.040 C 
HETATM   10  C   UNL     1      -8.408   5.299 -30.842  1.00  0.00     0.014 C 
HETATM   11  C   UNL     1      -9.743   5.430 -30.104  1.00  0.00     0.029 C 
HETATM   12  C   UNL     1     -10.927   5.576 -31.053  1.00  0.00     0.235 C 
ENDROOT
BRANCH   1  13
HETATM   13  C   UNL     1     -12.161   4.473 -32.928  1.00  0.00     0.273 C 
BRANCH  13  14
HETATM   14  C   UNL     1     -12.798   3.117 -33.090  1.00  0.00    -0.032 A 
HETATM   15  C   UNL     1     -12.088   2.055 -33.679  1.00  0.00     0.012 A 
HETATM   16  C   UNL     1     -12.710   0.824 -33.893  1.00  0.00     0.043 A 
HETATM   17  C   UNL     1     -14.034   0.646 -33.511  1.00  0.00     0.116 A 
HETATM   18  C   UNL     1     -14.746   1.673 -32.906  1.00  0.00     0.043 A 
HETATM   19  F   UNL     1     -14.632  -0.529 -33.735  1.00  0.00    -0.206 F 
HETATM   20  C   UNL     1     -14.131   2.908 -32.692  1.00  0.00     0.012 A 
ENDBRANCH  13  14
ENDBRANCH   1  13
BRANCH   6  21
HETATM   21  C   UNL     1      -5.085   2.614 -32.631  1.00  0.00     0.280 C 
BRANCH  21  22
HETATM   22  C   UNL     1      -5.674   1.504 -33.434  1.00  0.00     0.009 A 
HETATM   23  S   UNL     1      -5.174  -0.111 -33.141  1.00  0.00    -0.084 SA
HETATM   24  C   UNL     1      -6.207  -0.725 -34.351  1.00  0.00     0.058 A 
HETATM   25  C   UNL     1      -6.926   0.275 -34.967  1.00  0.00     0.029 A 
HETATM   26  C   UNL     1      -6.622   1.565 -34.435  1.00  0.00     0.018 A 
BRANCH  24  27
HETATM   27  C   UNL     1      -6.294  -2.112 -34.666  1.00  0.00    -0.057 C 
BRANCH  27  28
HETATM   28  C   UNL     1      -6.340  -3.283 -34.934  1.00  0.00    -0.075 C 
BRANCH  28  29
HETATM   29  C   UNL     1      -6.419  -4.711 -35.229  1.00  0.00     0.258 C 
BRANCH  29  30
HETATM   30  O   UNL     1      -5.303  -5.372 -34.652  1.00  0.00    -0.389 OA
HETATM   31  H   UNL     1      -5.160  -4.970 -33.778  1.00  0.00     0.210 HD
ENDBRANCH  29  30
ENDBRANCH  28  29
ENDBRANCH  27  28
ENDBRANCH  24  27
ENDBRANCH  21  22
ENDBRANCH   6  21
TORSDOF 8
ENDMDL
MODEL 8
REMARK VINA RESULT:      -7.0      5.720     10.972
REMARK  8 active torsions:
REMARK  status: ('A' for Active; 'I' for Inactive)
REMARK    1  A    between atoms: C_2  and  C_3 
REMARK    2  A    between atoms: C_3  and  N_4 
REMARK    3  A    between atoms: N_9  and  C_11 
REMARK    4  A    between atoms: C_11  and  C_12 
REMARK    5  A    between atoms: C_14  and  C_15 
REMARK    6  A    between atoms: C_15  and  C_16 
REMARK    7  A    between atoms: C_16  and  C_17 
REMARK    8  A    between atoms: C_17  and  O_18 
ROOT
HETATM    1  N   UNL     1      -3.296   6.643 -30.343  1.00  0.00    -0.066 N 
HETATM    2  H   UNL     1      -2.373   6.193 -30.395  1.00  0.00     0.280 HD
HETATM    3  C   UNL     1      -4.375   5.582 -30.326  1.00  0.00     0.246 C 
HETATM    4  C   UNL     1      -4.286   4.697 -31.582  1.00  0.00     0.009 C 
HETATM    5  C   UNL     1      -5.406   3.640 -31.569  1.00  0.00     0.246 C 
HETATM    6  N   UNL     1      -4.886   2.524 -32.448  1.00  0.00    -0.066 N 
HETATM    7  H   UNL     1      -5.256   2.668 -33.402  1.00  0.00     0.280 HD
HETATM    8  C   UNL     1      -3.383   2.633 -32.517  1.00  0.00     0.236 C 
HETATM    9  C   UNL     1      -3.042   3.790 -31.584  1.00  0.00     0.040 C 
HETATM   10  C   UNL     1      -4.364   5.593 -32.838  1.00  0.00     0.014 C 
HETATM   11  C   UNL     1      -3.346   6.736 -32.814  1.00  0.00     0.029 C 
HETATM   12  C   UNL     1      -3.422   7.564 -31.537  1.00  0.00     0.235 C 
ENDROOT
BRANCH   1  13
HETATM   13  C   UNL     1      -3.240   7.453 -29.044  1.00  0.00     0.273 C 
BRANCH  13  14
HETATM   14  C   UNL     1      -1.831   7.817 -28.654  1.00  0.00    -0.032 A 
HETATM   15  C   UNL     1      -1.567   8.987 -27.920  1.00  0.00     0.012 A 
HETATM   16  C   UNL     1      -0.253   9.355 -27.628  1.00  0.00     0.043 A 
HETATM   17  C   UNL     1       0.798   8.553 -28.055  1.00  0.00     0.116 A 
HETATM   18  C   UNL     1       0.560   7.381 -28.760  1.00  0.00     0.043 A 
HETATM   19  F   UNL     1       2.057   8.919 -27.789  1.00  0.00    -0.206 F 
HETATM   20  C   UNL     1      -0.753   7.009 -29.059  1.00  0.00     0.012 A 
ENDBRANCH  13  14
ENDBRANCH   1  13
BRANCH   6  21
HETATM   21  C   UNL     1      -5.383   1.140 -32.073  1.00  0.00     0.280 C 
BRANCH  21  22
HETATM   22  C   UNL     1      -6.859   1.008 -32.240  1.00  0.00     0.009 A 
HETATM   23  S   UNL     1      -7.614   1.661 -33.635  1.00  0.00    -0.084 SA
HETATM   24  C   UNL     1      -9.160   1.150 -33.126  1.00  0.00     0.058 A 
HETATM   25  C   UNL     1      -9.108   0.489 -31.919  1.00  0.00     0.029 A 
HETATM   26  C   UNL     1      -7.777   0.403 -31.406  1.00  0.00     0.018 A 
BRANCH  24  27
HETATM   27  C   UNL     1     -10.345   1.392 -33.878  1.00  0.00    -0.057 C 
BRANCH  27  28
HETATM   28  C   UNL     1     -11.358   1.579 -34.497  1.00  0.00    -0.075 C 
BRANCH  28  29
HETATM   29  C   UNL     1     -12.579   1.779 -35.274  1.00  0.00     0.258 C 
BRANCH  29  30
HETATM   30  O   UNL     1     -12.239   1.982 -36.637  1.00  0.00    -0.389 OA
HETATM   31  H   UNL     1     -12.484   1.170 -37.111  1.00  0.00     0.210 HD
ENDBRANCH  29  30
ENDBRANCH  28  29
ENDBRANCH  27  28
ENDBRANCH  24  27
ENDBRANCH  21  22
ENDBRANCH   6  21
TORSDOF 8
ENDMDL
MODEL 9
REMARK VINA RESULT:      -6.9     17.921     20.654
REMARK  8 active torsions:
REMARK  status: ('A' for Active; 'I' for Inactive)
REMARK    1  A    between atoms: C_2  and  C_3 
REMARK    2  A    between atoms: C_3  and  N_4 
REMARK    3  A    between atoms: N_9  and  C_11 
REMARK    4  A    between atoms: C_11  and  C_12 
REMARK    5  A    between atoms: C_14  and  C_15 
REMARK    6  A    between atoms: C_15  and  C_16 
REMARK    7  A    between atoms: C_16  and  C_17 
REMARK    8  A    between atoms: C_17  and  O_18 
ROOT
HETATM    1  N   UNL     1      -2.131 -14.925 -40.479  1.00  0.00    -0.066 N 
HETATM    2  H   UNL     1      -2.535 -14.208 -41.095  1.00  0.00     0.280 HD
HETATM    3  C   UNL     1      -3.149 -15.324 -39.433  1.00  0.00     0.246 C 
HETATM    4  C   UNL     1      -3.587 -14.101 -38.607  1.00  0.00     0.009 C 
HETATM    5  C   UNL     1      -4.600 -14.523 -37.527  1.00  0.00     0.246 C 
HETATM    6  N   UNL     1      -5.374 -13.261 -37.217  1.00  0.00    -0.066 N 
HETATM    7  H   UNL     1      -4.936 -12.809 -36.399  1.00  0.00     0.280 HD
HETATM    8  C   UNL     1      -5.240 -12.321 -38.389  1.00  0.00     0.236 C 
HETATM    9  C   UNL     1      -4.438 -13.108 -39.420  1.00  0.00     0.040 C 
HETATM   10  C   UNL     1      -2.338 -13.436 -37.987  1.00  0.00     0.014 C 
HETATM   11  C   UNL     1      -1.255 -13.126 -39.024  1.00  0.00     0.029 C 
HETATM   12  C   UNL     1      -0.879 -14.343 -39.862  1.00  0.00     0.235 C 
ENDROOT
BRANCH   1  13
HETATM   13  C   UNL     1      -1.776 -16.072 -41.430  1.00  0.00     0.273 C 
BRANCH  13  14
HETATM   14  C   UNL     1      -2.544 -16.003 -42.725  1.00  0.00    -0.032 A 
HETATM   15  C   UNL     1      -2.313 -16.939 -43.749  1.00  0.00     0.012 A 
HETATM   16  C   UNL     1      -2.974 -16.823 -44.973  1.00  0.00     0.043 A 
HETATM   17  C   UNL     1      -3.874 -15.783 -45.174  1.00  0.00     0.116 A 
HETATM   18  C   UNL     1      -4.135 -14.862 -44.168  1.00  0.00     0.043 A 
HETATM   19  F   UNL     1      -4.491 -15.665 -46.354  1.00  0.00    -0.206 F 
HETATM   20  C   UNL     1      -3.475 -14.970 -42.943  1.00  0.00     0.012 A 
ENDBRANCH  13  14
ENDBRANCH   1  13
BRANCH   6  21
HETATM   21  C   UNL     1      -6.809 -13.492 -36.778  1.00  0.00     0.280 C 
BRANCH  21  22
HETATM   22  C   UNL     1      -7.773 -13.339 -37.905  1.00  0.00     0.009 A 
HETATM   23  S   UNL     1      -8.704 -14.689 -38.410  1.00  0.00    -0.084 SA
HETATM   24  C   UNL     1      -9.484 -13.786 -39.630  1.00  0.00     0.058 A 
HETATM   25  C   UNL     1      -9.051 -12.479 -39.654  1.00  0.00     0.029 A 
HETATM   26  C   UNL     1      -8.064 -12.217 -38.655  1.00  0.00     0.018 A 
BRANCH  24  27
HETATM   27  C   UNL     1     -10.460 -14.344 -40.504  1.00  0.00    -0.057 C 
BRANCH  27  28
HETATM   28  C   UNL     1     -11.295 -14.790 -41.244  1.00  0.00    -0.075 C 
BRANCH  28  29
HETATM   29  C   UNL     1     -12.301 -15.367 -42.133  1.00  0.00     0.258 C 
BRANCH  29  30
HETATM   30  O   UNL     1     -13.511 -14.637 -42.008  1.00  0.00    -0.389 OA
HETATM   31  H   UNL     1     -14.234 -15.251 -42.220  1.00  0.00     0.210 HD
ENDBRANCH  29  30
ENDBRANCH  28  29
ENDBRANCH  27  28
ENDBRANCH  24  27
ENDBRANCH  21  22
ENDBRANCH   6  21
TORSDOF 8
ENDMDL
MODEL 10
REMARK VINA RESULT:      -6.8      4.943      6.143
REMARK  8 active torsions:
REMARK  status: ('A' for Active; 'I' for Inactive)
REMARK    1  A    between atoms: C_2  and  C_3 
REMARK    2  A    between atoms: C_3  and  N_4 
REMARK    3  A    between atoms: N_9  and  C_11 
REMARK    4  A    between atoms: C_11  and  C_12 
REMARK    5  A    between atoms: C_14  and  C_15 
REMARK    6  A    between atoms: C_15  and  C_16 
REMARK    7  A    between atoms: C_16  and  C_17 
REMARK    8  A    between atoms: C_17  and  O_18 
ROOT
HETATM    1  N   UNL     1      -4.983   1.275 -31.983  1.00  0.00    -0.066 N 
HETATM    2  H   UNL     1      -5.148   1.296 -32.998  1.00  0.00     0.280 HD
HETATM    3  C   UNL     1      -5.865   2.302 -31.307  1.00  0.00     0.246 C 
HETATM    4  C   UNL     1      -5.583   3.710 -31.861  1.00  0.00     0.009 C 
HETATM    5  C   UNL     1      -6.464   4.751 -31.146  1.00  0.00     0.246 C 
HETATM    6  N   UNL     1      -6.557   5.905 -32.119  1.00  0.00    -0.066 N 
HETATM    7  H   UNL     1      -5.827   6.592 -31.872  1.00  0.00     0.280 HD
HETATM    8  C   UNL     1      -6.250   5.386 -33.503  1.00  0.00     0.236 C 
HETATM    9  C   UNL     1      -6.062   3.885 -33.314  1.00  0.00     0.040 C 
HETATM   10  C   UNL     1      -4.080   4.027 -31.695  1.00  0.00     0.014 C 
HETATM   11  C   UNL     1      -3.177   2.938 -32.283  1.00  0.00     0.029 C 
HETATM   12  C   UNL     1      -3.513   1.549 -31.755  1.00  0.00     0.235 C 
ENDROOT
BRANCH   1  13
HETATM   13  C   UNL     1      -5.330  -0.162 -31.581  1.00  0.00     0.273 C 
BRANCH  13  14
HETATM   14  C   UNL     1      -5.445  -1.079 -32.772  1.00  0.00    -0.032 A 
HETATM   15  C   UNL     1      -6.665  -1.217 -33.458  1.00  0.00     0.012 A 
HETATM   16  C   UNL     1      -6.781  -2.124 -34.512  1.00  0.00     0.043 A 
HETATM   17  C   UNL     1      -5.682  -2.886 -34.891  1.00  0.00     0.116 A 
HETATM   18  C   UNL     1      -4.462  -2.747 -34.243  1.00  0.00     0.043 A 
HETATM   19  F   UNL     1      -5.804  -3.767 -35.890  1.00  0.00    -0.206 F 
HETATM   20  C   UNL     1      -4.339  -1.844 -33.186  1.00  0.00     0.012 A 
ENDBRANCH  13  14
ENDBRANCH   1  13
BRANCH   6  21
HETATM   21  C   UNL     1      -7.847   6.700 -32.035  1.00  0.00     0.280 C 
BRANCH  21  22
HETATM   22  C   UNL     1      -8.061   7.283 -30.680  1.00  0.00     0.009 A 
HETATM   23  S   UNL     1      -9.429   6.808 -29.761  1.00  0.00    -0.084 SA
HETATM   24  C   UNL     1      -8.999   7.824 -28.460  1.00  0.00     0.058 A 
HETATM   25  C   UNL     1      -7.832   8.512 -28.713  1.00  0.00     0.029 A 
HETATM   26  C   UNL     1      -7.286   8.198 -29.995  1.00  0.00     0.018 A 
BRANCH  24  27
HETATM   27  C   UNL     1      -9.772   7.930 -27.269  1.00  0.00    -0.057 C 
BRANCH  27  28
HETATM   28  C   UNL     1     -10.423   8.046 -26.266  1.00  0.00    -0.075 C 
BRANCH  28  29
HETATM   29  C   UNL     1     -11.233   8.155 -25.054  1.00  0.00     0.258 C 
BRANCH  29  30
HETATM   30  O   UNL     1     -12.242   7.156 -25.074  1.00  0.00    -0.389 OA
HETATM   31  H   UNL     1     -12.651   7.188 -25.955  1.00  0.00     0.210 HD
ENDBRANCH  29  30
ENDBRANCH  28  29
ENDBRANCH  27  28
ENDBRANCH  24  27
ENDBRANCH  21  22
ENDBRANCH   6  21
TORSDOF 8
ENDMDL
