MODEL 1
REMARK VINA RESULT:      -8.7      0.000      0.000
REMARK  2 active torsions:
REMARK  status: ('A' for Active; 'I' for Inactive)
REMARK    1  A    between atoms: C_6  and  N_7 
REMARK    2  A    between atoms: N_7  and  C_8 
ROOT
HETATM    1  C   UNL     1      -6.604   3.109 -30.342  1.00  0.00     0.093 C 
HETATM    2  C   UNL     1      -6.595   1.913 -31.244  1.00  0.00     0.125 A 
HETATM    3  N   UNL     1      -5.405   1.423 -31.600  1.00  0.00    -0.226 NA
HETATM    4  C   UNL     1      -5.499   0.342 -32.387  1.00  0.00     0.114 A 
HETATM    5  C   UNL     1      -6.674  -0.270 -32.824  1.00  0.00     0.053 A 
HETATM    6  C   UNL     1      -7.882   0.327 -32.399  1.00  0.00     0.143 A 
HETATM    7  N   UNL     1      -7.796   1.420 -31.602  1.00  0.00    -0.215 NA
HETATM    8  S   UNL     1      -4.073  -0.428 -32.967  1.00  0.00    -0.073 SA
HETATM    9  C   UNL     1      -4.992  -1.556 -33.785  1.00  0.00    -0.008 A 
HETATM   10  C   UNL     1      -6.343  -1.392 -33.638  1.00  0.00    -0.028 A 
HETATM   11  C   UNL     1      -7.080  -2.435 -34.399  1.00  0.00     0.041 C 
HETATM   12  C   UNL     1      -5.955  -3.457 -34.754  1.00  0.00     0.010 C 
HETATM   13  C   UNL     1      -4.601  -2.694 -34.646  1.00  0.00     0.047 C 
ENDROOT
BRANCH   6  14
HETATM   14  N   UNL     1      -9.127  -0.204 -32.769  1.00  0.00    -0.340 N 
HETATM   15  H   UNL     1      -9.189  -1.202 -32.640  1.00  0.00     0.167 HD
BRANCH  14  16
HETATM   16  C   UNL     1     -10.266   0.366 -33.366  1.00  0.00     0.036 A 
HETATM   17  C   UNL     1     -11.515  -0.237 -33.123  1.00  0.00     0.069 A 
HETATM   18  C   UNL     1     -12.647   0.320 -33.684  1.00  0.00     0.107 A 
HETATM   19  C   UNL     1     -12.588   1.446 -34.466  1.00  0.00     0.105 A 
HETATM   20  O   UNL     1     -13.916  -0.150 -33.545  1.00  0.00    -0.323 OA
HETATM   21  O   UNL     1     -13.809   1.828 -34.922  1.00  0.00    -0.323 OA
HETATM   22  C   UNL     1     -11.394   2.077 -34.723  1.00  0.00     0.042 A 
HETATM   23  C   UNL     1     -14.648   0.812 -34.335  1.00  0.00     0.352 A 
HETATM   24  C   UNL     1     -10.231   1.531 -34.161  1.00  0.00     0.032 A 
ENDBRANCH  14  16
ENDBRANCH   6  14
TORSDOF 2
ENDMDL
MODEL 2
REMARK VINA RESULT:      -8.6      1.673      2.308
REMARK  2 active torsions:
REMARK  status: ('A' for Active; 'I' for Inactive)
REMARK    1  A    between atoms: C_6  and  N_7 
REMARK    2  A    between atoms: N_7  and  C_8 
ROOT
HETATM    1  C   UNL     1      -3.492   2.569 -31.221  1.00  0.00     0.093 C 
HETATM    2  C   UNL     1      -4.108   1.471 -32.032  1.00  0.00     0.125 A 
HETATM    3  N   UNL     1      -3.527   0.270 -31.979  1.00  0.00    -0.226 NA
HETATM    4  C   UNL     1      -4.162  -0.652 -32.717  1.00  0.00     0.114 A 
HETATM    5  C   UNL     1      -5.315  -0.458 -33.478  1.00  0.00     0.053 A 
HETATM    6  C   UNL     1      -5.851   0.849 -33.475  1.00  0.00     0.143 A 
HETATM    7  N   UNL     1      -5.215   1.787 -32.730  1.00  0.00    -0.215 NA
HETATM    8  S   UNL     1      -3.557  -2.261 -32.793  1.00  0.00    -0.073 SA
HETATM    9  C   UNL     1      -4.800  -2.700 -33.817  1.00  0.00    -0.008 A 
HETATM   10  C   UNL     1      -5.673  -1.686 -34.107  1.00  0.00    -0.028 A 
HETATM   11  C   UNL     1      -6.742  -2.165 -35.023  1.00  0.00     0.041 C 
HETATM   12  C   UNL     1      -6.567  -3.715 -34.971  1.00  0.00     0.010 C 
HETATM   13  C   UNL     1      -5.117  -3.989 -34.472  1.00  0.00     0.047 C 
ENDROOT
BRANCH   6  14
HETATM   14  N   UNL     1      -7.012   1.163 -34.197  1.00  0.00    -0.340 N 
HETATM   15  H   UNL     1      -6.829   1.667 -35.050  1.00  0.00     0.167 HD
BRANCH  14  16
HETATM   16  C   UNL     1      -8.381   0.994 -33.918  1.00  0.00     0.036 A 
HETATM   17  C   UNL     1      -9.303   1.815 -34.595  1.00  0.00     0.069 A 
HETATM   18  C   UNL     1     -10.651   1.651 -34.350  1.00  0.00     0.107 A 
HETATM   19  C   UNL     1     -11.117   0.705 -33.471  1.00  0.00     0.105 A 
HETATM   20  O   UNL     1     -11.656   2.369 -34.920  1.00  0.00    -0.323 OA
HETATM   21  O   UNL     1     -12.472   0.709 -33.372  1.00  0.00    -0.323 OA
HETATM   22  C   UNL     1     -10.258  -0.129 -32.795  1.00  0.00     0.042 A 
HETATM   23  C   UNL     1     -12.808   1.766 -34.294  1.00  0.00     0.352 A 
HETATM   24  C   UNL     1      -8.883   0.019 -33.030  1.00  0.00     0.032 A 
ENDBRANCH  14  16
ENDBRANCH   6  14
TORSDOF 2
ENDMDL
MODEL 3
REMARK VINA RESULT:      -8.5      3.794      6.697
REMARK  2 active torsions:
REMARK  status: ('A' for Active; 'I' for Inactive)
REMARK    1  A    between atoms: C_6  and  N_7 
REMARK    2  A    between atoms: N_7  and  C_8 
ROOT
HETATM    1  C   UNL     1     -11.039   0.855 -33.477  1.00  0.00     0.093 C 
HETATM    2  C   UNL     1      -9.590   1.108 -33.196  1.00  0.00     0.125 A 
HETATM    3  N   UNL     1      -9.297   1.982 -32.230  1.00  0.00    -0.226 NA
HETATM    4  C   UNL     1      -7.978   2.124 -32.036  1.00  0.00     0.114 A 
HETATM    5  C   UNL     1      -6.960   1.461 -32.722  1.00  0.00     0.053 A 
HETATM    6  C   UNL     1      -7.372   0.561 -33.731  1.00  0.00     0.143 A 
HETATM    7  N   UNL     1      -8.704   0.411 -33.932  1.00  0.00    -0.215 NA
HETATM    8  S   UNL     1      -7.395   3.220 -30.844  1.00  0.00    -0.073 SA
HETATM    9  C   UNL     1      -5.818   2.825 -31.225  1.00  0.00    -0.008 A 
HETATM   10  C   UNL     1      -5.698   1.887 -32.215  1.00  0.00    -0.028 A 
HETATM   11  C   UNL     1      -4.265   1.600 -32.489  1.00  0.00     0.041 C 
HETATM   12  C   UNL     1      -3.545   2.265 -31.274  1.00  0.00     0.010 C 
HETATM   13  C   UNL     1      -4.531   3.319 -30.686  1.00  0.00     0.047 C 
ENDROOT
BRANCH   6  14
HETATM   14  N   UNL     1      -6.439  -0.169 -34.482  1.00  0.00    -0.340 N 
HETATM   15  H   UNL     1      -5.968   0.384 -35.181  1.00  0.00     0.167 HD
BRANCH  14  16
HETATM   16  C   UNL     1      -6.100  -1.535 -34.512  1.00  0.00     0.036 A 
HETATM   17  C   UNL     1      -4.879  -1.929 -33.933  1.00  0.00     0.069 A 
HETATM   18  C   UNL     1      -4.538  -3.266 -33.936  1.00  0.00     0.107 A 
HETATM   19  C   UNL     1      -5.359  -4.222 -34.481  1.00  0.00     0.105 A 
HETATM   20  O   UNL     1      -3.395  -3.797 -33.422  1.00  0.00    -0.323 OA
HETATM   21  O   UNL     1      -4.840  -5.473 -34.384  1.00  0.00    -0.323 OA
HETATM   22  C   UNL     1      -6.567  -3.888 -35.047  1.00  0.00     0.042 A 
HETATM   23  C   UNL     1      -3.594  -5.197 -33.711  1.00  0.00     0.352 A 
HETATM   24  C   UNL     1      -6.935  -2.535 -35.054  1.00  0.00     0.032 A 
ENDBRANCH  14  16
ENDBRANCH   6  14
TORSDOF 2
ENDMDL
MODEL 4
REMARK VINA RESULT:      -8.3      3.990      6.639
REMARK  2 active torsions:
REMARK  status: ('A' for Active; 'I' for Inactive)
REMARK    1  A    between atoms: C_6  and  N_7 
REMARK    2  A    between atoms: N_7  and  C_8 
ROOT
HETATM    1  C   UNL     1      -4.730   5.202 -34.051  1.00  0.00     0.093 C 
HETATM    2  C   UNL     1      -5.893   4.289 -33.811  1.00  0.00     0.125 A 
HETATM    3  N   UNL     1      -7.106   4.745 -34.130  1.00  0.00    -0.226 NA
HETATM    4  C   UNL     1      -8.078   3.851 -33.902  1.00  0.00     0.114 A 
HETATM    5  C   UNL     1      -7.920   2.560 -33.396  1.00  0.00     0.053 A 
HETATM    6  C   UNL     1      -6.598   2.173 -33.083  1.00  0.00     0.143 A 
HETATM    7  N   UNL     1      -5.609   3.071 -33.312  1.00  0.00    -0.215 NA
HETATM    8  S   UNL     1      -9.718   4.256 -34.234  1.00  0.00    -0.073 SA
HETATM    9  C   UNL     1     -10.214   2.748 -33.718  1.00  0.00    -0.008 A 
HETATM   10  C   UNL     1      -9.196   1.931 -33.309  1.00  0.00    -0.028 A 
HETATM   11  C   UNL     1      -9.729   0.616 -32.866  1.00  0.00     0.041 C 
HETATM   12  C   UNL     1     -11.198   0.649 -33.391  1.00  0.00     0.010 C 
HETATM   13  C   UNL     1     -11.563   2.146 -33.618  1.00  0.00     0.047 C 
ENDROOT
BRANCH   6  14
HETATM   14  N   UNL     1      -6.313   0.896 -32.575  1.00  0.00    -0.340 N 
HETATM   15  H   UNL     1      -6.274   0.866 -31.568  1.00  0.00     0.167 HD
BRANCH  14  16
HETATM   16  C   UNL     1      -5.983  -0.323 -33.195  1.00  0.00     0.036 A 
HETATM   17  C   UNL     1      -4.896  -1.056 -32.681  1.00  0.00     0.069 A 
HETATM   18  C   UNL     1      -4.569  -2.264 -33.263  1.00  0.00     0.107 A 
HETATM   19  C   UNL     1      -5.278  -2.773 -34.323  1.00  0.00     0.105 A 
HETATM   20  O   UNL     1      -3.548  -3.079 -32.884  1.00  0.00    -0.323 OA
HETATM   21  O   UNL     1      -4.793  -3.968 -34.748  1.00  0.00    -0.323 OA
HETATM   22  C   UNL     1      -6.354  -2.101 -34.852  1.00  0.00     0.042 A 
HETATM   23  C   UNL     1      -3.696  -4.158 -33.831  1.00  0.00     0.352 A 
HETATM   24  C   UNL     1      -6.706  -0.872 -34.275  1.00  0.00     0.032 A 
ENDBRANCH  14  16
ENDBRANCH   6  14
TORSDOF 2
ENDMDL
MODEL 5
REMARK VINA RESULT:      -8.2      1.471      3.483
REMARK  2 active torsions:
REMARK  status: ('A' for Active; 'I' for Inactive)
REMARK    1  A    between atoms: C_6  and  N_7 
REMARK    2  A    between atoms: N_7  and  C_8 
ROOT
HETATM    1  C   UNL     1      -6.735  -3.499 -34.983  1.00  0.00     0.093 C 
HETATM    2  C   UNL     1      -6.427  -2.261 -34.197  1.00  0.00     0.125 A 
HETATM    3  N   UNL     1      -5.140  -1.976 -33.984  1.00  0.00    -0.226 NA
HETATM    4  C   UNL     1      -4.964  -0.840 -33.294  1.00  0.00     0.114 A 
HETATM    5  C   UNL     1      -5.963   0.010 -32.821  1.00  0.00     0.053 A 
HETATM    6  C   UNL     1      -7.294  -0.382 -33.091  1.00  0.00     0.143 A 
HETATM    7  N   UNL     1      -7.481  -1.529 -33.790  1.00  0.00    -0.215 NA
HETATM    8  S   UNL     1      -3.374  -0.308 -32.903  1.00  0.00    -0.073 SA
HETATM    9  C   UNL     1      -3.995   1.029 -32.120  1.00  0.00    -0.008 A 
HETATM   10  C   UNL     1      -5.361   1.109 -32.142  1.00  0.00    -0.028 A 
HETATM   11  C   UNL     1      -5.824   2.325 -31.423  1.00  0.00     0.041 C 
HETATM   12  C   UNL     1      -4.506   3.144 -31.253  1.00  0.00     0.010 C 
HETATM   13  C   UNL     1      -3.326   2.137 -31.400  1.00  0.00     0.047 C 
ENDROOT
BRANCH   6  14
HETATM   14  N   UNL     1      -8.383   0.397 -32.673  1.00  0.00    -0.340 N 
HETATM   15  H   UNL     1      -8.329   0.672 -31.704  1.00  0.00     0.167 HD
BRANCH  14  16
HETATM   16  C   UNL     1      -9.573   0.791 -33.311  1.00  0.00     0.036 A 
HETATM   17  C   UNL     1     -10.743   0.053 -33.049  1.00  0.00     0.069 A 
HETATM   18  C   UNL     1     -11.925   0.436 -33.651  1.00  0.00     0.107 A 
HETATM   19  C   UNL     1     -11.991   1.520 -34.490  1.00  0.00     0.105 A 
HETATM   20  O   UNL     1     -13.129  -0.179 -33.500  1.00  0.00    -0.323 OA
HETATM   21  O   UNL     1     -13.242   1.725 -34.978  1.00  0.00    -0.323 OA
HETATM   22  C   UNL     1     -10.880   2.280 -34.767  1.00  0.00     0.042 A 
HETATM   23  C   UNL     1     -13.960   0.645 -34.346  1.00  0.00     0.352 A 
HETATM   24  C   UNL     1      -9.668   1.910 -34.166  1.00  0.00     0.032 A 
ENDBRANCH  14  16
ENDBRANCH   6  14
TORSDOF 2
ENDMDL
MODEL 6
REMARK VINA RESULT:      -8.0      2.439      4.414
REMARK  2 active torsions:
REMARK  status: ('A' for Active; 'I' for Inactive)
REMARK    1  A    between atoms: C_6  and  N_7 
REMARK    2  A    between atoms: N_7  and  C_8 
ROOT
HETATM    1  C   UNL     1      -5.671  -4.590 -35.213  1.00  0.00     0.093 C 
HETATM    2  C   UNL     1      -5.472  -3.247 -34.580  1.00  0.00     0.125 A 
HETATM    3  N   UNL     1      -4.475  -3.127 -33.699  1.00  0.00    -0.226 NA
HETATM    4  C   UNL     1      -4.360  -1.886 -33.206  1.00  0.00     0.114 A 
HETATM    5  C   UNL     1      -5.150  -0.784 -33.533  1.00  0.00     0.053 A 
HETATM    6  C   UNL     1      -6.182  -1.014 -34.470  1.00  0.00     0.143 A 
HETATM    7  N   UNL     1      -6.304  -2.266 -34.975  1.00  0.00    -0.215 NA
HETATM    8  S   UNL     1      -3.144  -1.532 -32.040  1.00  0.00    -0.073 SA
HETATM    9  C   UNL     1      -3.651   0.057 -31.967  1.00  0.00    -0.008 A 
HETATM   10  C   UNL     1      -4.701   0.350 -32.794  1.00  0.00    -0.028 A 
HETATM   11  C   UNL     1      -5.085   1.780 -32.662  1.00  0.00     0.041 C 
HETATM   12  C   UNL     1      -3.882   2.385 -31.873  1.00  0.00     0.010 C 
HETATM   13  C   UNL     1      -3.168   1.199 -31.158  1.00  0.00     0.047 C 
ENDROOT
BRANCH   6  14
HETATM   14  N   UNL     1      -7.035   0.021 -34.882  1.00  0.00    -0.340 N 
HETATM   15  H   UNL     1      -6.756   0.445 -35.754  1.00  0.00     0.167 HD
BRANCH  14  16
HETATM   16  C   UNL     1      -8.144   0.640 -34.277  1.00  0.00     0.036 A 
HETATM   17  C   UNL     1      -8.373   2.003 -34.546  1.00  0.00     0.069 A 
HETATM   18  C   UNL     1      -9.467   2.622 -33.977  1.00  0.00     0.107 A 
HETATM   19  C   UNL     1     -10.340   1.945 -33.162  1.00  0.00     0.105 A 
HETATM   20  O   UNL     1      -9.815   3.928 -34.138  1.00  0.00    -0.323 OA
HETATM   21  O   UNL     1     -11.345   2.736 -32.704  1.00  0.00    -0.323 OA
HETATM   22  C   UNL     1     -10.166   0.611 -32.879  1.00  0.00     0.042 A 
HETATM   23  C   UNL     1     -11.007   3.992 -33.327  1.00  0.00     0.352 A 
HETATM   24  C   UNL     1      -9.062  -0.040 -33.448  1.00  0.00     0.032 A 
ENDBRANCH  14  16
ENDBRANCH   6  14
TORSDOF 2
ENDMDL
MODEL 7
REMARK VINA RESULT:      -7.9      4.526      7.153
REMARK  2 active torsions:
REMARK  status: ('A' for Active; 'I' for Inactive)
REMARK    1  A    between atoms: C_6  and  N_7 
REMARK    2  A    between atoms: N_7  and  C_8 
ROOT
HETATM    1  C   UNL     1      -2.357  -3.395 -31.619  1.00  0.00     0.093 C 
HETATM    2  C   UNL     1      -3.413  -2.442 -32.088  1.00  0.00     0.125 A 
HETATM    3  N   UNL     1      -4.059  -2.751 -33.216  1.00  0.00    -0.226 NA
HETATM    4  C   UNL     1      -4.999  -1.853 -33.542  1.00  0.00     0.114 A 
HETATM    5  C   UNL     1      -5.334  -0.701 -32.829  1.00  0.00     0.053 A 
HETATM    6  C   UNL     1      -4.589  -0.459 -31.653  1.00  0.00     0.143 A 
HETATM    7  N   UNL     1      -3.637  -1.363 -31.315  1.00  0.00    -0.215 NA
HETATM    8  S   UNL     1      -5.931  -2.063 -34.974  1.00  0.00    -0.073 SA
HETATM    9  C   UNL     1      -6.767  -0.653 -34.659  1.00  0.00    -0.008 A 
HETATM   10  C   UNL     1      -6.387  -0.020 -33.506  1.00  0.00    -0.028 A 
HETATM   11  C   UNL     1      -7.179   1.222 -33.309  1.00  0.00     0.041 C 
HETATM   12  C   UNL     1      -8.332   1.061 -34.348  1.00  0.00     0.010 C 
HETATM   13  C   UNL     1      -7.841   0.034 -35.412  1.00  0.00     0.047 C 
ENDROOT
BRANCH   6  14
HETATM   14  N   UNL     1      -4.841   0.663 -30.849  1.00  0.00    -0.340 N 
HETATM   15  H   UNL     1      -5.441   0.465 -30.064  1.00  0.00     0.167 HD
BRANCH  14  16
HETATM   16  C   UNL     1      -4.497   2.021 -30.975  1.00  0.00     0.036 A 
HETATM   17  C   UNL     1      -3.318   2.346 -31.672  1.00  0.00     0.069 A 
HETATM   18  C   UNL     1      -2.975   3.675 -31.823  1.00  0.00     0.107 A 
HETATM   19  C   UNL     1      -3.755   4.686 -31.319  1.00  0.00     0.105 A 
HETATM   20  O   UNL     1      -1.870   4.143 -32.463  1.00  0.00    -0.323 OA
HETATM   21  O   UNL     1      -3.240   5.917 -31.573  1.00  0.00    -0.323 OA
HETATM   22  C   UNL     1      -4.921   4.420 -30.642  1.00  0.00     0.042 A 
HETATM   23  C   UNL     1      -2.044   5.566 -32.299  1.00  0.00     0.352 A 
HETATM   24  C   UNL     1      -5.291   3.077 -30.478  1.00  0.00     0.032 A 
ENDBRANCH  14  16
ENDBRANCH   6  14
TORSDOF 2
ENDMDL
MODEL 8
REMARK VINA RESULT:      -7.8      3.996      7.240
REMARK  2 active torsions:
REMARK  status: ('A' for Active; 'I' for Inactive)
REMARK    1  A    between atoms: C_6  and  N_7 
REMARK    2  A    between atoms: N_7  and  C_8 
ROOT
HETATM    1  C   UNL     1     -14.533  -0.037 -34.202  1.00  0.00     0.093 C 
HETATM    2  C   UNL     1     -13.383   0.922 -34.210  1.00  0.00     0.125 A 
HETATM    3  N   UNL     1     -13.554   2.078 -34.857  1.00  0.00    -0.226 NA
HETATM    4  C   UNL     1     -12.481   2.879 -34.789  1.00  0.00     0.114 A 
HETATM    5  C   UNL     1     -11.283   2.610 -34.126  1.00  0.00     0.053 A 
HETATM    6  C   UNL     1     -11.197   1.359 -33.477  1.00  0.00     0.143 A 
HETATM    7  N   UNL     1     -12.279   0.543 -33.540  1.00  0.00    -0.215 NA
HETATM    8  S   UNL     1     -12.497   4.409 -35.576  1.00  0.00    -0.073 SA
HETATM    9  C   UNL     1     -10.943   4.717 -35.049  1.00  0.00    -0.008 A 
HETATM   10  C   UNL     1     -10.400   3.717 -34.289  1.00  0.00    -0.028 A 
HETATM   11  C   UNL     1      -9.020   4.075 -33.868  1.00  0.00     0.041 C 
HETATM   12  C   UNL     1      -8.940   5.595 -34.213  1.00  0.00     0.010 C 
HETATM   13  C   UNL     1     -10.050   5.877 -35.269  1.00  0.00     0.047 C 
ENDROOT
BRANCH   6  14
HETATM   14  N   UNL     1     -10.045   0.981 -32.771  1.00  0.00    -0.340 N 
HETATM   15  H   UNL     1     -10.107   1.161 -31.781  1.00  0.00     0.167 HD
BRANCH  14  16
HETATM   16  C   UNL     1      -8.793   0.489 -33.184  1.00  0.00     0.036 A 
HETATM   17  C   UNL     1      -7.862   0.128 -32.192  1.00  0.00     0.069 A 
HETATM   18  C   UNL     1      -6.636  -0.375 -32.578  1.00  0.00     0.107 A 
HETATM   19  C   UNL     1      -6.304  -0.539 -33.900  1.00  0.00     0.105 A 
HETATM   20  O   UNL     1      -5.635  -0.760 -31.740  1.00  0.00    -0.323 OA
HETATM   21  O   UNL     1      -5.054  -1.044 -34.064  1.00  0.00    -0.323 OA
HETATM   22  C   UNL     1      -7.184  -0.213 -34.904  1.00  0.00     0.042 A 
HETATM   23  C   UNL     1      -4.634  -1.182 -32.691  1.00  0.00     0.352 A 
HETATM   24  C   UNL     1      -8.437   0.298 -34.536  1.00  0.00     0.032 A 
ENDBRANCH  14  16
ENDBRANCH   6  14
TORSDOF 2
ENDMDL
MODEL 9
REMARK VINA RESULT:      -7.8      4.028      6.884
REMARK  2 active torsions:
REMARK  status: ('A' for Active; 'I' for Inactive)
REMARK    1  A    between atoms: C_6  and  N_7 
REMARK    2  A    between atoms: N_7  and  C_8 
ROOT
HETATM    1  C   UNL     1      -3.578   5.498 -34.589  1.00  0.00     0.093 C 
HETATM    2  C   UNL     1      -4.608   4.597 -33.979  1.00  0.00     0.125 A 
HETATM    3  N   UNL     1      -5.889   4.866 -34.243  1.00  0.00    -0.226 NA
HETATM    4  C   UNL     1      -6.734   3.994 -33.675  1.00  0.00     0.114 A 
HETATM    5  C   UNL     1      -6.390   2.894 -32.887  1.00  0.00     0.053 A 
HETATM    6  C   UNL     1      -5.009   2.699 -32.661  1.00  0.00     0.143 A 
HETATM    7  N   UNL     1      -4.149   3.576 -33.233  1.00  0.00    -0.215 NA
HETATM    8  S   UNL     1      -8.433   4.179 -33.882  1.00  0.00    -0.073 SA
HETATM    9  C   UNL     1      -8.713   2.826 -32.946  1.00  0.00    -0.008 A 
HETATM   10  C   UNL     1      -7.578   2.219 -32.481  1.00  0.00    -0.028 A 
HETATM   11  C   UNL     1      -7.922   1.030 -31.659  1.00  0.00     0.041 C 
HETATM   12  C   UNL     1      -9.435   0.818 -31.981  1.00  0.00     0.010 C 
HETATM   13  C   UNL     1      -9.974   2.174 -32.525  1.00  0.00     0.047 C 
ENDROOT
BRANCH   6  14
HETATM   14  N   UNL     1      -4.543   1.622 -31.892  1.00  0.00    -0.340 N 
HETATM   15  H   UNL     1      -4.280   1.885 -30.954  1.00  0.00     0.167 HD
BRANCH  14  16
HETATM   16  C   UNL     1      -4.283   0.274 -32.198  1.00  0.00     0.036 A 
HETATM   17  C   UNL     1      -4.956  -0.299 -33.294  1.00  0.00     0.069 A 
HETATM   18  C   UNL     1      -4.700  -1.615 -33.623  1.00  0.00     0.107 A 
HETATM   19  C   UNL     1      -3.803  -2.377 -32.915  1.00  0.00     0.105 A 
HETATM   20  O   UNL     1      -5.273  -2.305 -34.645  1.00  0.00    -0.323 OA
HETATM   21  O   UNL     1      -3.700  -3.642 -33.398  1.00  0.00    -0.323 OA
HETATM   22  C   UNL     1      -3.113  -1.859 -31.845  1.00  0.00     0.042 A 
HETATM   23  C   UNL     1      -4.634  -3.591 -34.495  1.00  0.00     0.352 A 
HETATM   24  C   UNL     1      -3.356  -0.523 -31.494  1.00  0.00     0.032 A 
ENDBRANCH  14  16
ENDBRANCH   6  14
TORSDOF 2
ENDMDL
MODEL 10
REMARK VINA RESULT:      -7.8      4.936      7.533
REMARK  2 active torsions:
REMARK  status: ('A' for Active; 'I' for Inactive)
REMARK    1  A    between atoms: C_6  and  N_7 
REMARK    2  A    between atoms: N_7  and  C_8 
ROOT
HETATM    1  C   UNL     1      -1.211   5.326 -32.885  1.00  0.00     0.093 C 
HETATM    2  C   UNL     1      -2.499   4.743 -32.391  1.00  0.00     0.125 A 
HETATM    3  N   UNL     1      -3.569   5.542 -32.381  1.00  0.00    -0.226 NA
HETATM    4  C   UNL     1      -4.677   4.927 -31.946  1.00  0.00     0.114 A 
HETATM    5  C   UNL     1      -4.785   3.597 -31.537  1.00  0.00     0.053 A 
HETATM    6  C   UNL     1      -3.596   2.835 -31.578  1.00  0.00     0.143 A 
HETATM    7  N   UNL     1      -2.471   3.450 -32.018  1.00  0.00    -0.215 NA
HETATM    8  S   UNL     1      -6.161   5.794 -31.843  1.00  0.00    -0.073 SA
HETATM    9  C   UNL     1      -6.937   4.433 -31.267  1.00  0.00    -0.008 A 
HETATM   10  C   UNL     1      -6.132   3.332 -31.153  1.00  0.00    -0.028 A 
HETATM   11  C   UNL     1      -6.904   2.174 -30.634  1.00  0.00     0.041 C 
HETATM   12  C   UNL     1      -8.381   2.658 -30.772  1.00  0.00     0.010 C 
HETATM   13  C   UNL     1      -8.341   4.213 -30.853  1.00  0.00     0.047 C 
ENDROOT
BRANCH   6  14
HETATM   14  N   UNL     1      -3.582   1.485 -31.199  1.00  0.00    -0.340 N 
HETATM   15  H   UNL     1      -3.301   1.341 -30.241  1.00  0.00     0.167 HD
BRANCH  14  16
HETATM   16  C   UNL     1      -3.794   0.292 -31.915  1.00  0.00     0.036 A 
HETATM   17  C   UNL     1      -3.161  -0.879 -31.457  1.00  0.00     0.069 A 
HETATM   18  C   UNL     1      -3.373  -2.062 -32.136  1.00  0.00     0.107 A 
HETATM   19  C   UNL     1      -4.187  -2.129 -33.238  1.00  0.00     0.105 A 
HETATM   20  O   UNL     1      -2.829  -3.268 -31.819  1.00  0.00    -0.323 OA
HETATM   21  O   UNL     1      -4.259  -3.382 -33.758  1.00  0.00    -0.323 OA
HETATM   22  C   UNL     1      -4.837  -1.016 -33.716  1.00  0.00     0.042 A 
HETATM   23  C   UNL     1      -3.395  -4.101 -32.854  1.00  0.00     0.352 A 
HETATM   24  C   UNL     1      -4.639   0.197 -33.042  1.00  0.00     0.032 A 
ENDBRANCH  14  16
ENDBRANCH   6  14
TORSDOF 2
ENDMDL
