MODEL 1
REMARK VINA RESULT:      -9.8      0.000      0.000
REMARK  1 active torsions:
REMARK  status: ('A' for Active; 'I' for Inactive)
REMARK    1  A    between atoms: C_4  and  C_5 
REMARK       I    between atoms: C_5  and  N_6 
ROOT
HETATM    1  C   UNL     1      -7.127   0.368 -34.548  1.00  0.00     0.275 C 
HETATM    2  N   UNL     1      -8.361   0.264 -33.914  1.00  0.00    -0.342 N 
HETATM    3  C   UNL     1      -9.532   0.852 -34.584  1.00  0.00     0.167 C 
HETATM    4  C   UNL     1     -10.122   1.903 -33.695  1.00  0.00    -0.005 A 
HETATM    5  C   UNL     1      -9.772   2.056 -32.366  1.00  0.00     0.020 A 
HETATM    6  N   UNL     1     -10.478   3.102 -31.846  1.00  0.00    -0.358 N 
HETATM    7  H   UNL     1     -10.407   3.454 -30.902  1.00  0.00     0.166 HD
HETATM    8  C   UNL     1     -11.324   3.612 -32.810  1.00  0.00     0.043 A 
HETATM    9  C   UNL     1     -11.120   2.876 -33.981  1.00  0.00     0.000 A 
HETATM   10  C   UNL     1     -12.246   4.663 -32.734  1.00  0.00     0.030 A 
HETATM   11  C   UNL     1     -12.985   4.964 -33.883  1.00  0.00     0.002 A 
HETATM   12  C   UNL     1     -12.806   4.244 -35.062  1.00  0.00     0.001 A 
HETATM   13  C   UNL     1     -11.875   3.201 -35.126  1.00  0.00     0.014 A 
HETATM   14  C   UNL     1      -8.765   1.220 -31.649  1.00  0.00     0.077 C 
HETATM   15  C   UNL     1      -8.536  -0.065 -32.483  1.00  0.00     0.132 C 
HETATM   16  O   UNL     1      -6.954   0.821 -35.674  1.00  0.00    -0.266 OA
ENDROOT
BRANCH   1  17
HETATM   17  C   UNL     1      -5.908  -0.194 -33.836  1.00  0.00     0.156 A 
HETATM   18  N   UNL     1      -5.226   0.617 -33.080  1.00  0.00    -0.164 NA
HETATM   19  N   UNL     1      -4.132   0.130 -32.409  1.00  0.00    -0.238 N 
HETATM   20  C   UNL     1      -3.409   1.072 -31.577  1.00  0.00     0.183 C 
HETATM   21  C   UNL     1      -3.652  -1.173 -32.522  1.00  0.00     0.274 A 
HETATM   22  C   UNL     1      -4.419  -2.080 -33.395  1.00  0.00     0.046 A 
HETATM   23  O   UNL     1      -2.655  -1.590 -31.937  1.00  0.00    -0.266 OA
HETATM   24  C   UNL     1      -5.554  -1.610 -34.045  1.00  0.00     0.016 A 
HETATM   25  C   UNL     1      -4.008  -3.409 -33.566  1.00  0.00     0.018 A 
HETATM   26  C   UNL     1      -6.292  -2.471 -34.865  1.00  0.00     0.015 A 
HETATM   27  C   UNL     1      -5.881  -3.796 -35.038  1.00  0.00     0.001 A 
HETATM   28  C   UNL     1      -4.740  -4.265 -34.390  1.00  0.00     0.001 A 
ENDBRANCH   1  17
TORSDOF 1
ENDMDL
MODEL 2
REMARK VINA RESULT:      -9.4      2.218      7.741
REMARK  1 active torsions:
REMARK  status: ('A' for Active; 'I' for Inactive)
REMARK    1  A    between atoms: C_4  and  C_5 
REMARK       I    between atoms: C_5  and  N_6 
ROOT
HETATM    1  C   UNL     1      -9.014   1.103 -33.424  1.00  0.00     0.275 C 
HETATM    2  N   UNL     1      -7.936   0.832 -34.259  1.00  0.00    -0.342 N 
HETATM    3  C   UNL     1      -7.824  -0.522 -34.826  1.00  0.00     0.167 C 
HETATM    4  C   UNL     1      -6.532  -1.131 -34.375  1.00  0.00    -0.005 A 
HETATM    5  C   UNL     1      -5.520  -0.405 -33.776  1.00  0.00     0.020 A 
HETATM    6  N   UNL     1      -4.491  -1.251 -33.480  1.00  0.00    -0.358 N 
HETATM    7  H   UNL     1      -3.630  -0.999 -33.017  1.00  0.00     0.166 HD
HETATM    8  C   UNL     1      -4.799  -2.523 -33.920  1.00  0.00     0.043 A 
HETATM    9  C   UNL     1      -6.076  -2.474 -34.487  1.00  0.00     0.000 A 
HETATM   10  C   UNL     1      -4.048  -3.704 -33.858  1.00  0.00     0.030 A 
HETATM   11  C   UNL     1      -4.616  -4.863 -34.397  1.00  0.00     0.002 A 
HETATM   12  C   UNL     1      -5.884  -4.843 -34.972  1.00  0.00     0.001 A 
HETATM   13  C   UNL     1      -6.626  -3.657 -35.021  1.00  0.00     0.014 A 
HETATM   14  C   UNL     1      -5.578   1.058 -33.485  1.00  0.00     0.077 C 
HETATM   15  C   UNL     1      -6.717   1.665 -34.341  1.00  0.00     0.132 C 
HETATM   16  O   UNL     1      -9.941   0.330 -33.204  1.00  0.00    -0.266 OA
ENDROOT
BRANCH   1  17
HETATM   17  C   UNL     1      -9.105   2.484 -32.798  1.00  0.00     0.156 A 
HETATM   18  N   UNL     1      -8.549   2.655 -31.634  1.00  0.00    -0.164 NA
HETATM   19  N   UNL     1      -8.599   3.899 -31.055  1.00  0.00    -0.238 N 
HETATM   20  C   UNL     1      -7.961   4.038 -29.761  1.00  0.00     0.183 C 
HETATM   21  C   UNL     1      -9.260   4.997 -31.600  1.00  0.00     0.274 A 
HETATM   22  C   UNL     1      -9.904   4.790 -32.910  1.00  0.00     0.046 A 
HETATM   23  O   UNL     1      -9.321   6.099 -31.060  1.00  0.00    -0.266 OA
HETATM   24  C   UNL     1      -9.822   3.547 -33.526  1.00  0.00     0.016 A 
HETATM   25  C   UNL     1     -10.591   5.842 -33.532  1.00  0.00     0.018 A 
HETATM   26  C   UNL     1     -10.422   3.350 -34.776  1.00  0.00     0.015 A 
HETATM   27  C   UNL     1     -11.109   4.398 -35.395  1.00  0.00     0.001 A 
HETATM   28  C   UNL     1     -11.195   5.642 -34.774  1.00  0.00     0.001 A 
ENDBRANCH   1  17
TORSDOF 1
ENDMDL
MODEL 3
REMARK VINA RESULT:      -9.3      2.384      7.584
REMARK  1 active torsions:
REMARK  status: ('A' for Active; 'I' for Inactive)
REMARK    1  A    between atoms: C_4  and  C_5 
REMARK       I    between atoms: C_5  and  N_6 
ROOT
HETATM    1  C   UNL     1      -9.079   1.279 -33.712  1.00  0.00     0.275 C 
HETATM    2  N   UNL     1      -7.983   0.969 -34.511  1.00  0.00    -0.342 N 
HETATM    3  C   UNL     1      -7.849  -0.415 -34.991  1.00  0.00     0.167 C 
HETATM    4  C   UNL     1      -6.559  -0.983 -34.482  1.00  0.00    -0.005 A 
HETATM    5  C   UNL     1      -5.564  -0.211 -33.910  1.00  0.00     0.020 A 
HETATM    6  N   UNL     1      -4.534  -1.027 -33.546  1.00  0.00    -0.358 N 
HETATM    7  H   UNL     1      -3.683  -0.737 -33.084  1.00  0.00     0.166 HD
HETATM    8  C   UNL     1      -4.821  -2.326 -33.912  1.00  0.00     0.043 A 
HETATM    9  C   UNL     1      -6.089  -2.325 -34.503  1.00  0.00     0.000 A 
HETATM   10  C   UNL     1      -4.061  -3.493 -33.764  1.00  0.00     0.030 A 
HETATM   11  C   UNL     1      -4.608  -4.689 -34.241  1.00  0.00     0.002 A 
HETATM   12  C   UNL     1      -5.866  -4.717 -34.838  1.00  0.00     0.001 A 
HETATM   13  C   UNL     1      -6.618  -3.544 -34.972  1.00  0.00     0.014 A 
HETATM   14  C   UNL     1      -5.642   1.266 -33.711  1.00  0.00     0.077 C 
HETATM   15  C   UNL     1      -6.770   1.809 -34.623  1.00  0.00     0.132 C 
HETATM   16  O   UNL     1     -10.002   0.512 -33.461  1.00  0.00    -0.266 OA
ENDROOT
BRANCH   1  17
HETATM   17  C   UNL     1      -9.193   2.696 -33.174  1.00  0.00     0.156 A 
HETATM   18  N   UNL     1      -9.858   3.557 -33.888  1.00  0.00    -0.164 NA
HETATM   19  N   UNL     1      -9.994   4.840 -33.415  1.00  0.00    -0.238 N 
HETATM   20  C   UNL     1     -10.746   5.760 -34.245  1.00  0.00     0.183 C 
HETATM   21  C   UNL     1      -9.418   5.313 -32.239  1.00  0.00     0.274 A 
HETATM   22  C   UNL     1      -8.651   4.335 -31.446  1.00  0.00     0.046 A 
HETATM   23  O   UNL     1      -9.525   6.469 -31.840  1.00  0.00    -0.266 OA
HETATM   24  C   UNL     1      -8.543   3.023 -31.893  1.00  0.00     0.016 A 
HETATM   25  C   UNL     1      -8.037   4.724 -30.248  1.00  0.00     0.018 A 
HETATM   26  C   UNL     1      -7.825   2.088 -31.137  1.00  0.00     0.015 A 
HETATM   27  C   UNL     1      -7.211   2.478 -29.943  1.00  0.00     0.001 A 
HETATM   28  C   UNL     1      -7.316   3.794 -29.499  1.00  0.00     0.001 A 
ENDBRANCH   1  17
TORSDOF 1
ENDMDL
MODEL 4
REMARK VINA RESULT:      -9.3      1.662      2.860
REMARK  1 active torsions:
REMARK  status: ('A' for Active; 'I' for Inactive)
REMARK    1  A    between atoms: C_4  and  C_5 
REMARK       I    between atoms: C_5  and  N_6 
ROOT
HETATM    1  C   UNL     1      -7.383   0.175 -34.715  1.00  0.00     0.275 C 
HETATM    2  N   UNL     1      -8.565   0.229 -33.985  1.00  0.00    -0.342 N 
HETATM    3  C   UNL     1      -9.470   1.365 -34.221  1.00  0.00     0.167 C 
HETATM    4  C   UNL     1      -9.644   2.122 -32.940  1.00  0.00    -0.005 A 
HETATM    5  C   UNL     1      -9.240   1.634 -31.710  1.00  0.00     0.020 A 
HETATM    6  N   UNL     1      -9.530   2.563 -30.755  1.00  0.00    -0.358 N 
HETATM    7  H   UNL     1      -9.325   2.484 -29.769  1.00  0.00     0.166 HD
HETATM    8  C   UNL     1     -10.163   3.643 -31.338  1.00  0.00     0.043 A 
HETATM    9  C   UNL     1     -10.246   3.390 -32.711  1.00  0.00     0.000 A 
HETATM   10  C   UNL     1     -10.661   4.816 -30.758  1.00  0.00     0.030 A 
HETATM   11  C   UNL     1     -11.268   5.751 -31.602  1.00  0.00     0.002 A 
HETATM   12  C   UNL     1     -11.370   5.523 -32.972  1.00  0.00     0.001 A 
HETATM   13  C   UNL     1     -10.861   4.349 -33.540  1.00  0.00     0.014 A 
HETATM   14  C   UNL     1      -8.574   0.316 -31.494  1.00  0.00     0.077 C 
HETATM   15  C   UNL     1      -8.820  -0.551 -32.754  1.00  0.00     0.132 C 
HETATM   16  O   UNL     1      -7.083   0.947 -35.620  1.00  0.00    -0.266 OA
ENDROOT
BRANCH   1  17
HETATM   17  C   UNL     1      -6.423  -0.970 -34.438  1.00  0.00     0.156 A 
HETATM   18  N   UNL     1      -6.669  -2.113 -35.011  1.00  0.00    -0.164 NA
HETATM   19  N   UNL     1      -5.806  -3.158 -34.794  1.00  0.00    -0.238 N 
HETATM   20  C   UNL     1      -6.123  -4.408 -35.456  1.00  0.00     0.183 C 
HETATM   21  C   UNL     1      -4.701  -3.107 -33.948  1.00  0.00     0.274 A 
HETATM   22  C   UNL     1      -4.440  -1.815 -33.289  1.00  0.00     0.046 A 
HETATM   23  O   UNL     1      -3.951  -4.058 -33.740  1.00  0.00    -0.266 OA
HETATM   24  C   UNL     1      -5.282  -0.736 -33.535  1.00  0.00     0.016 A 
HETATM   25  C   UNL     1      -3.348  -1.673 -32.421  1.00  0.00     0.018 A 
HETATM   26  C   UNL     1      -5.030   0.497 -32.921  1.00  0.00     0.015 A 
HETATM   27  C   UNL     1      -3.943   0.637 -32.054  1.00  0.00     0.001 A 
HETATM   28  C   UNL     1      -3.103  -0.447 -31.803  1.00  0.00     0.001 A 
ENDBRANCH   1  17
TORSDOF 1
ENDMDL
MODEL 5
REMARK VINA RESULT:      -9.1      4.743      8.086
REMARK  1 active torsions:
REMARK  status: ('A' for Active; 'I' for Inactive)
REMARK    1  A    between atoms: C_4  and  C_5 
REMARK       I    between atoms: C_5  and  N_6 
ROOT
HETATM    1  C   UNL     1      -3.028   3.802 -32.244  1.00  0.00     0.275 C 
HETATM    2  N   UNL     1      -3.641   2.757 -31.562  1.00  0.00    -0.342 N 
HETATM    3  C   UNL     1      -3.550   1.407 -32.141  1.00  0.00     0.167 C 
HETATM    4  C   UNL     1      -4.933   0.905 -32.421  1.00  0.00    -0.005 A 
HETATM    5  C   UNL     1      -6.075   1.515 -31.934  1.00  0.00     0.020 A 
HETATM    6  N   UNL     1      -7.163   0.822 -32.375  1.00  0.00    -0.358 N 
HETATM    7  H   UNL     1      -8.129   1.055 -32.192  1.00  0.00     0.166 HD
HETATM    8  C   UNL     1      -6.748  -0.268 -33.114  1.00  0.00     0.043 A 
HETATM    9  C   UNL     1      -5.350  -0.238 -33.157  1.00  0.00     0.000 A 
HETATM   10  C   UNL     1      -7.499  -1.268 -33.744  1.00  0.00     0.030 A 
HETATM   11  C   UNL     1      -6.802  -2.269 -34.428  1.00  0.00     0.002 A 
HETATM   12  C   UNL     1      -5.411  -2.268 -34.484  1.00  0.00     0.001 A 
HETATM   13  C   UNL     1      -4.673  -1.258 -33.856  1.00  0.00     0.014 A 
HETATM   14  C   UNL     1      -6.088   2.746 -31.089  1.00  0.00     0.077 C 
HETATM   15  C   UNL     1      -4.664   2.937 -30.509  1.00  0.00     0.132 C 
HETATM   16  O   UNL     1      -2.325   3.671 -33.241  1.00  0.00    -0.266 OA
ENDROOT
BRANCH   1  17
HETATM   17  C   UNL     1      -3.162   5.204 -31.674  1.00  0.00     0.156 A 
HETATM   18  N   UNL     1      -4.304   5.808 -31.827  1.00  0.00    -0.164 NA
HETATM   19  N   UNL     1      -4.459   7.068 -31.304  1.00  0.00    -0.238 N 
HETATM   20  C   UNL     1      -5.751   7.697 -31.498  1.00  0.00     0.183 C 
HETATM   21  C   UNL     1      -3.453   7.786 -30.662  1.00  0.00     0.274 A 
HETATM   22  C   UNL     1      -2.156   7.102 -30.510  1.00  0.00     0.046 A 
HETATM   23  O   UNL     1      -3.595   8.924 -30.222  1.00  0.00    -0.266 OA
HETATM   24  C   UNL     1      -2.001   5.809 -30.997  1.00  0.00     0.016 A 
HETATM   25  C   UNL     1      -1.087   7.749 -29.876  1.00  0.00     0.018 A 
HETATM   26  C   UNL     1      -0.774   5.151 -30.843  1.00  0.00     0.015 A 
HETATM   27  C   UNL     1       0.292   5.798 -30.213  1.00  0.00     0.001 A 
HETATM   28  C   UNL     1       0.137   7.096 -29.730  1.00  0.00     0.001 A 
ENDBRANCH   1  17
TORSDOF 1
ENDMDL
MODEL 6
REMARK VINA RESULT:      -9.1      3.756      7.321
REMARK  1 active torsions:
REMARK  status: ('A' for Active; 'I' for Inactive)
REMARK    1  A    between atoms: C_4  and  C_5 
REMARK       I    between atoms: C_5  and  N_6 
ROOT
HETATM    1  C   UNL     1      -7.262   4.452 -33.343  1.00  0.00     0.275 C 
HETATM    2  N   UNL     1      -6.588   4.766 -32.168  1.00  0.00    -0.342 N 
HETATM    3  C   UNL     1      -5.603   5.859 -32.208  1.00  0.00     0.167 C 
HETATM    4  C   UNL     1      -4.261   5.316 -31.826  1.00  0.00    -0.005 A 
HETATM    5  C   UNL     1      -4.081   4.067 -31.259  1.00  0.00     0.020 A 
HETATM    6  N   UNL     1      -2.748   3.874 -31.042  1.00  0.00    -0.358 N 
HETATM    7  H   UNL     1      -2.324   3.041 -30.659  1.00  0.00     0.166 HD
HETATM    8  C   UNL     1      -2.049   5.003 -31.421  1.00  0.00     0.043 A 
HETATM    9  C   UNL     1      -2.978   5.924 -31.916  1.00  0.00     0.000 A 
HETATM   10  C   UNL     1      -0.677   5.275 -31.363  1.00  0.00     0.030 A 
HETATM   11  C   UNL     1      -0.243   6.525 -31.817  1.00  0.00     0.002 A 
HETATM   12  C   UNL     1      -1.145   7.463 -32.311  1.00  0.00     0.001 A 
HETATM   13  C   UNL     1      -2.514   7.175 -32.370  1.00  0.00     0.014 A 
HETATM   14  C   UNL     1      -5.178   3.098 -30.968  1.00  0.00     0.077 C 
HETATM   15  C   UNL     1      -6.516   3.879 -30.987  1.00  0.00     0.132 C 
HETATM   16  O   UNL     1      -7.175   5.084 -34.391  1.00  0.00    -0.266 OA
ENDROOT
BRANCH   1  17
HETATM   17  C   UNL     1      -8.243   3.292 -33.317  1.00  0.00     0.156 A 
HETATM   18  N   UNL     1      -9.483   3.560 -33.026  1.00  0.00    -0.164 NA
HETATM   19  N   UNL     1     -10.394   2.533 -33.015  1.00  0.00    -0.238 N 
HETATM   20  C   UNL     1     -11.762   2.884 -32.689  1.00  0.00     0.183 C 
HETATM   21  C   UNL     1     -10.079   1.195 -33.238  1.00  0.00     0.274 A 
HETATM   22  C   UNL     1      -8.669   0.898 -33.548  1.00  0.00     0.046 A 
HETATM   23  O   UNL     1     -10.899   0.281 -33.199  1.00  0.00    -0.266 OA
HETATM   24  C   UNL     1      -7.745   1.935 -33.605  1.00  0.00     0.016 A 
HETATM   25  C   UNL     1      -8.262  -0.422 -33.788  1.00  0.00     0.018 A 
HETATM   26  C   UNL     1      -6.407   1.658 -33.912  1.00  0.00     0.015 A 
HETATM   27  C   UNL     1      -6.002   0.341 -34.148  1.00  0.00     0.001 A 
HETATM   28  C   UNL     1      -6.928  -0.698 -34.085  1.00  0.00     0.001 A 
ENDBRANCH   1  17
TORSDOF 1
ENDMDL
MODEL 7
REMARK VINA RESULT:      -9.0      3.901      7.270
REMARK  1 active torsions:
REMARK  status: ('A' for Active; 'I' for Inactive)
REMARK    1  A    between atoms: C_4  and  C_5 
REMARK       I    between atoms: C_5  and  N_6 
ROOT
HETATM    1  C   UNL     1      -4.412   1.695 -31.776  1.00  0.00     0.275 C 
HETATM    2  N   UNL     1      -3.959   2.828 -32.444  1.00  0.00    -0.342 N 
HETATM    3  C   UNL     1      -2.615   3.330 -32.118  1.00  0.00     0.167 C 
HETATM    4  C   UNL     1      -2.734   4.729 -31.596  1.00  0.00    -0.005 A 
HETATM    5  C   UNL     1      -3.890   5.480 -31.696  1.00  0.00     0.020 A 
HETATM    6  N   UNL     1      -3.672   6.697 -31.119  1.00  0.00    -0.358 N 
HETATM    7  H   UNL     1      -4.350   7.441 -31.027  1.00  0.00     0.166 HD
HETATM    8  C   UNL     1      -2.366   6.772 -30.677  1.00  0.00     0.043 A 
HETATM    9  C   UNL     1      -1.755   5.547 -30.966  1.00  0.00     0.000 A 
HETATM   10  C   UNL     1      -1.687   7.822 -30.048  1.00  0.00     0.030 A 
HETATM   11  C   UNL     1      -0.344   7.618 -29.712  1.00  0.00     0.002 A 
HETATM   12  C   UNL     1       0.292   6.411 -29.992  1.00  0.00     0.001 A 
HETATM   13  C   UNL     1      -0.402   5.367 -30.615  1.00  0.00     0.014 A 
HETATM   14  C   UNL     1      -5.163   5.005 -32.313  1.00  0.00     0.077 C 
HETATM   15  C   UNL     1      -4.835   3.765 -33.181  1.00  0.00     0.132 C 
HETATM   16  O   UNL     1      -3.736   1.018 -31.009  1.00  0.00    -0.266 OA
ENDROOT
BRANCH   1  17
HETATM   17  C   UNL     1      -5.818   1.203 -32.075  1.00  0.00     0.156 A 
HETATM   18  N   UNL     1      -6.810   1.864 -31.553  1.00  0.00    -0.164 NA
HETATM   19  N   UNL     1      -8.091   1.453 -31.823  1.00  0.00    -0.238 N 
HETATM   20  C   UNL     1      -9.161   2.225 -31.221  1.00  0.00     0.183 C 
HETATM   21  C   UNL     1      -8.417   0.329 -32.578  1.00  0.00     0.274 A 
HETATM   22  C   UNL     1      -7.287  -0.426 -33.150  1.00  0.00     0.046 A 
HETATM   23  O   UNL     1      -9.568  -0.045 -32.791  1.00  0.00    -0.266 OA
HETATM   24  C   UNL     1      -5.986   0.007 -32.919  1.00  0.00     0.016 A 
HETATM   25  C   UNL     1      -7.523  -1.571 -33.924  1.00  0.00     0.018 A 
HETATM   26  C   UNL     1      -4.911  -0.701 -33.470  1.00  0.00     0.015 A 
HETATM   27  C   UNL     1      -5.147  -1.843 -34.240  1.00  0.00     0.001 A 
HETATM   28  C   UNL     1      -6.450  -2.279 -34.466  1.00  0.00     0.001 A 
ENDBRANCH   1  17
TORSDOF 1
ENDMDL
MODEL 8
REMARK VINA RESULT:      -8.9      1.674      3.209
REMARK  1 active torsions:
REMARK  status: ('A' for Active; 'I' for Inactive)
REMARK    1  A    between atoms: C_4  and  C_5 
REMARK       I    between atoms: C_5  and  N_6 
ROOT
HETATM    1  C   UNL     1      -6.716   0.231 -33.782  1.00  0.00     0.275 C 
HETATM    2  N   UNL     1      -7.903   0.123 -33.065  1.00  0.00    -0.342 N 
HETATM    3  C   UNL     1      -9.169   0.237 -33.807  1.00  0.00     0.167 C 
HETATM    4  C   UNL     1      -9.944   1.399 -33.267  1.00  0.00    -0.005 A 
HETATM    5  C   UNL     1      -9.623   2.042 -32.086  1.00  0.00     0.020 A 
HETATM    6  N   UNL     1     -10.513   3.057 -31.884  1.00  0.00    -0.358 N 
HETATM    7  H   UNL     1     -10.505   3.708 -31.112  1.00  0.00     0.166 HD
HETATM    8  C   UNL     1     -11.447   3.060 -32.901  1.00  0.00     0.043 A 
HETATM    9  C   UNL     1     -11.112   2.027 -33.782  1.00  0.00     0.000 A 
HETATM   10  C   UNL     1     -12.553   3.894 -33.105  1.00  0.00     0.030 A 
HETATM   11  C   UNL     1     -13.342   3.662 -34.235  1.00  0.00     0.002 A 
HETATM   12  C   UNL     1     -13.035   2.638 -35.128  1.00  0.00     0.001 A 
HETATM   13  C   UNL     1     -11.922   1.816 -34.916  1.00  0.00     0.014 A 
HETATM   14  C   UNL     1      -8.470   1.685 -31.208  1.00  0.00     0.077 C 
HETATM   15  C   UNL     1      -8.004   0.260 -31.596  1.00  0.00     0.132 C 
HETATM   16  O   UNL     1      -6.640   0.310 -35.004  1.00  0.00    -0.266 OA
ENDROOT
BRANCH   1  17
HETATM   17  C   UNL     1      -5.407   0.163 -33.012  1.00  0.00     0.156 A 
HETATM   18  N   UNL     1      -4.896  -1.014 -32.799  1.00  0.00    -0.164 NA
HETATM   19  N   UNL     1      -3.703  -1.103 -32.123  1.00  0.00    -0.238 N 
HETATM   20  C   UNL     1      -3.174  -2.436 -31.914  1.00  0.00     0.183 C 
HETATM   21  C   UNL     1      -3.016  -0.015 -31.589  1.00  0.00     0.274 A 
HETATM   22  C   UNL     1      -3.612   1.313 -31.819  1.00  0.00     0.046 A 
HETATM   23  O   UNL     1      -1.964  -0.109 -30.963  1.00  0.00    -0.266 OA
HETATM   24  C   UNL     1      -4.797   1.419 -32.540  1.00  0.00     0.016 A 
HETATM   25  C   UNL     1      -2.987   2.463 -31.318  1.00  0.00     0.018 A 
HETATM   26  C   UNL     1      -5.360   2.680 -32.771  1.00  0.00     0.015 A 
HETATM   27  C   UNL     1      -4.737   3.826 -32.268  1.00  0.00     0.001 A 
HETATM   28  C   UNL     1      -3.553   3.718 -31.542  1.00  0.00     0.001 A 
ENDBRANCH   1  17
TORSDOF 1
ENDMDL
MODEL 9
REMARK VINA RESULT:      -8.8      3.041      4.082
REMARK  1 active torsions:
REMARK  status: ('A' for Active; 'I' for Inactive)
REMARK    1  A    between atoms: C_4  and  C_5 
REMARK       I    between atoms: C_5  and  N_6 
ROOT
HETATM    1  C   UNL     1      -8.104   3.506 -31.101  1.00  0.00     0.275 C 
HETATM    2  N   UNL     1      -8.790   3.779 -32.280  1.00  0.00    -0.342 N 
HETATM    3  C   UNL     1     -10.256   3.889 -32.215  1.00  0.00     0.167 C 
HETATM    4  C   UNL     1     -10.860   2.849 -33.108  1.00  0.00    -0.005 A 
HETATM    5  C   UNL     1     -10.129   2.128 -34.035  1.00  0.00     0.020 A 
HETATM    6  N   UNL     1     -10.968   1.262 -34.674  1.00  0.00    -0.358 N 
HETATM    7  H   UNL     1     -10.702   0.595 -35.385  1.00  0.00     0.166 HD
HETATM    8  C   UNL     1     -12.255   1.436 -34.207  1.00  0.00     0.043 A 
HETATM    9  C   UNL     1     -12.214   2.429 -33.223  1.00  0.00     0.000 A 
HETATM   10  C   UNL     1     -13.443   0.794 -34.579  1.00  0.00     0.030 A 
HETATM   11  C   UNL     1     -14.621   1.182 -33.933  1.00  0.00     0.002 A 
HETATM   12  C   UNL     1     -14.611   2.171 -32.952  1.00  0.00     0.001 A 
HETATM   13  C   UNL     1     -13.415   2.799 -32.585  1.00  0.00     0.014 A 
HETATM   14  C   UNL     1      -8.661   2.273 -34.260  1.00  0.00     0.077 C 
HETATM   15  C   UNL     1      -8.216   3.617 -33.633  1.00  0.00     0.132 C 
HETATM   16  O   UNL     1      -8.618   3.452 -29.988  1.00  0.00    -0.266 OA
ENDROOT
BRANCH   1  17
HETATM   17  C   UNL     1      -6.595   3.343 -31.172  1.00  0.00     0.156 A 
HETATM   18  N   UNL     1      -5.870   4.422 -31.102  1.00  0.00    -0.164 NA
HETATM   19  N   UNL     1      -4.503   4.301 -31.144  1.00  0.00    -0.238 N 
HETATM   20  C   UNL     1      -3.741   5.531 -31.059  1.00  0.00     0.183 C 
HETATM   21  C   UNL     1      -3.822   3.099 -31.317  1.00  0.00     0.274 A 
HETATM   22  C   UNL     1      -4.651   1.884 -31.415  1.00  0.00     0.046 A 
HETATM   23  O   UNL     1      -2.599   3.006 -31.380  1.00  0.00    -0.266 OA
HETATM   24  C   UNL     1      -6.035   1.989 -31.330  1.00  0.00     0.016 A 
HETATM   25  C   UNL     1      -4.049   0.630 -31.589  1.00  0.00     0.018 A 
HETATM   26  C   UNL     1      -6.826   0.836 -31.410  1.00  0.00     0.015 A 
HETATM   27  C   UNL     1      -6.224  -0.413 -31.586  1.00  0.00     0.001 A 
HETATM   28  C   UNL     1      -4.838  -0.516 -31.677  1.00  0.00     0.001 A 
ENDBRANCH   1  17
TORSDOF 1
ENDMDL
MODEL 10
REMARK VINA RESULT:      -8.6      3.945      5.235
REMARK  1 active torsions:
REMARK  status: ('A' for Active; 'I' for Inactive)
REMARK    1  A    between atoms: C_4  and  C_5 
REMARK       I    between atoms: C_5  and  N_6 
ROOT
HETATM    1  C   UNL     1      -5.606   1.537 -30.884  1.00  0.00     0.275 C 
HETATM    2  N   UNL     1      -4.871   2.702 -31.083  1.00  0.00    -0.342 N 
HETATM    3  C   UNL     1      -5.154   3.853 -30.212  1.00  0.00     0.167 C 
HETATM    4  C   UNL     1      -5.599   5.005 -31.059  1.00  0.00    -0.005 A 
HETATM    5  C   UNL     1      -5.471   5.028 -32.436  1.00  0.00     0.020 A 
HETATM    6  N   UNL     1      -5.978   6.206 -32.902  1.00  0.00    -0.358 N 
HETATM    7  H   UNL     1      -6.036   6.484 -33.872  1.00  0.00     0.166 HD
HETATM    8  C   UNL     1      -6.400   6.980 -31.840  1.00  0.00     0.043 A 
HETATM    9  C   UNL     1      -6.172   6.248 -30.670  1.00  0.00     0.000 A 
HETATM   10  C   UNL     1      -6.962   8.262 -31.827  1.00  0.00     0.030 A 
HETATM   11  C   UNL     1      -7.294   8.814 -30.586  1.00  0.00     0.002 A 
HETATM   12  C   UNL     1      -7.074   8.110 -29.404  1.00  0.00     0.001 A 
HETATM   13  C   UNL     1      -6.517   6.826 -29.432  1.00  0.00     0.014 A 
HETATM   14  C   UNL     1      -4.895   3.922 -33.256  1.00  0.00     0.077 C 
HETATM   15  C   UNL     1      -4.094   2.997 -32.306  1.00  0.00     0.132 C 
HETATM   16  O   UNL     1      -6.401   1.360 -29.968  1.00  0.00    -0.266 OA
ENDROOT
BRANCH   1  17
HETATM   17  C   UNL     1      -5.351   0.363 -31.814  1.00  0.00     0.156 A 
HETATM   18  N   UNL     1      -4.380  -0.447 -31.507  1.00  0.00    -0.164 NA
HETATM   19  N   UNL     1      -4.141  -1.527 -32.320  1.00  0.00    -0.238 N 
HETATM   20  C   UNL     1      -3.050  -2.401 -31.934  1.00  0.00     0.183 C 
HETATM   21  C   UNL     1      -4.832  -1.797 -33.499  1.00  0.00     0.274 A 
HETATM   22  C   UNL     1      -5.918  -0.864 -33.849  1.00  0.00     0.046 A 
HETATM   23  O   UNL     1      -4.591  -2.752 -34.232  1.00  0.00    -0.266 OA
HETATM   24  C   UNL     1      -6.198   0.210 -33.010  1.00  0.00     0.016 A 
HETATM   25  C   UNL     1      -6.667  -1.059 -35.018  1.00  0.00     0.018 A 
HETATM   26  C   UNL     1      -7.237   1.091 -33.333  1.00  0.00     0.015 A 
HETATM   27  C   UNL     1      -7.981   0.897 -34.500  1.00  0.00     0.001 A 
HETATM   28  C   UNL     1      -7.697  -0.176 -35.342  1.00  0.00     0.001 A 
ENDBRANCH   1  17
TORSDOF 1
ENDMDL
