MODEL 1
REMARK VINA RESULT:      -7.3      0.000      0.000
REMARK  5 active torsions:
REMARK  status: ('A' for Active; 'I' for Inactive)
REMARK    1  A    between atoms: C_2  and  N_3 
REMARK       I    between atoms: N_3  and  C_4 
REMARK       I    between atoms: C_4  and  N_5 
REMARK    2  A    between atoms: N_5  and  C_6 
REMARK    3  A    between atoms: C_20  and  C_21 
REMARK    4  A    between atoms: C_21  and  O_22 
REMARK    5  A    between atoms: O_22  and  C_23 
ROOT
HETATM    1  C   UNL     1      -3.734   3.024 -32.419  1.00  0.00     0.095 A 
HETATM    2  S   UNL     1      -3.941   1.441 -31.843  1.00  0.00    -0.073 SA
HETATM    3  C   UNL     1      -5.520   1.320 -32.452  1.00  0.00     0.027 A 
HETATM    4  C   UNL     1      -5.863   2.439 -33.191  1.00  0.00    -0.021 A 
HETATM    5  C   UNL     1      -7.202   2.546 -33.875  1.00  0.00     0.079 C 
HETATM    6  C   UNL     1      -7.881   1.169 -34.093  1.00  0.00     0.124 C 
HETATM    7  C   UNL     1      -7.279   0.410 -35.280  1.00  0.00     0.046 C 
HETATM    8  C   UNL     1      -9.386   1.368 -34.344  1.00  0.00     0.046 C 
HETATM    9  N   UNL     1      -7.774   0.323 -32.828  1.00  0.00    -0.054 N 
HETATM   10  H   UNL     1      -8.349   0.792 -32.116  1.00  0.00     0.279 HD
HETATM   11  H   UNL     1      -8.219  -0.590 -32.975  1.00  0.00     0.279 HD
HETATM   12  C   UNL     1      -6.392   0.115 -32.196  1.00  0.00     0.153 C 
HETATM   13  C   UNL     1      -6.660  -0.066 -30.688  1.00  0.00     0.052 C 
HETATM   14  C   UNL     1      -5.797  -1.184 -32.759  1.00  0.00     0.052 C 
HETATM   15  C   UNL     1      -4.824   3.462 -33.163  1.00  0.00     0.081 A 
ENDROOT
BRANCH   1  16
HETATM   16  N   UNL     1      -2.557   3.709 -32.158  1.00  0.00    -0.302 N 
HETATM   17  C   UNL     1      -2.405   4.813 -31.340  1.00  0.00     0.321 C 
HETATM   18  N   UNL     1      -1.075   5.189 -31.283  1.00  0.00    -0.343 N 
HETATM   19  O   UNL     1      -3.289   5.429 -30.760  1.00  0.00    -0.247 OA
HETATM   20  H   UNL     1      -0.407   4.436 -31.357  1.00  0.00     0.164 HD
HETATM   21  H   UNL     1      -1.783   3.525 -32.783  1.00  0.00     0.171 HD
BRANCH  18  22
HETATM   22  C   UNL     1      -0.664   6.320 -30.468  1.00  0.00     0.120 C 
HETATM   23  C   UNL     1       0.612   6.966 -30.978  1.00  0.00     0.026 C 
ENDBRANCH  18  22
ENDBRANCH   1  16
BRANCH  15  24
HETATM   24  C   UNL     1      -4.937   4.783 -33.803  1.00  0.00     0.296 C 
HETATM   25  O   UNL     1      -5.692   5.650 -33.380  1.00  0.00    -0.259 OA
BRANCH  24  26
HETATM   26  O   UNL     1      -4.130   4.935 -34.893  1.00  0.00    -0.318 OA
BRANCH  26  27
HETATM   27  C   UNL     1      -3.042   5.864 -34.745  1.00  0.00     0.174 C 
HETATM   28  C   UNL     1      -1.721   5.168 -35.010  1.00  0.00     0.034 C 
ENDBRANCH  26  27
ENDBRANCH  24  26
ENDBRANCH  15  24
TORSDOF 5
ENDMDL
MODEL 2
REMARK VINA RESULT:      -7.3      0.954      1.703
REMARK  5 active torsions:
REMARK  status: ('A' for Active; 'I' for Inactive)
REMARK    1  A    between atoms: C_2  and  N_3 
REMARK       I    between atoms: N_3  and  C_4 
REMARK       I    between atoms: C_4  and  N_5 
REMARK    2  A    between atoms: N_5  and  C_6 
REMARK    3  A    between atoms: C_20  and  C_21 
REMARK    4  A    between atoms: C_21  and  O_22 
REMARK    5  A    between atoms: O_22  and  C_23 
ROOT
HETATM    1  C   UNL     1      -3.883   3.213 -32.778  1.00  0.00     0.095 A 
HETATM    2  S   UNL     1      -3.922   1.645 -32.129  1.00  0.00    -0.073 SA
HETATM    3  C   UNL     1      -5.527   1.379 -32.613  1.00  0.00     0.027 A 
HETATM    4  C   UNL     1      -6.009   2.436 -33.366  1.00  0.00    -0.021 A 
HETATM    5  C   UNL     1      -7.398   2.411 -33.951  1.00  0.00     0.079 C 
HETATM    6  C   UNL     1      -7.981   0.979 -34.065  1.00  0.00     0.124 C 
HETATM    7  C   UNL     1      -7.407   0.216 -35.264  1.00  0.00     0.046 C 
HETATM    8  C   UNL     1      -9.511   1.053 -34.211  1.00  0.00     0.046 C 
HETATM    9  N   UNL     1      -7.717   0.200 -32.781  1.00  0.00    -0.054 N 
HETATM   10  H   UNL     1      -8.275   0.654 -32.046  1.00  0.00     0.279 HD
HETATM   11  H   UNL     1      -8.099  -0.750 -32.859  1.00  0.00     0.279 HD
HETATM   12  C   UNL     1      -6.282   0.124 -32.246  1.00  0.00     0.153 C 
HETATM   13  C   UNL     1      -6.425  -0.011 -30.717  1.00  0.00     0.052 C 
HETATM   14  C   UNL     1      -5.629  -1.150 -32.802  1.00  0.00     0.052 C 
HETATM   15  C   UNL     1      -5.054   3.534 -33.455  1.00  0.00     0.081 A 
ENDROOT
BRANCH   1  16
HETATM   16  N   UNL     1      -2.747   3.995 -32.632  1.00  0.00    -0.302 N 
HETATM   17  C   UNL     1      -2.541   4.988 -31.693  1.00  0.00     0.321 C 
HETATM   18  N   UNL     1      -1.267   5.514 -31.821  1.00  0.00    -0.343 N 
HETATM   19  O   UNL     1      -3.346   5.406 -30.872  1.00  0.00    -0.247 OA
HETATM   20  H   UNL     1      -0.559   4.865 -32.133  1.00  0.00     0.164 HD
HETATM   21  H   UNL     1      -2.099   3.995 -33.409  1.00  0.00     0.171 HD
BRANCH  18  22
HETATM   22  C   UNL     1      -0.812   6.565 -30.928  1.00  0.00     0.120 C 
HETATM   23  C   UNL     1       0.682   6.814 -31.043  1.00  0.00     0.026 C 
ENDBRANCH  18  22
ENDBRANCH   1  16
BRANCH  15  24
HETATM   24  C   UNL     1      -5.316   4.814 -34.134  1.00  0.00     0.296 C 
HETATM   25  O   UNL     1      -4.593   5.240 -35.026  1.00  0.00    -0.259 OA
BRANCH  24  26
HETATM   26  O   UNL     1      -6.427   5.461 -33.673  1.00  0.00    -0.318 OA
BRANCH  26  27
HETATM   27  C   UNL     1      -6.215   6.373 -32.580  1.00  0.00     0.174 C 
HETATM   28  C   UNL     1      -6.915   5.864 -31.335  1.00  0.00     0.034 C 
ENDBRANCH  26  27
ENDBRANCH  24  26
ENDBRANCH  15  24
TORSDOF 5
ENDMDL
MODEL 3
REMARK VINA RESULT:      -6.8      3.590      7.828
REMARK  5 active torsions:
REMARK  status: ('A' for Active; 'I' for Inactive)
REMARK    1  A    between atoms: C_2  and  N_3 
REMARK       I    between atoms: N_3  and  C_4 
REMARK       I    between atoms: C_4  and  N_5 
REMARK    2  A    between atoms: N_5  and  C_6 
REMARK    3  A    between atoms: C_20  and  C_21 
REMARK    4  A    between atoms: C_21  and  O_22 
REMARK    5  A    between atoms: O_22  and  C_23 
ROOT
HETATM    1  C   UNL     1      -9.226   1.603 -32.476  1.00  0.00     0.095 A 
HETATM    2  S   UNL     1      -9.150   2.984 -31.492  1.00  0.00    -0.073 SA
HETATM    3  C   UNL     1      -7.485   3.195 -31.750  1.00  0.00     0.027 A 
HETATM    4  C   UNL     1      -6.997   2.284 -32.670  1.00  0.00    -0.021 A 
HETATM    5  C   UNL     1      -5.553   2.303 -33.101  1.00  0.00     0.079 C 
HETATM    6  C   UNL     1      -4.861   3.664 -32.836  1.00  0.00     0.124 C 
HETATM    7  C   UNL     1      -5.239   4.718 -33.884  1.00  0.00     0.046 C 
HETATM    8  C   UNL     1      -3.333   3.480 -32.848  1.00  0.00     0.046 C 
HETATM    9  N   UNL     1      -5.212   4.171 -31.441  1.00  0.00    -0.054 N 
HETATM   10  H   UNL     1      -4.775   3.519 -30.777  1.00  0.00     0.279 HD
HETATM   11  H   UNL     1      -4.758   5.076 -31.269  1.00  0.00     0.279 HD
HETATM   12  C   UNL     1      -6.690   4.265 -31.042  1.00  0.00     0.153 C 
HETATM   13  C   UNL     1      -6.712   4.055 -29.515  1.00  0.00     0.052 C 
HETATM   14  C   UNL     1      -7.184   5.685 -31.359  1.00  0.00     0.052 C 
HETATM   15  C   UNL     1      -8.012   1.326 -33.093  1.00  0.00     0.081 A 
ENDROOT
BRANCH   1  16
HETATM   16  N   UNL     1     -10.424   0.918 -32.617  1.00  0.00    -0.302 N 
HETATM   17  C   UNL     1     -11.425   1.179 -33.533  1.00  0.00     0.321 C 
HETATM   18  N   UNL     1     -12.445   0.253 -33.408  1.00  0.00    -0.343 N 
HETATM   19  O   UNL     1     -11.469   2.104 -34.333  1.00  0.00    -0.247 OA
HETATM   20  H   UNL     1     -12.159  -0.672 -33.121  1.00  0.00     0.164 HD
HETATM   21  H   UNL     1     -10.689   0.315 -31.848  1.00  0.00     0.171 HD
BRANCH  18  22
HETATM   22  C   UNL     1     -13.606   0.314 -34.280  1.00  0.00     0.120 C 
HETATM   23  C   UNL     1     -14.779   1.027 -33.631  1.00  0.00     0.026 C 
ENDBRANCH  18  22
ENDBRANCH   1  16
BRANCH  15  24
HETATM   24  C   UNL     1      -7.766   0.203 -34.012  1.00  0.00     0.296 C 
HETATM   25  O   UNL     1      -7.987   0.283 -35.214  1.00  0.00    -0.259 OA
BRANCH  24  26
HETATM   26  O   UNL     1      -7.277  -0.914 -33.396  1.00  0.00    -0.318 OA
BRANCH  26  27
HETATM   27  C   UNL     1      -6.215  -1.597 -34.083  1.00  0.00     0.174 C 
HETATM   28  C   UNL     1      -6.704  -2.938 -34.596  1.00  0.00     0.034 C 
ENDBRANCH  26  27
ENDBRANCH  24  26
ENDBRANCH  15  24
TORSDOF 5
ENDMDL
MODEL 4
REMARK VINA RESULT:      -6.7     17.409     19.625
REMARK  5 active torsions:
REMARK  status: ('A' for Active; 'I' for Inactive)
REMARK    1  A    between atoms: C_2  and  N_3 
REMARK       I    between atoms: N_3  and  C_4 
REMARK       I    between atoms: C_4  and  N_5 
REMARK    2  A    between atoms: N_5  and  C_6 
REMARK    3  A    between atoms: C_20  and  C_21 
REMARK    4  A    between atoms: C_21  and  O_22 
REMARK    5  A    between atoms: O_22  and  C_23 
ROOT
HETATM    1  C   UNL     1      -5.482 -13.026 -40.238  1.00  0.00     0.095 A 
HETATM    2  S   UNL     1      -4.658 -12.620 -38.811  1.00  0.00    -0.073 SA
HETATM    3  C   UNL     1      -3.421 -13.749 -39.088  1.00  0.00     0.027 A 
HETATM    4  C   UNL     1      -3.566 -14.365 -40.318  1.00  0.00    -0.021 A 
HETATM    5  C   UNL     1      -2.561 -15.375 -40.811  1.00  0.00     0.079 C 
HETATM    6  C   UNL     1      -1.190 -15.261 -40.099  1.00  0.00     0.124 C 
HETATM    7  C   UNL     1      -0.355 -14.094 -40.636  1.00  0.00     0.046 C 
HETATM    8  C   UNL     1      -0.397 -16.566 -40.289  1.00  0.00     0.046 C 
HETATM    9  N   UNL     1      -1.389 -15.106 -38.594  1.00  0.00    -0.054 N 
HETATM   10  H   UNL     1      -1.787 -15.995 -38.261  1.00  0.00     0.279 HD
HETATM   11  H   UNL     1      -0.480 -15.025 -38.124  1.00  0.00     0.279 HD
HETATM   12  C   UNL     1      -2.321 -14.000 -38.085  1.00  0.00     0.153 C 
HETATM   13  C   UNL     1      -2.893 -14.532 -36.755  1.00  0.00     0.052 C 
HETATM   14  C   UNL     1      -1.473 -12.751 -37.801  1.00  0.00     0.052 C 
HETATM   15  C   UNL     1      -4.790 -13.961 -41.000  1.00  0.00     0.081 A 
ENDROOT
BRANCH   1  16
HETATM   16  N   UNL     1      -6.686 -12.410 -40.543  1.00  0.00    -0.302 N 
HETATM   17  C   UNL     1      -7.947 -12.817 -40.152  1.00  0.00     0.321 C 
HETATM   18  N   UNL     1      -8.903 -11.923 -40.601  1.00  0.00    -0.343 N 
HETATM   19  O   UNL     1      -8.236 -13.831 -39.531  1.00  0.00    -0.247 OA
HETATM   20  H   UNL     1      -8.604 -10.960 -40.657  1.00  0.00     0.164 HD
HETATM   21  H   UNL     1      -6.665 -11.730 -41.293  1.00  0.00     0.171 HD
BRANCH  18  22
HETATM   22  C   UNL     1     -10.308 -12.132 -40.298  1.00  0.00     0.120 C 
HETATM   23  C   UNL     1     -11.162 -10.928 -40.656  1.00  0.00     0.026 C 
ENDBRANCH  18  22
ENDBRANCH   1  16
BRANCH  15  24
HETATM   24  C   UNL     1      -5.241 -14.502 -42.292  1.00  0.00     0.296 C 
HETATM   25  O   UNL     1      -6.248 -15.192 -42.396  1.00  0.00    -0.259 OA
BRANCH  24  26
HETATM   26  O   UNL     1      -4.436 -14.160 -43.341  1.00  0.00    -0.318 OA
BRANCH  26  27
HETATM   27  C   UNL     1      -4.389 -15.098 -44.430  1.00  0.00     0.174 C 
HETATM   28  C   UNL     1      -3.148 -15.963 -44.319  1.00  0.00     0.034 C 
ENDBRANCH  26  27
ENDBRANCH  24  26
ENDBRANCH  15  24
TORSDOF 5
ENDMDL
MODEL 5
REMARK VINA RESULT:      -6.6      2.310      3.197
REMARK  5 active torsions:
REMARK  status: ('A' for Active; 'I' for Inactive)
REMARK    1  A    between atoms: C_2  and  N_3 
REMARK       I    between atoms: N_3  and  C_4 
REMARK       I    between atoms: C_4  and  N_5 
REMARK    2  A    between atoms: N_5  and  C_6 
REMARK    3  A    between atoms: C_20  and  C_21 
REMARK    4  A    between atoms: C_21  and  O_22 
REMARK    5  A    between atoms: O_22  and  C_23 
ROOT
HETATM    1  C   UNL     1      -5.190   4.205 -30.790  1.00  0.00     0.095 A 
HETATM    2  S   UNL     1      -6.843   4.490 -31.052  1.00  0.00    -0.073 SA
HETATM    3  C   UNL     1      -6.958   3.295 -32.252  1.00  0.00     0.027 A 
HETATM    4  C   UNL     1      -5.771   2.598 -32.386  1.00  0.00    -0.021 A 
HETATM    5  C   UNL     1      -5.640   1.453 -33.358  1.00  0.00     0.079 C 
HETATM    6  C   UNL     1      -7.007   0.847 -33.765  1.00  0.00     0.124 C 
HETATM    7  C   UNL     1      -7.577  -0.074 -32.680  1.00  0.00     0.046 C 
HETATM    8  C   UNL     1      -6.850   0.040 -35.066  1.00  0.00     0.046 C 
HETATM    9  N   UNL     1      -8.004   1.958 -34.077  1.00  0.00    -0.054 N 
HETATM   10  H   UNL     1      -7.660   2.427 -34.926  1.00  0.00     0.279 HD
HETATM   11  H   UNL     1      -8.911   1.555 -34.342  1.00  0.00     0.279 HD
HETATM   12  C   UNL     1      -8.226   3.062 -33.037  1.00  0.00     0.153 C 
HETATM   13  C   UNL     1      -8.615   4.314 -33.850  1.00  0.00     0.052 C 
HETATM   14  C   UNL     1      -9.412   2.654 -32.149  1.00  0.00     0.052 C 
HETATM   15  C   UNL     1      -4.712   3.138 -31.541  1.00  0.00     0.081 A 
ENDROOT
BRANCH   1  16
HETATM   16  N   UNL     1      -4.489   4.980 -29.877  1.00  0.00    -0.302 N 
HETATM   17  C   UNL     1      -3.905   6.210 -30.111  1.00  0.00     0.321 C 
HETATM   18  N   UNL     1      -3.340   6.703 -28.948  1.00  0.00    -0.343 N 
HETATM   19  O   UNL     1      -3.836   6.803 -31.179  1.00  0.00    -0.247 OA
HETATM   20  H   UNL     1      -3.812   6.447 -28.093  1.00  0.00     0.164 HD
HETATM   21  H   UNL     1      -4.190   4.514 -29.029  1.00  0.00     0.171 HD
BRANCH  18  22
HETATM   22  C   UNL     1      -2.678   7.996 -28.942  1.00  0.00     0.120 C 
HETATM   23  C   UNL     1      -1.170   7.874 -29.072  1.00  0.00     0.026 C 
ENDBRANCH  18  22
ENDBRANCH   1  16
BRANCH  15  24
HETATM   24  C   UNL     1      -3.326   2.643 -31.523  1.00  0.00     0.296 C 
HETATM   25  O   UNL     1      -3.051   1.481 -31.247  1.00  0.00    -0.259 OA
BRANCH  24  26
HETATM   26  O   UNL     1      -2.399   3.595 -31.838  1.00  0.00    -0.318 OA
BRANCH  26  27
HETATM   27  C   UNL     1      -2.458   4.109 -33.180  1.00  0.00     0.174 C 
HETATM   28  C   UNL     1      -1.467   5.245 -33.346  1.00  0.00     0.034 C 
ENDBRANCH  26  27
ENDBRANCH  24  26
ENDBRANCH  15  24
TORSDOF 5
ENDMDL
MODEL 6
REMARK VINA RESULT:      -6.4     16.566     18.624
REMARK  5 active torsions:
REMARK  status: ('A' for Active; 'I' for Inactive)
REMARK    1  A    between atoms: C_2  and  N_3 
REMARK       I    between atoms: N_3  and  C_4 
REMARK       I    between atoms: C_4  and  N_5 
REMARK    2  A    between atoms: N_5  and  C_6 
REMARK    3  A    between atoms: C_20  and  C_21 
REMARK    4  A    between atoms: C_21  and  O_22 
REMARK    5  A    between atoms: O_22  and  C_23 
ROOT
HETATM    1  C   UNL     1      -5.954 -12.877 -38.132  1.00  0.00     0.095 A 
HETATM    2  S   UNL     1      -4.607 -12.498 -39.093  1.00  0.00    -0.073 SA
HETATM    3  C   UNL     1      -3.543 -13.405 -38.131  1.00  0.00     0.027 A 
HETATM    4  C   UNL     1      -4.220 -14.091 -37.138  1.00  0.00    -0.021 A 
HETATM    5  C   UNL     1      -3.495 -15.005 -36.184  1.00  0.00     0.079 C 
HETATM    6  C   UNL     1      -2.119 -15.473 -36.722  1.00  0.00     0.124 C 
HETATM    7  C   UNL     1      -2.255 -16.587 -37.765  1.00  0.00     0.046 C 
HETATM    8  C   UNL     1      -1.254 -15.987 -35.558  1.00  0.00     0.046 C 
HETATM    9  N   UNL     1      -1.359 -14.293 -37.321  1.00  0.00    -0.054 N 
HETATM   10  H   UNL     1      -1.136 -13.664 -36.539  1.00  0.00     0.279 HD
HETATM   11  H   UNL     1      -0.450 -14.605 -37.683  1.00  0.00     0.279 HD
HETATM   12  C   UNL     1      -2.055 -13.431 -38.381  1.00  0.00     0.153 C 
HETATM   13  C   UNL     1      -1.441 -12.024 -38.227  1.00  0.00     0.052 C 
HETATM   14  C   UNL     1      -1.690 -13.986 -39.767  1.00  0.00     0.052 C 
HETATM   15  C   UNL     1      -5.643 -13.772 -37.115  1.00  0.00     0.081 A 
ENDROOT
BRANCH   1  16
HETATM   16  N   UNL     1      -7.195 -12.335 -38.433  1.00  0.00    -0.302 N 
HETATM   17  C   UNL     1      -8.079 -12.774 -39.400  1.00  0.00     0.321 C 
HETATM   18  N   UNL     1      -9.237 -12.019 -39.372  1.00  0.00    -0.343 N 
HETATM   19  O   UNL     1      -7.897 -13.671 -40.213  1.00  0.00    -0.247 OA
HETATM   20  H   UNL     1      -9.509 -11.674 -38.463  1.00  0.00     0.164 HD
HETATM   21  H   UNL     1      -7.381 -11.409 -38.066  1.00  0.00     0.171 HD
BRANCH  18  22
HETATM   22  C   UNL     1     -10.326 -12.305 -40.291  1.00  0.00     0.120 C 
HETATM   23  C   UNL     1     -11.127 -11.064 -40.642  1.00  0.00     0.026 C 
ENDBRANCH  18  22
ENDBRANCH   1  16
BRANCH  15  24
HETATM   24  C   UNL     1      -6.599 -14.298 -36.128  1.00  0.00     0.296 C 
HETATM   25  O   UNL     1      -6.889 -15.487 -36.067  1.00  0.00    -0.259 OA
BRANCH  24  26
HETATM   26  O   UNL     1      -7.119 -13.341 -35.304  1.00  0.00    -0.318 OA
BRANCH  26  27
HETATM   27  C   UNL     1      -6.851 -13.506 -33.900  1.00  0.00     0.174 C 
HETATM   28  C   UNL     1      -5.552 -12.816 -33.533  1.00  0.00     0.034 C 
ENDBRANCH  26  27
ENDBRANCH  24  26
ENDBRANCH  15  24
TORSDOF 5
ENDMDL
MODEL 7
REMARK VINA RESULT:      -6.3      3.203      7.279
REMARK  5 active torsions:
REMARK  status: ('A' for Active; 'I' for Inactive)
REMARK    1  A    between atoms: C_2  and  N_3 
REMARK       I    between atoms: N_3  and  C_4 
REMARK       I    between atoms: C_4  and  N_5 
REMARK    2  A    between atoms: N_5  and  C_6 
REMARK    3  A    between atoms: C_20  and  C_21 
REMARK    4  A    between atoms: C_21  and  O_22 
REMARK    5  A    between atoms: O_22  and  C_23 
ROOT
HETATM    1  C   UNL     1      -9.092   2.199 -32.402  1.00  0.00     0.095 A 
HETATM    2  S   UNL     1      -8.237   0.853 -31.818  1.00  0.00    -0.073 SA
HETATM    3  C   UNL     1      -6.725   1.532 -32.182  1.00  0.00     0.027 A 
HETATM    4  C   UNL     1      -6.852   2.828 -32.648  1.00  0.00    -0.021 A 
HETATM    5  C   UNL     1      -5.643   3.658 -32.994  1.00  0.00     0.079 C 
HETATM    6  C   UNL     1      -4.344   3.144 -32.324  1.00  0.00     0.124 C 
HETATM    7  C   UNL     1      -4.259   3.544 -30.847  1.00  0.00     0.046 C 
HETATM    8  C   UNL     1      -3.119   3.711 -33.062  1.00  0.00     0.046 C 
HETATM    9  N   UNL     1      -4.249   1.627 -32.455  1.00  0.00    -0.054 N 
HETATM   10  H   UNL     1      -4.125   1.429 -33.457  1.00  0.00     0.279 HD
HETATM   11  H   UNL     1      -3.391   1.286 -32.005  1.00  0.00     0.279 HD
HETATM   12  C   UNL     1      -5.435   0.772 -31.992  1.00  0.00     0.153 C 
HETATM   13  C   UNL     1      -5.396  -0.489 -32.880  1.00  0.00     0.052 C 
HETATM   14  C   UNL     1      -5.191   0.363 -30.532  1.00  0.00     0.052 C 
HETATM   15  C   UNL     1      -8.247   3.228 -32.801  1.00  0.00     0.081 A 
ENDROOT
BRANCH   1  16
HETATM   16  N   UNL     1     -10.478   2.193 -32.402  1.00  0.00    -0.302 N 
HETATM   17  C   UNL     1     -11.305   1.795 -33.436  1.00  0.00     0.321 C 
HETATM   18  N   UNL     1     -12.631   1.878 -33.051  1.00  0.00    -0.343 N 
HETATM   19  O   UNL     1     -10.965   1.447 -34.559  1.00  0.00    -0.247 OA
HETATM   20  H   UNL     1     -12.812   1.701 -32.074  1.00  0.00     0.164 HD
HETATM   21  H   UNL     1     -10.930   2.727 -31.670  1.00  0.00     0.171 HD
BRANCH  18  22
HETATM   22  C   UNL     1     -13.689   1.494 -33.969  1.00  0.00     0.120 C 
HETATM   23  C   UNL     1     -14.112   0.046 -33.791  1.00  0.00     0.026 C 
ENDBRANCH  18  22
ENDBRANCH   1  16
BRANCH  15  24
HETATM   24  C   UNL     1      -8.688   4.525 -33.339  1.00  0.00     0.296 C 
HETATM   25  O   UNL     1      -8.514   5.576 -32.735  1.00  0.00    -0.259 OA
BRANCH  24  26
HETATM   26  O   UNL     1      -9.299   4.434 -34.557  1.00  0.00    -0.318 OA
BRANCH  26  27
HETATM   27  C   UNL     1     -10.130   5.547 -34.929  1.00  0.00     0.174 C 
HETATM   28  C   UNL     1     -11.558   5.305 -34.480  1.00  0.00     0.034 C 
ENDBRANCH  26  27
ENDBRANCH  24  26
ENDBRANCH  15  24
TORSDOF 5
ENDMDL
MODEL 8
REMARK VINA RESULT:      -6.3      3.640      6.969
REMARK  5 active torsions:
REMARK  status: ('A' for Active; 'I' for Inactive)
REMARK    1  A    between atoms: C_2  and  N_3 
REMARK       I    between atoms: N_3  and  C_4 
REMARK       I    between atoms: C_4  and  N_5 
REMARK    2  A    between atoms: N_5  and  C_6 
REMARK    3  A    between atoms: C_20  and  C_21 
REMARK    4  A    between atoms: C_21  and  O_22 
REMARK    5  A    between atoms: O_22  and  C_23 
ROOT
HETATM    1  C   UNL     1      -6.275   0.892 -32.648  1.00  0.00     0.095 A 
HETATM    2  S   UNL     1      -5.084   2.101 -32.615  1.00  0.00    -0.073 SA
HETATM    3  C   UNL     1      -6.207   3.336 -32.308  1.00  0.00     0.027 A 
HETATM    4  C   UNL     1      -7.479   2.827 -32.121  1.00  0.00    -0.021 A 
HETATM    5  C   UNL     1      -8.642   3.726 -31.787  1.00  0.00     0.079 C 
HETATM    6  C   UNL     1      -8.201   5.091 -31.198  1.00  0.00     0.124 C 
HETATM    7  C   UNL     1      -7.798   4.980 -29.723  1.00  0.00     0.046 C 
HETATM    8  C   UNL     1      -9.351   6.105 -31.322  1.00  0.00     0.046 C 
HETATM    9  N   UNL     1      -7.044   5.665 -32.009  1.00  0.00    -0.054 N 
HETATM   10  H   UNL     1      -7.424   5.889 -32.938  1.00  0.00     0.279 HD
HETATM   11  H   UNL     1      -6.749   6.566 -31.615  1.00  0.00     0.279 HD
HETATM   12  C   UNL     1      -5.807   4.791 -32.250  1.00  0.00     0.153 C 
HETATM   13  C   UNL     1      -5.233   5.264 -33.601  1.00  0.00     0.052 C 
HETATM   14  C   UNL     1      -4.786   5.087 -31.141  1.00  0.00     0.052 C 
HETATM   15  C   UNL     1      -7.537   1.386 -32.338  1.00  0.00     0.081 A 
ENDROOT
BRANCH   1  16
HETATM   16  N   UNL     1      -5.924  -0.420 -32.925  1.00  0.00    -0.302 N 
HETATM   17  C   UNL     1      -6.032  -1.068 -34.141  1.00  0.00     0.321 C 
HETATM   18  N   UNL     1      -5.534  -2.355 -34.047  1.00  0.00    -0.343 N 
HETATM   19  O   UNL     1      -6.525  -0.626 -35.171  1.00  0.00    -0.247 OA
HETATM   20  H   UNL     1      -4.769  -2.478 -33.399  1.00  0.00     0.164 HD
HETATM   21  H   UNL     1      -5.780  -1.025 -32.126  1.00  0.00     0.171 HD
BRANCH  18  22
HETATM   22  C   UNL     1      -5.525  -3.228 -35.208  1.00  0.00     0.120 C 
HETATM   23  C   UNL     1      -6.475  -4.404 -35.053  1.00  0.00     0.026 C 
ENDBRANCH  18  22
ENDBRANCH   1  16
BRANCH  15  24
HETATM   24  C   UNL     1      -8.769   0.582 -32.274  1.00  0.00     0.296 C 
HETATM   25  O   UNL     1      -9.301   0.285 -31.211  1.00  0.00    -0.259 OA
BRANCH  24  26
HETATM   26  O   UNL     1      -9.245   0.210 -33.499  1.00  0.00    -0.318 OA
BRANCH  26  27
HETATM   27  C   UNL     1      -9.977   1.216 -34.220  1.00  0.00     0.174 C 
HETATM   28  C   UNL     1     -11.435   1.199 -33.804  1.00  0.00     0.034 C 
ENDBRANCH  26  27
ENDBRANCH  24  26
ENDBRANCH  15  24
TORSDOF 5
ENDMDL
MODEL 9
REMARK VINA RESULT:      -6.3      3.015      4.389
REMARK  5 active torsions:
REMARK  status: ('A' for Active; 'I' for Inactive)
REMARK    1  A    between atoms: C_2  and  N_3 
REMARK       I    between atoms: N_3  and  C_4 
REMARK       I    between atoms: C_4  and  N_5 
REMARK    2  A    between atoms: N_5  and  C_6 
REMARK    3  A    between atoms: C_20  and  C_21 
REMARK    4  A    between atoms: C_21  and  O_22 
REMARK    5  A    between atoms: O_22  and  C_23 
ROOT
HETATM    1  C   UNL     1      -3.082   6.737 -30.229  1.00  0.00     0.095 A 
HETATM    2  S   UNL     1      -4.700   6.703 -29.717  1.00  0.00    -0.073 SA
HETATM    3  C   UNL     1      -5.079   5.356 -30.678  1.00  0.00     0.027 A 
HETATM    4  C   UNL     1      -3.955   4.855 -31.310  1.00  0.00    -0.021 A 
HETATM    5  C   UNL     1      -4.028   3.629 -32.183  1.00  0.00     0.079 C 
HETATM    6  C   UNL     1      -5.273   2.753 -31.892  1.00  0.00     0.124 C 
HETATM    7  C   UNL     1      -5.100   1.904 -30.628  1.00  0.00     0.046 C 
HETATM    8  C   UNL     1      -5.539   1.817 -33.084  1.00  0.00     0.046 C 
HETATM    9  N   UNL     1      -6.515   3.630 -31.761  1.00  0.00    -0.054 N 
HETATM   10  H   UNL     1      -6.686   4.032 -32.692  1.00  0.00     0.279 HD
HETATM   11  H   UNL     1      -7.338   3.050 -31.563  1.00  0.00     0.279 HD
HETATM   12  C   UNL     1      -6.482   4.811 -30.783  1.00  0.00     0.153 C 
HETATM   13  C   UNL     1      -7.442   5.859 -31.381  1.00  0.00     0.052 C 
HETATM   14  C   UNL     1      -7.041   4.333 -29.434  1.00  0.00     0.052 C 
HETATM   15  C   UNL     1      -2.772   5.673 -31.069  1.00  0.00     0.081 A 
ENDROOT
BRANCH   1  16
HETATM   16  N   UNL     1      -2.232   7.733 -29.774  1.00  0.00    -0.302 N 
HETATM   17  C   UNL     1      -1.483   7.716 -28.612  1.00  0.00     0.321 C 
HETATM   18  N   UNL     1      -0.714   8.862 -28.518  1.00  0.00    -0.343 N 
HETATM   19  O   UNL     1      -1.492   6.855 -27.742  1.00  0.00    -0.247 OA
HETATM   20  H   UNL     1      -0.397   9.246 -29.397  1.00  0.00     0.164 HD
HETATM   21  H   UNL     1      -2.328   8.641 -30.212  1.00  0.00     0.171 HD
BRANCH  18  22
HETATM   22  C   UNL     1       0.173   9.063 -27.385  1.00  0.00     0.120 C 
HETATM   23  C   UNL     1       1.609   8.680 -27.700  1.00  0.00     0.026 C 
ENDBRANCH  18  22
ENDBRANCH   1  16
BRANCH  15  24
HETATM   24  C   UNL     1      -1.449   5.424 -31.666  1.00  0.00     0.296 C 
HETATM   25  O   UNL     1      -0.795   4.421 -31.408  1.00  0.00    -0.259 OA
BRANCH  24  26
HETATM   26  O   UNL     1      -1.039   6.408 -32.519  1.00  0.00    -0.318 OA
BRANCH  26  27
HETATM   27  C   UNL     1      -1.776   6.523 -33.749  1.00  0.00     0.174 C 
HETATM   28  C   UNL     1      -1.396   5.398 -34.692  1.00  0.00     0.034 C 
ENDBRANCH  26  27
ENDBRANCH  24  26
ENDBRANCH  15  24
TORSDOF 5
ENDMDL
MODEL 10
REMARK VINA RESULT:      -6.3     17.058     18.256
REMARK  5 active torsions:
REMARK  status: ('A' for Active; 'I' for Inactive)
REMARK    1  A    between atoms: C_2  and  N_3 
REMARK       I    between atoms: N_3  and  C_4 
REMARK       I    between atoms: C_4  and  N_5 
REMARK    2  A    between atoms: N_5  and  C_6 
REMARK    3  A    between atoms: C_20  and  C_21 
REMARK    4  A    between atoms: C_21  and  O_22 
REMARK    5  A    between atoms: O_22  and  C_23 
ROOT
HETATM    1  C   UNL     1      -2.909 -14.117 -36.259  1.00  0.00     0.095 A 
HETATM    2  S   UNL     1      -4.432 -14.780 -35.909  1.00  0.00    -0.073 SA
HETATM    3  C   UNL     1      -5.179 -14.010 -37.224  1.00  0.00     0.027 A 
HETATM    4  C   UNL     1      -4.257 -13.332 -38.002  1.00  0.00    -0.021 A 
HETATM    5  C   UNL     1      -4.673 -12.607 -39.256  1.00  0.00     0.079 C 
HETATM    6  C   UNL     1      -6.026 -13.107 -39.823  1.00  0.00     0.124 C 
HETATM    7  C   UNL     1      -5.882 -14.433 -40.577  1.00  0.00     0.046 C 
HETATM    8  C   UNL     1      -6.608 -12.053 -40.781  1.00  0.00     0.046 C 
HETATM    9  N   UNL     1      -7.044 -13.260 -38.697  1.00  0.00    -0.054 N 
HETATM   10  H   UNL     1      -7.238 -12.311 -38.350  1.00  0.00     0.279 HD
HETATM   11  H   UNL     1      -7.939 -13.597 -39.073  1.00  0.00     0.279 HD
HETATM   12  C   UNL     1      -6.665 -14.097 -37.470  1.00  0.00     0.153 C 
HETATM   13  C   UNL     1      -7.459 -13.483 -36.299  1.00  0.00     0.052 C 
HETATM   14  C   UNL     1      -7.150 -15.537 -37.702  1.00  0.00     0.052 C 
HETATM   15  C   UNL     1      -2.915 -13.371 -37.432  1.00  0.00     0.081 A 
ENDROOT
BRANCH   1  16
HETATM   16  N   UNL     1      -1.831 -14.380 -35.428  1.00  0.00    -0.302 N 
HETATM   17  C   UNL     1      -1.100 -15.552 -35.364  1.00  0.00     0.321 C 
HETATM   18  N   UNL     1      -0.066 -15.425 -34.455  1.00  0.00    -0.343 N 
HETATM   19  O   UNL     1      -1.318 -16.591 -35.974  1.00  0.00    -0.247 OA
HETATM   20  H   UNL     1       0.330 -14.500 -34.372  1.00  0.00     0.164 HD
HETATM   21  H   UNL     1      -1.699 -13.747 -34.649  1.00  0.00     0.171 HD
BRANCH  18  22
HETATM   22  C   UNL     1       0.853 -16.527 -34.227  1.00  0.00     0.120 C 
HETATM   23  C   UNL     1       2.080 -16.450 -35.119  1.00  0.00     0.026 C 
ENDBRANCH  18  22
ENDBRANCH   1  16
BRANCH  15  24
HETATM   24  C   UNL     1      -1.746 -12.682 -38.003  1.00  0.00     0.296 C 
HETATM   25  O   UNL     1      -1.750 -11.482 -38.247  1.00  0.00    -0.259 OA
BRANCH  24  26
HETATM   26  O   UNL     1      -0.681 -13.506 -38.229  1.00  0.00    -0.318 OA
BRANCH  26  27
HETATM   27  C   UNL     1      -0.870 -14.519 -39.231  1.00  0.00     0.174 C 
HETATM   28  C   UNL     1      -0.811 -13.902 -40.615  1.00  0.00     0.034 C 
ENDBRANCH  26  27
ENDBRANCH  24  26
ENDBRANCH  15  24
TORSDOF 5
ENDMDL
