MODEL 1
REMARK VINA RESULT:      -7.9      0.000      0.000
REMARK  6 active torsions:
REMARK  status: ('A' for Active; 'I' for Inactive)
REMARK    1  A    between atoms: C_2  and  N_3 
REMARK    2  A    between atoms: C_2  and  C_11 
REMARK       I    between atoms: N_3  and  C_4 
REMARK    3  A    between atoms: C_4  and  C_5 
REMARK    4  A    between atoms: C_14  and  O_15 
REMARK    5  A    between atoms: O_15  and  C_16 
REMARK    6  A    between atoms: C_16  and  C_17 
ROOT
HETATM    1  C   UNL     1      -5.635   3.563 -33.063  1.00  0.00    -0.036 A 
HETATM    2  C   UNL     1      -4.860   3.055 -32.011  1.00  0.00     0.012 A 
HETATM    3  C   UNL     1      -4.710   1.674 -31.827  1.00  0.00     0.037 A 
HETATM    4  C   UNL     1      -5.344   0.781 -32.688  1.00  0.00     0.069 A 
HETATM    5  C   UNL     1      -6.108   1.277 -33.745  1.00  0.00     0.037 A 
HETATM    6  C   UNL     1      -6.261   2.653 -33.928  1.00  0.00     0.012 A 
ENDROOT
BRANCH   1   7
HETATM    7  C   UNL     1      -5.817   5.063 -33.223  1.00  0.00     0.113 C 
HETATM    8  C   UNL     1      -6.690   5.653 -32.111  1.00  0.00     0.037 C 
BRANCH   7   9
HETATM    9  N   UNL     1      -4.509   5.698 -33.285  1.00  0.00    -0.352 N 
HETATM   10  C   UNL     1      -3.752   5.703 -34.427  1.00  0.00     0.225 C 
HETATM   11  O   UNL     1      -4.107   5.243 -35.503  1.00  0.00    -0.273 OA
HETATM   12  H   UNL     1      -4.106   6.032 -32.419  1.00  0.00     0.163 HD
BRANCH  10  13
HETATM   13  C   UNL     1      -2.425   6.336 -34.266  1.00  0.00     0.119 A 
HETATM   14  C   UNL     1      -1.448   5.805 -33.252  1.00  0.00     0.126 A 
HETATM   15 CL   UNL     1      -0.474   6.987 -32.374  1.00  0.00    -0.101 Cl
HETATM   16 CL   UNL     1      -1.820   4.379 -32.297  1.00  0.00    -0.101 Cl
HETATM   17  C   UNL     1      -1.169   5.623 -34.714  1.00  0.00     0.060 A 
ENDBRANCH  10  13
ENDBRANCH   7   9
ENDBRANCH   1   7
BRANCH   4  18
HETATM   18  O   UNL     1      -5.290  -0.583 -32.615  1.00  0.00    -0.347 OA
BRANCH  18  19
HETATM   19  C   UNL     1      -4.374  -1.239 -33.491  1.00  0.00     0.215 C 
BRANCH  19  20
HETATM   20  C   UNL     1      -4.976  -2.522 -34.001  1.00  0.00    -0.017 A 
HETATM   21  C   UNL     1      -4.261  -3.717 -34.008  1.00  0.00     0.125 A 
HETATM   22  N   UNL     1      -4.731  -4.885 -34.504  1.00  0.00    -0.272 NA
HETATM   23  C   UNL     1      -5.974  -4.865 -35.029  1.00  0.00     0.116 A 
HETATM   24  C   UNL     1      -6.765  -3.729 -35.085  1.00  0.00     0.020 A 
HETATM   25  C   UNL     1      -6.254  -2.542 -34.569  1.00  0.00     0.012 A 
ENDBRANCH  19  20
ENDBRANCH  18  19
ENDBRANCH   4  18
TORSDOF 6
ENDMDL
MODEL 2
REMARK VINA RESULT:      -7.6      1.980      2.266
REMARK  6 active torsions:
REMARK  status: ('A' for Active; 'I' for Inactive)
REMARK    1  A    between atoms: C_2  and  N_3 
REMARK    2  A    between atoms: C_2  and  C_11 
REMARK       I    between atoms: N_3  and  C_4 
REMARK    3  A    between atoms: C_4  and  C_5 
REMARK    4  A    between atoms: C_14  and  O_15 
REMARK    5  A    between atoms: O_15  and  C_16 
REMARK    6  A    between atoms: C_16  and  C_17 
ROOT
HETATM    1  C   UNL     1      -4.985   3.421 -31.346  1.00  0.00    -0.036 A 
HETATM    2  C   UNL     1      -6.155   2.809 -31.818  1.00  0.00     0.012 A 
HETATM    3  C   UNL     1      -6.103   1.593 -32.513  1.00  0.00     0.037 A 
HETATM    4  C   UNL     1      -4.877   0.979 -32.756  1.00  0.00     0.069 A 
HETATM    5  C   UNL     1      -3.708   1.574 -32.280  1.00  0.00     0.037 A 
HETATM    6  C   UNL     1      -3.757   2.786 -31.589  1.00  0.00     0.012 A 
ENDROOT
BRANCH   1   7
HETATM    7  C   UNL     1      -5.058   4.757 -30.628  1.00  0.00     0.113 C 
HETATM    8  C   UNL     1      -5.760   4.637 -29.270  1.00  0.00     0.037 C 
BRANCH   7   9
HETATM    9  N   UNL     1      -3.717   5.307 -30.501  1.00  0.00    -0.352 N 
HETATM   10  C   UNL     1      -3.351   6.484 -31.101  1.00  0.00     0.225 C 
HETATM   11  O   UNL     1      -4.102   7.209 -31.736  1.00  0.00    -0.273 OA
HETATM   12  H   UNL     1      -3.012   4.731 -30.062  1.00  0.00     0.163 HD
BRANCH  10  13
HETATM   13  C   UNL     1      -1.926   6.835 -30.914  1.00  0.00     0.119 A 
HETATM   14  C   UNL     1      -0.863   6.171 -31.748  1.00  0.00     0.126 A 
HETATM   15 CL   UNL     1       0.660   5.777 -30.949  1.00  0.00    -0.101 Cl
HETATM   16 CL   UNL     1      -1.288   5.032 -33.015  1.00  0.00    -0.101 Cl
HETATM   17  C   UNL     1      -1.179   7.621 -31.968  1.00  0.00     0.060 A 
ENDBRANCH  10  13
ENDBRANCH   7   9
ENDBRANCH   1   7
BRANCH   4  18
HETATM   18  O   UNL     1      -4.685  -0.197 -33.427  1.00  0.00    -0.347 OA
BRANCH  18  19
HETATM   19  C   UNL     1      -5.822  -0.757 -34.084  1.00  0.00     0.215 C 
BRANCH  19  20
HETATM   20  C   UNL     1      -5.653  -2.246 -34.231  1.00  0.00    -0.017 A 
HETATM   21  C   UNL     1      -4.426  -2.870 -34.019  1.00  0.00     0.125 A 
HETATM   22  N   UNL     1      -4.202  -4.194 -34.190  1.00  0.00    -0.272 NA
HETATM   23  C   UNL     1      -5.251  -4.937 -34.600  1.00  0.00     0.116 A 
HETATM   24  C   UNL     1      -6.509  -4.417 -34.853  1.00  0.00     0.020 A 
HETATM   25  C   UNL     1      -6.708  -3.052 -34.671  1.00  0.00     0.012 A 
ENDBRANCH  19  20
ENDBRANCH  18  19
ENDBRANCH   4  18
TORSDOF 6
ENDMDL
MODEL 3
REMARK VINA RESULT:      -7.4      5.658      7.203
REMARK  6 active torsions:
REMARK  status: ('A' for Active; 'I' for Inactive)
REMARK    1  A    between atoms: C_2  and  N_3 
REMARK    2  A    between atoms: C_2  and  C_11 
REMARK       I    between atoms: N_3  and  C_4 
REMARK    3  A    between atoms: C_4  and  C_5 
REMARK    4  A    between atoms: C_14  and  O_15 
REMARK    5  A    between atoms: O_15  and  C_16 
REMARK    6  A    between atoms: C_16  and  C_17 
ROOT
HETATM    1  C   UNL     1     -10.988   0.757 -33.680  1.00  0.00    -0.036 A 
HETATM    2  C   UNL     1     -10.089   1.535 -34.423  1.00  0.00     0.012 A 
HETATM    3  C   UNL     1      -8.708   1.438 -34.214  1.00  0.00     0.037 A 
HETATM    4  C   UNL     1      -8.206   0.569 -33.248  1.00  0.00     0.069 A 
HETATM    5  C   UNL     1      -9.091  -0.219 -32.512  1.00  0.00     0.037 A 
HETATM    6  C   UNL     1     -10.469  -0.122 -32.717  1.00  0.00     0.012 A 
ENDROOT
BRANCH   1   7
HETATM    7  C   UNL     1     -12.485   0.904 -33.895  1.00  0.00     0.113 C 
HETATM    8  C   UNL     1     -13.235  -0.397 -33.590  1.00  0.00     0.037 C 
BRANCH   7   9
HETATM    9  N   UNL     1     -12.975   2.017 -33.096  1.00  0.00    -0.352 N 
HETATM   10  C   UNL     1     -13.188   3.261 -33.629  1.00  0.00     0.225 C 
HETATM   11  O   UNL     1     -13.053   3.549 -34.810  1.00  0.00    -0.273 OA
HETATM   12  H   UNL     1     -13.036   1.887 -32.095  1.00  0.00     0.163 HD
BRANCH  10  13
HETATM   13  C   UNL     1     -13.618   4.274 -32.640  1.00  0.00     0.119 A 
HETATM   14  C   UNL     1     -12.735   4.616 -31.470  1.00  0.00     0.126 A 
HETATM   15 CL   UNL     1     -13.528   4.923 -29.924  1.00  0.00    -0.101 Cl
HETATM   16 CL   UNL     1     -11.146   3.891 -31.294  1.00  0.00    -0.101 Cl
HETATM   17  C   UNL     1     -12.935   5.620 -32.566  1.00  0.00     0.060 A 
ENDBRANCH  10  13
ENDBRANCH   7   9
ENDBRANCH   1   7
BRANCH   4  18
HETATM   18  O   UNL     1      -6.887   0.386 -32.938  1.00  0.00    -0.347 OA
BRANCH  18  19
HETATM   19  C   UNL     1      -5.996   0.142 -34.026  1.00  0.00     0.215 C 
BRANCH  19  20
HETATM   20  C   UNL     1      -5.770  -1.339 -34.187  1.00  0.00    -0.017 A 
HETATM   21  C   UNL     1      -4.537  -1.927 -33.917  1.00  0.00     0.125 A 
HETATM   22  N   UNL     1      -4.261  -3.239 -34.096  1.00  0.00    -0.272 NA
HETATM   23  C   UNL     1      -5.261  -4.009 -34.575  1.00  0.00     0.116 A 
HETATM   24  C   UNL     1      -6.519  -3.525 -34.890  1.00  0.00     0.020 A 
HETATM   25  C   UNL     1      -6.773  -2.169 -34.697  1.00  0.00     0.012 A 
ENDBRANCH  19  20
ENDBRANCH  18  19
ENDBRANCH   4  18
TORSDOF 6
ENDMDL
MODEL 4
REMARK VINA RESULT:      -7.4      3.639      8.551
REMARK  6 active torsions:
REMARK  status: ('A' for Active; 'I' for Inactive)
REMARK    1  A    between atoms: C_2  and  N_3 
REMARK    2  A    between atoms: C_2  and  C_11 
REMARK       I    between atoms: N_3  and  C_4 
REMARK    3  A    between atoms: C_4  and  C_5 
REMARK    4  A    between atoms: C_14  and  O_15 
REMARK    5  A    between atoms: O_15  and  C_16 
REMARK    6  A    between atoms: C_16  and  C_17 
ROOT
HETATM    1  C   UNL     1      -4.798   3.744 -33.111  1.00  0.00    -0.036 A 
HETATM    2  C   UNL     1      -3.643   3.356 -32.416  1.00  0.00     0.012 A 
HETATM    3  C   UNL     1      -2.416   3.990 -32.646  1.00  0.00     0.037 A 
HETATM    4  C   UNL     1      -2.323   5.014 -33.586  1.00  0.00     0.069 A 
HETATM    5  C   UNL     1      -3.468   5.415 -34.275  1.00  0.00     0.037 A 
HETATM    6  C   UNL     1      -4.693   4.783 -34.047  1.00  0.00     0.012 A 
ENDROOT
BRANCH   1   7
HETATM    7  C   UNL     1      -6.111   3.019 -32.874  1.00  0.00     0.113 C 
HETATM    8  C   UNL     1      -7.256   3.633 -33.687  1.00  0.00     0.037 C 
BRANCH   7   9
HETATM    9  N   UNL     1      -5.935   1.604 -33.164  1.00  0.00    -0.352 N 
HETATM   10  C   UNL     1      -6.593   0.627 -32.462  1.00  0.00     0.225 C 
HETATM   11  O   UNL     1      -7.421   0.832 -31.586  1.00  0.00    -0.273 OA
HETATM   12  H   UNL     1      -5.210   1.344 -33.818  1.00  0.00     0.163 HD
BRANCH  10  13
HETATM   13  C   UNL     1      -6.225  -0.749 -32.859  1.00  0.00     0.119 A 
HETATM   14  C   UNL     1      -6.629  -1.285 -34.207  1.00  0.00     0.126 A 
HETATM   15 CL   UNL     1      -7.120  -2.978 -34.288  1.00  0.00    -0.101 Cl
HETATM   16 CL   UNL     1      -7.468  -0.270 -35.369  1.00  0.00    -0.101 Cl
HETATM   17  C   UNL     1      -5.184  -0.993 -33.928  1.00  0.00     0.060 A 
ENDBRANCH  10  13
ENDBRANCH   7   9
ENDBRANCH   1   7
BRANCH   4  18
HETATM   18  O   UNL     1      -1.190   5.705 -33.914  1.00  0.00    -0.347 OA
BRANCH  18  19
HETATM   19  C   UNL     1      -1.167   7.095 -33.590  1.00  0.00     0.215 C 
BRANCH  19  20
HETATM   20  C   UNL     1      -0.978   7.278 -32.107  1.00  0.00    -0.017 A 
HETATM   21  C   UNL     1      -1.870   8.022 -31.339  1.00  0.00     0.125 A 
HETATM   22  N   UNL     1      -1.721   8.265 -30.016  1.00  0.00    -0.272 NA
HETATM   23  C   UNL     1      -0.624   7.747 -29.425  1.00  0.00     0.116 A 
HETATM   24  C   UNL     1       0.332   7.005 -30.096  1.00  0.00     0.020 A 
HETATM   25  C   UNL     1       0.153   6.773 -31.458  1.00  0.00     0.012 A 
ENDBRANCH  19  20
ENDBRANCH  18  19
ENDBRANCH   4  18
TORSDOF 6
ENDMDL
MODEL 5
REMARK VINA RESULT:      -7.4      2.605      3.637
REMARK  6 active torsions:
REMARK  status: ('A' for Active; 'I' for Inactive)
REMARK    1  A    between atoms: C_2  and  N_3 
REMARK    2  A    between atoms: C_2  and  C_11 
REMARK       I    between atoms: N_3  and  C_4 
REMARK    3  A    between atoms: C_4  and  C_5 
REMARK    4  A    between atoms: C_14  and  O_15 
REMARK    5  A    between atoms: O_15  and  C_16 
REMARK    6  A    between atoms: C_16  and  C_17 
ROOT
HETATM    1  C   UNL     1      -3.064   3.960 -32.822  1.00  0.00    -0.036 A 
HETATM    2  C   UNL     1      -4.305   4.050 -33.469  1.00  0.00     0.012 A 
HETATM    3  C   UNL     1      -5.426   3.368 -32.978  1.00  0.00     0.037 A 
HETATM    4  C   UNL     1      -5.318   2.574 -31.838  1.00  0.00     0.069 A 
HETATM    5  C   UNL     1      -4.091   2.487 -31.180  1.00  0.00     0.037 A 
HETATM    6  C   UNL     1      -2.972   3.165 -31.669  1.00  0.00     0.012 A 
ENDROOT
BRANCH   1   7
HETATM    7  C   UNL     1      -1.852   4.677 -33.391  1.00  0.00     0.113 C 
HETATM    8  C   UNL     1      -2.053   5.056 -34.862  1.00  0.00     0.037 C 
BRANCH   7   9
HETATM    9  N   UNL     1      -1.551   5.836 -32.565  1.00  0.00    -0.352 N 
HETATM   10  C   UNL     1      -0.563   5.820 -31.615  1.00  0.00     0.225 C 
HETATM   11  O   UNL     1       0.191   4.880 -31.406  1.00  0.00    -0.273 OA
HETATM   12  H   UNL     1      -2.179   6.627 -32.617  1.00  0.00     0.163 HD
BRANCH  10  13
HETATM   13  C   UNL     1      -0.461   7.071 -30.832  1.00  0.00     0.119 A 
HETATM   14  C   UNL     1      -1.623   7.542 -29.999  1.00  0.00     0.126 A 
HETATM   15 CL   UNL     1      -1.927   9.280 -29.949  1.00  0.00    -0.101 Cl
HETATM   16 CL   UNL     1      -3.089   6.585 -29.867  1.00  0.00    -0.101 Cl
HETATM   17  C   UNL     1      -0.384   7.033 -29.323  1.00  0.00     0.060 A 
ENDBRANCH  10  13
ENDBRANCH   7   9
ENDBRANCH   1   7
BRANCH   4  18
HETATM   18  O   UNL     1      -6.325   1.851 -31.263  1.00  0.00    -0.347 OA
BRANCH  18  19
HETATM   19  C   UNL     1      -6.038   0.492 -30.936  1.00  0.00     0.215 C 
BRANCH  19  20
HETATM   20  C   UNL     1      -6.047  -0.353 -32.183  1.00  0.00    -0.017 A 
HETATM   21  C   UNL     1      -4.921  -1.057 -32.601  1.00  0.00     0.125 A 
HETATM   22  N   UNL     1      -4.856  -1.786 -33.739  1.00  0.00    -0.272 NA
HETATM   23  C   UNL     1      -5.965  -1.812 -34.507  1.00  0.00     0.116 A 
HETATM   24  C   UNL     1      -7.132  -1.138 -34.193  1.00  0.00     0.020 A 
HETATM   25  C   UNL     1      -7.169  -0.394 -33.016  1.00  0.00     0.012 A 
ENDBRANCH  19  20
ENDBRANCH  18  19
ENDBRANCH   4  18
TORSDOF 6
ENDMDL
MODEL 6
REMARK VINA RESULT:      -7.3      5.581      7.937
REMARK  6 active torsions:
REMARK  status: ('A' for Active; 'I' for Inactive)
REMARK    1  A    between atoms: C_2  and  N_3 
REMARK    2  A    between atoms: C_2  and  C_11 
REMARK       I    between atoms: N_3  and  C_4 
REMARK    3  A    between atoms: C_4  and  C_5 
REMARK    4  A    between atoms: C_14  and  O_15 
REMARK    5  A    between atoms: O_15  and  C_16 
REMARK    6  A    between atoms: C_16  and  C_17 
ROOT
HETATM    1  C   UNL     1      -7.147   1.238 -31.898  1.00  0.00    -0.036 A 
HETATM    2  C   UNL     1      -7.106   2.577 -32.314  1.00  0.00     0.012 A 
HETATM    3  C   UNL     1      -8.260   3.226 -32.771  1.00  0.00     0.037 A 
HETATM    4  C   UNL     1      -9.471   2.539 -32.831  1.00  0.00     0.069 A 
HETATM    5  C   UNL     1      -9.525   1.211 -32.409  1.00  0.00     0.037 A 
HETATM    6  C   UNL     1      -8.375   0.562 -31.954  1.00  0.00     0.012 A 
ENDROOT
BRANCH   1   7
HETATM    7  C   UNL     1      -5.877   0.541 -31.441  1.00  0.00     0.113 C 
HETATM    8  C   UNL     1      -5.812   0.419 -29.915  1.00  0.00     0.037 C 
BRANCH   7   9
HETATM    9  N   UNL     1      -5.780  -0.754 -32.097  1.00  0.00    -0.352 N 
HETATM   10  C   UNL     1      -4.750  -1.067 -32.946  1.00  0.00     0.225 C 
HETATM   11  O   UNL     1      -3.798  -0.340 -33.190  1.00  0.00    -0.273 OA
HETATM   12  H   UNL     1      -6.566  -1.384 -32.013  1.00  0.00     0.163 HD
BRANCH  10  13
HETATM   13  C   UNL     1      -4.870  -2.405 -33.567  1.00  0.00     0.119 A 
HETATM   14  C   UNL     1      -5.961  -2.683 -34.566  1.00  0.00     0.126 A 
HETATM   15 CL   UNL     1      -6.721  -4.275 -34.507  1.00  0.00    -0.101 Cl
HETATM   16 CL   UNL     1      -7.061  -1.416 -35.081  1.00  0.00    -0.101 Cl
HETATM   17  C   UNL     1      -4.535  -2.611 -35.027  1.00  0.00     0.060 A 
ENDBRANCH  10  13
ENDBRANCH   7   9
ENDBRANCH   1   7
BRANCH   4  18
HETATM   18  O   UNL     1     -10.663   3.048 -33.265  1.00  0.00    -0.347 OA
BRANCH  18  19
HETATM   19  C   UNL     1     -11.323   2.340 -34.314  1.00  0.00     0.215 C 
BRANCH  19  20
HETATM   20  C   UNL     1     -12.756   2.072 -33.935  1.00  0.00    -0.017 A 
HETATM   21  C   UNL     1     -13.383   2.760 -32.899  1.00  0.00     0.125 A 
HETATM   22  N   UNL     1     -14.648   2.523 -32.480  1.00  0.00    -0.272 NA
HETATM   23  C   UNL     1     -15.324   1.546 -33.119  1.00  0.00     0.116 A 
HETATM   24  C   UNL     1     -14.793   0.792 -34.151  1.00  0.00     0.020 A 
HETATM   25  C   UNL     1     -13.488   1.057 -34.559  1.00  0.00     0.012 A 
ENDBRANCH  19  20
ENDBRANCH  18  19
ENDBRANCH   4  18
TORSDOF 6
ENDMDL
MODEL 7
REMARK VINA RESULT:      -7.3      3.257      7.861
REMARK  6 active torsions:
REMARK  status: ('A' for Active; 'I' for Inactive)
REMARK    1  A    between atoms: C_2  and  N_3 
REMARK    2  A    between atoms: C_2  and  C_11 
REMARK       I    between atoms: N_3  and  C_4 
REMARK    3  A    between atoms: C_4  and  C_5 
REMARK    4  A    between atoms: C_14  and  O_15 
REMARK    5  A    between atoms: O_15  and  C_16 
REMARK    6  A    between atoms: C_16  and  C_17 
ROOT
HETATM    1  C   UNL     1      -6.760   2.533 -32.360  1.00  0.00    -0.036 A 
HETATM    2  C   UNL     1      -6.133   3.535 -31.605  1.00  0.00     0.012 A 
HETATM    3  C   UNL     1      -5.446   4.585 -32.228  1.00  0.00     0.037 A 
HETATM    4  C   UNL     1      -5.366   4.640 -33.618  1.00  0.00     0.069 A 
HETATM    5  C   UNL     1      -5.996   3.654 -34.378  1.00  0.00     0.037 A 
HETATM    6  C   UNL     1      -6.680   2.606 -33.759  1.00  0.00     0.012 A 
ENDROOT
BRANCH   1   7
HETATM    7  C   UNL     1      -7.468   1.384 -31.664  1.00  0.00     0.113 C 
HETATM    8  C   UNL     1      -8.990   1.565 -31.669  1.00  0.00     0.037 C 
BRANCH   7   9
HETATM    9  N   UNL     1      -7.067   0.130 -32.284  1.00  0.00    -0.352 N 
HETATM   10  C   UNL     1      -5.816  -0.404 -32.109  1.00  0.00     0.225 C 
HETATM   11  O   UNL     1      -4.949   0.066 -31.387  1.00  0.00    -0.273 OA
HETATM   12  H   UNL     1      -7.694  -0.283 -32.961  1.00  0.00     0.163 HD
BRANCH  10  13
HETATM   13  C   UNL     1      -5.580  -1.645 -32.880  1.00  0.00     0.119 A 
HETATM   14  C   UNL     1      -6.044  -1.753 -34.308  1.00  0.00     0.126 A 
HETATM   15 CL   UNL     1      -6.689  -3.310 -34.830  1.00  0.00    -0.101 Cl
HETATM   16 CL   UNL     1      -6.798  -0.390 -35.119  1.00  0.00    -0.101 Cl
HETATM   17  C   UNL     1      -4.576  -1.673 -34.010  1.00  0.00     0.060 A 
ENDBRANCH  10  13
ENDBRANCH   7   9
ENDBRANCH   1   7
BRANCH   4  18
HETATM   18  O   UNL     1      -4.721   5.598 -34.349  1.00  0.00    -0.347 OA
BRANCH  18  19
HETATM   19  C   UNL     1      -3.397   5.292 -34.788  1.00  0.00     0.215 C 
BRANCH  19  20
HETATM   20  C   UNL     1      -2.390   5.841 -33.812  1.00  0.00    -0.017 A 
HETATM   21  C   UNL     1      -2.051   7.192 -33.787  1.00  0.00     0.125 A 
HETATM   22  N   UNL     1      -1.115   7.729 -32.971  1.00  0.00    -0.272 NA
HETATM   23  C   UNL     1      -0.475   6.880 -32.140  1.00  0.00     0.116 A 
HETATM   24  C   UNL     1      -0.724   5.519 -32.093  1.00  0.00     0.020 A 
HETATM   25  C   UNL     1      -1.691   4.994 -32.945  1.00  0.00     0.012 A 
ENDBRANCH  19  20
ENDBRANCH  18  19
ENDBRANCH   4  18
TORSDOF 6
ENDMDL
MODEL 8
REMARK VINA RESULT:      -7.1      3.725      8.305
REMARK  6 active torsions:
REMARK  status: ('A' for Active; 'I' for Inactive)
REMARK    1  A    between atoms: C_2  and  N_3 
REMARK    2  A    between atoms: C_2  and  C_11 
REMARK       I    between atoms: N_3  and  C_4 
REMARK    3  A    between atoms: C_4  and  C_5 
REMARK    4  A    between atoms: C_14  and  O_15 
REMARK    5  A    between atoms: O_15  and  C_16 
REMARK    6  A    between atoms: C_16  and  C_17 
ROOT
HETATM    1  C   UNL     1      -4.616   2.059 -31.270  1.00  0.00    -0.036 A 
HETATM    2  C   UNL     1      -5.115   3.226 -30.672  1.00  0.00     0.012 A 
HETATM    3  C   UNL     1      -4.503   4.467 -30.892  1.00  0.00     0.037 A 
HETATM    4  C   UNL     1      -3.374   4.556 -31.704  1.00  0.00     0.069 A 
HETATM    5  C   UNL     1      -2.877   3.403 -32.312  1.00  0.00     0.037 A 
HETATM    6  C   UNL     1      -3.485   2.165 -32.093  1.00  0.00     0.012 A 
ENDROOT
BRANCH   1   7
HETATM    7  C   UNL     1      -5.272   0.718 -30.990  1.00  0.00     0.113 C 
HETATM    8  C   UNL     1      -5.709   0.592 -29.526  1.00  0.00     0.037 C 
BRANCH   7   9
HETATM    9  N   UNL     1      -6.383   0.528 -31.909  1.00  0.00    -0.352 N 
HETATM   10  C   UNL     1      -6.239  -0.128 -33.104  1.00  0.00     0.225 C 
HETATM   11  O   UNL     1      -5.209  -0.662 -33.489  1.00  0.00    -0.273 OA
HETATM   12  H   UNL     1      -7.250   1.007 -31.705  1.00  0.00     0.163 HD
BRANCH  10  13
HETATM   13  C   UNL     1      -7.468  -0.154 -33.927  1.00  0.00     0.119 A 
HETATM   14  C   UNL     1      -8.129   1.132 -34.346  1.00  0.00     0.126 A 
HETATM   15 CL   UNL     1      -9.893   1.162 -34.364  1.00  0.00    -0.101 Cl
HETATM   16 CL   UNL     1      -7.420   2.687 -33.943  1.00  0.00    -0.101 Cl
HETATM   17  C   UNL     1      -7.438   0.286 -35.374  1.00  0.00     0.060 A 
ENDBRANCH  10  13
ENDBRANCH   7   9
ENDBRANCH   1   7
BRANCH   4  18
HETATM   18  O   UNL     1      -2.677   5.697 -31.990  1.00  0.00    -0.347 OA
BRANCH  18  19
HETATM   19  C   UNL     1      -1.265   5.566 -32.154  1.00  0.00     0.215 C 
BRANCH  19  20
HETATM   20  C   UNL     1      -0.560   5.956 -30.881  1.00  0.00    -0.017 A 
HETATM   21  C   UNL     1       0.104   5.019 -30.093  1.00  0.00     0.125 A 
HETATM   22  N   UNL     1       0.706   5.302 -28.915  1.00  0.00    -0.272 NA
HETATM   23  C   UNL     1       0.641   6.581 -28.492  1.00  0.00     0.116 A 
HETATM   24  C   UNL     1      -0.004   7.588 -29.190  1.00  0.00     0.020 A 
HETATM   25  C   UNL     1      -0.617   7.267 -30.398  1.00  0.00     0.012 A 
ENDBRANCH  19  20
ENDBRANCH  18  19
ENDBRANCH   4  18
TORSDOF 6
ENDMDL
MODEL 9
REMARK VINA RESULT:      -7.0      5.090      6.344
REMARK  6 active torsions:
REMARK  status: ('A' for Active; 'I' for Inactive)
REMARK    1  A    between atoms: C_2  and  N_3 
REMARK    2  A    between atoms: C_2  and  C_11 
REMARK       I    between atoms: N_3  and  C_4 
REMARK    3  A    between atoms: C_4  and  C_5 
REMARK    4  A    between atoms: C_14  and  O_15 
REMARK    5  A    between atoms: O_15  and  C_16 
REMARK    6  A    between atoms: C_16  and  C_17 
ROOT
HETATM    1  C   UNL     1      -8.422   2.363 -31.081  1.00  0.00    -0.036 A 
HETATM    2  C   UNL     1      -7.121   2.445 -30.564  1.00  0.00     0.012 A 
HETATM    3  C   UNL     1      -6.162   1.469 -30.866  1.00  0.00     0.037 A 
HETATM    4  C   UNL     1      -6.496   0.389 -31.680  1.00  0.00     0.069 A 
HETATM    5  C   UNL     1      -7.785   0.304 -32.208  1.00  0.00     0.037 A 
HETATM    6  C   UNL     1      -8.742   1.275 -31.907  1.00  0.00     0.012 A 
ENDROOT
BRANCH   1   7
HETATM    7  C   UNL     1      -9.458   3.411 -30.712  1.00  0.00     0.113 C 
HETATM    8  C   UNL     1      -8.807   4.692 -30.179  1.00  0.00     0.037 C 
BRANCH   7   9
HETATM    9  N   UNL     1     -10.308   3.669 -31.864  1.00  0.00    -0.352 N 
HETATM   10  C   UNL     1     -11.657   3.880 -31.743  1.00  0.00     0.225 C 
HETATM   11  O   UNL     1     -12.265   3.935 -30.684  1.00  0.00    -0.273 OA
HETATM   12  H   UNL     1      -9.901   3.562 -32.783  1.00  0.00     0.163 HD
BRANCH  10  13
HETATM   13  C   UNL     1     -12.356   4.053 -33.036  1.00  0.00     0.119 A 
HETATM   14  C   UNL     1     -12.522   2.886 -33.972  1.00  0.00     0.126 A 
HETATM   15 CL   UNL     1     -12.368   3.211 -35.700  1.00  0.00    -0.101 Cl
HETATM   16 CL   UNL     1     -11.969   1.281 -33.523  1.00  0.00    -0.101 Cl
HETATM   17  C   UNL     1     -13.721   3.444 -33.264  1.00  0.00     0.060 A 
ENDBRANCH  10  13
ENDBRANCH   7   9
ENDBRANCH   1   7
BRANCH   4  18
HETATM   18  O   UNL     1      -5.664  -0.633 -32.042  1.00  0.00    -0.347 OA
BRANCH  18  19
HETATM   19  C   UNL     1      -5.290  -0.704 -33.418  1.00  0.00     0.215 C 
BRANCH  19  20
HETATM   20  C   UNL     1      -5.459  -2.112 -33.927  1.00  0.00    -0.017 A 
HETATM   21  C   UNL     1      -4.386  -2.996 -34.009  1.00  0.00     0.125 A 
HETATM   22  N   UNL     1      -4.468  -4.251 -34.509  1.00  0.00    -0.272 NA
HETATM   23  C   UNL     1      -5.677  -4.647 -34.958  1.00  0.00     0.116 A 
HETATM   24  C   UNL     1      -6.805  -3.844 -34.936  1.00  0.00     0.020 A 
HETATM   25  C   UNL     1      -6.690  -2.557 -34.418  1.00  0.00     0.012 A 
ENDBRANCH  19  20
ENDBRANCH  18  19
ENDBRANCH   4  18
TORSDOF 6
ENDMDL
MODEL 10
REMARK VINA RESULT:      -7.0      2.694      2.954
REMARK  6 active torsions:
REMARK  status: ('A' for Active; 'I' for Inactive)
REMARK    1  A    between atoms: C_2  and  N_3 
REMARK    2  A    between atoms: C_2  and  C_11 
REMARK       I    between atoms: N_3  and  C_4 
REMARK    3  A    between atoms: C_4  and  C_5 
REMARK    4  A    between atoms: C_14  and  O_15 
REMARK    5  A    between atoms: O_15  and  C_16 
REMARK    6  A    between atoms: C_16  and  C_17 
ROOT
HETATM    1  C   UNL     1      -4.412   3.760 -31.333  1.00  0.00    -0.036 A 
HETATM    2  C   UNL     1      -3.293   3.002 -31.708  1.00  0.00     0.012 A 
HETATM    3  C   UNL     1      -3.421   1.653 -32.062  1.00  0.00     0.037 A 
HETATM    4  C   UNL     1      -4.670   1.038 -32.034  1.00  0.00     0.069 A 
HETATM    5  C   UNL     1      -5.792   1.786 -31.673  1.00  0.00     0.037 A 
HETATM    6  C   UNL     1      -5.666   3.130 -31.318  1.00  0.00     0.012 A 
ENDROOT
BRANCH   1   7
HETATM    7  C   UNL     1      -4.248   5.211 -30.916  1.00  0.00     0.113 C 
HETATM    8  C   UNL     1      -5.164   5.574 -29.742  1.00  0.00     0.037 C 
BRANCH   7   9
HETATM    9  N   UNL     1      -2.847   5.466 -30.615  1.00  0.00    -0.352 N 
HETATM   10  C   UNL     1      -2.324   6.733 -30.591  1.00  0.00     0.225 C 
HETATM   11  O   UNL     1      -2.969   7.759 -30.754  1.00  0.00    -0.273 OA
HETATM   12  H   UNL     1      -2.228   4.670 -30.548  1.00  0.00     0.163 HD
BRANCH  10  13
HETATM   13  C   UNL     1      -0.868   6.776 -30.336  1.00  0.00     0.119 A 
HETATM   14  C   UNL     1      -0.347   6.944 -28.934  1.00  0.00     0.126 A 
HETATM   15 CL   UNL     1       1.084   7.956 -28.721  1.00  0.00    -0.101 Cl
HETATM   16 CL   UNL     1      -1.442   7.008 -27.563  1.00  0.00    -0.101 Cl
HETATM   17  C   UNL     1      -0.171   5.631 -29.637  1.00  0.00     0.060 A 
ENDBRANCH  10  13
ENDBRANCH   7   9
ENDBRANCH   1   7
BRANCH   4  18
HETATM   18  O   UNL     1      -4.931  -0.268 -32.343  1.00  0.00    -0.347 OA
BRANCH  18  19
HETATM   19  C   UNL     1      -4.246  -0.812 -33.471  1.00  0.00     0.215 C 
BRANCH  19  20
HETATM   20  C   UNL     1      -4.904  -2.096 -33.906  1.00  0.00    -0.017 A 
HETATM   21  C   UNL     1      -4.203  -3.297 -33.964  1.00  0.00     0.125 A 
HETATM   22  N   UNL     1      -4.726  -4.467 -34.398  1.00  0.00    -0.272 NA
HETATM   23  C   UNL     1      -6.014  -4.442 -34.802  1.00  0.00     0.116 A 
HETATM   24  C   UNL     1      -6.798  -3.301 -34.798  1.00  0.00     0.020 A 
HETATM   25  C   UNL     1      -6.231  -2.111 -34.349  1.00  0.00     0.012 A 
ENDBRANCH  19  20
ENDBRANCH  18  19
ENDBRANCH   4  18
TORSDOF 6
ENDMDL
