MODEL 1
REMARK VINA RESULT:      -8.4      0.000      0.000
REMARK  5 active torsions:
REMARK  status: ('A' for Active; 'I' for Inactive)
REMARK    1  A    between atoms: N_2  and  C_4 
REMARK    2  A    between atoms: C_4  and  C_5 
REMARK    3  A    between atoms: C_5  and  N_6 
REMARK    4  A    between atoms: C_11  and  C_12 
REMARK    5  A    between atoms: C_14  and  O_15 
ROOT
HETATM    1  N   UNL     1      -7.544   1.569 -34.244  1.00  0.00    -0.332 N 
HETATM    2  C   UNL     1      -7.998   0.413 -34.860  1.00  0.00     0.279 C 
HETATM    3  O   UNL     1      -9.034   0.304 -35.486  1.00  0.00    -0.265 OA
HETATM    4  C   UNL     1      -6.972  -0.620 -34.631  1.00  0.00     0.156 A 
HETATM    5  C   UNL     1      -5.958  -0.018 -34.007  1.00  0.00     0.060 A 
HETATM    6  C   UNL     1      -6.139   1.445 -33.853  1.00  0.00     0.161 C 
HETATM    7  O   UNL     1      -7.076  -1.930 -35.000  1.00  0.00    -0.303 OA
HETATM    8  C   UNL     1      -6.018  -2.740 -34.642  1.00  0.00     0.090 A 
HETATM    9  C   UNL     1      -4.891  -2.261 -33.954  1.00  0.00     0.051 A 
HETATM   10  C   UNL     1      -4.792  -0.816 -33.646  1.00  0.00     0.196 A 
HETATM   11  O   UNL     1      -3.800  -0.314 -33.143  1.00  0.00    -0.287 OA
HETATM   12  C   UNL     1      -6.104  -4.088 -34.991  1.00  0.00     0.041 A 
HETATM   13  C   UNL     1      -5.073  -4.959 -34.632  1.00  0.00     0.045 A 
HETATM   14  C   UNL     1      -3.972  -4.476 -33.926  1.00  0.00     0.117 A 
HETATM   15  F   UNL     1      -2.997  -5.322 -33.574  1.00  0.00    -0.206 F 
HETATM   16  C   UNL     1      -3.866  -3.133 -33.583  1.00  0.00     0.060 A 
ENDROOT
BRANCH   6  17
HETATM   17  C   UNL     1      -5.809   2.110 -32.544  1.00  0.00    -0.028 A 
HETATM   18  C   UNL     1      -6.210   1.473 -31.355  1.00  0.00     0.046 A 
HETATM   19  C   UNL     1      -5.876   2.008 -30.116  1.00  0.00     0.066 A 
HETATM   20  C   UNL     1      -5.148   3.183 -30.025  1.00  0.00     0.036 A 
HETATM   21  C   UNL     1      -4.747   3.831 -31.195  1.00  0.00     0.003 A 
HETATM   22  C   UNL     1      -5.070   3.298 -32.449  1.00  0.00     0.010 A 
BRANCH  19  23
HETATM   23  O   UNL     1      -6.284   1.322 -29.012  1.00  0.00    -0.361 OA
HETATM   24  H   UNL     1      -6.841   1.909 -28.471  1.00  0.00     0.217 HD
ENDBRANCH  19  23
ENDBRANCH   6  17
BRANCH   1  25
HETATM   25  C   UNL     1      -8.407   2.713 -33.950  1.00  0.00     0.155 C 
BRANCH  25  26
HETATM   26  C   UNL     1      -9.507   2.417 -32.927  1.00  0.00     0.254 C 
BRANCH  26  27
HETATM   27  N   UNL     1     -10.891   2.640 -33.512  1.00  0.00    -0.077 N 
HETATM   28  C   UNL     1     -11.658   1.353 -33.615  1.00  0.00     0.269 C 
HETATM   29  H   UNL     1     -11.395   3.258 -32.861  1.00  0.00     0.279 HD
HETATM   30  C   UNL     1     -10.874   3.372 -34.828  1.00  0.00     0.269 C 
ENDBRANCH  26  27
ENDBRANCH  25  26
ENDBRANCH   1  25
TORSDOF 5
ENDMDL
MODEL 2
REMARK VINA RESULT:      -8.3      2.599      4.849
REMARK  5 active torsions:
REMARK  status: ('A' for Active; 'I' for Inactive)
REMARK    1  A    between atoms: N_2  and  C_4 
REMARK    2  A    between atoms: C_4  and  C_5 
REMARK    3  A    between atoms: C_5  and  N_6 
REMARK    4  A    between atoms: C_11  and  C_12 
REMARK    5  A    between atoms: C_14  and  O_15 
ROOT
HETATM    1  N   UNL     1      -5.173   2.333 -31.049  1.00  0.00    -0.332 N 
HETATM    2  C   UNL     1      -4.158   1.474 -31.442  1.00  0.00     0.279 C 
HETATM    3  O   UNL     1      -2.977   1.610 -31.189  1.00  0.00    -0.265 OA
HETATM    4  C   UNL     1      -4.799   0.374 -32.182  1.00  0.00     0.156 A 
HETATM    5  C   UNL     1      -6.115   0.575 -32.102  1.00  0.00     0.060 A 
HETATM    6  C   UNL     1      -6.490   1.725 -31.245  1.00  0.00     0.161 C 
HETATM    7  O   UNL     1      -4.139  -0.640 -32.816  1.00  0.00    -0.303 OA
HETATM    8  C   UNL     1      -4.933  -1.541 -33.495  1.00  0.00     0.090 A 
HETATM    9  C   UNL     1      -6.334  -1.445 -33.531  1.00  0.00     0.051 A 
HETATM   10  C   UNL     1      -7.005  -0.372 -32.763  1.00  0.00     0.196 A 
HETATM   11  O   UNL     1      -8.219  -0.289 -32.666  1.00  0.00    -0.287 OA
HETATM   12  C   UNL     1      -4.285  -2.578 -34.166  1.00  0.00     0.041 A 
HETATM   13  C   UNL     1      -5.038  -3.505 -34.891  1.00  0.00     0.045 A 
HETATM   14  C   UNL     1      -6.425  -3.383 -34.941  1.00  0.00     0.117 A 
HETATM   15  F   UNL     1      -7.135  -4.269 -35.650  1.00  0.00    -0.206 F 
HETATM   16  C   UNL     1      -7.086  -2.364 -34.266  1.00  0.00     0.060 A 
ENDROOT
BRANCH   6  17
HETATM   17  C   UNL     1      -7.547   2.692 -31.703  1.00  0.00    -0.028 A 
HETATM   18  C   UNL     1      -8.543   3.074 -30.784  1.00  0.00     0.046 A 
HETATM   19  C   UNL     1      -9.507   4.013 -31.132  1.00  0.00     0.066 A 
HETATM   20  C   UNL     1      -9.513   4.587 -32.393  1.00  0.00     0.036 A 
HETATM   21  C   UNL     1      -8.537   4.215 -33.319  1.00  0.00     0.003 A 
HETATM   22  C   UNL     1      -7.555   3.276 -32.977  1.00  0.00     0.010 A 
BRANCH  19  23
HETATM   23  O   UNL     1     -10.424   4.345 -30.181  1.00  0.00    -0.361 OA
HETATM   24  H   UNL     1     -10.664   3.540 -29.688  1.00  0.00     0.217 HD
ENDBRANCH  19  23
ENDBRANCH   6  17
BRANCH   1  25
HETATM   25  C   UNL     1      -4.932   3.702 -30.592  1.00  0.00     0.155 C 
BRANCH  25  26
HETATM   26  C   UNL     1      -4.354   4.626 -31.669  1.00  0.00     0.254 C 
BRANCH  26  27
HETATM   27  N   UNL     1      -2.844   4.741 -31.556  1.00  0.00    -0.077 N 
HETATM   28  C   UNL     1      -2.439   6.022 -30.886  1.00  0.00     0.269 C 
HETATM   29  H   UNL     1      -2.528   3.959 -30.964  1.00  0.00     0.279 HD
HETATM   30  C   UNL     1      -2.130   4.564 -32.870  1.00  0.00     0.269 C 
ENDBRANCH  26  27
ENDBRANCH  25  26
ENDBRANCH   1  25
TORSDOF 5
ENDMDL
MODEL 3
REMARK VINA RESULT:      -8.0      3.622      6.334
REMARK  5 active torsions:
REMARK  status: ('A' for Active; 'I' for Inactive)
REMARK    1  A    between atoms: N_2  and  C_4 
REMARK    2  A    between atoms: C_4  and  C_5 
REMARK    3  A    between atoms: C_5  and  N_6 
REMARK    4  A    between atoms: C_11  and  C_12 
REMARK    5  A    between atoms: C_14  and  O_15 
ROOT
HETATM    1  N   UNL     1      -7.007   3.912 -33.700  1.00  0.00    -0.332 N 
HETATM    2  C   UNL     1      -8.220   4.525 -33.969  1.00  0.00     0.279 C 
HETATM    3  O   UNL     1      -8.377   5.705 -34.216  1.00  0.00    -0.265 OA
HETATM    4  C   UNL     1      -9.247   3.471 -33.926  1.00  0.00     0.156 A 
HETATM    5  C   UNL     1      -8.602   2.317 -33.745  1.00  0.00     0.060 A 
HETATM    6  C   UNL     1      -7.126   2.453 -33.755  1.00  0.00     0.161 C 
HETATM    7  O   UNL     1     -10.592   3.673 -34.050  1.00  0.00    -0.303 OA
HETATM    8  C   UNL     1     -11.382   2.549 -33.928  1.00  0.00     0.090 A 
HETATM    9  C   UNL     1     -10.853   1.267 -33.705  1.00  0.00     0.051 A 
HETATM   10  C   UNL     1      -9.384   1.090 -33.656  1.00  0.00     0.196 A 
HETATM   11  O   UNL     1      -8.853  -0.006 -33.567  1.00  0.00    -0.287 OA
HETATM   12  C   UNL     1     -12.762   2.728 -34.034  1.00  0.00     0.041 A 
HETATM   13  C   UNL     1     -13.611   1.628 -33.894  1.00  0.00     0.045 A 
HETATM   14  C   UNL     1     -13.075   0.366 -33.646  1.00  0.00     0.117 A 
HETATM   15  F   UNL     1     -13.899  -0.679 -33.499  1.00  0.00    -0.206 F 
HETATM   16  C   UNL     1     -11.702   0.170 -33.552  1.00  0.00     0.060 A 
ENDROOT
BRANCH   6  17
HETATM   17  C   UNL     1      -6.297   1.734 -32.726  1.00  0.00    -0.028 A 
HETATM   18  C   UNL     1      -6.633   1.897 -31.369  1.00  0.00     0.046 A 
HETATM   19  C   UNL     1      -5.943   1.206 -30.379  1.00  0.00     0.066 A 
HETATM   20  C   UNL     1      -4.906   0.347 -30.707  1.00  0.00     0.036 A 
HETATM   21  C   UNL     1      -4.556   0.178 -32.048  1.00  0.00     0.003 A 
HETATM   22  C   UNL     1      -5.249   0.863 -33.055  1.00  0.00     0.010 A 
BRANCH  19  23
HETATM   23  O   UNL     1      -6.340   1.402 -29.091  1.00  0.00    -0.361 OA
HETATM   24  H   UNL     1      -5.555   1.607 -28.553  1.00  0.00     0.217 HD
ENDBRANCH  19  23
ENDBRANCH   6  17
BRANCH   1  25
HETATM   25  C   UNL     1      -5.802   4.649 -33.319  1.00  0.00     0.155 C 
BRANCH  25  26
HETATM   26  C   UNL     1      -4.769   4.779 -34.443  1.00  0.00     0.254 C 
BRANCH  26  27
HETATM   27  N   UNL     1      -3.365   4.963 -33.895  1.00  0.00    -0.077 N 
HETATM   28  C   UNL     1      -2.360   5.117 -34.999  1.00  0.00     0.269 C 
HETATM   29  H   UNL     1      -3.370   5.835 -33.346  1.00  0.00     0.279 HD
HETATM   30  C   UNL     1      -2.953   3.883 -32.928  1.00  0.00     0.269 C 
ENDBRANCH  26  27
ENDBRANCH  25  26
ENDBRANCH   1  25
TORSDOF 5
ENDMDL
MODEL 4
REMARK VINA RESULT:      -7.9      3.084      6.373
REMARK  5 active torsions:
REMARK  status: ('A' for Active; 'I' for Inactive)
REMARK    1  A    between atoms: N_2  and  C_4 
REMARK    2  A    between atoms: C_4  and  C_5 
REMARK    3  A    between atoms: C_5  and  N_6 
REMARK    4  A    between atoms: C_11  and  C_12 
REMARK    5  A    between atoms: C_14  and  O_15 
ROOT
HETATM    1  N   UNL     1      -7.494   2.091 -30.952  1.00  0.00    -0.332 N 
HETATM    2  C   UNL     1      -7.232   3.296 -30.320  1.00  0.00     0.279 C 
HETATM    3  O   UNL     1      -7.990   3.883 -29.572  1.00  0.00    -0.265 OA
HETATM    4  C   UNL     1      -5.867   3.691 -30.709  1.00  0.00     0.156 A 
HETATM    5  C   UNL     1      -5.373   2.688 -31.436  1.00  0.00     0.060 A 
HETATM    6  C   UNL     1      -6.275   1.514 -31.522  1.00  0.00     0.161 C 
HETATM    7  O   UNL     1      -5.259   4.866 -30.371  1.00  0.00    -0.303 OA
HETATM    8  C   UNL     1      -3.993   5.056 -30.884  1.00  0.00     0.090 A 
HETATM    9  C   UNL     1      -3.349   4.105 -31.694  1.00  0.00     0.051 A 
HETATM   10  C   UNL     1      -4.021   2.814 -31.967  1.00  0.00     0.196 A 
HETATM   11  O   UNL     1      -3.481   1.904 -32.575  1.00  0.00    -0.287 OA
HETATM   12  C   UNL     1      -3.353   6.255 -30.569  1.00  0.00     0.041 A 
HETATM   13  C   UNL     1      -2.080   6.511 -31.083  1.00  0.00     0.045 A 
HETATM   14  C   UNL     1      -1.463   5.571 -31.907  1.00  0.00     0.117 A 
HETATM   15  F   UNL     1      -0.248   5.833 -32.405  1.00  0.00    -0.206 F 
HETATM   16  C   UNL     1      -2.082   4.366 -32.218  1.00  0.00     0.060 A 
ENDROOT
BRANCH   6  17
HETATM   17  C   UNL     1      -6.485   0.821 -32.840  1.00  0.00    -0.028 A 
HETATM   18  C   UNL     1      -6.431  -0.585 -32.869  1.00  0.00     0.046 A 
HETATM   19  C   UNL     1      -6.681  -1.280 -34.047  1.00  0.00     0.066 A 
HETATM   20  C   UNL     1      -6.982  -0.604 -35.218  1.00  0.00     0.036 A 
HETATM   21  C   UNL     1      -7.033   0.791 -35.209  1.00  0.00     0.003 A 
HETATM   22  C   UNL     1      -6.791   1.503 -34.027  1.00  0.00     0.010 A 
BRANCH  19  23
HETATM   23  O   UNL     1      -6.630  -2.640 -33.989  1.00  0.00    -0.361 OA
HETATM   24  H   UNL     1      -5.893  -2.946 -34.547  1.00  0.00     0.217 HD
ENDBRANCH  19  23
ENDBRANCH   6  17
BRANCH   1  25
HETATM   25  C   UNL     1      -8.840   1.538 -31.099  1.00  0.00     0.155 C 
BRANCH  25  26
HETATM   26  C   UNL     1      -9.743   2.339 -32.042  1.00  0.00     0.254 C 
BRANCH  26  27
HETATM   27  N   UNL     1     -10.592   1.428 -32.911  1.00  0.00    -0.077 N 
HETATM   28  C   UNL     1     -10.127   0.003 -32.832  1.00  0.00     0.269 C 
HETATM   29  H   UNL     1     -11.553   1.469 -32.541  1.00  0.00     0.279 HD
HETATM   30  C   UNL     1     -10.695   1.889 -34.342  1.00  0.00     0.269 C 
ENDBRANCH  26  27
ENDBRANCH  25  26
ENDBRANCH   1  25
TORSDOF 5
ENDMDL
MODEL 5
REMARK VINA RESULT:      -7.9      3.502      6.939
REMARK  5 active torsions:
REMARK  status: ('A' for Active; 'I' for Inactive)
REMARK    1  A    between atoms: N_2  and  C_4 
REMARK    2  A    between atoms: C_4  and  C_5 
REMARK    3  A    between atoms: C_5  and  N_6 
REMARK    4  A    between atoms: C_11  and  C_12 
REMARK    5  A    between atoms: C_14  and  O_15 
ROOT
HETATM    1  N   UNL     1      -5.201  -0.038 -33.238  1.00  0.00    -0.332 N 
HETATM    2  C   UNL     1      -3.962   0.282 -32.704  1.00  0.00     0.279 C 
HETATM    3  O   UNL     1      -3.079  -0.510 -32.438  1.00  0.00    -0.265 OA
HETATM    4  C   UNL     1      -3.929   1.748 -32.560  1.00  0.00     0.156 A 
HETATM    5  C   UNL     1      -5.062   2.209 -33.092  1.00  0.00     0.060 A 
HETATM    6  C   UNL     1      -5.895   1.157 -33.722  1.00  0.00     0.161 C 
HETATM    7  O   UNL     1      -2.916   2.461 -31.987  1.00  0.00    -0.303 OA
HETATM    8  C   UNL     1      -3.111   3.825 -31.908  1.00  0.00     0.090 A 
HETATM    9  C   UNL     1      -4.267   4.457 -32.396  1.00  0.00     0.051 A 
HETATM   10  C   UNL     1      -5.301   3.647 -33.079  1.00  0.00     0.196 A 
HETATM   11  O   UNL     1      -6.279   4.141 -33.616  1.00  0.00    -0.287 OA
HETATM   12  C   UNL     1      -2.100   4.578 -31.312  1.00  0.00     0.041 A 
HETATM   13  C   UNL     1      -2.257   5.960 -31.183  1.00  0.00     0.045 A 
HETATM   14  C   UNL     1      -3.419   6.572 -31.647  1.00  0.00     0.117 A 
HETATM   15  F   UNL     1      -3.564   7.895 -31.506  1.00  0.00    -0.206 F 
HETATM   16  C   UNL     1      -4.429   5.837 -32.256  1.00  0.00     0.060 A 
ENDROOT
BRANCH   6  17
HETATM   17  C   UNL     1      -7.381   1.135 -33.490  1.00  0.00    -0.028 A 
HETATM   18  C   UNL     1      -7.852   1.309 -32.175  1.00  0.00     0.046 A 
HETATM   19  C   UNL     1      -9.216   1.362 -31.910  1.00  0.00     0.066 A 
HETATM   20  C   UNL     1     -10.141   1.238 -32.934  1.00  0.00     0.036 A 
HETATM   21  C   UNL     1      -9.691   1.059 -34.244  1.00  0.00     0.003 A 
HETATM   22  C   UNL     1      -8.320   1.012 -34.524  1.00  0.00     0.010 A 
BRANCH  19  23
HETATM   23  O   UNL     1      -9.591   1.553 -30.615  1.00  0.00    -0.361 OA
HETATM   24  H   UNL     1      -9.099   0.927 -30.054  1.00  0.00     0.217 HD
ENDBRANCH  19  23
ENDBRANCH   6  17
BRANCH   1  25
HETATM   25  C   UNL     1      -5.757  -1.391 -33.219  1.00  0.00     0.155 C 
BRANCH  25  26
HETATM   26  C   UNL     1      -6.126  -1.933 -34.604  1.00  0.00     0.254 C 
BRANCH  26  27
HETATM   27  N   UNL     1      -5.382  -3.219 -34.918  1.00  0.00    -0.077 N 
HETATM   28  C   UNL     1      -6.312  -4.396 -34.957  1.00  0.00     0.269 C 
HETATM   29  H   UNL     1      -4.972  -3.106 -35.856  1.00  0.00     0.279 HD
HETATM   30  C   UNL     1      -4.215  -3.476 -34.000  1.00  0.00     0.269 C 
ENDBRANCH  26  27
ENDBRANCH  25  26
ENDBRANCH   1  25
TORSDOF 5
ENDMDL
MODEL 6
REMARK VINA RESULT:      -7.7      2.723      4.816
REMARK  5 active torsions:
REMARK  status: ('A' for Active; 'I' for Inactive)
REMARK    1  A    between atoms: N_2  and  C_4 
REMARK    2  A    between atoms: C_4  and  C_5 
REMARK    3  A    between atoms: C_5  and  N_6 
REMARK    4  A    between atoms: C_11  and  C_12 
REMARK    5  A    between atoms: C_14  and  O_15 
ROOT
HETATM    1  N   UNL     1      -5.197   2.859 -31.016  1.00  0.00    -0.332 N 
HETATM    2  C   UNL     1      -4.171   2.014 -31.409  1.00  0.00     0.279 C 
HETATM    3  O   UNL     1      -2.988   2.184 -31.186  1.00  0.00    -0.265 OA
HETATM    4  C   UNL     1      -4.800   0.880 -32.108  1.00  0.00     0.156 A 
HETATM    5  C   UNL     1      -6.119   1.053 -32.004  1.00  0.00     0.060 A 
HETATM    6  C   UNL     1      -6.503   2.215 -31.167  1.00  0.00     0.161 C 
HETATM    7  O   UNL     1      -4.130  -0.134 -32.730  1.00  0.00    -0.303 OA
HETATM    8  C   UNL     1      -4.916  -1.071 -33.368  1.00  0.00     0.090 A 
HETATM    9  C   UNL     1      -6.320  -1.009 -33.376  1.00  0.00     0.051 A 
HETATM   10  C   UNL     1      -7.000   0.068 -32.620  1.00  0.00     0.196 A 
HETATM   11  O   UNL     1      -8.213   0.124 -32.498  1.00  0.00    -0.287 OA
HETATM   12  C   UNL     1      -4.258  -2.109 -34.027  1.00  0.00     0.041 A 
HETATM   13  C   UNL     1      -5.004  -3.071 -34.712  1.00  0.00     0.045 A 
HETATM   14  C   UNL     1      -6.394  -2.984 -34.734  1.00  0.00     0.117 A 
HETATM   15  F   UNL     1      -7.098  -3.904 -35.405  1.00  0.00    -0.206 F 
HETATM   16  C   UNL     1      -7.065  -1.963 -34.070  1.00  0.00     0.060 A 
ENDROOT
BRANCH   6  17
HETATM   17  C   UNL     1      -7.593   3.144 -31.626  1.00  0.00    -0.028 A 
HETATM   18  C   UNL     1      -7.391   3.872 -32.813  1.00  0.00     0.046 A 
HETATM   19  C   UNL     1      -8.389   4.697 -33.319  1.00  0.00     0.066 A 
HETATM   20  C   UNL     1      -9.602   4.825 -32.661  1.00  0.00     0.036 A 
HETATM   21  C   UNL     1      -9.817   4.115 -31.479  1.00  0.00     0.003 A 
HETATM   22  C   UNL     1      -8.822   3.275 -30.964  1.00  0.00     0.010 A 
BRANCH  19  23
HETATM   23  O   UNL     1      -8.124   5.353 -34.483  1.00  0.00    -0.361 OA
HETATM   24  H   UNL     1      -8.969   5.570 -34.915  1.00  0.00     0.217 HD
ENDBRANCH  19  23
ENDBRANCH   6  17
BRANCH   1  25
HETATM   25  C   UNL     1      -4.980   4.244 -30.599  1.00  0.00     0.155 C 
BRANCH  25  26
HETATM   26  C   UNL     1      -5.574   4.584 -29.229  1.00  0.00     0.254 C 
BRANCH  26  27
HETATM   27  N   UNL     1      -6.463   5.813 -29.294  1.00  0.00    -0.077 N 
HETATM   28  C   UNL     1      -6.206   6.613 -30.538  1.00  0.00     0.269 C 
HETATM   29  H   UNL     1      -7.436   5.478 -29.327  1.00  0.00     0.279 HD
HETATM   30  C   UNL     1      -6.379   6.679 -28.063  1.00  0.00     0.269 C 
ENDBRANCH  26  27
ENDBRANCH  25  26
ENDBRANCH   1  25
TORSDOF 5
ENDMDL
MODEL 7
REMARK VINA RESULT:      -7.5      3.445      6.653
REMARK  5 active torsions:
REMARK  status: ('A' for Active; 'I' for Inactive)
REMARK    1  A    between atoms: N_2  and  C_4 
REMARK    2  A    between atoms: C_4  and  C_5 
REMARK    3  A    between atoms: C_5  and  N_6 
REMARK    4  A    between atoms: C_11  and  C_12 
REMARK    5  A    between atoms: C_14  and  O_15 
ROOT
HETATM    1  N   UNL     1      -6.216   0.069 -32.844  1.00  0.00    -0.332 N 
HETATM    2  C   UNL     1      -7.348  -0.561 -33.337  1.00  0.00     0.279 C 
HETATM    3  O   UNL     1      -7.384  -1.677 -33.817  1.00  0.00    -0.265 OA
HETATM    4  C   UNL     1      -8.473   0.367 -33.132  1.00  0.00     0.156 A 
HETATM    5  C   UNL     1      -7.987   1.413 -32.461  1.00  0.00     0.060 A 
HETATM    6  C   UNL     1      -6.567   1.258 -32.065  1.00  0.00     0.161 C 
HETATM    7  O   UNL     1      -9.753   0.162 -33.561  1.00  0.00    -0.303 OA
HETATM    8  C   UNL     1     -10.643   1.185 -33.307  1.00  0.00     0.090 A 
HETATM    9  C   UNL     1     -10.275   2.365 -32.638  1.00  0.00     0.051 A 
HETATM   10  C   UNL     1      -8.893   2.505 -32.125  1.00  0.00     0.196 A 
HETATM   11  O   UNL     1      -8.533   3.454 -31.448  1.00  0.00    -0.287 OA
HETATM   12  C   UNL     1     -11.954   1.011 -33.749  1.00  0.00     0.041 A 
HETATM   13  C   UNL     1     -12.891   2.026 -33.541  1.00  0.00     0.045 A 
HETATM   14  C   UNL     1     -12.507   3.202 -32.900  1.00  0.00     0.117 A 
HETATM   15  F   UNL     1     -13.410   4.174 -32.719  1.00  0.00    -0.206 F 
HETATM   16  C   UNL     1     -11.208   3.385 -32.442  1.00  0.00     0.060 A 
ENDROOT
BRANCH   6  17
HETATM   17  C   UNL     1      -5.610   2.406 -32.236  1.00  0.00    -0.028 A 
HETATM   18  C   UNL     1      -5.656   3.138 -33.437  1.00  0.00     0.046 A 
HETATM   19  C   UNL     1      -4.840   4.247 -33.624  1.00  0.00     0.066 A 
HETATM   20  C   UNL     1      -3.958   4.652 -32.635  1.00  0.00     0.036 A 
HETATM   21  C   UNL     1      -3.894   3.933 -31.440  1.00  0.00     0.003 A 
HETATM   22  C   UNL     1      -4.717   2.818 -31.237  1.00  0.00     0.010 A 
BRANCH  19  23
HETATM   23  O   UNL     1      -4.958   4.915 -34.805  1.00  0.00    -0.361 OA
HETATM   24  H   UNL     1      -4.994   4.263 -35.527  1.00  0.00     0.217 HD
ENDBRANCH  19  23
ENDBRANCH   6  17
BRANCH   1  25
HETATM   25  C   UNL     1      -4.855  -0.364 -33.160  1.00  0.00     0.155 C 
BRANCH  25  26
HETATM   26  C   UNL     1      -4.244  -1.307 -32.119  1.00  0.00     0.254 C 
BRANCH  26  27
HETATM   27  N   UNL     1      -3.476  -2.441 -32.774  1.00  0.00    -0.077 N 
HETATM   28  C   UNL     1      -4.257  -3.057 -33.899  1.00  0.00     0.269 C 
HETATM   29  H   UNL     1      -2.617  -2.032 -33.171  1.00  0.00     0.279 HD
HETATM   30  C   UNL     1      -3.005  -3.489 -31.799  1.00  0.00     0.269 C 
ENDBRANCH  26  27
ENDBRANCH  25  26
ENDBRANCH   1  25
TORSDOF 5
ENDMDL
MODEL 8
REMARK VINA RESULT:      -7.3      4.451      7.227
REMARK  5 active torsions:
REMARK  status: ('A' for Active; 'I' for Inactive)
REMARK    1  A    between atoms: N_2  and  C_4 
REMARK    2  A    between atoms: C_4  and  C_5 
REMARK    3  A    between atoms: C_5  and  N_6 
REMARK    4  A    between atoms: C_11  and  C_12 
REMARK    5  A    between atoms: C_14  and  O_15 
ROOT
HETATM    1  N   UNL     1      -4.285   6.197 -30.082  1.00  0.00    -0.332 N 
HETATM    2  C   UNL     1      -5.329   5.378 -29.683  1.00  0.00     0.279 C 
HETATM    3  O   UNL     1      -6.222   5.689 -28.920  1.00  0.00    -0.265 OA
HETATM    4  C   UNL     1      -5.153   4.095 -30.385  1.00  0.00     0.156 A 
HETATM    5  C   UNL     1      -4.116   4.251 -31.210  1.00  0.00     0.060 A 
HETATM    6  C   UNL     1      -3.574   5.630 -31.230  1.00  0.00     0.161 C 
HETATM    7  O   UNL     1      -5.923   2.982 -30.201  1.00  0.00    -0.303 OA
HETATM    8  C   UNL     1      -5.552   1.869 -30.926  1.00  0.00     0.090 A 
HETATM    9  C   UNL     1      -4.463   1.866 -31.813  1.00  0.00     0.051 A 
HETATM   10  C   UNL     1      -3.708   3.120 -32.035  1.00  0.00     0.196 A 
HETATM   11  O   UNL     1      -2.818   3.218 -32.864  1.00  0.00    -0.287 OA
HETATM   12  C   UNL     1      -6.310   0.712 -30.745  1.00  0.00     0.041 A 
HETATM   13  C   UNL     1      -5.964  -0.452 -31.435  1.00  0.00     0.045 A 
HETATM   14  C   UNL     1      -4.865  -0.449 -32.292  1.00  0.00     0.117 A 
HETATM   15  F   UNL     1      -4.534  -1.575 -32.936  1.00  0.00    -0.206 F 
HETATM   16  C   UNL     1      -4.109   0.699 -32.493  1.00  0.00     0.060 A 
ENDROOT
BRANCH   6  17
HETATM   17  C   UNL     1      -2.087   5.854 -31.197  1.00  0.00    -0.028 A 
HETATM   18  C   UNL     1      -1.297   4.968 -30.441  1.00  0.00     0.046 A 
HETATM   19  C   UNL     1       0.088   5.088 -30.426  1.00  0.00     0.066 A 
HETATM   20  C   UNL     1       0.720   6.086 -31.150  1.00  0.00     0.036 A 
HETATM   21  C   UNL     1      -0.048   6.977 -31.902  1.00  0.00     0.003 A 
HETATM   22  C   UNL     1      -1.444   6.861 -31.930  1.00  0.00     0.010 A 
BRANCH  19  23
HETATM   23  O   UNL     1       0.783   4.181 -29.685  1.00  0.00    -0.361 OA
HETATM   24  H   UNL     1       1.129   4.628 -28.892  1.00  0.00     0.217 HD
ENDBRANCH  19  23
ENDBRANCH   6  17
BRANCH   1  25
HETATM   25  C   UNL     1      -3.906   7.418 -29.370  1.00  0.00     0.155 C 
BRANCH  25  26
HETATM   26  C   UNL     1      -3.318   7.170 -27.978  1.00  0.00     0.254 C 
BRANCH  26  27
HETATM   27  N   UNL     1      -2.035   7.953 -27.765  1.00  0.00    -0.077 N 
HETATM   28  C   UNL     1      -1.747   8.862 -28.925  1.00  0.00     0.269 C 
HETATM   29  H   UNL     1      -2.177   8.540 -26.930  1.00  0.00     0.279 HD
HETATM   30  C   UNL     1      -0.846   7.083 -27.446  1.00  0.00     0.269 C 
ENDBRANCH  26  27
ENDBRANCH  25  26
ENDBRANCH   1  25
TORSDOF 5
ENDMDL
MODEL 9
REMARK VINA RESULT:      -7.1      3.543      7.007
REMARK  5 active torsions:
REMARK  status: ('A' for Active; 'I' for Inactive)
REMARK    1  A    between atoms: N_2  and  C_4 
REMARK    2  A    between atoms: C_4  and  C_5 
REMARK    3  A    between atoms: C_5  and  N_6 
REMARK    4  A    between atoms: C_11  and  C_12 
REMARK    5  A    between atoms: C_14  and  O_15 
ROOT
HETATM    1  N   UNL     1      -5.983   3.739 -33.258  1.00  0.00    -0.332 N 
HETATM    2  C   UNL     1      -6.914   4.758 -33.380  1.00  0.00     0.279 C 
HETATM    3  O   UNL     1      -6.689   5.944 -33.236  1.00  0.00    -0.265 OA
HETATM    4  C   UNL     1      -8.194   4.123 -33.740  1.00  0.00     0.156 A 
HETATM    5  C   UNL     1      -7.940   2.825 -33.910  1.00  0.00     0.060 A 
HETATM    6  C   UNL     1      -6.503   2.478 -33.792  1.00  0.00     0.161 C 
HETATM    7  O   UNL     1      -9.389   4.771 -33.867  1.00  0.00    -0.303 OA
HETATM    8  C   UNL     1     -10.476   3.975 -34.163  1.00  0.00     0.090 A 
HETATM    9  C   UNL     1     -10.375   2.585 -34.341  1.00  0.00     0.051 A 
HETATM   10  C   UNL     1      -9.043   1.942 -34.270  1.00  0.00     0.196 A 
HETATM   11  O   UNL     1      -8.868   0.759 -34.514  1.00  0.00    -0.287 OA
HETATM   12  C   UNL     1     -11.713   4.608 -34.282  1.00  0.00     0.041 A 
HETATM   13  C   UNL     1     -12.851   3.847 -34.556  1.00  0.00     0.045 A 
HETATM   14  C   UNL     1     -12.743   2.466 -34.704  1.00  0.00     0.117 A 
HETATM   15  F   UNL     1     -13.843   1.745 -34.952  1.00  0.00    -0.206 F 
HETATM   16  C   UNL     1     -11.515   1.823 -34.602  1.00  0.00     0.060 A 
ENDROOT
BRANCH   6  17
HETATM   17  C   UNL     1      -6.084   1.264 -33.010  1.00  0.00    -0.028 A 
HETATM   18  C   UNL     1      -5.291   0.297 -33.655  1.00  0.00     0.046 A 
HETATM   19  C   UNL     1      -4.821  -0.813 -32.963  1.00  0.00     0.066 A 
HETATM   20  C   UNL     1      -5.129  -0.995 -31.624  1.00  0.00     0.036 A 
HETATM   21  C   UNL     1      -5.919  -0.049 -30.970  1.00  0.00     0.003 A 
HETATM   22  C   UNL     1      -6.392   1.078 -31.655  1.00  0.00     0.010 A 
BRANCH  19  23
HETATM   23  O   UNL     1      -4.044  -1.693 -33.653  1.00  0.00    -0.361 OA
HETATM   24  H   UNL     1      -3.419  -1.189 -34.203  1.00  0.00     0.217 HD
ENDBRANCH  19  23
ENDBRANCH   6  17
BRANCH   1  25
HETATM   25  C   UNL     1      -4.693   3.906 -32.591  1.00  0.00     0.155 C 
BRANCH  25  26
HETATM   26  C   UNL     1      -3.593   4.474 -33.494  1.00  0.00     0.254 C 
BRANCH  26  27
HETATM   27  N   UNL     1      -3.505   5.986 -33.386  1.00  0.00    -0.077 N 
HETATM   28  C   UNL     1      -2.360   6.529 -34.191  1.00  0.00     0.269 C 
HETATM   29  H   UNL     1      -4.378   6.365 -33.781  1.00  0.00     0.279 HD
HETATM   30  C   UNL     1      -3.458   6.484 -31.965  1.00  0.00     0.269 C 
ENDBRANCH  26  27
ENDBRANCH  25  26
ENDBRANCH   1  25
TORSDOF 5
ENDMDL
MODEL 10
REMARK VINA RESULT:      -7.1      4.186      6.626
REMARK  5 active torsions:
REMARK  status: ('A' for Active; 'I' for Inactive)
REMARK    1  A    between atoms: N_2  and  C_4 
REMARK    2  A    between atoms: C_4  and  C_5 
REMARK    3  A    between atoms: C_5  and  N_6 
REMARK    4  A    between atoms: C_11  and  C_12 
REMARK    5  A    between atoms: C_14  and  O_15 
ROOT
HETATM    1  N   UNL     1      -5.492   5.443 -30.372  1.00  0.00    -0.332 N 
HETATM    2  C   UNL     1      -6.504   4.585 -29.970  1.00  0.00     0.279 C 
HETATM    3  O   UNL     1      -7.052   4.595 -28.885  1.00  0.00    -0.265 OA
HETATM    4  C   UNL     1      -6.791   3.703 -31.114  1.00  0.00     0.156 A 
HETATM    5  C   UNL     1      -6.038   4.135 -32.127  1.00  0.00     0.060 A 
HETATM    6  C   UNL     1      -5.276   5.369 -31.818  1.00  0.00     0.161 C 
HETATM    7  O   UNL     1      -7.665   2.654 -31.103  1.00  0.00    -0.303 OA
HETATM    8  C   UNL     1      -7.745   1.925 -32.271  1.00  0.00     0.090 A 
HETATM    9  C   UNL     1      -6.991   2.237 -33.415  1.00  0.00     0.051 A 
HETATM   10  C   UNL     1      -6.116   3.431 -33.401  1.00  0.00     0.196 A 
HETATM   11  O   UNL     1      -5.513   3.819 -34.388  1.00  0.00    -0.287 OA
HETATM   12  C   UNL     1      -8.618   0.837 -32.283  1.00  0.00     0.041 A 
HETATM   13  C   UNL     1      -8.719   0.050 -33.431  1.00  0.00     0.045 A 
HETATM   14  C   UNL     1      -7.947   0.353 -34.551  1.00  0.00     0.117 A 
HETATM   15  F   UNL     1      -8.042  -0.418 -35.641  1.00  0.00    -0.206 F 
HETATM   16  C   UNL     1      -7.083   1.442 -34.559  1.00  0.00     0.060 A 
ENDROOT
BRANCH   6  17
HETATM   17  C   UNL     1      -3.833   5.484 -32.227  1.00  0.00    -0.028 A 
HETATM   18  C   UNL     1      -3.411   6.673 -32.850  1.00  0.00     0.046 A 
HETATM   19  C   UNL     1      -2.077   6.860 -33.192  1.00  0.00     0.066 A 
HETATM   20  C   UNL     1      -1.135   5.878 -32.931  1.00  0.00     0.036 A 
HETATM   21  C   UNL     1      -1.537   4.690 -32.318  1.00  0.00     0.003 A 
HETATM   22  C   UNL     1      -2.878   4.493 -31.963  1.00  0.00     0.010 A 
BRANCH  19  23
HETATM   23  O   UNL     1      -1.744   8.046 -33.774  1.00  0.00    -0.361 OA
HETATM   24  H   UNL     1      -2.557   8.466 -34.107  1.00  0.00     0.217 HD
ENDBRANCH  19  23
ENDBRANCH   6  17
BRANCH   1  25
HETATM   25  C   UNL     1      -4.695   6.236 -29.436  1.00  0.00     0.155 C 
BRANCH  25  26
HETATM   26  C   UNL     1      -5.217   7.660 -29.223  1.00  0.00     0.254 C 
BRANCH  26  27
HETATM   27  N   UNL     1      -5.034   8.114 -27.786  1.00  0.00    -0.077 N 
HETATM   28  C   UNL     1      -4.787   6.951 -26.869  1.00  0.00     0.269 C 
HETATM   29  H   UNL     1      -4.199   8.717 -27.766  1.00  0.00     0.279 HD
HETATM   30  C   UNL     1      -6.162   8.976 -27.281  1.00  0.00     0.269 C 
ENDBRANCH  26  27
ENDBRANCH  25  26
ENDBRANCH   1  25
TORSDOF 5
ENDMDL
