MODEL 1
REMARK VINA RESULT:      -8.7      0.000      0.000
REMARK  7 active torsions:
REMARK  status: ('A' for Active; 'I' for Inactive)
REMARK    1  A    between atoms: C_5  and  N_6 
REMARK    2  A    between atoms: C_7  and  S_8 
REMARK    3  A    between atoms: S_8  and  C_9 
REMARK    4  A    between atoms: C_9  and  C_10 
REMARK       I    between atoms: C_10  and  N_11 
REMARK    5  A    between atoms: C_13  and  C_14 
REMARK    6  A    between atoms: C_14  and  N_15 
REMARK       I    between atoms: N_15  and  C_16 
REMARK       I    between atoms: C_16  and  N_17 
REMARK    7  A    between atoms: N_17  and  C_18 
ROOT
HETATM    1  C   UNL     1      -5.050   5.526 -33.749  1.00  0.00     0.229 C 
HETATM    2  N   UNL     1      -3.751   5.537 -33.237  1.00  0.00    -0.351 N 
HETATM    3  C   UNL     1      -3.414   5.780 -31.835  1.00  0.00     0.132 C 
HETATM    4  C   UNL     1      -2.234   4.909 -31.380  1.00  0.00     0.021 C 
HETATM    5  C   UNL     1      -1.038   5.129 -32.319  1.00  0.00     0.009 C 
HETATM    6  C   UNL     1      -1.411   4.912 -33.787  1.00  0.00     0.020 C 
HETATM    7  C   UNL     1      -2.650   5.708 -34.184  1.00  0.00     0.126 C 
HETATM    8  O   UNL     1      -5.268   5.239 -34.932  1.00  0.00    -0.273 OA
ENDROOT
BRANCH   1   9
HETATM    9  C   UNL     1      -6.225   5.792 -32.817  1.00  0.00     0.185 C 
BRANCH   9  10
HETATM   10  S   UNL     1      -7.747   4.953 -33.350  1.00  0.00    -0.082 SA
BRANCH  10  11
HETATM   11  C   UNL     1      -8.613   4.894 -31.845  1.00  0.00     0.173 A 
HETATM   12  N   UNL     1      -9.584   3.956 -31.534  1.00  0.00    -0.299 N 
HETATM   13  C   UNL     1     -10.162   4.407 -30.362  1.00  0.00     0.118 A 
HETATM   14  C   UNL     1      -9.479   5.546 -30.013  1.00  0.00     0.137 A 
HETATM   15  N   UNL     1      -8.509   5.834 -30.932  1.00  0.00    -0.235 NA
BRANCH  12  16
HETATM   16  C   UNL     1      -9.887   2.719 -32.172  1.00  0.00     0.047 A 
HETATM   17  C   UNL     1     -10.874   2.618 -33.183  1.00  0.00    -0.029 A 
HETATM   18  C   UNL     1     -11.228   1.329 -33.655  1.00  0.00    -0.054 A 
HETATM   19  C   UNL     1     -11.524   3.833 -33.800  1.00  0.00     0.051 C 
HETATM   20  C   UNL     1     -12.286   1.124 -34.709  1.00  0.00     0.049 C 
HETATM   21  C   UNL     1     -10.548   0.197 -33.174  1.00  0.00     0.007 A 
HETATM   22  C   UNL     1      -9.550   0.318 -32.214  1.00  0.00     0.003 A 
HETATM   23  C   UNL     1      -9.225   1.571 -31.706  1.00  0.00     0.030 A 
ENDBRANCH  12  16
ENDBRANCH  10  11
ENDBRANCH   9  10
ENDBRANCH   1   9
BRANCH   4  24
HETATM   24  C   UNL     1      -2.606   3.415 -31.303  1.00  0.00     0.130 C 
BRANCH  24  25
HETATM   25  N   UNL     1      -3.982   3.209 -30.879  1.00  0.00    -0.342 N 
HETATM   26  C   UNL     1      -5.006   2.498 -31.430  1.00  0.00     0.320 C 
HETATM   27  N   UNL     1      -4.710   1.764 -32.544  1.00  0.00    -0.309 N 
HETATM   28  O   UNL     1      -6.102   2.583 -30.886  1.00  0.00    -0.247 OA
HETATM   29  H   UNL     1      -3.739   1.689 -32.793  1.00  0.00     0.170 HD
HETATM   30  H   UNL     1      -4.285   3.687 -30.038  1.00  0.00     0.164 HD
BRANCH  27  31
HETATM   31  C   UNL     1      -5.590   0.973 -33.315  1.00  0.00     0.039 A 
HETATM   32  C   UNL     1      -5.700  -0.413 -33.201  1.00  0.00     0.071 A 
HETATM   33  C   UNL     1      -6.595  -1.106 -34.014  1.00  0.00     0.118 A 
HETATM   34  F   UNL     1      -6.695  -2.437 -33.897  1.00  0.00    -0.206 F 
HETATM   35  C   UNL     1      -7.387  -0.445 -34.945  1.00  0.00     0.042 A 
HETATM   36  C   UNL     1      -7.291   0.937 -35.062  1.00  0.00     0.005 A 
HETATM   37  C   UNL     1      -6.400   1.643 -34.246  1.00  0.00     0.030 A 
ENDBRANCH  27  31
ENDBRANCH  24  25
ENDBRANCH   4  24
TORSDOF 7
ENDMDL
MODEL 2
REMARK VINA RESULT:      -8.6      1.420      1.583
REMARK  7 active torsions:
REMARK  status: ('A' for Active; 'I' for Inactive)
REMARK    1  A    between atoms: C_5  and  N_6 
REMARK    2  A    between atoms: C_7  and  S_8 
REMARK    3  A    between atoms: S_8  and  C_9 
REMARK    4  A    between atoms: C_9  and  C_10 
REMARK       I    between atoms: C_10  and  N_11 
REMARK    5  A    between atoms: C_13  and  C_14 
REMARK    6  A    between atoms: C_14  and  N_15 
REMARK       I    between atoms: N_15  and  C_16 
REMARK       I    between atoms: C_16  and  N_17 
REMARK    7  A    between atoms: N_17  and  C_18 
ROOT
HETATM    1  C   UNL     1      -4.699   5.272 -34.227  1.00  0.00     0.229 C 
HETATM    2  N   UNL     1      -3.679   5.266 -33.274  1.00  0.00    -0.351 N 
HETATM    3  C   UNL     1      -3.889   5.094 -31.836  1.00  0.00     0.132 C 
HETATM    4  C   UNL     1      -2.767   4.261 -31.200  1.00  0.00     0.021 C 
HETATM    5  C   UNL     1      -1.404   4.895 -31.525  1.00  0.00     0.009 C 
HETATM    6  C   UNL     1      -1.213   5.108 -33.027  1.00  0.00     0.020 C 
HETATM    7  C   UNL     1      -2.392   5.847 -33.654  1.00  0.00     0.126 C 
HETATM    8  O   UNL     1      -4.444   5.347 -35.435  1.00  0.00    -0.273 OA
ENDROOT
BRANCH   1   9
HETATM    9  C   UNL     1      -6.145   5.101 -33.780  1.00  0.00     0.185 C 
BRANCH   9  10
HETATM   10  S   UNL     1      -6.621   3.356 -33.595  1.00  0.00    -0.082 SA
BRANCH  10  11
HETATM   11  C   UNL     1      -7.246   3.374 -31.975  1.00  0.00     0.173 A 
HETATM   12  N   UNL     1      -8.497   2.901 -31.611  1.00  0.00    -0.299 N 
HETATM   13  C   UNL     1      -8.673   3.312 -30.302  1.00  0.00     0.118 A 
HETATM   14  C   UNL     1      -7.513   3.952 -29.944  1.00  0.00     0.137 A 
HETATM   15  N   UNL     1      -6.626   3.975 -30.984  1.00  0.00    -0.235 NA
BRANCH  12  16
HETATM   16  C   UNL     1      -9.397   2.069 -32.335  1.00  0.00     0.047 A 
HETATM   17  C   UNL     1     -10.437   2.605 -33.135  1.00  0.00    -0.029 A 
HETATM   18  C   UNL     1     -11.386   1.713 -33.695  1.00  0.00    -0.054 A 
HETATM   19  C   UNL     1     -10.538   4.080 -33.443  1.00  0.00     0.051 C 
HETATM   20  C   UNL     1     -12.539   2.197 -34.536  1.00  0.00     0.049 C 
HETATM   21  C   UNL     1     -11.237   0.328 -33.513  1.00  0.00     0.007 A 
HETATM   22  C   UNL     1     -10.185  -0.184 -32.762  1.00  0.00     0.003 A 
HETATM   23  C   UNL     1      -9.273   0.680 -32.167  1.00  0.00     0.030 A 
ENDBRANCH  12  16
ENDBRANCH  10  11
ENDBRANCH   9  10
ENDBRANCH   1   9
BRANCH   4  24
HETATM   24  C   UNL     1      -2.807   2.786 -31.648  1.00  0.00     0.130 C 
BRANCH  24  25
HETATM   25  N   UNL     1      -3.904   2.053 -31.036  1.00  0.00    -0.342 N 
HETATM   26  C   UNL     1      -4.644   0.994 -31.471  1.00  0.00     0.320 C 
HETATM   27  N   UNL     1      -4.271   0.435 -32.661  1.00  0.00    -0.309 N 
HETATM   28  O   UNL     1      -5.581   0.639 -30.765  1.00  0.00    -0.247 OA
HETATM   29  H   UNL     1      -3.402   0.751 -33.058  1.00  0.00     0.170 HD
HETATM   30  H   UNL     1      -4.229   2.373 -30.131  1.00  0.00     0.164 HD
BRANCH  27  31
HETATM   31  C   UNL     1      -4.885  -0.640 -33.341  1.00  0.00     0.039 A 
HETATM   32  C   UNL     1      -4.299  -1.894 -33.509  1.00  0.00     0.071 A 
HETATM   33  C   UNL     1      -4.985  -2.891 -34.202  1.00  0.00     0.118 A 
HETATM   34  F   UNL     1      -4.415  -4.094 -34.359  1.00  0.00    -0.206 F 
HETATM   35  C   UNL     1      -6.247  -2.663 -34.735  1.00  0.00     0.042 A 
HETATM   36  C   UNL     1      -6.843  -1.418 -34.567  1.00  0.00     0.005 A 
HETATM   37  C   UNL     1      -6.166  -0.413 -33.867  1.00  0.00     0.030 A 
ENDBRANCH  27  31
ENDBRANCH  24  25
ENDBRANCH   4  24
TORSDOF 7
ENDMDL
MODEL 3
REMARK VINA RESULT:      -8.2      4.068      6.675
REMARK  7 active torsions:
REMARK  status: ('A' for Active; 'I' for Inactive)
REMARK    1  A    between atoms: C_5  and  N_6 
REMARK    2  A    between atoms: C_7  and  S_8 
REMARK    3  A    between atoms: S_8  and  C_9 
REMARK    4  A    between atoms: C_9  and  C_10 
REMARK       I    between atoms: C_10  and  N_11 
REMARK    5  A    between atoms: C_13  and  C_14 
REMARK    6  A    between atoms: C_14  and  N_15 
REMARK       I    between atoms: N_15  and  C_16 
REMARK       I    between atoms: C_16  and  N_17 
REMARK    7  A    between atoms: N_17  and  C_18 
ROOT
HETATM    1  C   UNL     1      -5.817   5.034 -33.868  1.00  0.00     0.229 C 
HETATM    2  N   UNL     1      -4.491   5.470 -33.852  1.00  0.00    -0.351 N 
HETATM    3  C   UNL     1      -3.955   6.459 -32.917  1.00  0.00     0.132 C 
HETATM    4  C   UNL     1      -2.521   6.111 -32.491  1.00  0.00     0.021 C 
HETATM    5  C   UNL     1      -1.639   5.940 -33.738  1.00  0.00     0.009 C 
HETATM    6  C   UNL     1      -2.230   4.935 -34.728  1.00  0.00     0.020 C 
HETATM    7  C   UNL     1      -3.688   5.244 -35.053  1.00  0.00     0.126 C 
HETATM    8  O   UNL     1      -6.186   4.139 -34.637  1.00  0.00    -0.273 OA
ENDROOT
BRANCH   1   9
HETATM    9  C   UNL     1      -6.809   5.611 -32.865  1.00  0.00     0.185 C 
BRANCH   9  10
HETATM   10  S   UNL     1      -7.029   4.549 -31.406  1.00  0.00    -0.082 SA
BRANCH  10  11
HETATM   11  C   UNL     1      -8.420   3.631 -31.897  1.00  0.00     0.173 A 
HETATM   12  N   UNL     1      -8.380   2.309 -32.313  1.00  0.00    -0.299 N 
HETATM   13  C   UNL     1      -9.641   2.051 -32.820  1.00  0.00     0.118 A 
HETATM   14  C   UNL     1     -10.370   3.200 -32.633  1.00  0.00     0.137 A 
HETATM   15  N   UNL     1      -9.608   4.172 -32.048  1.00  0.00    -0.235 NA
BRANCH  12  16
HETATM   16  C   UNL     1      -7.344   1.343 -32.168  1.00  0.00     0.047 A 
HETATM   17  C   UNL     1      -6.850   0.602 -33.269  1.00  0.00    -0.029 A 
HETATM   18  C   UNL     1      -5.933  -0.450 -33.018  1.00  0.00    -0.054 A 
HETATM   19  C   UNL     1      -7.233   0.922 -34.695  1.00  0.00     0.051 C 
HETATM   20  C   UNL     1      -5.377  -1.309 -34.125  1.00  0.00     0.049 C 
HETATM   21  C   UNL     1      -5.478  -0.684 -31.710  1.00  0.00     0.007 A 
HETATM   22  C   UNL     1      -5.940   0.082 -30.646  1.00  0.00     0.003 A 
HETATM   23  C   UNL     1      -6.875   1.087 -30.869  1.00  0.00     0.030 A 
ENDBRANCH  12  16
ENDBRANCH  10  11
ENDBRANCH   9  10
ENDBRANCH   1   9
BRANCH   4  24
HETATM   24  C   UNL     1      -2.464   4.853 -31.601  1.00  0.00     0.130 C 
BRANCH  24  25
HETATM   25  N   UNL     1      -1.103   4.501 -31.229  1.00  0.00    -0.342 N 
HETATM   26  C   UNL     1      -0.252   5.020 -30.299  1.00  0.00     0.320 C 
HETATM   27  N   UNL     1      -0.753   6.002 -29.493  1.00  0.00    -0.309 N 
HETATM   28  O   UNL     1       0.888   4.570 -30.272  1.00  0.00    -0.247 OA
HETATM   29  H   UNL     1      -1.744   6.172 -29.546  1.00  0.00     0.170 HD
HETATM   30  H   UNL     1      -0.657   3.755 -31.750  1.00  0.00     0.164 HD
BRANCH  27  31
HETATM   31  C   UNL     1      -0.076   6.720 -28.482  1.00  0.00     0.039 A 
HETATM   32  C   UNL     1       0.843   7.740 -28.729  1.00  0.00     0.071 A 
HETATM   33  C   UNL     1       1.464   8.385 -27.661  1.00  0.00     0.118 A 
HETATM   34  F   UNL     1       2.345   9.365 -27.908  1.00  0.00    -0.206 F 
HETATM   35  C   UNL     1       1.192   8.033 -26.346  1.00  0.00     0.042 A 
HETATM   36  C   UNL     1       0.272   7.022 -26.088  1.00  0.00     0.005 A 
HETATM   37  C   UNL     1      -0.363   6.373 -27.152  1.00  0.00     0.030 A 
ENDBRANCH  27  31
ENDBRANCH  24  25
ENDBRANCH   4  24
TORSDOF 7
ENDMDL
MODEL 4
REMARK VINA RESULT:      -8.2      2.565      7.492
REMARK  7 active torsions:
REMARK  status: ('A' for Active; 'I' for Inactive)
REMARK    1  A    between atoms: C_5  and  N_6 
REMARK    2  A    between atoms: C_7  and  S_8 
REMARK    3  A    between atoms: S_8  and  C_9 
REMARK    4  A    between atoms: C_9  and  C_10 
REMARK       I    between atoms: C_10  and  N_11 
REMARK    5  A    between atoms: C_13  and  C_14 
REMARK    6  A    between atoms: C_14  and  N_15 
REMARK       I    between atoms: N_15  and  C_16 
REMARK       I    between atoms: C_16  and  N_17 
REMARK    7  A    between atoms: N_17  and  C_18 
ROOT
HETATM    1  C   UNL     1      -5.760   2.534 -31.146  1.00  0.00     0.229 C 
HETATM    2  N   UNL     1      -7.061   2.992 -31.363  1.00  0.00    -0.351 N 
HETATM    3  C   UNL     1      -7.524   3.619 -32.601  1.00  0.00     0.132 C 
HETATM    4  C   UNL     1      -8.963   3.204 -32.938  1.00  0.00     0.021 C 
HETATM    5  C   UNL     1      -9.882   3.510 -31.744  1.00  0.00     0.009 C 
HETATM    6  C   UNL     1      -9.367   2.883 -30.447  1.00  0.00     0.020 C 
HETATM    7  C   UNL     1      -7.902   3.225 -30.190  1.00  0.00     0.126 C 
HETATM    8  O   UNL     1      -5.456   1.944 -30.102  1.00  0.00    -0.273 OA
ENDROOT
BRANCH   1   9
HETATM    9  C   UNL     1      -4.717   2.689 -32.246  1.00  0.00     0.185 C 
BRANCH   9  10
HETATM   10  S   UNL     1      -3.175   3.445 -31.650  1.00  0.00    -0.082 SA
BRANCH  10  11
HETATM   11  C   UNL     1      -2.912   4.633 -32.888  1.00  0.00     0.173 A 
HETATM   12  N   UNL     1      -2.301   5.861 -32.681  1.00  0.00    -0.299 N 
HETATM   13  C   UNL     1      -2.504   6.568 -33.852  1.00  0.00     0.118 A 
HETATM   14  C   UNL     1      -3.169   5.718 -34.702  1.00  0.00     0.137 A 
HETATM   15  N   UNL     1      -3.407   4.514 -34.100  1.00  0.00    -0.235 NA
BRANCH  12  16
HETATM   16  C   UNL     1      -1.519   6.309 -31.580  1.00  0.00     0.047 A 
HETATM   17  C   UNL     1      -2.095   6.983 -30.475  1.00  0.00    -0.029 A 
HETATM   18  C   UNL     1      -1.232   7.538 -29.497  1.00  0.00    -0.054 A 
HETATM   19  C   UNL     1      -3.590   7.090 -30.286  1.00  0.00     0.051 C 
HETATM   20  C   UNL     1      -1.756   8.294 -28.303  1.00  0.00     0.049 C 
HETATM   21  C   UNL     1       0.156   7.345 -29.598  1.00  0.00     0.007 A 
HETATM   22  C   UNL     1       0.703   6.642 -30.666  1.00  0.00     0.003 A 
HETATM   23  C   UNL     1      -0.127   6.133 -31.659  1.00  0.00     0.030 A 
ENDBRANCH  12  16
ENDBRANCH  10  11
ENDBRANCH   9  10
ENDBRANCH   1   9
BRANCH   4  24
HETATM   24  C   UNL     1      -9.064   1.721 -33.344  1.00  0.00     0.130 C 
BRANCH  24  25
HETATM   25  N   UNL     1      -8.374   1.442 -34.594  1.00  0.00    -0.342 N 
HETATM   26  C   UNL     1      -7.508   0.452 -34.952  1.00  0.00     0.320 C 
HETATM   27  N   UNL     1      -7.277  -0.524 -34.024  1.00  0.00    -0.309 N 
HETATM   28  O   UNL     1      -7.005   0.526 -36.068  1.00  0.00    -0.247 OA
HETATM   29  H   UNL     1      -7.864  -0.521 -33.206  1.00  0.00     0.170 HD
HETATM   30  H   UNL     1      -8.512   2.095 -35.356  1.00  0.00     0.164 HD
BRANCH  27  31
HETATM   31  C   UNL     1      -6.408  -1.632 -34.133  1.00  0.00     0.039 A 
HETATM   32  C   UNL     1      -6.746  -2.832 -34.759  1.00  0.00     0.071 A 
HETATM   33  C   UNL     1      -5.819  -3.871 -34.811  1.00  0.00     0.118 A 
HETATM   34  F   UNL     1      -6.152  -5.020 -35.415  1.00  0.00    -0.206 F 
HETATM   35  C   UNL     1      -4.556  -3.742 -34.247  1.00  0.00     0.042 A 
HETATM   36  C   UNL     1      -4.206  -2.548 -33.627  1.00  0.00     0.005 A 
HETATM   37  C   UNL     1      -5.128  -1.496 -33.576  1.00  0.00     0.030 A 
ENDBRANCH  27  31
ENDBRANCH  24  25
ENDBRANCH   4  24
TORSDOF 7
ENDMDL
MODEL 5
REMARK VINA RESULT:      -8.1      2.398      5.270
REMARK  7 active torsions:
REMARK  status: ('A' for Active; 'I' for Inactive)
REMARK    1  A    between atoms: C_5  and  N_6 
REMARK    2  A    between atoms: C_7  and  S_8 
REMARK    3  A    between atoms: S_8  and  C_9 
REMARK    4  A    between atoms: C_9  and  C_10 
REMARK       I    between atoms: C_10  and  N_11 
REMARK    5  A    between atoms: C_13  and  C_14 
REMARK    6  A    between atoms: C_14  and  N_15 
REMARK       I    between atoms: N_15  and  C_16 
REMARK       I    between atoms: C_16  and  N_17 
REMARK    7  A    between atoms: N_17  and  C_18 
ROOT
HETATM    1  C   UNL     1      -7.837   5.548 -31.947  1.00  0.00     0.229 C 
HETATM    2  N   UNL     1      -7.893   6.080 -30.658  1.00  0.00    -0.351 N 
HETATM    3  C   UNL     1      -8.064   5.287 -29.440  1.00  0.00     0.132 C 
HETATM    4  C   UNL     1      -7.238   5.856 -28.278  1.00  0.00     0.021 C 
HETATM    5  C   UNL     1      -7.591   7.338 -28.070  1.00  0.00     0.009 C 
HETATM    6  C   UNL     1      -7.448   8.149 -29.358  1.00  0.00     0.020 C 
HETATM    7  C   UNL     1      -8.193   7.505 -30.524  1.00  0.00     0.126 C 
HETATM    8  O   UNL     1      -7.615   6.270 -32.927  1.00  0.00    -0.273 OA
ENDROOT
BRANCH   1   9
HETATM    9  C   UNL     1      -7.969   4.043 -32.144  1.00  0.00     0.185 C 
BRANCH   9  10
HETATM   10  S   UNL     1      -8.455   3.597 -33.839  1.00  0.00    -0.082 SA
BRANCH  10  11
HETATM   11  C   UNL     1      -9.618   2.350 -33.510  1.00  0.00     0.173 A 
HETATM   12  N   UNL     1      -9.295   1.039 -33.194  1.00  0.00    -0.299 N 
HETATM   13  C   UNL     1     -10.493   0.350 -33.240  1.00  0.00     0.118 A 
HETATM   14  C   UNL     1     -11.460   1.284 -33.525  1.00  0.00     0.137 A 
HETATM   15  N   UNL     1     -10.910   2.525 -33.678  1.00  0.00    -0.235 NA
BRANCH  12  16
HETATM   16  C   UNL     1      -8.049   0.486 -32.785  1.00  0.00     0.047 A 
HETATM   17  C   UNL     1      -7.198  -0.196 -33.689  1.00  0.00    -0.029 A 
HETATM   18  C   UNL     1      -6.053  -0.855 -33.173  1.00  0.00    -0.054 A 
HETATM   19  C   UNL     1      -7.446  -0.207 -35.179  1.00  0.00     0.051 C 
HETATM   20  C   UNL     1      -5.108  -1.627 -34.057  1.00  0.00     0.049 C 
HETATM   21  C   UNL     1      -5.746  -0.756 -31.806  1.00  0.00     0.007 A 
HETATM   22  C   UNL     1      -6.568  -0.044 -30.939  1.00  0.00     0.003 A 
HETATM   23  C   UNL     1      -7.720   0.567 -31.422  1.00  0.00     0.030 A 
ENDBRANCH  12  16
ENDBRANCH  10  11
ENDBRANCH   9  10
ENDBRANCH   1   9
BRANCH   4  24
HETATM   24  C   UNL     1      -5.722   5.678 -28.494  1.00  0.00     0.130 C 
BRANCH  24  25
HETATM   25  N   UNL     1      -5.402   4.414 -29.139  1.00  0.00    -0.342 N 
HETATM   26  C   UNL     1      -4.766   4.127 -30.310  1.00  0.00     0.320 C 
HETATM   27  N   UNL     1      -4.249   5.186 -31.001  1.00  0.00    -0.309 N 
HETATM   28  O   UNL     1      -4.720   2.948 -30.647  1.00  0.00    -0.247 OA
HETATM   29  H   UNL     1      -4.249   6.077 -30.533  1.00  0.00     0.170 HD
HETATM   30  H   UNL     1      -5.715   3.566 -28.680  1.00  0.00     0.164 HD
BRANCH  27  31
HETATM   31  C   UNL     1      -3.579   5.162 -32.244  1.00  0.00     0.039 A 
HETATM   32  C   UNL     1      -4.220   5.239 -33.480  1.00  0.00     0.071 A 
HETATM   33  C   UNL     1      -3.470   5.202 -34.653  1.00  0.00     0.118 A 
HETATM   34  F   UNL     1      -4.094   5.277 -35.837  1.00  0.00    -0.206 F 
HETATM   35  C   UNL     1      -2.086   5.087 -34.623  1.00  0.00     0.042 A 
HETATM   36  C   UNL     1      -1.435   5.017 -33.396  1.00  0.00     0.005 A 
HETATM   37  C   UNL     1      -2.179   5.060 -32.212  1.00  0.00     0.030 A 
ENDBRANCH  27  31
ENDBRANCH  24  25
ENDBRANCH   4  24
TORSDOF 7
ENDMDL
MODEL 6
REMARK VINA RESULT:      -8.1      2.787      7.831
REMARK  7 active torsions:
REMARK  status: ('A' for Active; 'I' for Inactive)
REMARK    1  A    between atoms: C_5  and  N_6 
REMARK    2  A    between atoms: C_7  and  S_8 
REMARK    3  A    between atoms: S_8  and  C_9 
REMARK    4  A    between atoms: C_9  and  C_10 
REMARK       I    between atoms: C_10  and  N_11 
REMARK    5  A    between atoms: C_13  and  C_14 
REMARK    6  A    between atoms: C_14  and  N_15 
REMARK       I    between atoms: N_15  and  C_16 
REMARK       I    between atoms: C_16  and  N_17 
REMARK    7  A    between atoms: N_17  and  C_18 
ROOT
HETATM    1  C   UNL     1      -5.875   4.321 -30.835  1.00  0.00     0.229 C 
HETATM    2  N   UNL     1      -7.211   4.145 -31.199  1.00  0.00    -0.351 N 
HETATM    3  C   UNL     1      -7.725   4.283 -32.562  1.00  0.00     0.132 C 
HETATM    4  C   UNL     1      -8.823   3.251 -32.857  1.00  0.00     0.021 C 
HETATM    5  C   UNL     1      -9.930   3.357 -31.796  1.00  0.00     0.009 C 
HETATM    6  C   UNL     1      -9.377   3.252 -30.374  1.00  0.00     0.020 C 
HETATM    7  C   UNL     1      -8.217   4.216 -30.140  1.00  0.00     0.126 C 
HETATM    8  O   UNL     1      -5.495   4.114 -29.676  1.00  0.00    -0.273 OA
ENDROOT
BRANCH   1   9
HETATM    9  C   UNL     1      -4.851   4.694 -31.900  1.00  0.00     0.185 C 
BRANCH   9  10
HETATM   10  S   UNL     1      -3.158   4.209 -31.446  1.00  0.00    -0.082 SA
BRANCH  10  11
HETATM   11  C   UNL     1      -2.267   4.940 -32.744  1.00  0.00     0.173 A 
HETATM   12  N   UNL     1      -1.713   6.211 -32.698  1.00  0.00    -0.299 N 
HETATM   13  C   UNL     1      -1.306   6.476 -33.993  1.00  0.00     0.118 A 
HETATM   14  C   UNL     1      -1.587   5.345 -34.720  1.00  0.00     0.137 A 
HETATM   15  N   UNL     1      -2.171   4.392 -33.935  1.00  0.00    -0.235 NA
BRANCH  12  16
HETATM   16  C   UNL     1      -1.476   7.056 -31.577  1.00  0.00     0.047 A 
HETATM   17  C   UNL     1      -0.428   6.805 -30.657  1.00  0.00    -0.029 A 
HETATM   18  C   UNL     1      -0.356   7.597 -29.483  1.00  0.00    -0.054 A 
HETATM   19  C   UNL     1       0.631   5.758 -30.907  1.00  0.00     0.051 C 
HETATM   20  C   UNL     1       0.708   7.383 -28.437  1.00  0.00     0.049 C 
HETATM   21  C   UNL     1      -1.264   8.651 -29.294  1.00  0.00     0.007 A 
HETATM   22  C   UNL     1      -2.260   8.913 -30.229  1.00  0.00     0.003 A 
HETATM   23  C   UNL     1      -2.373   8.115 -31.362  1.00  0.00     0.030 A 
ENDBRANCH  12  16
ENDBRANCH  10  11
ENDBRANCH   9  10
ENDBRANCH   1   9
BRANCH   4  24
HETATM   24  C   UNL     1      -8.269   1.814 -32.932  1.00  0.00     0.130 C 
BRANCH  24  25
HETATM   25  N   UNL     1      -7.885   1.440 -34.284  1.00  0.00    -0.342 N 
HETATM   26  C   UNL     1      -7.288   0.321 -34.783  1.00  0.00     0.320 C 
HETATM   27  N   UNL     1      -7.059  -0.695 -33.899  1.00  0.00    -0.309 N 
HETATM   28  O   UNL     1      -7.000   0.325 -35.974  1.00  0.00    -0.247 OA
HETATM   29  H   UNL     1      -7.471  -0.603 -32.985  1.00  0.00     0.170 HD
HETATM   30  H   UNL     1      -8.050   2.119 -35.018  1.00  0.00     0.164 HD
BRANCH  27  31
HETATM   31  C   UNL     1      -6.432  -1.935 -34.151  1.00  0.00     0.039 A 
HETATM   32  C   UNL     1      -5.072  -2.177 -33.957  1.00  0.00     0.071 A 
HETATM   33  C   UNL     1      -4.545  -3.436 -34.242  1.00  0.00     0.118 A 
HETATM   34  F   UNL     1      -3.237  -3.660 -34.052  1.00  0.00    -0.206 F 
HETATM   35  C   UNL     1      -5.347  -4.464 -34.720  1.00  0.00     0.042 A 
HETATM   36  C   UNL     1      -6.706  -4.236 -34.911  1.00  0.00     0.005 A 
HETATM   37  C   UNL     1      -7.245  -2.978 -34.621  1.00  0.00     0.030 A 
ENDBRANCH  27  31
ENDBRANCH  24  25
ENDBRANCH   4  24
TORSDOF 7
ENDMDL
MODEL 7
REMARK VINA RESULT:      -8.0      3.071      7.649
REMARK  7 active torsions:
REMARK  status: ('A' for Active; 'I' for Inactive)
REMARK    1  A    between atoms: C_5  and  N_6 
REMARK    2  A    between atoms: C_7  and  S_8 
REMARK    3  A    between atoms: S_8  and  C_9 
REMARK    4  A    between atoms: C_9  and  C_10 
REMARK       I    between atoms: C_10  and  N_11 
REMARK    5  A    between atoms: C_13  and  C_14 
REMARK    6  A    between atoms: C_14  and  N_15 
REMARK       I    between atoms: N_15  and  C_16 
REMARK       I    between atoms: C_16  and  N_17 
REMARK    7  A    between atoms: N_17  and  C_18 
ROOT
HETATM    1  C   UNL     1      -4.327   0.236 -32.262  1.00  0.00     0.229 C 
HETATM    2  N   UNL     1      -5.120  -0.722 -32.898  1.00  0.00    -0.351 N 
HETATM    3  C   UNL     1      -6.574  -0.812 -32.770  1.00  0.00     0.132 C 
HETATM    4  C   UNL     1      -7.232  -1.222 -34.096  1.00  0.00     0.021 C 
HETATM    5  C   UNL     1      -6.603  -2.530 -34.602  1.00  0.00     0.009 C 
HETATM    6  C   UNL     1      -5.079  -2.437 -34.694  1.00  0.00     0.020 C 
HETATM    7  C   UNL     1      -4.459  -1.927 -33.396  1.00  0.00     0.126 C 
HETATM    8  O   UNL     1      -3.111   0.302 -32.475  1.00  0.00    -0.273 OA
ENDROOT
BRANCH   1   9
HETATM    9  C   UNL     1      -4.983   1.270 -31.355  1.00  0.00     0.185 C 
BRANCH   9  10
HETATM   10  S   UNL     1      -3.927   2.722 -31.068  1.00  0.00    -0.082 SA
BRANCH  10  11
HETATM   11  C   UNL     1      -4.294   3.657 -32.485  1.00  0.00     0.173 A 
HETATM   12  N   UNL     1      -3.771   4.913 -32.752  1.00  0.00    -0.299 N 
HETATM   13  C   UNL     1      -4.489   5.380 -33.838  1.00  0.00     0.118 A 
HETATM   14  C   UNL     1      -5.353   4.371 -34.187  1.00  0.00     0.137 A 
HETATM   15  N   UNL     1      -5.216   3.300 -33.350  1.00  0.00    -0.235 NA
BRANCH  12  16
HETATM   16  C   UNL     1      -2.662   5.579 -32.158  1.00  0.00     0.047 A 
HETATM   17  C   UNL     1      -2.829   6.563 -31.152  1.00  0.00    -0.029 A 
HETATM   18  C   UNL     1      -1.691   7.292 -30.725  1.00  0.00    -0.054 A 
HETATM   19  C   UNL     1      -4.163   6.827 -30.496  1.00  0.00     0.051 C 
HETATM   20  C   UNL     1      -1.779   8.375 -29.680  1.00  0.00     0.049 C 
HETATM   21  C   UNL     1      -0.424   6.977 -31.243  1.00  0.00     0.007 A 
HETATM   22  C   UNL     1      -0.271   5.978 -32.197  1.00  0.00     0.003 A 
HETATM   23  C   UNL     1      -1.384   5.286 -32.661  1.00  0.00     0.030 A 
ENDBRANCH  12  16
ENDBRANCH  10  11
ENDBRANCH   9  10
ENDBRANCH   1   9
BRANCH   4  24
HETATM   24  C   UNL     1      -7.133  -0.114 -35.164  1.00  0.00     0.130 C 
BRANCH  24  25
HETATM   25  N   UNL     1      -7.405   1.206 -34.618  1.00  0.00    -0.342 N 
HETATM   26  C   UNL     1      -8.573   1.864 -34.371  1.00  0.00     0.320 C 
HETATM   27  N   UNL     1      -9.727   1.164 -34.588  1.00  0.00    -0.309 N 
HETATM   28  O   UNL     1      -8.490   3.024 -33.984  1.00  0.00    -0.247 OA
HETATM   29  H   UNL     1      -9.632   0.181 -34.777  1.00  0.00     0.170 HD
HETATM   30  H   UNL     1      -6.607   1.788 -34.390  1.00  0.00     0.164 HD
BRANCH  27  31
HETATM   31  C   UNL     1     -11.054   1.622 -34.441  1.00  0.00     0.039 A 
HETATM   32  C   UNL     1     -11.533   2.819 -34.973  1.00  0.00     0.071 A 
HETATM   33  C   UNL     1     -12.862   3.186 -34.767  1.00  0.00     0.118 A 
HETATM   34  F   UNL     1     -13.313   4.338 -35.283  1.00  0.00    -0.206 F 
HETATM   35  C   UNL     1     -13.729   2.384 -34.037  1.00  0.00     0.042 A 
HETATM   36  C   UNL     1     -13.264   1.185 -33.507  1.00  0.00     0.005 A 
HETATM   37  C   UNL     1     -11.934   0.804 -33.714  1.00  0.00     0.030 A 
ENDBRANCH  27  31
ENDBRANCH  24  25
ENDBRANCH   4  24
TORSDOF 7
ENDMDL
MODEL 8
REMARK VINA RESULT:      -8.0      4.573      7.668
REMARK  7 active torsions:
REMARK  status: ('A' for Active; 'I' for Inactive)
REMARK    1  A    between atoms: C_5  and  N_6 
REMARK    2  A    between atoms: C_7  and  S_8 
REMARK    3  A    between atoms: S_8  and  C_9 
REMARK    4  A    between atoms: C_9  and  C_10 
REMARK       I    between atoms: C_10  and  N_11 
REMARK    5  A    between atoms: C_13  and  C_14 
REMARK    6  A    between atoms: C_14  and  N_15 
REMARK       I    between atoms: N_15  and  C_16 
REMARK       I    between atoms: C_16  and  N_17 
REMARK    7  A    between atoms: N_17  and  C_18 
ROOT
HETATM    1  C   UNL     1      -3.885   3.461 -32.667  1.00  0.00     0.229 C 
HETATM    2  N   UNL     1      -3.278   4.649 -33.079  1.00  0.00    -0.351 N 
HETATM    3  C   UNL     1      -3.978   5.922 -33.251  1.00  0.00     0.132 C 
HETATM    4  C   UNL     1      -3.106   7.107 -32.812  1.00  0.00     0.021 C 
HETATM    5  C   UNL     1      -1.765   7.067 -33.561  1.00  0.00     0.009 C 
HETATM    6  C   UNL     1      -1.061   5.718 -33.408  1.00  0.00     0.020 C 
HETATM    7  C   UNL     1      -1.983   4.551 -33.750  1.00  0.00     0.126 C 
HETATM    8  O   UNL     1      -3.219   2.438 -32.469  1.00  0.00    -0.273 OA
ENDROOT
BRANCH   1   9
HETATM    9  C   UNL     1      -5.381   3.445 -32.375  1.00  0.00     0.185 C 
BRANCH   9  10
HETATM   10  S   UNL     1      -6.362   2.817 -33.771  1.00  0.00    -0.082 SA
BRANCH  10  11
HETATM   11  C   UNL     1      -7.618   1.977 -32.916  1.00  0.00     0.173 A 
HETATM   12  N   UNL     1      -7.742   0.597 -32.861  1.00  0.00    -0.299 N 
HETATM   13  C   UNL     1      -8.979   0.368 -32.286  1.00  0.00     0.118 A 
HETATM   14  C   UNL     1      -9.495   1.605 -31.985  1.00  0.00     0.137 A 
HETATM   15  N   UNL     1      -8.638   2.598 -32.367  1.00  0.00    -0.235 NA
BRANCH  12  16
HETATM   16  C   UNL     1      -6.795  -0.412 -33.194  1.00  0.00     0.047 A 
HETATM   17  C   UNL     1      -5.646  -0.653 -32.401  1.00  0.00    -0.029 A 
HETATM   18  C   UNL     1      -4.672  -1.563 -32.883  1.00  0.00    -0.054 A 
HETATM   19  C   UNL     1      -5.448  -0.008 -31.050  1.00  0.00     0.051 C 
HETATM   20  C   UNL     1      -3.406  -1.860 -32.120  1.00  0.00     0.049 C 
HETATM   21  C   UNL     1      -4.897  -2.259 -34.082  1.00  0.00     0.007 A 
HETATM   22  C   UNL     1      -6.052  -2.044 -34.826  1.00  0.00     0.003 A 
HETATM   23  C   UNL     1      -6.995  -1.119 -34.391  1.00  0.00     0.030 A 
ENDBRANCH  12  16
ENDBRANCH  10  11
ENDBRANCH   9  10
ENDBRANCH   1   9
BRANCH   4  24
HETATM   24  C   UNL     1      -2.884   7.136 -31.286  1.00  0.00     0.130 C 
BRANCH  24  25
HETATM   25  N   UNL     1      -2.760   8.491 -30.772  1.00  0.00    -0.342 N 
HETATM   26  C   UNL     1      -2.044   9.006 -29.733  1.00  0.00     0.320 C 
HETATM   27  N   UNL     1      -1.216   8.143 -29.073  1.00  0.00    -0.309 N 
HETATM   28  O   UNL     1      -2.211  10.193 -29.475  1.00  0.00    -0.247 OA
HETATM   29  H   UNL     1      -1.087   7.234 -29.484  1.00  0.00     0.170 HD
HETATM   30  H   UNL     1      -3.313   9.211 -31.223  1.00  0.00     0.164 HD
BRANCH  27  31
HETATM   31  C   UNL     1      -0.399   8.416 -27.954  1.00  0.00     0.039 A 
HETATM   32  C   UNL     1      -0.887   8.790 -26.702  1.00  0.00     0.071 A 
HETATM   33  C   UNL     1       0.002   9.044 -25.659  1.00  0.00     0.118 A 
HETATM   34  F   UNL     1      -0.475   9.402 -24.460  1.00  0.00    -0.206 F 
HETATM   35  C   UNL     1       1.376   8.936 -25.838  1.00  0.00     0.042 A 
HETATM   36  C   UNL     1       1.873   8.556 -27.080  1.00  0.00     0.005 A 
HETATM   37  C   UNL     1       0.988   8.292 -28.131  1.00  0.00     0.030 A 
ENDBRANCH  27  31
ENDBRANCH  24  25
ENDBRANCH   4  24
TORSDOF 7
ENDMDL
MODEL 9
REMARK VINA RESULT:      -8.0      5.412      8.401
REMARK  7 active torsions:
REMARK  status: ('A' for Active; 'I' for Inactive)
REMARK    1  A    between atoms: C_5  and  N_6 
REMARK    2  A    between atoms: C_7  and  S_8 
REMARK    3  A    between atoms: S_8  and  C_9 
REMARK    4  A    between atoms: C_9  and  C_10 
REMARK       I    between atoms: C_10  and  N_11 
REMARK    5  A    between atoms: C_13  and  C_14 
REMARK    6  A    between atoms: C_14  and  N_15 
REMARK       I    between atoms: N_15  and  C_16 
REMARK       I    between atoms: C_16  and  N_17 
REMARK    7  A    between atoms: N_17  and  C_18 
ROOT
HETATM    1  C   UNL     1      -2.448   4.578 -32.927  1.00  0.00     0.229 C 
HETATM    2  N   UNL     1      -2.493   5.811 -32.273  1.00  0.00    -0.351 N 
HETATM    3  C   UNL     1      -3.049   6.022 -30.937  1.00  0.00     0.132 C 
HETATM    4  C   UNL     1      -2.235   7.056 -30.146  1.00  0.00     0.021 C 
HETATM    5  C   UNL     1      -2.133   8.360 -30.954  1.00  0.00     0.009 C 
HETATM    6  C   UNL     1      -1.589   8.123 -32.363  1.00  0.00     0.020 C 
HETATM    7  C   UNL     1      -2.348   7.016 -33.089  1.00  0.00     0.126 C 
HETATM    8  O   UNL     1      -1.895   4.457 -34.026  1.00  0.00    -0.273 OA
ENDROOT
BRANCH   1   9
HETATM    9  C   UNL     1      -3.016   3.343 -32.239  1.00  0.00     0.185 C 
BRANCH   9  10
HETATM   10  S   UNL     1      -4.669   2.897 -32.850  1.00  0.00    -0.082 SA
BRANCH  10  11
HETATM   11  C   UNL     1      -5.278   2.015 -31.483  1.00  0.00     0.173 A 
HETATM   12  N   UNL     1      -6.006   0.838 -31.570  1.00  0.00    -0.299 N 
HETATM   13  C   UNL     1      -6.477   0.608 -30.290  1.00  0.00     0.118 A 
HETATM   14  C   UNL     1      -5.968   1.617 -29.509  1.00  0.00     0.137 A 
HETATM   15  N   UNL     1      -5.214   2.479 -30.255  1.00  0.00    -0.235 NA
BRANCH  12  16
HETATM   16  C   UNL     1      -6.169  -0.048 -32.672  1.00  0.00     0.047 A 
HETATM   17  C   UNL     1      -5.221  -1.059 -32.969  1.00  0.00    -0.029 A 
HETATM   18  C   UNL     1      -5.372  -1.794 -34.172  1.00  0.00    -0.054 A 
HETATM   19  C   UNL     1      -4.089  -1.404 -32.031  1.00  0.00     0.051 C 
HETATM   20  C   UNL     1      -4.397  -2.869 -34.581  1.00  0.00     0.049 C 
HETATM   21  C   UNL     1      -6.485  -1.565 -34.997  1.00  0.00     0.007 A 
HETATM   22  C   UNL     1      -7.430  -0.599 -34.669  1.00  0.00     0.003 A 
HETATM   23  C   UNL     1      -7.271   0.163 -33.517  1.00  0.00     0.030 A 
ENDBRANCH  12  16
ENDBRANCH  10  11
ENDBRANCH   9  10
ENDBRANCH   1   9
BRANCH   4  24
HETATM   24  C   UNL     1      -0.836   6.533 -29.766  1.00  0.00     0.130 C 
BRANCH  24  25
HETATM   25  N   UNL     1      -0.803   5.964 -28.428  1.00  0.00    -0.342 N 
HETATM   26  C   UNL     1      -0.331   6.450 -27.245  1.00  0.00     0.320 C 
HETATM   27  N   UNL     1       0.137   7.733 -27.254  1.00  0.00    -0.309 N 
HETATM   28  O   UNL     1      -0.357   5.694 -26.280  1.00  0.00    -0.247 OA
HETATM   29  H   UNL     1      -0.029   8.271 -28.089  1.00  0.00     0.170 HD
HETATM   30  H   UNL     1      -1.164   5.024 -28.315  1.00  0.00     0.164 HD
BRANCH  27  31
HETATM   31  C   UNL     1       0.704   8.454 -26.180  1.00  0.00     0.039 A 
HETATM   32  C   UNL     1      -0.014   9.319 -25.354  1.00  0.00     0.071 A 
HETATM   33  C   UNL     1       0.638   9.990 -24.321  1.00  0.00     0.118 A 
HETATM   34  F   UNL     1      -0.059  10.818 -23.531  1.00  0.00    -0.206 F 
HETATM   35  C   UNL     1       1.998   9.820 -24.093  1.00  0.00     0.042 A 
HETATM   36  C   UNL     1       2.722   8.955 -24.907  1.00  0.00     0.005 A 
HETATM   37  C   UNL     1       2.075   8.271 -25.942  1.00  0.00     0.030 A 
ENDBRANCH  27  31
ENDBRANCH  24  25
ENDBRANCH   4  24
TORSDOF 7
ENDMDL
MODEL 10
REMARK VINA RESULT:      -7.8      3.289      8.686
REMARK  7 active torsions:
REMARK  status: ('A' for Active; 'I' for Inactive)
REMARK    1  A    between atoms: C_5  and  N_6 
REMARK    2  A    between atoms: C_7  and  S_8 
REMARK    3  A    between atoms: S_8  and  C_9 
REMARK    4  A    between atoms: C_9  and  C_10 
REMARK       I    between atoms: C_10  and  N_11 
REMARK    5  A    between atoms: C_13  and  C_14 
REMARK    6  A    between atoms: C_14  and  N_15 
REMARK       I    between atoms: N_15  and  C_16 
REMARK       I    between atoms: C_16  and  N_17 
REMARK    7  A    between atoms: N_17  and  C_18 
ROOT
HETATM    1  C   UNL     1      -4.815   2.323 -32.392  1.00  0.00     0.229 C 
HETATM    2  N   UNL     1      -6.091   1.905 -32.009  1.00  0.00    -0.351 N 
HETATM    3  C   UNL     1      -7.256   2.784 -31.908  1.00  0.00     0.132 C 
HETATM    4  C   UNL     1      -8.538   2.074 -32.367  1.00  0.00     0.021 C 
HETATM    5  C   UNL     1      -8.716   0.768 -31.577  1.00  0.00     0.009 C 
HETATM    6  C   UNL     1      -7.477  -0.126 -31.656  1.00  0.00     0.020 C 
HETATM    7  C   UNL     1      -6.203   0.633 -31.296  1.00  0.00     0.126 C 
HETATM    8  O   UNL     1      -3.892   1.512 -32.529  1.00  0.00    -0.273 OA
ENDROOT
BRANCH   1   9
HETATM    9  C   UNL     1      -4.575   3.790 -32.727  1.00  0.00     0.185 C 
BRANCH   9  10
HETATM   10  S   UNL     1      -3.347   4.567 -31.635  1.00  0.00    -0.082 SA
BRANCH  10  11
HETATM   11  C   UNL     1      -2.244   5.207 -32.815  1.00  0.00     0.173 A 
HETATM   12  N   UNL     1      -1.546   6.396 -32.673  1.00  0.00    -0.299 N 
HETATM   13  C   UNL     1      -0.979   6.634 -33.912  1.00  0.00     0.118 A 
HETATM   14  C   UNL     1      -1.321   5.562 -34.700  1.00  0.00     0.137 A 
HETATM   15  N   UNL     1      -2.095   4.674 -34.007  1.00  0.00    -0.235 NA
BRANCH  12  16
HETATM   16  C   UNL     1      -1.323   7.183 -31.507  1.00  0.00     0.047 A 
HETATM   17  C   UNL     1      -0.351   6.829 -30.539  1.00  0.00    -0.029 A 
HETATM   18  C   UNL     1      -0.299   7.572 -29.332  1.00  0.00    -0.054 A 
HETATM   19  C   UNL     1       0.651   5.722 -30.768  1.00  0.00     0.051 C 
HETATM   20  C   UNL     1       0.684   7.249 -28.236  1.00  0.00     0.049 C 
HETATM   21  C   UNL     1      -1.146   8.677 -29.154  1.00  0.00     0.007 A 
HETATM   22  C   UNL     1      -2.065   9.039 -30.134  1.00  0.00     0.003 A 
HETATM   23  C   UNL     1      -2.160   8.291 -31.303  1.00  0.00     0.030 A 
ENDBRANCH  12  16
ENDBRANCH  10  11
ENDBRANCH   9  10
ENDBRANCH   1   9
BRANCH   4  24
HETATM   24  C   UNL     1      -8.546   1.805 -33.885  1.00  0.00     0.130 C 
BRANCH  24  25
HETATM   25  N   UNL     1      -9.458   2.685 -34.597  1.00  0.00    -0.342 N 
HETATM   26  C   UNL     1     -10.819   2.767 -34.609  1.00  0.00     0.320 C 
HETATM   27  N   UNL     1     -11.488   1.941 -33.751  1.00  0.00    -0.309 N 
HETATM   28  O   UNL     1     -11.324   3.564 -35.391  1.00  0.00    -0.247 OA
HETATM   29  H   UNL     1     -10.933   1.439 -33.078  1.00  0.00     0.170 HD
HETATM   30  H   UNL     1      -9.050   3.360 -35.234  1.00  0.00     0.164 HD
BRANCH  27  31
HETATM   31  C   UNL     1     -12.885   1.809 -33.592  1.00  0.00     0.039 A 
HETATM   32  C   UNL     1     -13.691   1.008 -34.401  1.00  0.00     0.071 A 
HETATM   33  C   UNL     1     -15.064   0.948 -34.168  1.00  0.00     0.118 A 
HETATM   34  F   UNL     1     -15.831   0.176 -34.950  1.00  0.00    -0.206 F 
HETATM   35  C   UNL     1     -15.656   1.675 -33.143  1.00  0.00     0.042 A 
HETATM   36  C   UNL     1     -14.861   2.471 -32.326  1.00  0.00     0.005 A 
HETATM   37  C   UNL     1     -13.480   2.532 -32.547  1.00  0.00     0.030 A 
ENDBRANCH  27  31
ENDBRANCH  24  25
ENDBRANCH   4  24
TORSDOF 7
ENDMDL
