MODEL 1
REMARK VINA RESULT:      -7.1      0.000      0.000
REMARK  3 active torsions:
REMARK  status: ('A' for Active; 'I' for Inactive)
REMARK    1  A    between atoms: C_4  and  N_5 
REMARK    2  A    between atoms: N_5  and  C_6 
REMARK    3  A    between atoms: C_14  and  C_15 
REMARK       I    between atoms: C_15  and  N_16 
ROOT
HETATM    1  C   UNL     1      -4.611  -4.956 -34.246  1.00  0.00     0.020 A 
HETATM    2  C   UNL     1      -5.721  -4.455 -34.898  1.00  0.00     0.119 A 
HETATM    3  N   UNL     1      -6.076  -3.151 -34.886  1.00  0.00    -0.242 NA
HETATM    4  C   UNL     1      -5.316  -2.272 -34.183  1.00  0.00     0.143 A 
HETATM    5  C   UNL     1      -4.162  -2.707 -33.510  1.00  0.00     0.077 A 
HETATM    6  C   UNL     1      -3.814  -4.064 -33.539  1.00  0.00     0.022 A 
ENDROOT
BRANCH   4   7
HETATM    7  N   UNL     1      -5.657  -0.899 -34.186  1.00  0.00    -0.339 N 
HETATM    8  H   UNL     1      -4.867  -0.336 -33.853  1.00  0.00     0.167 HD
BRANCH   7   9
HETATM    9  C   UNL     1      -6.904  -0.288 -33.929  1.00  0.00     0.055 A 
HETATM   10  C   UNL     1      -7.307  -0.002 -32.608  1.00  0.00     0.062 A 
HETATM   11 CL   UNL     1      -6.306  -0.444 -31.266  1.00  0.00    -0.082 Cl
HETATM   12  C   UNL     1      -8.523   0.630 -32.337  1.00  0.00     0.050 A 
HETATM   13  C   UNL     1      -9.351   0.999 -33.391  1.00  0.00     0.035 A 
HETATM   14 CL   UNL     1     -10.849   1.784 -33.069  1.00  0.00    -0.084 Cl
HETATM   15  C   UNL     1      -8.974   0.744 -34.706  1.00  0.00     0.026 A 
HETATM   16  C   UNL     1      -7.757   0.107 -34.969  1.00  0.00     0.033 A 
ENDBRANCH   7   9
ENDBRANCH   4   7
BRANCH   5  17
HETATM   17  C   UNL     1      -3.343  -1.750 -32.730  1.00  0.00     0.253 C 
HETATM   18  N   UNL     1      -2.785  -2.207 -31.568  1.00  0.00    -0.366 N 
HETATM   19  H   UNL     1      -2.719  -3.191 -31.348  1.00  0.00     0.159 HD
HETATM   20  H   UNL     1      -2.136  -1.581 -31.106  1.00  0.00     0.159 HD
HETATM   21  O   UNL     1      -3.160  -0.602 -33.117  1.00  0.00    -0.268 OA
ENDBRANCH   5  17
TORSDOF 3
ENDMDL
MODEL 2
REMARK VINA RESULT:      -6.9      1.534      2.014
REMARK  3 active torsions:
REMARK  status: ('A' for Active; 'I' for Inactive)
REMARK    1  A    between atoms: C_4  and  N_5 
REMARK    2  A    between atoms: N_5  and  C_6 
REMARK    3  A    between atoms: C_14  and  C_15 
REMARK       I    between atoms: C_15  and  N_16 
ROOT
HETATM    1  C   UNL     1      -4.845  -5.154 -34.432  1.00  0.00     0.020 A 
HETATM    2  C   UNL     1      -5.728  -4.299 -35.060  1.00  0.00     0.119 A 
HETATM    3  N   UNL     1      -5.789  -2.971 -34.821  1.00  0.00    -0.242 NA
HETATM    4  C   UNL     1      -4.950  -2.432 -33.900  1.00  0.00     0.143 A 
HETATM    5  C   UNL     1      -4.010  -3.238 -33.234  1.00  0.00     0.077 A 
HETATM    6  C   UNL     1      -3.967  -4.614 -33.501  1.00  0.00     0.022 A 
ENDROOT
BRANCH   4   7
HETATM    7  N   UNL     1      -4.979  -1.039 -33.661  1.00  0.00    -0.339 N 
HETATM    8  H   UNL     1      -4.032  -0.689 -33.478  1.00  0.00     0.167 HD
BRANCH   7   9
HETATM    9  C   UNL     1      -5.974  -0.262 -33.026  1.00  0.00     0.055 A 
HETATM   10  C   UNL     1      -6.969   0.390 -33.783  1.00  0.00     0.062 A 
HETATM   11 CL   UNL     1      -6.964   0.299 -35.512  1.00  0.00    -0.082 Cl
HETATM   12  C   UNL     1      -7.978   1.138 -33.171  1.00  0.00     0.050 A 
HETATM   13  C   UNL     1      -8.013   1.232 -31.784  1.00  0.00     0.035 A 
HETATM   14 CL   UNL     1      -9.255   2.145 -31.018  1.00  0.00    -0.084 Cl
HETATM   15  C   UNL     1      -7.053   0.587 -31.010  1.00  0.00     0.026 A 
HETATM   16  C   UNL     1      -6.043  -0.156 -31.630  1.00  0.00     0.033 A 
ENDBRANCH   7   9
ENDBRANCH   4   7
BRANCH   5  17
HETATM   17  C   UNL     1      -3.106  -2.653 -32.218  1.00  0.00     0.253 C 
HETATM   18  N   UNL     1      -2.580  -3.504 -31.285  1.00  0.00    -0.366 N 
HETATM   19  H   UNL     1      -2.599  -4.509 -31.394  1.00  0.00     0.159 HD
HETATM   20  H   UNL     1      -1.877  -3.115 -30.668  1.00  0.00     0.159 HD
HETATM   21  O   UNL     1      -2.827  -1.460 -32.221  1.00  0.00    -0.268 OA
ENDBRANCH   5  17
TORSDOF 3
ENDMDL
MODEL 3
REMARK VINA RESULT:      -6.9      3.286      5.602
REMARK  3 active torsions:
REMARK  status: ('A' for Active; 'I' for Inactive)
REMARK    1  A    between atoms: C_4  and  N_5 
REMARK    2  A    between atoms: N_5  and  C_6 
REMARK    3  A    between atoms: C_14  and  C_15 
REMARK       I    between atoms: C_15  and  N_16 
ROOT
HETATM    1  C   UNL     1      -7.031   3.037 -29.870  1.00  0.00     0.020 A 
HETATM    2  C   UNL     1      -7.766   2.451 -30.882  1.00  0.00     0.119 A 
HETATM    3  N   UNL     1      -7.216   1.854 -31.963  1.00  0.00    -0.242 NA
HETATM    4  C   UNL     1      -5.864   1.835 -32.084  1.00  0.00     0.143 A 
HETATM    5  C   UNL     1      -5.051   2.395 -31.083  1.00  0.00     0.077 A 
HETATM    6  C   UNL     1      -5.646   3.007 -29.972  1.00  0.00     0.022 A 
ENDROOT
BRANCH   4   7
HETATM    7  N   UNL     1      -5.273   1.187 -33.193  1.00  0.00    -0.339 N 
HETATM    8  H   UNL     1      -5.188   1.839 -33.981  1.00  0.00     0.167 HD
BRANCH   7   9
HETATM    9  C   UNL     1      -5.394  -0.156 -33.613  1.00  0.00     0.055 A 
HETATM   10  C   UNL     1      -6.383  -0.532 -34.545  1.00  0.00     0.062 A 
HETATM   11 CL   UNL     1      -7.508   0.633 -35.156  1.00  0.00    -0.082 Cl
HETATM   12  C   UNL     1      -6.499  -1.850 -34.994  1.00  0.00     0.050 A 
HETATM   13  C   UNL     1      -5.612  -2.812 -34.524  1.00  0.00     0.035 A 
HETATM   14 CL   UNL     1      -5.740  -4.438 -35.075  1.00  0.00    -0.084 Cl
HETATM   15  C   UNL     1      -4.616  -2.468 -33.616  1.00  0.00     0.026 A 
HETATM   16  C   UNL     1      -4.509  -1.148 -33.167  1.00  0.00     0.033 A 
ENDBRANCH   7   9
ENDBRANCH   4   7
BRANCH   5  17
HETATM   17  C   UNL     1      -3.577   2.389 -31.224  1.00  0.00     0.253 C 
HETATM   18  N   UNL     1      -2.947   3.602 -31.258  1.00  0.00    -0.366 N 
HETATM   19  H   UNL     1      -3.401   4.458 -30.972  1.00  0.00     0.159 HD
HETATM   20  H   UNL     1      -1.934   3.582 -31.238  1.00  0.00     0.159 HD
HETATM   21  O   UNL     1      -2.946   1.341 -31.290  1.00  0.00    -0.268 OA
ENDBRANCH   5  17
TORSDOF 3
ENDMDL
MODEL 4
REMARK VINA RESULT:      -6.7      3.437      4.555
REMARK  3 active torsions:
REMARK  status: ('A' for Active; 'I' for Inactive)
REMARK    1  A    between atoms: C_4  and  N_5 
REMARK    2  A    between atoms: N_5  and  C_6 
REMARK    3  A    between atoms: C_14  and  C_15 
REMARK       I    between atoms: C_15  and  N_16 
ROOT
HETATM    1  C   UNL     1      -5.532  -3.116 -34.973  1.00  0.00     0.020 A 
HETATM    2  C   UNL     1      -4.498  -2.787 -34.119  1.00  0.00     0.119 A 
HETATM    3  N   UNL     1      -4.527  -1.736 -33.271  1.00  0.00    -0.242 NA
HETATM    4  C   UNL     1      -5.624  -0.936 -33.257  1.00  0.00     0.143 A 
HETATM    5  C   UNL     1      -6.723  -1.220 -34.085  1.00  0.00     0.077 A 
HETATM    6  C   UNL     1      -6.668  -2.317 -34.956  1.00  0.00     0.022 A 
ENDROOT
BRANCH   4   7
HETATM    7  N   UNL     1      -5.683   0.150 -32.353  1.00  0.00    -0.339 N 
HETATM    8  H   UNL     1      -6.602   0.184 -31.898  1.00  0.00     0.167 HD
BRANCH   7   9
HETATM    9  C   UNL     1      -5.078   1.423 -32.445  1.00  0.00     0.055 A 
HETATM   10  C   UNL     1      -3.810   1.660 -31.875  1.00  0.00     0.062 A 
HETATM   11 CL   UNL     1      -2.989   0.411 -31.001  1.00  0.00    -0.082 Cl
HETATM   12  C   UNL     1      -3.183   2.904 -31.982  1.00  0.00     0.050 A 
HETATM   13  C   UNL     1      -3.814   3.929 -32.677  1.00  0.00     0.035 A 
HETATM   14 CL   UNL     1      -3.048   5.464 -32.821  1.00  0.00    -0.084 Cl
HETATM   15  C   UNL     1      -5.059   3.721 -33.264  1.00  0.00     0.026 A 
HETATM   16  C   UNL     1      -5.682   2.475 -33.148  1.00  0.00     0.033 A 
ENDBRANCH   7   9
ENDBRANCH   4   7
BRANCH   5  17
HETATM   17  C   UNL     1      -7.913  -0.338 -34.082  1.00  0.00     0.253 C 
HETATM   18  N   UNL     1      -8.215   0.310 -35.248  1.00  0.00    -0.366 N 
HETATM   19  H   UNL     1      -7.813   0.044 -36.137  1.00  0.00     0.159 HD
HETATM   20  H   UNL     1      -9.092   0.817 -35.266  1.00  0.00     0.159 HD
HETATM   21  O   UNL     1      -8.608  -0.205 -33.082  1.00  0.00    -0.268 OA
ENDBRANCH   5  17
TORSDOF 3
ENDMDL
MODEL 5
REMARK VINA RESULT:      -6.6      3.307      5.457
REMARK  3 active torsions:
REMARK  status: ('A' for Active; 'I' for Inactive)
REMARK    1  A    between atoms: C_4  and  N_5 
REMARK    2  A    between atoms: N_5  and  C_6 
REMARK    3  A    between atoms: C_14  and  C_15 
REMARK       I    between atoms: C_15  and  N_16 
ROOT
HETATM    1  C   UNL     1      -7.195   3.049 -30.029  1.00  0.00     0.020 A 
HETATM    2  C   UNL     1      -7.794   2.208 -30.947  1.00  0.00     0.119 A 
HETATM    3  N   UNL     1      -7.118   1.527 -31.897  1.00  0.00    -0.242 NA
HETATM    4  C   UNL     1      -5.771   1.678 -31.978  1.00  0.00     0.143 A 
HETATM    5  C   UNL     1      -5.090   2.503 -31.066  1.00  0.00     0.077 A 
HETATM    6  C   UNL     1      -5.815   3.198 -30.089  1.00  0.00     0.022 A 
ENDROOT
BRANCH   4   7
HETATM    7  N   UNL     1      -5.045   0.948 -32.948  1.00  0.00    -0.339 N 
HETATM    8  H   UNL     1      -4.561   1.589 -33.586  1.00  0.00     0.167 HD
BRANCH   7   9
HETATM    9  C   UNL     1      -5.359  -0.288 -33.556  1.00  0.00     0.055 A 
HETATM   10  C   UNL     1      -4.569  -1.431 -33.312  1.00  0.00     0.062 A 
HETATM   11 CL   UNL     1      -3.165  -1.334 -32.305  1.00  0.00    -0.082 Cl
HETATM   12  C   UNL     1      -4.882  -2.668 -33.881  1.00  0.00     0.050 A 
HETATM   13  C   UNL     1      -6.004  -2.782 -34.695  1.00  0.00     0.035 A 
HETATM   14 CL   UNL     1      -6.402  -4.302 -35.396  1.00  0.00    -0.084 Cl
HETATM   15  C   UNL     1      -6.810  -1.675 -34.941  1.00  0.00     0.026 A 
HETATM   16  C   UNL     1      -6.488  -0.439 -34.372  1.00  0.00     0.033 A 
ENDBRANCH   7   9
ENDBRANCH   4   7
BRANCH   5  17
HETATM   17  C   UNL     1      -3.623   2.681 -31.166  1.00  0.00     0.253 C 
HETATM   18  N   UNL     1      -3.150   3.964 -31.190  1.00  0.00    -0.366 N 
HETATM   19  H   UNL     1      -3.716   4.757 -30.922  1.00  0.00     0.159 HD
HETATM   20  H   UNL     1      -2.143   4.071 -31.142  1.00  0.00     0.159 HD
HETATM   21  O   UNL     1      -2.864   1.720 -31.208  1.00  0.00    -0.268 OA
ENDBRANCH   5  17
TORSDOF 3
ENDMDL
MODEL 6
REMARK VINA RESULT:      -6.6      3.691      5.796
REMARK  3 active torsions:
REMARK  status: ('A' for Active; 'I' for Inactive)
REMARK    1  A    between atoms: C_4  and  N_5 
REMARK    2  A    between atoms: N_5  and  C_6 
REMARK    3  A    between atoms: C_14  and  C_15 
REMARK       I    between atoms: C_15  and  N_16 
ROOT
HETATM    1  C   UNL     1      -4.060   4.083 -32.085  1.00  0.00     0.020 A 
HETATM    2  C   UNL     1      -3.288   3.015 -32.500  1.00  0.00     0.119 A 
HETATM    3  N   UNL     1      -3.647   1.722 -32.345  1.00  0.00    -0.242 NA
HETATM    4  C   UNL     1      -4.826   1.438 -31.735  1.00  0.00     0.143 A 
HETATM    5  C   UNL     1      -5.672   2.473 -31.303  1.00  0.00     0.077 A 
HETATM    6  C   UNL     1      -5.277   3.807 -31.476  1.00  0.00     0.022 A 
ENDROOT
BRANCH   4   7
HETATM    7  N   UNL     1      -5.230   0.090 -31.594  1.00  0.00    -0.339 N 
HETATM    8  H   UNL     1      -4.879  -0.296 -30.710  1.00  0.00     0.167 HD
BRANCH   7   9
HETATM    9  C   UNL     1      -5.403  -0.900 -32.586  1.00  0.00     0.055 A 
HETATM   10  C   UNL     1      -4.379  -1.831 -32.859  1.00  0.00     0.062 A 
HETATM   11 CL   UNL     1      -2.866  -1.749 -32.021  1.00  0.00    -0.082 Cl
HETATM   12  C   UNL     1      -4.543  -2.836 -33.816  1.00  0.00     0.050 A 
HETATM   13  C   UNL     1      -5.746  -2.931 -34.507  1.00  0.00     0.035 A 
HETATM   14 CL   UNL     1      -5.962  -4.169 -35.684  1.00  0.00    -0.084 Cl
HETATM   15  C   UNL     1      -6.779  -2.036 -34.249  1.00  0.00     0.026 A 
HETATM   16  C   UNL     1      -6.606  -1.030 -33.293  1.00  0.00     0.033 A 
ENDBRANCH   7   9
ENDBRANCH   4   7
BRANCH   5  17
HETATM   17  C   UNL     1      -6.950   2.163 -30.622  1.00  0.00     0.253 C 
HETATM   18  N   UNL     1      -7.089   2.586 -29.328  1.00  0.00    -0.366 N 
HETATM   19  H   UNL     1      -6.474   3.273 -28.913  1.00  0.00     0.159 HD
HETATM   20  H   UNL     1      -8.006   2.470 -28.914  1.00  0.00     0.159 HD
HETATM   21  O   UNL     1      -7.853   1.566 -31.197  1.00  0.00    -0.268 OA
ENDBRANCH   5  17
TORSDOF 3
ENDMDL
MODEL 7
REMARK VINA RESULT:      -6.5      1.786      2.181
REMARK  3 active torsions:
REMARK  status: ('A' for Active; 'I' for Inactive)
REMARK    1  A    between atoms: C_4  and  N_5 
REMARK    2  A    between atoms: N_5  and  C_6 
REMARK    3  A    between atoms: C_14  and  C_15 
REMARK       I    between atoms: C_15  and  N_16 
ROOT
HETATM    1  C   UNL     1      -4.800  -3.069 -34.622  1.00  0.00     0.020 A 
HETATM    2  C   UNL     1      -6.171  -2.965 -34.747  1.00  0.00     0.119 A 
HETATM    3  N   UNL     1      -6.917  -2.037 -34.107  1.00  0.00    -0.242 NA
HETATM    4  C   UNL     1      -6.299  -1.158 -33.277  1.00  0.00     0.143 A 
HETATM    5  C   UNL     1      -4.903  -1.192 -33.115  1.00  0.00     0.077 A 
HETATM    6  C   UNL     1      -4.152  -2.164 -33.790  1.00  0.00     0.022 A 
ENDROOT
BRANCH   4   7
HETATM    7  N   UNL     1      -7.061  -0.161 -32.625  1.00  0.00    -0.339 N 
HETATM    8  H   UNL     1      -7.036  -0.303 -31.609  1.00  0.00     0.167 HD
BRANCH   7   9
HETATM    9  C   UNL     1      -8.244   0.482 -33.052  1.00  0.00     0.055 A 
HETATM   10  C   UNL     1      -8.183   1.667 -33.815  1.00  0.00     0.062 A 
HETATM   11 CL   UNL     1      -6.658   2.391 -34.198  1.00  0.00    -0.082 Cl
HETATM   12  C   UNL     1      -9.341   2.301 -34.272  1.00  0.00     0.050 A 
HETATM   13  C   UNL     1     -10.582   1.746 -33.982  1.00  0.00     0.035 A 
HETATM   14 CL   UNL     1     -12.016   2.515 -34.545  1.00  0.00    -0.084 Cl
HETATM   15  C   UNL     1     -10.674   0.570 -33.245  1.00  0.00     0.026 A 
HETATM   16  C   UNL     1      -9.510  -0.056 -32.787  1.00  0.00     0.033 A 
ENDBRANCH   7   9
ENDBRANCH   4   7
BRANCH   5  17
HETATM   17  C   UNL     1      -4.231  -0.244 -32.197  1.00  0.00     0.253 C 
HETATM   18  N   UNL     1      -3.402  -0.775 -31.247  1.00  0.00    -0.366 N 
HETATM   19  H   UNL     1      -3.063  -1.726 -31.293  1.00  0.00     0.159 HD
HETATM   20  H   UNL     1      -2.861  -0.113 -30.703  1.00  0.00     0.159 HD
HETATM   21  O   UNL     1      -4.398   0.966 -32.292  1.00  0.00    -0.268 OA
ENDBRANCH   5  17
TORSDOF 3
ENDMDL
MODEL 8
REMARK VINA RESULT:      -6.5      3.463      6.391
REMARK  3 active torsions:
REMARK  status: ('A' for Active; 'I' for Inactive)
REMARK    1  A    between atoms: C_4  and  N_5 
REMARK    2  A    between atoms: N_5  and  C_6 
REMARK    3  A    between atoms: C_14  and  C_15 
REMARK       I    between atoms: C_15  and  N_16 
ROOT
HETATM    1  C   UNL     1      -6.946   3.779 -29.679  1.00  0.00     0.020 A 
HETATM    2  C   UNL     1      -5.737   3.720 -30.343  1.00  0.00     0.119 A 
HETATM    3  N   UNL     1      -5.542   3.032 -31.490  1.00  0.00    -0.242 NA
HETATM    4  C   UNL     1      -6.581   2.342 -32.025  1.00  0.00     0.143 A 
HETATM    5  C   UNL     1      -7.846   2.371 -31.414  1.00  0.00     0.077 A 
HETATM    6  C   UNL     1      -8.023   3.093 -30.225  1.00  0.00     0.022 A 
ENDROOT
BRANCH   4   7
HETATM    7  N   UNL     1      -6.401   1.643 -33.241  1.00  0.00    -0.339 N 
HETATM    8  H   UNL     1      -7.146   1.885 -33.904  1.00  0.00     0.167 HD
BRANCH   7   9
HETATM    9  C   UNL     1      -5.884   0.346 -33.459  1.00  0.00     0.055 A 
HETATM   10  C   UNL     1      -6.480  -0.518 -34.401  1.00  0.00     0.062 A 
HETATM   11 CL   UNL     1      -7.893  -0.030 -35.275  1.00  0.00    -0.082 Cl
HETATM   12  C   UNL     1      -5.964  -1.791 -34.651  1.00  0.00     0.050 A 
HETATM   13  C   UNL     1      -4.829  -2.215 -33.968  1.00  0.00     0.035 A 
HETATM   14 CL   UNL     1      -4.181  -3.780 -34.272  1.00  0.00    -0.084 Cl
HETATM   15  C   UNL     1      -4.211  -1.379 -33.043  1.00  0.00     0.026 A 
HETATM   16  C   UNL     1      -4.736  -0.107 -32.794  1.00  0.00     0.033 A 
ENDBRANCH   7   9
ENDBRANCH   4   7
BRANCH   5  17
HETATM   17  C   UNL     1      -8.976   1.604 -31.988  1.00  0.00     0.253 C 
HETATM   18  N   UNL     1      -9.375   0.482 -31.316  1.00  0.00    -0.366 N 
HETATM   19  H   UNL     1      -9.097   0.292 -30.363  1.00  0.00     0.159 HD
HETATM   20  H   UNL     1     -10.218   0.033 -31.654  1.00  0.00     0.159 HD
HETATM   21  O   UNL     1      -9.539   1.967 -33.014  1.00  0.00    -0.268 OA
ENDBRANCH   5  17
TORSDOF 3
ENDMDL
MODEL 9
REMARK VINA RESULT:      -6.5      2.092      2.312
REMARK  3 active torsions:
REMARK  status: ('A' for Active; 'I' for Inactive)
REMARK    1  A    between atoms: C_4  and  N_5 
REMARK    2  A    between atoms: N_5  and  C_6 
REMARK    3  A    between atoms: C_14  and  C_15 
REMARK       I    between atoms: C_15  and  N_16 
ROOT
HETATM    1  C   UNL     1      -5.490  -3.397 -34.805  1.00  0.00     0.020 A 
HETATM    2  C   UNL     1      -6.746  -2.840 -34.659  1.00  0.00     0.119 A 
HETATM    3  N   UNL     1      -7.002  -1.749 -33.904  1.00  0.00    -0.242 NA
HETATM    4  C   UNL     1      -5.979  -1.163 -33.231  1.00  0.00     0.143 A 
HETATM    5  C   UNL     1      -4.671  -1.663 -33.347  1.00  0.00     0.077 A 
HETATM    6  C   UNL     1      -4.431  -2.796 -34.137  1.00  0.00     0.022 A 
ENDROOT
BRANCH   4   7
HETATM    7  N   UNL     1      -6.225  -0.003 -32.461  1.00  0.00    -0.339 N 
HETATM    8  H   UNL     1      -6.503  -0.261 -31.508  1.00  0.00     0.167 HD
BRANCH   7   9
HETATM    9  C   UNL     1      -6.764   1.239 -32.864  1.00  0.00     0.055 A 
HETATM   10  C   UNL     1      -8.116   1.552 -32.615  1.00  0.00     0.062 A 
HETATM   11 CL   UNL     1      -9.163   0.400 -31.857  1.00  0.00    -0.082 Cl
HETATM   12  C   UNL     1      -8.659   2.787 -32.980  1.00  0.00     0.050 A 
HETATM   13  C   UNL     1      -7.846   3.736 -33.589  1.00  0.00     0.035 A 
HETATM   14 CL   UNL     1      -8.502   5.263 -34.038  1.00  0.00    -0.084 Cl
HETATM   15  C   UNL     1      -6.505   3.462 -33.835  1.00  0.00     0.026 A 
HETATM   16  C   UNL     1      -5.970   2.222 -33.472  1.00  0.00     0.033 A 
ENDBRANCH   7   9
ENDBRANCH   4   7
BRANCH   5  17
HETATM   17  C   UNL     1      -3.558  -1.034 -32.599  1.00  0.00     0.253 C 
HETATM   18  N   UNL     1      -2.909  -1.807 -31.675  1.00  0.00    -0.366 N 
HETATM   19  H   UNL     1      -3.002  -2.813 -31.648  1.00  0.00     0.159 HD
HETATM   20  H   UNL     1      -2.080  -1.403 -31.256  1.00  0.00     0.159 HD
HETATM   21  O   UNL     1      -3.221   0.125 -32.809  1.00  0.00    -0.268 OA
ENDBRANCH   5  17
TORSDOF 3
ENDMDL
MODEL 10
REMARK VINA RESULT:      -6.4      7.293      8.681
REMARK  3 active torsions:
REMARK  status: ('A' for Active; 'I' for Inactive)
REMARK    1  A    between atoms: C_4  and  N_5 
REMARK    2  A    between atoms: N_5  and  C_6 
REMARK    3  A    between atoms: C_14  and  C_15 
REMARK       I    between atoms: C_15  and  N_16 
ROOT
HETATM    1  C   UNL     1       0.475   6.621 -29.637  1.00  0.00     0.020 A 
HETATM    2  C   UNL     1       0.437   5.246 -29.767  1.00  0.00     0.119 A 
HETATM    3  N   UNL     1      -0.266   4.600 -30.723  1.00  0.00    -0.242 NA
HETATM    4  C   UNL     1      -0.995   5.329 -31.606  1.00  0.00     0.143 A 
HETATM    5  C   UNL     1      -0.989   6.733 -31.546  1.00  0.00     0.077 A 
HETATM    6  C   UNL     1      -0.251   7.380 -30.545  1.00  0.00     0.022 A 
ENDROOT
BRANCH   4   7
HETATM    7  N   UNL     1      -1.711   4.669 -32.632  1.00  0.00    -0.339 N 
HETATM    8  H   UNL     1      -1.477   5.074 -33.545  1.00  0.00     0.167 HD
BRANCH   7   9
HETATM    9  C   UNL     1      -3.010   4.116 -32.601  1.00  0.00     0.055 A 
HETATM   10  C   UNL     1      -3.931   4.383 -33.635  1.00  0.00     0.062 A 
HETATM   11 CL   UNL     1      -3.508   5.440 -34.940  1.00  0.00    -0.082 Cl
HETATM   12  C   UNL     1      -5.209   3.820 -33.637  1.00  0.00     0.050 A 
HETATM   13  C   UNL     1      -5.581   2.966 -32.605  1.00  0.00     0.035 A 
HETATM   14 CL   UNL     1      -7.152   2.263 -32.600  1.00  0.00    -0.084 Cl
HETATM   15  C   UNL     1      -4.689   2.672 -31.578  1.00  0.00     0.026 A 
HETATM   16  C   UNL     1      -3.413   3.243 -31.581  1.00  0.00     0.033 A 
ENDBRANCH   7   9
ENDBRANCH   4   7
BRANCH   5  17
HETATM   17  C   UNL     1      -1.798   7.528 -32.499  1.00  0.00     0.253 C 
HETATM   18  N   UNL     1      -3.000   8.004 -32.054  1.00  0.00    -0.366 N 
HETATM   19  H   UNL     1      -3.244   8.031 -31.074  1.00  0.00     0.159 HD
HETATM   20  H   UNL     1      -3.489   8.639 -32.674  1.00  0.00     0.159 HD
HETATM   21  O   UNL     1      -1.400   7.763 -33.634  1.00  0.00    -0.268 OA
ENDBRANCH   5  17
TORSDOF 3
ENDMDL
