MODEL 1
REMARK VINA RESULT:      -9.6      0.000      0.000
REMARK  5 active torsions:
REMARK  status: ('A' for Active; 'I' for Inactive)
REMARK    1  A    between atoms: C_7  and  C_8 
REMARK    2  A    between atoms: C_8  and  O_9 
REMARK    3  A    between atoms: N_12  and  C_13 
REMARK    4  A    between atoms: C_13  and  C_14 
REMARK    5  A    between atoms: C_14  and  C_15 
ROOT
HETATM    1  C   UNL     1      -8.698   1.032 -32.231  1.00  0.00     0.199 A 
HETATM    2  C   UNL     1      -7.940   2.176 -31.475  1.00  0.00     0.269 A 
HETATM    3  O   UNL     1      -8.432   3.081 -30.813  1.00  0.00    -0.269 OA
HETATM    4  N   UNL     1      -6.562   1.973 -31.685  1.00  0.00    -0.314 N 
HETATM    5  C   UNL     1      -6.337   0.874 -32.526  1.00  0.00     0.047 A 
HETATM    6  C   UNL     1      -7.558   0.287 -32.886  1.00  0.00     0.017 A 
HETATM    7  C   UNL     1      -5.136   0.369 -32.991  1.00  0.00     0.030 A 
HETATM    8  C   UNL     1      -5.171  -0.756 -33.823  1.00  0.00     0.002 A 
HETATM    9  C   UNL     1      -6.390  -1.357 -34.171  1.00  0.00     0.001 A 
HETATM   10  C   UNL     1      -7.596  -0.841 -33.696  1.00  0.00     0.013 A 
ENDROOT
BRANCH   1  11
HETATM   11  C   UNL     1      -9.608   1.630 -33.290  1.00  0.00     0.025 A 
HETATM   12  C   UNL     1      -9.465   2.799 -34.044  1.00  0.00     0.016 A 
HETATM   13  C   UNL     1      -8.396   3.835 -34.102  1.00  0.00     0.069 C 
HETATM   14  N   UNL     1     -10.585   2.941 -34.825  1.00  0.00    -0.359 N 
HETATM   15  H   UNL     1     -10.748   3.702 -35.468  1.00  0.00     0.166 HD
HETATM   16  C   UNL     1     -11.502   1.962 -34.553  1.00  0.00     0.043 A 
HETATM   17  C   UNL     1     -10.927   1.119 -33.604  1.00  0.00     0.003 A 
HETATM   18  C   UNL     1     -12.794   1.776 -35.061  1.00  0.00     0.030 A 
HETATM   19  C   UNL     1     -11.701   0.032 -33.139  1.00  0.00     0.014 A 
HETATM   20  C   UNL     1     -12.995  -0.171 -33.632  1.00  0.00     0.001 A 
HETATM   21  C   UNL     1     -13.533   0.693 -34.581  1.00  0.00     0.002 A 
ENDBRANCH   1  11
BRANCH   1  22
HETATM   22  O   UNL     1      -9.356   0.127 -31.351  1.00  0.00    -0.371 OA
HETATM   23  H   UNL     1      -9.867  -0.484 -31.905  1.00  0.00     0.212 HD
ENDBRANCH   1  22
BRANCH   4  24
HETATM   24  C   UNL     1      -5.570   2.950 -31.291  1.00  0.00     0.137 C 
BRANCH  24  25
HETATM   25  C   UNL     1      -5.703   4.292 -32.024  1.00  0.00     0.058 C 
BRANCH  25  26
HETATM   26  C   UNL     1      -4.565   4.493 -32.996  1.00  0.00    -0.057 A 
HETATM   27  C   UNL     1      -3.251   4.193 -32.607  1.00  0.00     0.007 A 
HETATM   28  C   UNL     1      -2.186   4.413 -33.482  1.00  0.00     0.001 A 
HETATM   29  C   UNL     1      -2.426   4.927 -34.754  1.00  0.00     0.000 A 
HETATM   30  C   UNL     1      -3.730   5.219 -35.153  1.00  0.00     0.001 A 
HETATM   31  C   UNL     1      -4.797   5.005 -34.278  1.00  0.00     0.007 A 
ENDBRANCH  25  26
ENDBRANCH  24  25
ENDBRANCH   4  24
TORSDOF 5
ENDMDL
MODEL 2
REMARK VINA RESULT:      -9.5      3.052      7.425
REMARK  5 active torsions:
REMARK  status: ('A' for Active; 'I' for Inactive)
REMARK    1  A    between atoms: C_7  and  C_8 
REMARK    2  A    between atoms: C_8  and  O_9 
REMARK    3  A    between atoms: N_12  and  C_13 
REMARK    4  A    between atoms: C_13  and  C_14 
REMARK    5  A    between atoms: C_14  and  C_15 
ROOT
HETATM    1  C   UNL     1      -4.869   3.053 -31.376  1.00  0.00     0.199 A 
HETATM    2  C   UNL     1      -4.351   1.611 -31.705  1.00  0.00     0.269 A 
HETATM    3  O   UNL     1      -3.194   1.265 -31.903  1.00  0.00    -0.269 OA
HETATM    4  N   UNL     1      -5.473   0.761 -31.725  1.00  0.00    -0.314 N 
HETATM    5  C   UNL     1      -6.656   1.480 -31.503  1.00  0.00     0.047 A 
HETATM    6  C   UNL     1      -6.362   2.836 -31.301  1.00  0.00     0.017 A 
HETATM    7  C   UNL     1      -7.960   1.020 -31.474  1.00  0.00     0.030 A 
HETATM    8  C   UNL     1      -8.981   1.943 -31.223  1.00  0.00     0.002 A 
HETATM    9  C   UNL     1      -8.689   3.298 -31.002  1.00  0.00     0.001 A 
HETATM   10  C   UNL     1      -7.370   3.753 -31.032  1.00  0.00     0.013 A 
ENDROOT
BRANCH   1  11
HETATM   11  C   UNL     1      -4.534   3.994 -32.520  1.00  0.00     0.025 A 
HETATM   12  C   UNL     1      -5.216   4.230 -33.719  1.00  0.00     0.016 A 
HETATM   13  C   UNL     1      -6.484   3.687 -34.280  1.00  0.00     0.069 C 
HETATM   14  N   UNL     1      -4.481   5.127 -34.456  1.00  0.00    -0.359 N 
HETATM   15  H   UNL     1      -4.739   5.474 -35.368  1.00  0.00     0.166 HD
HETATM   16  C   UNL     1      -3.299   5.423 -33.833  1.00  0.00     0.043 A 
HETATM   17  C   UNL     1      -3.297   4.741 -32.619  1.00  0.00     0.003 A 
HETATM   18  C   UNL     1      -2.233   6.224 -34.265  1.00  0.00     0.030 A 
HETATM   19  C   UNL     1      -2.155   4.871 -31.796  1.00  0.00     0.014 A 
HETATM   20  C   UNL     1      -1.078   5.664 -32.209  1.00  0.00     0.001 A 
HETATM   21  C   UNL     1      -1.119   6.331 -33.429  1.00  0.00     0.002 A 
ENDBRANCH   1  11
BRANCH   1  22
HETATM   22  O   UNL     1      -4.435   3.521 -30.102  1.00  0.00    -0.371 OA
HETATM   23  H   UNL     1      -4.875   2.970 -29.436  1.00  0.00     0.212 HD
ENDBRANCH   1  22
BRANCH   4  24
HETATM   24  C   UNL     1      -5.395  -0.610 -32.184  1.00  0.00     0.137 C 
BRANCH  24  25
HETATM   25  C   UNL     1      -5.517  -0.755 -33.707  1.00  0.00     0.058 C 
BRANCH  25  26
HETATM   26  C   UNL     1      -5.521  -2.209 -34.113  1.00  0.00    -0.057 A 
HETATM   27  C   UNL     1      -6.685  -2.785 -34.644  1.00  0.00     0.007 A 
HETATM   28  C   UNL     1      -6.714  -4.138 -34.985  1.00  0.00     0.001 A 
HETATM   29  C   UNL     1      -5.579  -4.925 -34.805  1.00  0.00     0.000 A 
HETATM   30  C   UNL     1      -4.414  -4.359 -34.286  1.00  0.00     0.001 A 
HETATM   31  C   UNL     1      -4.384  -3.007 -33.939  1.00  0.00     0.007 A 
ENDBRANCH  25  26
ENDBRANCH  24  25
ENDBRANCH   4  24
TORSDOF 5
ENDMDL
MODEL 3
REMARK VINA RESULT:      -9.4      2.404      4.882
REMARK  5 active torsions:
REMARK  status: ('A' for Active; 'I' for Inactive)
REMARK    1  A    between atoms: C_7  and  C_8 
REMARK    2  A    between atoms: C_8  and  O_9 
REMARK    3  A    between atoms: N_12  and  C_13 
REMARK    4  A    between atoms: C_13  and  C_14 
REMARK    5  A    between atoms: C_14  and  C_15 
ROOT
HETATM    1  C   UNL     1      -7.785   3.220 -33.362  1.00  0.00     0.199 A 
HETATM    2  C   UNL     1      -6.699   2.182 -33.805  1.00  0.00     0.269 A 
HETATM    3  O   UNL     1      -6.659   1.552 -34.854  1.00  0.00    -0.269 OA
HETATM    4  N   UNL     1      -5.749   2.105 -32.769  1.00  0.00    -0.314 N 
HETATM    5  C   UNL     1      -6.113   2.922 -31.689  1.00  0.00     0.047 A 
HETATM    6  C   UNL     1      -7.308   3.595 -31.978  1.00  0.00     0.017 A 
HETATM    7  C   UNL     1      -5.466   3.102 -30.480  1.00  0.00     0.030 A 
HETATM    8  C   UNL     1      -6.030   3.988 -29.554  1.00  0.00     0.002 A 
HETATM    9  C   UNL     1      -7.217   4.677 -29.847  1.00  0.00     0.001 A 
HETATM   10  C   UNL     1      -7.861   4.490 -31.071  1.00  0.00     0.013 A 
ENDROOT
BRANCH   1  11
HETATM   11  C   UNL     1      -9.142   2.543 -33.281  1.00  0.00     0.025 A 
HETATM   12  C   UNL     1      -9.545   1.419 -32.551  1.00  0.00     0.016 A 
HETATM   13  C   UNL     1      -8.826   0.526 -31.601  1.00  0.00     0.069 C 
HETATM   14  N   UNL     1     -10.858   1.161 -32.859  1.00  0.00    -0.359 N 
HETATM   15  H   UNL     1     -11.403   0.403 -32.475  1.00  0.00     0.166 HD
HETATM   16  C   UNL     1     -11.312   2.012 -33.830  1.00  0.00     0.043 A 
HETATM   17  C   UNL     1     -10.273   2.894 -34.115  1.00  0.00     0.003 A 
HETATM   18  C   UNL     1     -12.552   2.050 -34.482  1.00  0.00     0.030 A 
HETATM   19  C   UNL     1     -10.495   3.866 -35.118  1.00  0.00     0.014 A 
HETATM   20  C   UNL     1     -11.726   3.920 -35.783  1.00  0.00     0.001 A 
HETATM   21  C   UNL     1     -12.739   3.021 -35.467  1.00  0.00     0.002 A 
ENDBRANCH   1  11
BRANCH   1  22
HETATM   22  O   UNL     1      -7.780   4.403 -34.156  1.00  0.00    -0.371 OA
HETATM   23  H   UNL     1      -8.307   4.213 -34.947  1.00  0.00     0.212 HD
ENDBRANCH   1  22
BRANCH   4  24
HETATM   24  C   UNL     1      -4.704   1.103 -32.752  1.00  0.00     0.137 C 
BRANCH  24  25
HETATM   25  C   UNL     1      -5.134  -0.221 -32.107  1.00  0.00     0.058 C 
BRANCH  25  26
HETATM   26  C   UNL     1      -5.322  -1.295 -33.152  1.00  0.00    -0.057 A 
HETATM   27  C   UNL     1      -6.600  -1.551 -33.671  1.00  0.00     0.007 A 
HETATM   28  C   UNL     1      -6.793  -2.569 -34.606  1.00  0.00     0.001 A 
HETATM   29  C   UNL     1      -5.712  -3.333 -35.036  1.00  0.00     0.000 A 
HETATM   30  C   UNL     1      -4.436  -3.080 -34.533  1.00  0.00     0.001 A 
HETATM   31  C   UNL     1      -4.240  -2.066 -33.593  1.00  0.00     0.007 A 
ENDBRANCH  25  26
ENDBRANCH  24  25
ENDBRANCH   4  24
TORSDOF 5
ENDMDL
MODEL 4
REMARK VINA RESULT:      -9.3      1.785      6.984
REMARK  5 active torsions:
REMARK  status: ('A' for Active; 'I' for Inactive)
REMARK    1  A    between atoms: C_7  and  C_8 
REMARK    2  A    between atoms: C_8  and  O_9 
REMARK    3  A    between atoms: N_12  and  C_13 
REMARK    4  A    between atoms: C_13  and  C_14 
REMARK    5  A    between atoms: C_14  and  C_15 
ROOT
HETATM    1  C   UNL     1      -6.688   1.167 -32.204  1.00  0.00     0.199 A 
HETATM    2  C   UNL     1      -8.241   1.209 -32.002  1.00  0.00     0.269 A 
HETATM    3  O   UNL     1      -8.957   0.316 -31.567  1.00  0.00    -0.269 OA
HETATM    4  N   UNL     1      -8.680   2.484 -32.407  1.00  0.00    -0.314 N 
HETATM    5  C   UNL     1      -7.614   3.252 -32.896  1.00  0.00     0.047 A 
HETATM    6  C   UNL     1      -6.419   2.525 -32.810  1.00  0.00     0.017 A 
HETATM    7  C   UNL     1      -7.634   4.536 -33.411  1.00  0.00     0.030 A 
HETATM    8  C   UNL     1      -6.423   5.098 -33.833  1.00  0.00     0.002 A 
HETATM    9  C   UNL     1      -5.222   4.379 -33.731  1.00  0.00     0.001 A 
HETATM   10  C   UNL     1      -5.212   3.085 -33.209  1.00  0.00     0.013 A 
ENDROOT
BRANCH   1  11
HETATM   11  C   UNL     1      -6.327   0.073 -33.193  1.00  0.00     0.025 A 
HETATM   12  C   UNL     1      -6.948  -0.299 -34.390  1.00  0.00     0.016 A 
HETATM   13  C   UNL     1      -8.131   0.237 -35.119  1.00  0.00     0.069 C 
HETATM   14  N   UNL     1      -6.282  -1.389 -34.895  1.00  0.00    -0.359 N 
HETATM   15  H   UNL     1      -6.520  -1.866 -35.752  1.00  0.00     0.166 HD
HETATM   16  C   UNL     1      -5.302  -1.807 -34.035  1.00  0.00     0.043 A 
HETATM   17  C   UNL     1      -5.294  -0.916 -32.964  1.00  0.00     0.003 A 
HETATM   18  C   UNL     1      -4.444  -2.911 -34.121  1.00  0.00     0.030 A 
HETATM   19  C   UNL     1      -4.371  -1.156 -31.920  1.00  0.00     0.014 A 
HETATM   20  C   UNL     1      -3.507  -2.255 -31.985  1.00  0.00     0.001 A 
HETATM   21  C   UNL     1      -3.545  -3.120 -33.074  1.00  0.00     0.002 A 
ENDBRANCH   1  11
BRANCH   1  22
HETATM   22  O   UNL     1      -5.970   1.092 -30.977  1.00  0.00    -0.371 OA
HETATM   23  H   UNL     1      -6.526   0.597 -30.355  1.00  0.00     0.212 HD
ENDBRANCH   1  22
BRANCH   4  24
HETATM   24  C   UNL     1     -10.084   2.812 -32.537  1.00  0.00     0.137 C 
BRANCH  24  25
HETATM   25  C   UNL     1     -10.627   2.634 -33.961  1.00  0.00     0.058 C 
BRANCH  25  26
HETATM   26  C   UNL     1     -11.838   1.733 -33.970  1.00  0.00    -0.057 A 
HETATM   27  C   UNL     1     -13.081   2.233 -34.387  1.00  0.00     0.007 A 
HETATM   28  C   UNL     1     -14.216   1.422 -34.360  1.00  0.00     0.001 A 
HETATM   29  C   UNL     1     -14.118   0.103 -33.925  1.00  0.00     0.000 A 
HETATM   30  C   UNL     1     -12.885  -0.406 -33.518  1.00  0.00     0.001 A 
HETATM   31  C   UNL     1     -11.749   0.405 -33.538  1.00  0.00     0.007 A 
ENDBRANCH  25  26
ENDBRANCH  24  25
ENDBRANCH   4  24
TORSDOF 5
ENDMDL
MODEL 5
REMARK VINA RESULT:      -9.2      3.097      5.022
REMARK  5 active torsions:
REMARK  status: ('A' for Active; 'I' for Inactive)
REMARK    1  A    between atoms: C_7  and  C_8 
REMARK    2  A    between atoms: C_8  and  O_9 
REMARK    3  A    between atoms: N_12  and  C_13 
REMARK    4  A    between atoms: C_13  and  C_14 
REMARK    5  A    between atoms: C_14  and  C_15 
ROOT
HETATM    1  C   UNL     1      -6.784   0.382 -32.980  1.00  0.00     0.199 A 
HETATM    2  C   UNL     1      -6.749   1.496 -34.081  1.00  0.00     0.269 A 
HETATM    3  O   UNL     1      -6.899   1.352 -35.287  1.00  0.00    -0.269 OA
HETATM    4  N   UNL     1      -6.519   2.721 -33.426  1.00  0.00    -0.314 N 
HETATM    5  C   UNL     1      -6.347   2.533 -32.048  1.00  0.00     0.047 A 
HETATM    6  C   UNL     1      -6.483   1.174 -31.729  1.00  0.00     0.017 A 
HETATM    7  C   UNL     1      -6.076   3.472 -31.070  1.00  0.00     0.030 A 
HETATM    8  C   UNL     1      -5.955   3.033 -29.747  1.00  0.00     0.002 A 
HETATM    9  C   UNL     1      -6.109   1.677 -29.421  1.00  0.00     0.001 A 
HETATM   10  C   UNL     1      -6.384   0.736 -30.414  1.00  0.00     0.013 A 
ENDROOT
BRANCH   1  11
HETATM   11  C   UNL     1      -5.681  -0.630 -33.235  1.00  0.00     0.025 A 
HETATM   12  C   UNL     1      -4.295  -0.505 -33.092  1.00  0.00     0.016 A 
HETATM   13  C   UNL     1      -3.428   0.613 -32.630  1.00  0.00     0.069 C 
HETATM   14  N   UNL     1      -3.717  -1.680 -33.507  1.00  0.00    -0.359 N 
HETATM   15  H   UNL     1      -2.725  -1.866 -33.513  1.00  0.00     0.166 HD
HETATM   16  C   UNL     1      -4.658  -2.543 -34.002  1.00  0.00     0.043 A 
HETATM   17  C   UNL     1      -5.897  -1.926 -33.844  1.00  0.00     0.003 A 
HETATM   18  C   UNL     1      -4.498  -3.804 -34.590  1.00  0.00     0.030 A 
HETATM   19  C   UNL     1      -7.038  -2.620 -34.310  1.00  0.00     0.014 A 
HETATM   20  C   UNL     1      -6.900  -3.881 -34.903  1.00  0.00     0.001 A 
HETATM   21  C   UNL     1      -5.644  -4.462 -35.041  1.00  0.00     0.002 A 
ENDBRANCH   1  11
BRANCH   1  22
HETATM   22  O   UNL     1      -8.074  -0.201 -32.822  1.00  0.00    -0.371 OA
HETATM   23  H   UNL     1      -8.662   0.240 -33.453  1.00  0.00     0.212 HD
ENDBRANCH   1  22
BRANCH   4  24
HETATM   24  C   UNL     1      -6.235   3.942 -34.151  1.00  0.00     0.137 C 
BRANCH  24  25
HETATM   25  C   UNL     1      -4.777   4.056 -34.615  1.00  0.00     0.058 C 
BRANCH  25  26
HETATM   26  C   UNL     1      -3.930   4.744 -33.572  1.00  0.00    -0.057 A 
HETATM   27  C   UNL     1      -2.768   4.121 -33.090  1.00  0.00     0.007 A 
HETATM   28  C   UNL     1      -1.999   4.728 -32.097  1.00  0.00     0.001 A 
HETATM   29  C   UNL     1      -2.379   5.964 -31.581  1.00  0.00     0.000 A 
HETATM   30  C   UNL     1      -3.527   6.596 -32.060  1.00  0.00     0.001 A 
HETATM   31  C   UNL     1      -4.301   5.989 -33.050  1.00  0.00     0.007 A 
ENDBRANCH  25  26
ENDBRANCH  24  25
ENDBRANCH   4  24
TORSDOF 5
ENDMDL
MODEL 6
REMARK VINA RESULT:      -9.2      2.057      6.566
REMARK  5 active torsions:
REMARK  status: ('A' for Active; 'I' for Inactive)
REMARK    1  A    between atoms: C_7  and  C_8 
REMARK    2  A    between atoms: C_8  and  O_9 
REMARK    3  A    between atoms: N_12  and  C_13 
REMARK    4  A    between atoms: C_13  and  C_14 
REMARK    5  A    between atoms: C_14  and  C_15 
ROOT
HETATM    1  C   UNL     1      -5.703   0.527 -31.938  1.00  0.00     0.199 A 
HETATM    2  C   UNL     1      -7.199   0.994 -31.912  1.00  0.00     0.269 A 
HETATM    3  O   UNL     1      -8.187   0.307 -31.689  1.00  0.00    -0.269 OA
HETATM    4  N   UNL     1      -7.209   2.375 -32.187  1.00  0.00    -0.314 N 
HETATM    5  C   UNL     1      -5.914   2.849 -32.440  1.00  0.00     0.047 A 
HETATM    6  C   UNL     1      -4.988   1.803 -32.317  1.00  0.00     0.017 A 
HETATM    7  C   UNL     1      -5.506   4.128 -32.773  1.00  0.00     0.030 A 
HETATM    8  C   UNL     1      -4.140   4.356 -32.971  1.00  0.00     0.002 A 
HETATM    9  C   UNL     1      -3.208   3.316 -32.831  1.00  0.00     0.001 A 
HETATM   10  C   UNL     1      -3.629   2.028 -32.493  1.00  0.00     0.013 A 
ENDROOT
BRANCH   1  11
HETATM   11  C   UNL     1      -5.510  -0.521 -33.020  1.00  0.00     0.025 A 
HETATM   12  C   UNL     1      -6.162  -0.678 -34.248  1.00  0.00     0.016 A 
HETATM   13  C   UNL     1      -7.225   0.110 -34.931  1.00  0.00     0.069 C 
HETATM   14  N   UNL     1      -5.675  -1.815 -34.845  1.00  0.00    -0.359 N 
HETATM   15  H   UNL     1      -5.973  -2.169 -35.742  1.00  0.00     0.166 HD
HETATM   16  C   UNL     1      -4.795  -2.465 -34.022  1.00  0.00     0.043 A 
HETATM   17  C   UNL     1      -4.660  -1.685 -32.876  1.00  0.00     0.003 A 
HETATM   18  C   UNL     1      -4.131  -3.685 -34.203  1.00  0.00     0.030 A 
HETATM   19  C   UNL     1      -3.810  -2.166 -31.853  1.00  0.00     0.014 A 
HETATM   20  C   UNL     1      -3.139  -3.384 -32.013  1.00  0.00     0.001 A 
HETATM   21  C   UNL     1      -3.300  -4.132 -33.174  1.00  0.00     0.002 A 
ENDBRANCH   1  11
BRANCH   1  22
HETATM   22  O   UNL     1      -5.225   0.127 -30.658  1.00  0.00    -0.371 OA
HETATM   23  H   UNL     1      -4.292   0.389 -30.611  1.00  0.00     0.212 HD
ENDBRANCH   1  22
BRANCH   4  24
HETATM   24  C   UNL     1      -8.435   3.105 -32.432  1.00  0.00     0.137 C 
BRANCH  24  25
HETATM   25  C   UNL     1      -8.770   3.260 -33.921  1.00  0.00     0.058 C 
BRANCH  25  26
HETATM   26  C   UNL     1     -10.166   2.766 -34.216  1.00  0.00    -0.057 A 
HETATM   27  C   UNL     1     -10.627   1.578 -33.628  1.00  0.00     0.007 A 
HETATM   28  C   UNL     1     -11.900   1.089 -33.924  1.00  0.00     0.001 A 
HETATM   29  C   UNL     1     -12.726   1.786 -34.804  1.00  0.00     0.000 A 
HETATM   30  C   UNL     1     -12.279   2.972 -35.385  1.00  0.00     0.001 A 
HETATM   31  C   UNL     1     -11.005   3.461 -35.095  1.00  0.00     0.007 A 
ENDBRANCH  25  26
ENDBRANCH  24  25
ENDBRANCH   4  24
TORSDOF 5
ENDMDL
MODEL 7
REMARK VINA RESULT:      -9.1      3.159      5.485
REMARK  5 active torsions:
REMARK  status: ('A' for Active; 'I' for Inactive)
REMARK    1  A    between atoms: C_7  and  C_8 
REMARK    2  A    between atoms: C_8  and  O_9 
REMARK    3  A    between atoms: N_12  and  C_13 
REMARK    4  A    between atoms: C_13  and  C_14 
REMARK    5  A    between atoms: C_14  and  C_15 
ROOT
HETATM    1  C   UNL     1      -6.020   3.767 -32.935  1.00  0.00     0.199 A 
HETATM    2  C   UNL     1      -5.039   4.588 -33.840  1.00  0.00     0.269 A 
HETATM    3  O   UNL     1      -4.835   4.440 -35.038  1.00  0.00    -0.269 OA
HETATM    4  N   UNL     1      -4.425   5.554 -33.020  1.00  0.00    -0.314 N 
HETATM    5  C   UNL     1      -4.844   5.426 -31.689  1.00  0.00     0.047 A 
HETATM    6  C   UNL     1      -5.776   4.384 -31.578  1.00  0.00     0.017 A 
HETATM    7  C   UNL     1      -4.457   6.159 -30.581  1.00  0.00     0.030 A 
HETATM    8  C   UNL     1      -5.031   5.842 -29.345  1.00  0.00     0.002 A 
HETATM    9  C   UNL     1      -5.977   4.812 -29.233  1.00  0.00     0.001 A 
HETATM   10  C   UNL     1      -6.363   4.079 -30.356  1.00  0.00     0.013 A 
ENDROOT
BRANCH   1  11
HETATM   11  C   UNL     1      -5.610   2.305 -32.926  1.00  0.00     0.025 A 
HETATM   12  C   UNL     1      -4.505   1.684 -32.333  1.00  0.00     0.016 A 
HETATM   13  C   UNL     1      -3.383   2.204 -31.504  1.00  0.00     0.069 C 
HETATM   14  N   UNL     1      -4.542   0.351 -32.659  1.00  0.00    -0.359 N 
HETATM   15  H   UNL     1      -3.862  -0.335 -32.366  1.00  0.00     0.166 HD
HETATM   16  C   UNL     1      -5.575   0.082 -33.517  1.00  0.00     0.043 A 
HETATM   17  C   UNL     1      -6.269   1.275 -33.702  1.00  0.00     0.003 A 
HETATM   18  C   UNL     1      -5.927  -1.117 -34.149  1.00  0.00     0.030 A 
HETATM   19  C   UNL     1      -7.379   1.258 -34.578  1.00  0.00     0.014 A 
HETATM   20  C   UNL     1      -7.747   0.071 -35.222  1.00  0.00     0.001 A 
HETATM   21  C   UNL     1      -7.028  -1.101 -35.009  1.00  0.00     0.002 A 
ENDBRANCH   1  11
BRANCH   1  22
HETATM   22  O   UNL     1      -7.388   3.979 -33.266  1.00  0.00    -0.371 OA
HETATM   23  H   UNL     1      -7.898   3.292 -32.810  1.00  0.00     0.212 HD
ENDBRANCH   1  22
BRANCH   4  24
HETATM   24  C   UNL     1      -3.317   6.365 -33.480  1.00  0.00     0.137 C 
BRANCH  24  25
HETATM   25  C   UNL     1      -1.995   5.595 -33.589  1.00  0.00     0.058 C 
BRANCH  25  26
HETATM   26  C   UNL     1      -1.134   5.824 -32.370  1.00  0.00    -0.057 A 
HETATM   27  C   UNL     1      -1.064   4.846 -31.367  1.00  0.00     0.007 A 
HETATM   28  C   UNL     1      -0.304   5.062 -30.217  1.00  0.00     0.001 A 
HETATM   29  C   UNL     1       0.398   6.255 -30.062  1.00  0.00     0.000 A 
HETATM   30  C   UNL     1       0.343   7.230 -31.058  1.00  0.00     0.001 A 
HETATM   31  C   UNL     1      -0.421   7.017 -32.207  1.00  0.00     0.007 A 
ENDBRANCH  25  26
ENDBRANCH  24  25
ENDBRANCH   4  24
TORSDOF 5
ENDMDL
MODEL 8
REMARK VINA RESULT:      -9.0     15.748     18.942
REMARK  5 active torsions:
REMARK  status: ('A' for Active; 'I' for Inactive)
REMARK    1  A    between atoms: C_7  and  C_8 
REMARK    2  A    between atoms: C_8  and  O_9 
REMARK    3  A    between atoms: N_12  and  C_13 
REMARK    4  A    between atoms: C_13  and  C_14 
REMARK    5  A    between atoms: C_14  and  C_15 
ROOT
HETATM    1  C   UNL     1      -2.649 -13.355 -39.110  1.00  0.00     0.199 A 
HETATM    2  C   UNL     1      -3.805 -12.665 -38.308  1.00  0.00     0.269 A 
HETATM    3  O   UNL     1      -3.751 -12.210 -37.173  1.00  0.00    -0.269 OA
HETATM    4  N   UNL     1      -4.939 -12.649 -39.142  1.00  0.00    -0.314 N 
HETATM    5  C   UNL     1      -4.678 -13.291 -40.361  1.00  0.00     0.047 A 
HETATM    6  C   UNL     1      -3.349 -13.735 -40.395  1.00  0.00     0.017 A 
HETATM    7  C   UNL     1      -5.532 -13.509 -41.428  1.00  0.00     0.030 A 
HETATM    8  C   UNL     1      -5.028 -14.174 -42.551  1.00  0.00     0.002 A 
HETATM    9  C   UNL     1      -3.693 -14.604 -42.596  1.00  0.00     0.001 A 
HETATM   10  C   UNL     1      -2.839 -14.378 -41.515  1.00  0.00     0.013 A 
ENDROOT
BRANCH   1  11
HETATM   11  C   UNL     1      -2.188 -14.603 -38.378  1.00  0.00     0.025 A 
HETATM   12  C   UNL     1      -2.924 -15.540 -37.644  1.00  0.00     0.016 A 
HETATM   13  C   UNL     1      -4.377 -15.666 -37.345  1.00  0.00     0.069 C 
HETATM   14  N   UNL     1      -2.045 -16.457 -37.123  1.00  0.00    -0.359 N 
HETATM   15  H   UNL     1      -2.306 -17.244 -36.547  1.00  0.00     0.166 HD
HETATM   16  C   UNL     1      -0.751 -16.114 -37.406  1.00  0.00     0.043 A 
HETATM   17  C   UNL     1      -0.798 -14.966 -38.194  1.00  0.00     0.003 A 
HETATM   18  C   UNL     1       0.447 -16.723 -37.009  1.00  0.00     0.030 A 
HETATM   19  C   UNL     1       0.432 -14.399 -38.600  1.00  0.00     0.014 A 
HETATM   20  C   UNL     1       1.640 -14.990 -38.212  1.00  0.00     0.001 A 
HETATM   21  C   UNL     1       1.644 -16.138 -37.425  1.00  0.00     0.002 A 
ENDBRANCH   1  11
BRANCH   1  22
HETATM   22  O   UNL     1      -1.593 -12.460 -39.442  1.00  0.00    -0.371 OA
HETATM   23  H   UNL     1      -1.843 -12.023 -40.271  1.00  0.00     0.212 HD
ENDBRANCH   1  22
BRANCH   4  24
HETATM   24  C   UNL     1      -6.247 -12.259 -38.659  1.00  0.00     0.137 C 
BRANCH  24  25
HETATM   25  C   UNL     1      -7.126 -13.444 -38.240  1.00  0.00     0.058 C 
BRANCH  25  26
HETATM   26  C   UNL     1      -8.414 -13.467 -39.029  1.00  0.00    -0.057 A 
HETATM   27  C   UNL     1      -8.995 -12.264 -39.457  1.00  0.00     0.007 A 
HETATM   28  C   UNL     1     -10.205 -12.270 -40.151  1.00  0.00     0.001 A 
HETATM   29  C   UNL     1     -10.841 -13.478 -40.430  1.00  0.00     0.000 A 
HETATM   30  C   UNL     1     -10.266 -14.679 -40.017  1.00  0.00     0.001 A 
HETATM   31  C   UNL     1      -9.058 -14.676 -39.318  1.00  0.00     0.007 A 
ENDBRANCH  25  26
ENDBRANCH  24  25
ENDBRANCH   4  24
TORSDOF 5
ENDMDL
MODEL 9
REMARK VINA RESULT:      -9.0      1.681      6.740
REMARK  5 active torsions:
REMARK  status: ('A' for Active; 'I' for Inactive)
REMARK    1  A    between atoms: C_7  and  C_8 
REMARK    2  A    between atoms: C_8  and  O_9 
REMARK    3  A    between atoms: N_12  and  C_13 
REMARK    4  A    between atoms: C_13  and  C_14 
REMARK    5  A    between atoms: C_14  and  C_15 
ROOT
HETATM    1  C   UNL     1      -5.785   1.225 -31.380  1.00  0.00     0.199 A 
HETATM    2  C   UNL     1      -7.321   0.931 -31.278  1.00  0.00     0.269 A 
HETATM    3  O   UNL     1      -7.865   0.036 -30.644  1.00  0.00    -0.269 OA
HETATM    4  N   UNL     1      -7.984   1.904 -32.051  1.00  0.00    -0.314 N 
HETATM    5  C   UNL     1      -7.068   2.756 -32.683  1.00  0.00     0.047 A 
HETATM    6  C   UNL     1      -5.758   2.398 -32.333  1.00  0.00     0.017 A 
HETATM    7  C   UNL     1      -7.314   3.812 -33.542  1.00  0.00     0.030 A 
HETATM    8  C   UNL     1      -6.219   4.525 -34.044  1.00  0.00     0.002 A 
HETATM    9  C   UNL     1      -4.908   4.181 -33.681  1.00  0.00     0.001 A 
HETATM   10  C   UNL     1      -4.669   3.115 -32.812  1.00  0.00     0.013 A 
ENDROOT
BRANCH   1  11
HETATM   11  C   UNL     1      -5.074   0.034 -31.998  1.00  0.00     0.025 A 
HETATM   12  C   UNL     1      -3.757  -0.410 -31.838  1.00  0.00     0.016 A 
HETATM   13  C   UNL     1      -2.620   0.088 -31.015  1.00  0.00     0.069 C 
HETATM   14  N   UNL     1      -3.573  -1.498 -32.656  1.00  0.00    -0.359 N 
HETATM   15  H   UNL     1      -2.711  -2.017 -32.741  1.00  0.00     0.166 HD
HETATM   16  C   UNL     1      -4.686  -1.735 -33.416  1.00  0.00     0.043 A 
HETATM   17  C   UNL     1      -5.648  -0.805 -33.030  1.00  0.00     0.003 A 
HETATM   18  C   UNL     1      -4.899  -2.688 -34.422  1.00  0.00     0.030 A 
HETATM   19  C   UNL     1      -6.893  -0.834 -33.700  1.00  0.00     0.014 A 
HETATM   20  C   UNL     1      -7.126  -1.776 -34.709  1.00  0.00     0.001 A 
HETATM   21  C   UNL     1      -6.139  -2.689 -35.064  1.00  0.00     0.002 A 
ENDBRANCH   1  11
BRANCH   1  22
HETATM   22  O   UNL     1      -5.219   1.657 -30.147  1.00  0.00    -0.371 OA
HETATM   23  H   UNL     1      -4.308   1.328 -30.125  1.00  0.00     0.212 HD
ENDBRANCH   1  22
BRANCH   4  24
HETATM   24  C   UNL     1      -9.400   1.827 -32.340  1.00  0.00     0.137 C 
BRANCH  24  25
HETATM   25  C   UNL     1      -9.727   1.002 -33.592  1.00  0.00     0.058 C 
BRANCH  25  26
HETATM   26  C   UNL     1     -11.210   1.017 -33.877  1.00  0.00    -0.057 A 
HETATM   27  C   UNL     1     -12.022  -0.030 -33.415  1.00  0.00     0.007 A 
HETATM   28  C   UNL     1     -13.386  -0.049 -33.706  1.00  0.00     0.001 A 
HETATM   29  C   UNL     1     -13.953   0.980 -34.455  1.00  0.00     0.000 A 
HETATM   30  C   UNL     1     -13.155   2.030 -34.910  1.00  0.00     0.001 A 
HETATM   31  C   UNL     1     -11.789   2.049 -34.624  1.00  0.00     0.007 A 
ENDBRANCH  25  26
ENDBRANCH  24  25
ENDBRANCH   4  24
TORSDOF 5
ENDMDL
MODEL 10
REMARK VINA RESULT:      -8.9      2.912      6.232
REMARK  5 active torsions:
REMARK  status: ('A' for Active; 'I' for Inactive)
REMARK    1  A    between atoms: C_7  and  C_8 
REMARK    2  A    between atoms: C_8  and  O_9 
REMARK    3  A    between atoms: N_12  and  C_13 
REMARK    4  A    between atoms: C_13  and  C_14 
REMARK    5  A    between atoms: C_14  and  C_15 
ROOT
HETATM    1  C   UNL     1      -6.139   4.876 -33.507  1.00  0.00     0.199 A 
HETATM    2  C   UNL     1      -4.831   5.151 -34.325  1.00  0.00     0.269 A 
HETATM    3  O   UNL     1      -4.547   4.725 -35.437  1.00  0.00    -0.269 OA
HETATM    4  N   UNL     1      -4.024   6.002 -33.545  1.00  0.00    -0.314 N 
HETATM    5  C   UNL     1      -4.621   6.267 -32.304  1.00  0.00     0.047 A 
HETATM    6  C   UNL     1      -5.863   5.622 -32.223  1.00  0.00     0.017 A 
HETATM    7  C   UNL     1      -4.140   7.027 -31.254  1.00  0.00     0.030 A 
HETATM    8  C   UNL     1      -4.934   7.150 -30.109  1.00  0.00     0.002 A 
HETATM    9  C   UNL     1      -6.187   6.521 -30.030  1.00  0.00     0.001 A 
HETATM   10  C   UNL     1      -6.664   5.757 -31.096  1.00  0.00     0.013 A 
ENDROOT
BRANCH   1  11
HETATM   11  C   UNL     1      -6.269   3.389 -33.229  1.00  0.00     0.025 A 
HETATM   12  C   UNL     1      -7.355   2.528 -33.422  1.00  0.00     0.016 A 
HETATM   13  C   UNL     1      -8.721   2.741 -33.974  1.00  0.00     0.069 C 
HETATM   14  N   UNL     1      -6.999   1.285 -32.960  1.00  0.00    -0.359 N 
HETATM   15  H   UNL     1      -7.596   0.471 -32.975  1.00  0.00     0.166 HD
HETATM   16  C   UNL     1      -5.756   1.310 -32.388  1.00  0.00     0.043 A 
HETATM   17  C   UNL     1      -5.264   2.604 -32.542  1.00  0.00     0.003 A 
HETATM   18  C   UNL     1      -5.048   0.292 -31.734  1.00  0.00     0.030 A 
HETATM   19  C   UNL     1      -3.988   2.888 -32.002  1.00  0.00     0.014 A 
HETATM   20  C   UNL     1      -3.266   1.886 -31.343  1.00  0.00     0.001 A 
HETATM   21  C   UNL     1      -3.792   0.605 -31.212  1.00  0.00     0.002 A 
ENDBRANCH   1  11
BRANCH   1  22
HETATM   22  O   UNL     1      -7.297   5.453 -34.102  1.00  0.00    -0.371 OA
HETATM   23  H   UNL     1      -8.031   4.840 -33.941  1.00  0.00     0.212 HD
ENDBRANCH   1  22
BRANCH   4  24
HETATM   24  C   UNL     1      -2.656   6.311 -33.905  1.00  0.00     0.137 C 
BRANCH  24  25
HETATM   25  C   UNL     1      -1.651   5.229 -33.486  1.00  0.00     0.058 C 
BRANCH  25  26
HETATM   26  C   UNL     1      -0.908   5.636 -32.237  1.00  0.00    -0.057 A 
HETATM   27  C   UNL     1      -0.709   4.705 -31.206  1.00  0.00     0.007 A 
HETATM   28  C   UNL     1      -0.059   5.080 -30.029  1.00  0.00     0.001 A 
HETATM   29  C   UNL     1       0.404   6.385 -29.875  1.00  0.00     0.000 A 
HETATM   30  C   UNL     1       0.219   7.314 -30.899  1.00  0.00     0.001 A 
HETATM   31  C   UNL     1      -0.435   6.943 -32.075  1.00  0.00     0.007 A 
ENDBRANCH  25  26
ENDBRANCH  24  25
ENDBRANCH   4  24
TORSDOF 5
ENDMDL
