MODEL 1
REMARK VINA RESULT:      -9.0      0.000      0.000
REMARK  4 active torsions:
REMARK  status: ('A' for Active; 'I' for Inactive)
REMARK    1  A    between atoms: O_2  and  C_3 
REMARK    2  A    between atoms: C_5  and  C_6 
REMARK    3  A    between atoms: C_10  and  N_11 
REMARK    4  A    between atoms: C_14  and  C_15 
ROOT
HETATM    1  C   UNL     1      -6.025   3.600 -33.148  1.00  0.00     0.164 C 
HETATM    2  N   UNL     1      -6.309   3.526 -31.722  1.00  0.00    -0.074 N 
HETATM    3  C   UNL     1      -6.272   2.373 -30.984  1.00  0.00     0.736 A 
HETATM    4  N   UNL     1      -6.516   2.666 -29.733  1.00  0.00     0.131 NA
HETATM    5  C   UNL     1      -6.745   4.010 -29.770  1.00  0.00     0.753 A 
HETATM    6  N   UNL     1      -6.615   4.589 -30.961  1.00  0.00     0.037 NA
HETATM    7  N   UNL     1      -6.012   1.181 -31.559  1.00  0.00    -0.214 N 
HETATM    8  C   UNL     1      -5.474   1.136 -32.914  1.00  0.00     0.135 C 
HETATM    9  C   UNL     1      -6.164   2.203 -33.785  1.00  0.00     0.063 C 
HETATM   10  H   UNL     1      -5.750   0.416 -30.941  1.00  0.00     0.178 HD
ENDROOT
BRANCH   1  11
HETATM   11  C   UNL     1      -4.661   4.215 -33.453  1.00  0.00    -0.030 A 
HETATM   12  C   UNL     1      -3.558   4.098 -32.581  1.00  0.00     0.046 A 
HETATM   13  C   UNL     1      -2.307   4.615 -32.929  1.00  0.00     0.068 A 
HETATM   14  C   UNL     1      -2.154   5.269 -34.152  1.00  0.00     0.037 A 
HETATM   15  C   UNL     1      -3.232   5.401 -35.024  1.00  0.00     0.003 A 
HETATM   16  C   UNL     1      -4.476   4.873 -34.680  1.00  0.00     0.009 A 
BRANCH  13  17
HETATM   17  O   UNL     1      -1.170   4.541 -32.173  1.00  0.00    -0.356 OA
HETATM   18  C   UNL     1      -1.134   5.315 -30.980  1.00  0.00     0.210 C 
ENDBRANCH  13  17
ENDBRANCH   1  11
BRANCH   8  19
HETATM   19  C   UNL     1      -5.644  -0.246 -33.520  1.00  0.00    -0.035 A 
HETATM   20  C   UNL     1      -4.579  -1.158 -33.613  1.00  0.00     0.010 A 
HETATM   21  C   UNL     1      -4.772  -2.427 -34.165  1.00  0.00     0.019 A 
HETATM   22  C   UNL     1      -6.036  -2.802 -34.613  1.00  0.00     0.011 A 
HETATM   23 BR   UNL     1      -6.299  -4.519 -35.358  1.00  0.00    -0.051 Br
HETATM   24  C   UNL     1      -7.110  -1.920 -34.514  1.00  0.00     0.019 A 
HETATM   25  C   UNL     1      -6.915  -0.649 -33.968  1.00  0.00     0.010 A 
ENDBRANCH   8  19
BRANCH   5  26
HETATM   26  N   UNL     1      -7.038   4.637 -28.635  1.00  0.00    -0.229 N 
HETATM   27  H   UNL     1      -6.470   5.438 -28.394  1.00  0.00     0.174 HD
HETATM   28  H   UNL     1      -8.016   4.714 -28.392  1.00  0.00     0.174 HD
ENDBRANCH   5  26
TORSDOF 4
ENDMDL
MODEL 2
REMARK VINA RESULT:      -8.4      3.751      6.892
REMARK  4 active torsions:
REMARK  status: ('A' for Active; 'I' for Inactive)
REMARK    1  A    between atoms: O_2  and  C_3 
REMARK    2  A    between atoms: C_5  and  C_6 
REMARK    3  A    between atoms: C_10  and  N_11 
REMARK    4  A    between atoms: C_14  and  C_15 
ROOT
HETATM    1  C   UNL     1      -6.263   0.476 -31.767  1.00  0.00     0.164 C 
HETATM    2  N   UNL     1      -7.551   0.896 -32.303  1.00  0.00    -0.074 N 
HETATM    3  C   UNL     1      -7.744   2.015 -33.069  1.00  0.00     0.736 A 
HETATM    4  N   UNL     1      -8.999   2.065 -33.432  1.00  0.00     0.131 NA
HETATM    5  C   UNL     1      -9.542   0.977 -32.816  1.00  0.00     0.753 A 
HETATM    6  N   UNL     1      -8.695   0.217 -32.124  1.00  0.00     0.037 NA
HETATM    7  N   UNL     1      -6.728   2.858 -33.346  1.00  0.00    -0.214 N 
HETATM    8  C   UNL     1      -5.354   2.441 -33.087  1.00  0.00     0.135 C 
HETATM    9  C   UNL     1      -5.285   1.667 -31.757  1.00  0.00     0.063 C 
HETATM   10  H   UNL     1      -6.866   3.514 -34.110  1.00  0.00     0.178 HD
ENDROOT
BRANCH   1  11
HETATM   11  C   UNL     1      -5.672  -0.721 -32.509  1.00  0.00    -0.030 A 
HETATM   12  C   UNL     1      -6.329  -1.354 -33.585  1.00  0.00     0.046 A 
HETATM   13  C   UNL     1      -5.722  -2.402 -34.283  1.00  0.00     0.068 A 
HETATM   14  C   UNL     1      -4.454  -2.835 -33.898  1.00  0.00     0.037 A 
HETATM   15  C   UNL     1      -3.791  -2.228 -32.833  1.00  0.00     0.003 A 
HETATM   16  C   UNL     1      -4.392  -1.174 -32.147  1.00  0.00     0.009 A 
BRANCH  13  17
HETATM   17  O   UNL     1      -6.256  -3.071 -35.350  1.00  0.00    -0.356 OA
HETATM   18  C   UNL     1      -6.488  -4.465 -35.188  1.00  0.00     0.210 C 
ENDBRANCH  13  17
ENDBRANCH   1  11
BRANCH   8  19
HETATM   19  C   UNL     1      -4.419   3.638 -33.063  1.00  0.00    -0.035 A 
HETATM   20  C   UNL     1      -4.840   4.923 -33.443  1.00  0.00     0.010 A 
HETATM   21  C   UNL     1      -3.958   6.006 -33.398  1.00  0.00     0.019 A 
HETATM   22  C   UNL     1      -2.652   5.816 -32.955  1.00  0.00     0.011 A 
HETATM   23 BR   UNL     1      -1.458   7.280 -32.890  1.00  0.00    -0.051 Br
HETATM   24  C   UNL     1      -2.219   4.554 -32.556  1.00  0.00     0.019 A 
HETATM   25  C   UNL     1      -3.099   3.470 -32.609  1.00  0.00     0.010 A 
ENDBRANCH   8  19
BRANCH   5  26
HETATM   26  N   UNL     1     -10.839   0.735 -32.977  1.00  0.00    -0.229 N 
HETATM   27  H   UNL     1     -11.430   0.839 -32.164  1.00  0.00     0.174 HD
HETATM   28  H   UNL     1     -11.255   1.025 -33.851  1.00  0.00     0.174 HD
ENDBRANCH   5  26
TORSDOF 4
ENDMDL
MODEL 3
REMARK VINA RESULT:      -8.4      3.878      5.657
REMARK  4 active torsions:
REMARK  status: ('A' for Active; 'I' for Inactive)
REMARK    1  A    between atoms: O_2  and  C_3 
REMARK    2  A    between atoms: C_5  and  C_6 
REMARK    3  A    between atoms: C_10  and  N_11 
REMARK    4  A    between atoms: C_14  and  C_15 
ROOT
HETATM    1  C   UNL     1      -6.725   1.423 -33.883  1.00  0.00     0.164 C 
HETATM    2  N   UNL     1      -6.522   2.046 -32.582  1.00  0.00    -0.074 N 
HETATM    3  C   UNL     1      -7.491   2.172 -31.624  1.00  0.00     0.736 A 
HETATM    4  N   UNL     1      -6.963   2.719 -30.560  1.00  0.00     0.131 NA
HETATM    5  C   UNL     1      -5.675   2.955 -30.942  1.00  0.00     0.753 A 
HETATM    6  N   UNL     1      -5.348   2.547 -32.166  1.00  0.00     0.037 NA
HETATM    7  N   UNL     1      -8.756   1.759 -31.847  1.00  0.00    -0.214 N 
HETATM    8  C   UNL     1      -9.043   0.905 -32.994  1.00  0.00     0.135 C 
HETATM    9  C   UNL     1      -8.230   1.379 -34.214  1.00  0.00     0.063 C 
HETATM   10  H   UNL     1      -9.355   1.643 -31.034  1.00  0.00     0.178 HD
ENDROOT
BRANCH   1  11
HETATM   11  C   UNL     1      -6.094   0.036 -33.985  1.00  0.00    -0.030 A 
HETATM   12  C   UNL     1      -5.019  -0.376 -33.170  1.00  0.00     0.046 A 
HETATM   13  C   UNL     1      -4.517  -1.678 -33.246  1.00  0.00     0.068 A 
HETATM   14  C   UNL     1      -5.079  -2.576 -34.152  1.00  0.00     0.037 A 
HETATM   15  C   UNL     1      -6.137  -2.187 -34.971  1.00  0.00     0.003 A 
HETATM   16  C   UNL     1      -6.646  -0.892 -34.884  1.00  0.00     0.009 A 
BRANCH  13  17
HETATM   17  O   UNL     1      -3.496  -2.188 -32.492  1.00  0.00    -0.356 OA
HETATM   18  C   UNL     1      -2.623  -1.255 -31.867  1.00  0.00     0.210 C 
ENDBRANCH  13  17
ENDBRANCH   1  11
BRANCH   8  19
HETATM   19  C   UNL     1     -10.529   0.899 -33.307  1.00  0.00    -0.035 A 
HETATM   20  C   UNL     1     -11.193   2.033 -33.806  1.00  0.00     0.010 A 
HETATM   21  C   UNL     1     -12.559   1.990 -34.096  1.00  0.00     0.019 A 
HETATM   22  C   UNL     1     -13.270   0.808 -33.906  1.00  0.00     0.011 A 
HETATM   23 BR   UNL     1     -15.118   0.748 -34.300  1.00  0.00    -0.051 Br
HETATM   24  C   UNL     1     -12.628  -0.333 -33.429  1.00  0.00     0.019 A 
HETATM   25  C   UNL     1     -11.264  -0.287 -33.133  1.00  0.00     0.010 A 
ENDBRANCH   8  19
BRANCH   5  26
HETATM   26  N   UNL     1      -4.847   3.526 -30.073  1.00  0.00    -0.229 N 
HETATM   27  H   UNL     1      -4.958   3.276 -29.100  1.00  0.00     0.174 HD
HETATM   28  H   UNL     1      -3.894   3.671 -30.375  1.00  0.00     0.174 HD
ENDBRANCH   5  26
TORSDOF 4
ENDMDL
MODEL 4
REMARK VINA RESULT:      -8.4      4.348      6.339
REMARK  4 active torsions:
REMARK  status: ('A' for Active; 'I' for Inactive)
REMARK    1  A    between atoms: O_2  and  C_3 
REMARK    2  A    between atoms: C_5  and  C_6 
REMARK    3  A    between atoms: C_10  and  N_11 
REMARK    4  A    between atoms: C_14  and  C_15 
ROOT
HETATM    1  C   UNL     1      -9.102   2.002 -32.708  1.00  0.00     0.164 C 
HETATM    2  N   UNL     1      -8.238   3.133 -33.018  1.00  0.00    -0.074 N 
HETATM    3  C   UNL     1      -7.042   3.036 -33.676  1.00  0.00     0.736 A 
HETATM    4  N   UNL     1      -6.555   4.238 -33.844  1.00  0.00     0.131 NA
HETATM    5  C   UNL     1      -7.473   5.033 -33.221  1.00  0.00     0.753 A 
HETATM    6  N   UNL     1      -8.532   4.407 -32.712  1.00  0.00     0.037 NA
HETATM    7  N   UNL     1      -6.542   1.840 -34.050  1.00  0.00    -0.214 N 
HETATM    8  C   UNL     1      -7.400   0.661 -34.026  1.00  0.00     0.135 C 
HETATM    9  C   UNL     1      -8.294   0.691 -32.771  1.00  0.00     0.063 C 
HETATM   10  H   UNL     1      -5.798   1.846 -34.743  1.00  0.00     0.178 HD
ENDROOT
BRANCH   1  11
HETATM   11  C   UNL     1     -10.338   1.935 -33.602  1.00  0.00    -0.030 A 
HETATM   12  C   UNL     1     -11.332   0.944 -33.460  1.00  0.00     0.046 A 
HETATM   13  C   UNL     1     -12.482   0.959 -34.253  1.00  0.00     0.068 A 
HETATM   14  C   UNL     1     -12.641   1.962 -35.209  1.00  0.00     0.037 A 
HETATM   15  C   UNL     1     -11.667   2.946 -35.370  1.00  0.00     0.003 A 
HETATM   16  C   UNL     1     -10.527   2.937 -34.569  1.00  0.00     0.009 A 
BRANCH  13  17
HETATM   17  O   UNL     1     -13.515   0.063 -34.186  1.00  0.00    -0.356 OA
HETATM   18  C   UNL     1     -14.834   0.592 -34.247  1.00  0.00     0.210 C 
ENDBRANCH  13  17
ENDBRANCH   1  11
BRANCH   8  19
HETATM   19  C   UNL     1      -6.574  -0.612 -34.068  1.00  0.00    -0.035 A 
HETATM   20  C   UNL     1      -7.070  -1.807 -34.618  1.00  0.00     0.010 A 
HETATM   21  C   UNL     1      -6.279  -2.958 -34.653  1.00  0.00     0.019 A 
HETATM   22  C   UNL     1      -4.979  -2.921 -34.154  1.00  0.00     0.011 A 
HETATM   23 BR   UNL     1      -3.908  -4.477 -34.203  1.00  0.00    -0.051 Br
HETATM   24  C   UNL     1      -4.463  -1.743 -33.620  1.00  0.00     0.019 A 
HETATM   25  C   UNL     1      -5.256  -0.594 -33.579  1.00  0.00     0.010 A 
ENDBRANCH   8  19
BRANCH   5  26
HETATM   26  N   UNL     1      -7.269   6.346 -33.201  1.00  0.00    -0.229 N 
HETATM   27  H   UNL     1      -7.329   6.834 -34.084  1.00  0.00     0.174 HD
HETATM   28  H   UNL     1      -7.626   6.853 -32.403  1.00  0.00     0.174 HD
ENDBRANCH   5  26
TORSDOF 4
ENDMDL
MODEL 5
REMARK VINA RESULT:      -8.3      3.602      6.634
REMARK  4 active torsions:
REMARK  status: ('A' for Active; 'I' for Inactive)
REMARK    1  A    between atoms: O_2  and  C_3 
REMARK    2  A    between atoms: C_5  and  C_6 
REMARK    3  A    between atoms: C_10  and  N_11 
REMARK    4  A    between atoms: C_14  and  C_15 
ROOT
HETATM    1  C   UNL     1      -6.510   0.696 -32.014  1.00  0.00     0.164 C 
HETATM    2  N   UNL     1      -7.775   1.325 -32.367  1.00  0.00    -0.074 N 
HETATM    3  C   UNL     1      -7.890   2.541 -32.985  1.00  0.00     0.736 A 
HETATM    4  N   UNL     1      -9.155   2.781 -33.211  1.00  0.00     0.131 NA
HETATM    5  C   UNL     1      -9.777   1.698 -32.663  1.00  0.00     0.753 A 
HETATM    6  N   UNL     1      -8.977   0.768 -32.147  1.00  0.00     0.037 NA
HETATM    7  N   UNL     1      -6.803   3.286 -33.273  1.00  0.00    -0.214 N 
HETATM    8  C   UNL     1      -5.476   2.684 -33.201  1.00  0.00     0.135 C 
HETATM    9  C   UNL     1      -5.390   1.755 -31.976  1.00  0.00     0.063 C 
HETATM   10  H   UNL     1      -6.923   4.040 -33.944  1.00  0.00     0.178 HD
ENDROOT
BRANCH   1  11
HETATM   11  C   UNL     1      -6.144  -0.465 -32.936  1.00  0.00    -0.030 A 
HETATM   12  C   UNL     1      -4.985  -1.248 -32.756  1.00  0.00     0.046 A 
HETATM   13  C   UNL     1      -4.723  -2.346 -33.580  1.00  0.00     0.068 A 
HETATM   14  C   UNL     1      -5.616  -2.660 -34.605  1.00  0.00     0.037 A 
HETATM   15  C   UNL     1      -6.763  -1.895 -34.803  1.00  0.00     0.003 A 
HETATM   16  C   UNL     1      -7.029  -0.808 -33.972  1.00  0.00     0.009 A 
BRANCH  13  17
HETATM   17  O   UNL     1      -3.646  -3.183 -33.483  1.00  0.00    -0.356 OA
HETATM   18  C   UNL     1      -3.845  -4.540 -33.861  1.00  0.00     0.210 C 
ENDBRANCH  13  17
ENDBRANCH   1  11
BRANCH   8  19
HETATM   19  C   UNL     1      -4.398   3.751 -33.145  1.00  0.00    -0.035 A 
HETATM   20  C   UNL     1      -4.551   5.003 -33.765  1.00  0.00     0.010 A 
HETATM   21  C   UNL     1      -3.544   5.968 -33.684  1.00  0.00     0.019 A 
HETATM   22  C   UNL     1      -2.382   5.697 -32.966  1.00  0.00     0.011 A 
HETATM   23 BR   UNL     1      -1.020   7.003 -32.853  1.00  0.00    -0.051 Br
HETATM   24  C   UNL     1      -2.217   4.470 -32.328  1.00  0.00     0.019 A 
HETATM   25  C   UNL     1      -3.221   3.503 -32.416  1.00  0.00     0.010 A 
ENDBRANCH   8  19
BRANCH   5  26
HETATM   26  N   UNL     1     -11.103   1.631 -32.716  1.00  0.00    -0.229 N 
HETATM   27  H   UNL     1     -11.508   1.143 -33.502  1.00  0.00     0.174 HD
HETATM   28  H   UNL     1     -11.592   1.514 -31.839  1.00  0.00     0.174 HD
ENDBRANCH   5  26
TORSDOF 4
ENDMDL
MODEL 6
REMARK VINA RESULT:      -8.0      4.227      5.990
REMARK  4 active torsions:
REMARK  status: ('A' for Active; 'I' for Inactive)
REMARK    1  A    between atoms: O_2  and  C_3 
REMARK    2  A    between atoms: C_5  and  C_6 
REMARK    3  A    between atoms: C_10  and  N_11 
REMARK    4  A    between atoms: C_14  and  C_15 
ROOT
HETATM    1  C   UNL     1      -9.481   1.433 -32.058  1.00  0.00     0.164 C 
HETATM    2  N   UNL     1      -8.644   2.549 -31.639  1.00  0.00    -0.074 N 
HETATM    3  C   UNL     1      -7.301   2.647 -31.887  1.00  0.00     0.736 A 
HETATM    4  N   UNL     1      -6.871   3.794 -31.431  1.00  0.00     0.131 NA
HETATM    5  C   UNL     1      -7.987   4.339 -30.866  1.00  0.00     0.753 A 
HETATM    6  N   UNL     1      -9.104   3.624 -30.979  1.00  0.00     0.037 NA
HETATM    7  N   UNL     1      -6.631   1.658 -32.514  1.00  0.00    -0.214 N 
HETATM    8  C   UNL     1      -7.372   0.606 -33.199  1.00  0.00     0.135 C 
HETATM    9  C   UNL     1      -8.602   0.203 -32.363  1.00  0.00     0.063 C 
HETATM   10  H   UNL     1      -5.715   1.887 -32.891  1.00  0.00     0.178 HD
ENDROOT
BRANCH   1  11
HETATM   11  C   UNL     1     -10.383   1.776 -33.242  1.00  0.00    -0.030 A 
HETATM   12  C   UNL     1     -11.533   1.029 -33.569  1.00  0.00     0.046 A 
HETATM   13  C   UNL     1     -12.370   1.418 -34.617  1.00  0.00     0.068 A 
HETATM   14  C   UNL     1     -12.053   2.556 -35.360  1.00  0.00     0.037 A 
HETATM   15  C   UNL     1     -10.917   3.304 -35.058  1.00  0.00     0.003 A 
HETATM   16  C   UNL     1     -10.090   2.921 -34.003  1.00  0.00     0.009 A 
BRANCH  13  17
HETATM   17  O   UNL     1     -13.518   0.783 -35.006  1.00  0.00    -0.356 OA
HETATM   18  C   UNL     1     -14.670   0.973 -34.193  1.00  0.00     0.210 C 
ENDBRANCH  13  17
ENDBRANCH   1  11
BRANCH   8  19
HETATM   19  C   UNL     1      -6.486  -0.598 -33.466  1.00  0.00    -0.035 A 
HETATM   20  C   UNL     1      -5.178  -0.689 -32.961  1.00  0.00     0.010 A 
HETATM   21  C   UNL     1      -4.392  -1.817 -33.215  1.00  0.00     0.019 A 
HETATM   22  C   UNL     1      -4.913  -2.870 -33.962  1.00  0.00     0.011 A 
HETATM   23 BR   UNL     1      -3.852  -4.396 -34.304  1.00  0.00    -0.051 Br
HETATM   24  C   UNL     1      -6.214  -2.807 -34.457  1.00  0.00     0.019 A 
HETATM   25  C   UNL     1      -6.996  -1.677 -34.209  1.00  0.00     0.010 A 
ENDBRANCH   8  19
BRANCH   5  26
HETATM   26  N   UNL     1      -7.890   5.533 -30.289  1.00  0.00    -0.229 N 
HETATM   27  H   UNL     1      -6.978   5.809 -29.955  1.00  0.00     0.174 HD
HETATM   28  H   UNL     1      -8.450   6.278 -30.681  1.00  0.00     0.174 HD
ENDBRANCH   5  26
TORSDOF 4
ENDMDL
MODEL 7
REMARK VINA RESULT:      -8.0      2.931      4.151
REMARK  4 active torsions:
REMARK  status: ('A' for Active; 'I' for Inactive)
REMARK    1  A    between atoms: O_2  and  C_3 
REMARK    2  A    between atoms: C_5  and  C_6 
REMARK    3  A    between atoms: C_10  and  N_11 
REMARK    4  A    between atoms: C_14  and  C_15 
ROOT
HETATM    1  C   UNL     1      -5.000   2.403 -31.683  1.00  0.00     0.164 C 
HETATM    2  N   UNL     1      -4.339   1.109 -31.778  1.00  0.00    -0.074 N 
HETATM    3  C   UNL     1      -4.882   0.003 -32.376  1.00  0.00     0.736 A 
HETATM    4  N   UNL     1      -4.006  -0.967 -32.341  1.00  0.00     0.131 NA
HETATM    5  C   UNL     1      -2.959  -0.414 -31.663  1.00  0.00     0.753 A 
HETATM    6  N   UNL     1      -3.105   0.861 -31.309  1.00  0.00     0.037 NA
HETATM    7  N   UNL     1      -6.129   0.025 -32.889  1.00  0.00    -0.214 N 
HETATM    8  C   UNL     1      -6.806   1.302 -33.083  1.00  0.00     0.135 C 
HETATM    9  C   UNL     1      -6.519   2.232 -31.889  1.00  0.00     0.063 C 
HETATM   10  H   UNL     1      -6.378  -0.722 -33.532  1.00  0.00     0.178 HD
ENDROOT
BRANCH   1  11
HETATM   11  C   UNL     1      -4.423   3.439 -32.645  1.00  0.00    -0.030 A 
HETATM   12  C   UNL     1      -3.069   3.833 -32.622  1.00  0.00     0.046 A 
HETATM   13  C   UNL     1      -2.565   4.732 -33.565  1.00  0.00     0.068 A 
HETATM   14  C   UNL     1      -3.420   5.257 -34.534  1.00  0.00     0.037 A 
HETATM   15  C   UNL     1      -4.762   4.887 -34.569  1.00  0.00     0.003 A 
HETATM   16  C   UNL     1      -5.260   3.979 -33.636  1.00  0.00     0.009 A 
BRANCH  13  17
HETATM   17  O   UNL     1      -1.270   5.164 -33.649  1.00  0.00    -0.356 OA
HETATM   18  C   UNL     1      -1.065   6.560 -33.839  1.00  0.00     0.210 C 
ENDBRANCH  13  17
ENDBRANCH   1  11
BRANCH   8  19
HETATM   19  C   UNL     1      -8.301   1.103 -33.262  1.00  0.00    -0.035 A 
HETATM   20  C   UNL     1      -8.995   0.053 -32.637  1.00  0.00     0.010 A 
HETATM   21  C   UNL     1     -10.373  -0.095 -32.813  1.00  0.00     0.019 A 
HETATM   22  C   UNL     1     -11.072   0.815 -33.601  1.00  0.00     0.011 A 
HETATM   23 BR   UNL     1     -12.937   0.616 -33.838  1.00  0.00    -0.051 Br
HETATM   24  C   UNL     1     -10.407   1.873 -34.216  1.00  0.00     0.019 A 
HETATM   25  C   UNL     1      -9.028   2.017 -34.045  1.00  0.00     0.010 A 
ENDBRANCH   8  19
BRANCH   5  26
HETATM   26  N   UNL     1      -1.879  -1.157 -31.442  1.00  0.00    -0.229 N 
HETATM   27  H   UNL     1      -1.503  -1.666 -32.230  1.00  0.00     0.174 HD
HETATM   28  H   UNL     1      -1.192  -0.788 -30.800  1.00  0.00     0.174 HD
ENDBRANCH   5  26
TORSDOF 4
ENDMDL
MODEL 8
REMARK VINA RESULT:      -7.7      2.862      4.430
REMARK  4 active torsions:
REMARK  status: ('A' for Active; 'I' for Inactive)
REMARK    1  A    between atoms: O_2  and  C_3 
REMARK    2  A    between atoms: C_5  and  C_6 
REMARK    3  A    between atoms: C_10  and  N_11 
REMARK    4  A    between atoms: C_14  and  C_15 
ROOT
HETATM    1  C   UNL     1      -7.223   2.324 -31.223  1.00  0.00     0.164 C 
HETATM    2  N   UNL     1      -5.935   3.003 -31.261  1.00  0.00    -0.074 N 
HETATM    3  C   UNL     1      -4.882   2.622 -32.049  1.00  0.00     0.736 A 
HETATM    4  N   UNL     1      -3.905   3.476 -31.888  1.00  0.00     0.131 NA
HETATM    5  C   UNL     1      -4.397   4.335 -30.949  1.00  0.00     0.753 A 
HETATM    6  N   UNL     1      -5.643   4.099 -30.543  1.00  0.00     0.037 NA
HETATM    7  N   UNL     1      -4.952   1.525 -32.830  1.00  0.00    -0.214 N 
HETATM    8  C   UNL     1      -6.246   0.897 -33.077  1.00  0.00     0.135 C 
HETATM    9  C   UNL     1      -7.080   0.895 -31.782  1.00  0.00     0.063 C 
HETATM   10  H   UNL     1      -4.257   1.436 -33.567  1.00  0.00     0.178 HD
ENDROOT
BRANCH   1  11
HETATM   11  C   UNL     1      -8.324   3.096 -31.947  1.00  0.00    -0.030 A 
HETATM   12  C   UNL     1      -8.068   3.951 -33.039  1.00  0.00     0.046 A 
HETATM   13  C   UNL     1      -9.112   4.584 -33.718  1.00  0.00     0.068 A 
HETATM   14  C   UNL     1     -10.425   4.377 -33.299  1.00  0.00     0.037 A 
HETATM   15  C   UNL     1     -10.700   3.542 -32.218  1.00  0.00     0.003 A 
HETATM   16  C   UNL     1      -9.658   2.901 -31.549  1.00  0.00     0.009 A 
BRANCH  13  17
HETATM   17  O   UNL     1      -8.980   5.413 -34.798  1.00  0.00    -0.356 OA
HETATM   18  C   UNL     1     -10.175   5.957 -35.346  1.00  0.00     0.210 C 
ENDBRANCH  13  17
ENDBRANCH   1  11
BRANCH   8  19
HETATM   19  C   UNL     1      -6.072  -0.515 -33.608  1.00  0.00    -0.035 A 
HETATM   20  C   UNL     1      -4.818  -1.148 -33.650  1.00  0.00     0.010 A 
HETATM   21  C   UNL     1      -4.694  -2.454 -34.133  1.00  0.00     0.019 A 
HETATM   22  C   UNL     1      -5.825  -3.144 -34.561  1.00  0.00     0.011 A 
HETATM   23 BR   UNL     1      -5.658  -4.910 -35.212  1.00  0.00    -0.051 Br
HETATM   24  C   UNL     1      -7.080  -2.541 -34.511  1.00  0.00     0.019 A 
HETATM   25  C   UNL     1      -7.202  -1.234 -34.035  1.00  0.00     0.010 A 
ENDBRANCH   8  19
BRANCH   5  26
HETATM   26  N   UNL     1      -3.632   5.343 -30.544  1.00  0.00    -0.229 N 
HETATM   27  H   UNL     1      -3.925   6.274 -30.803  1.00  0.00     0.174 HD
HETATM   28  H   UNL     1      -3.213   5.261 -29.628  1.00  0.00     0.174 HD
ENDBRANCH   5  26
TORSDOF 4
ENDMDL
MODEL 9
REMARK VINA RESULT:      -7.6      4.451      7.491
REMARK  4 active torsions:
REMARK  status: ('A' for Active; 'I' for Inactive)
REMARK    1  A    between atoms: O_2  and  C_3 
REMARK    2  A    between atoms: C_5  and  C_6 
REMARK    3  A    between atoms: C_10  and  N_11 
REMARK    4  A    between atoms: C_14  and  C_15 
ROOT
HETATM    1  C   UNL     1      -6.912   0.840 -34.695  1.00  0.00     0.164 C 
HETATM    2  N   UNL     1      -6.196  -0.403 -34.440  1.00  0.00    -0.074 N 
HETATM    3  C   UNL     1      -5.212  -0.551 -33.499  1.00  0.00     0.736 A 
HETATM    4  N   UNL     1      -4.825  -1.800 -33.488  1.00  0.00     0.131 NA
HETATM    5  C   UNL     1      -5.571  -2.364 -34.481  1.00  0.00     0.753 A 
HETATM    6  N   UNL     1      -6.439  -1.555 -35.086  1.00  0.00     0.037 NA
HETATM    7  N   UNL     1      -4.791   0.492 -32.755  1.00  0.00    -0.214 N 
HETATM    8  C   UNL     1      -5.575   1.722 -32.729  1.00  0.00     0.135 C 
HETATM    9  C   UNL     1      -6.107   2.032 -34.141  1.00  0.00     0.063 C 
HETATM   10  H   UNL     1      -4.256   0.278 -31.917  1.00  0.00     0.178 HD
ENDROOT
BRANCH   1  11
HETATM   11  C   UNL     1      -8.337   0.829 -34.146  1.00  0.00    -0.030 A 
HETATM   12  C   UNL     1      -9.336   1.718 -34.595  1.00  0.00     0.046 A 
HETATM   13  C   UNL     1     -10.646   1.629 -34.118  1.00  0.00     0.068 A 
HETATM   14  C   UNL     1     -10.964   0.656 -33.171  1.00  0.00     0.037 A 
HETATM   15  C   UNL     1      -9.990  -0.227 -32.709  1.00  0.00     0.003 A 
HETATM   16  C   UNL     1      -8.687  -0.145 -33.197  1.00  0.00     0.009 A 
BRANCH  13  17
HETATM   17  O   UNL     1     -11.694   2.422 -34.498  1.00  0.00    -0.356 OA
HETATM   18  C   UNL     1     -12.913   1.767 -34.830  1.00  0.00     0.210 C 
ENDBRANCH  13  17
ENDBRANCH   1  11
BRANCH   8  19
HETATM   19  C   UNL     1      -4.749   2.881 -32.198  1.00  0.00    -0.035 A 
HETATM   20  C   UNL     1      -3.360   2.960 -32.394  1.00  0.00     0.010 A 
HETATM   21  C   UNL     1      -2.631   4.047 -31.903  1.00  0.00     0.019 A 
HETATM   22  C   UNL     1      -3.288   5.073 -31.228  1.00  0.00     0.011 A 
HETATM   23 BR   UNL     1      -2.304   6.544 -30.566  1.00  0.00    -0.051 Br
HETATM   24  C   UNL     1      -4.667   5.023 -31.039  1.00  0.00     0.019 A 
HETATM   25  C   UNL     1      -5.394   3.933 -31.523  1.00  0.00     0.010 A 
ENDBRANCH   8  19
BRANCH   5  26
HETATM   26  N   UNL     1      -5.411  -3.656 -34.742  1.00  0.00    -0.229 N 
HETATM   27  H   UNL     1      -5.674  -4.308 -34.016  1.00  0.00     0.174 HD
HETATM   28  H   UNL     1      -5.606  -3.961 -35.686  1.00  0.00     0.174 HD
ENDBRANCH   5  26
TORSDOF 4
ENDMDL
MODEL 10
REMARK VINA RESULT:      -7.4      3.409      4.825
REMARK  4 active torsions:
REMARK  status: ('A' for Active; 'I' for Inactive)
REMARK    1  A    between atoms: O_2  and  C_3 
REMARK    2  A    between atoms: C_5  and  C_6 
REMARK    3  A    between atoms: C_10  and  N_11 
REMARK    4  A    between atoms: C_14  and  C_15 
ROOT
HETATM    1  C   UNL     1      -8.239   2.049 -31.520  1.00  0.00     0.164 C 
HETATM    2  N   UNL     1      -7.042   2.625 -30.922  1.00  0.00    -0.074 N 
HETATM    3  C   UNL     1      -5.764   2.217 -31.198  1.00  0.00     0.736 A 
HETATM    4  N   UNL     1      -4.928   2.978 -30.543  1.00  0.00     0.131 NA
HETATM    5  C   UNL     1      -5.752   3.806 -29.838  1.00  0.00     0.753 A 
HETATM    6  N   UNL     1      -7.056   3.643 -30.046  1.00  0.00     0.037 NA
HETATM    7  N   UNL     1      -5.524   1.185 -32.034  1.00  0.00    -0.214 N 
HETATM    8  C   UNL     1      -6.596   0.680 -32.883  1.00  0.00     0.135 C 
HETATM    9  C   UNL     1      -7.919   0.655 -32.095  1.00  0.00     0.063 C 
HETATM   10  H   UNL     1      -4.577   1.093 -32.394  1.00  0.00     0.178 HD
ENDROOT
BRANCH   1  11
HETATM   11  C   UNL     1      -8.870   2.953 -32.576  1.00  0.00    -0.030 A 
HETATM   12  C   UNL     1     -10.215   2.828 -32.984  1.00  0.00     0.046 A 
HETATM   13  C   UNL     1     -10.774   3.721 -33.902  1.00  0.00     0.068 A 
HETATM   14  C   UNL     1      -9.984   4.740 -34.434  1.00  0.00     0.037 A 
HETATM   15  C   UNL     1      -8.652   4.875 -34.050  1.00  0.00     0.003 A 
HETATM   16  C   UNL     1      -8.099   3.992 -33.123  1.00  0.00     0.009 A 
BRANCH  13  17
HETATM   17  O   UNL     1     -12.067   3.706 -34.350  1.00  0.00    -0.356 OA
HETATM   18  C   UNL     1     -12.298   3.157 -35.642  1.00  0.00     0.210 C 
ENDBRANCH  13  17
ENDBRANCH   1  11
BRANCH   8  19
HETATM   19  C   UNL     1      -6.261  -0.702 -33.417  1.00  0.00    -0.035 A 
HETATM   20  C   UNL     1      -7.224  -1.520 -34.032  1.00  0.00     0.010 A 
HETATM   21  C   UNL     1      -6.880  -2.782 -34.523  1.00  0.00     0.019 A 
HETATM   22  C   UNL     1      -5.565  -3.229 -34.420  1.00  0.00     0.011 A 
HETATM   23 BR   UNL     1      -5.098  -4.935 -35.088  1.00  0.00    -0.051 Br
HETATM   24  C   UNL     1      -4.591  -2.427 -33.831  1.00  0.00     0.019 A 
HETATM   25  C   UNL     1      -4.937  -1.169 -33.333  1.00  0.00     0.010 A 
ENDBRANCH   8  19
BRANCH   5  26
HETATM   26  N   UNL     1      -5.207   4.721 -29.042  1.00  0.00    -0.229 N 
HETATM   27  H   UNL     1      -5.375   4.625 -28.051  1.00  0.00     0.174 HD
HETATM   28  H   UNL     1      -4.288   5.058 -29.293  1.00  0.00     0.174 HD
ENDBRANCH   5  26
TORSDOF 4
ENDMDL
