MODEL 1
REMARK VINA RESULT:      -9.3      0.000      0.000
REMARK  3 active torsions:
REMARK  status: ('A' for Active; 'I' for Inactive)
REMARK    1  A    between atoms: C_12  and  C_13 
REMARK       I    between atoms: C_13  and  N_14 
REMARK    2  A    between atoms: N_14  and  C_15 
REMARK    3  A    between atoms: C_15  and  C_16 
ROOT
HETATM    1  C   UNL     1      -1.130   7.296 -33.080  1.00  0.00     0.001 A 
HETATM    2  C   UNL     1      -2.335   6.740 -33.516  1.00  0.00     0.016 A 
HETATM    3  C   UNL     1      -2.756   5.511 -33.003  1.00  0.00     0.026 A 
HETATM    4  C   UNL     1      -1.967   4.837 -32.050  1.00  0.00     0.081 A 
HETATM    5  O   UNL     1      -2.287   3.623 -31.480  1.00  0.00    -0.346 OA
HETATM    6  C   UNL     1      -3.525   2.950 -31.852  1.00  0.00     0.219 A 
HETATM    7  C   UNL     1      -4.357   3.654 -32.852  1.00  0.00     0.031 A 
HETATM    8  C   UNL     1      -3.981   4.856 -33.385  1.00  0.00     0.074 A 
HETATM    9  N   UNL     1      -4.960   5.212 -34.255  1.00  0.00    -0.276 N 
HETATM   10  H   UNL     1      -5.018   6.043 -34.834  1.00  0.00     0.189 HD
HETATM   11  N   UNL     1      -5.965   4.311 -34.323  1.00  0.00    -0.168 NA
HETATM   12  C   UNL     1      -5.597   3.340 -33.453  1.00  0.00     0.155 A 
HETATM   13  C   UNL     1      -0.765   5.402 -31.623  1.00  0.00     0.038 A 
HETATM   14  C   UNL     1      -0.348   6.630 -32.137  1.00  0.00     0.003 A 
ENDROOT
BRANCH  12  15
HETATM   15  C   UNL     1      -6.424   2.147 -33.211  1.00  0.00     0.272 C 
HETATM   16  N   UNL     1      -6.400   1.249 -34.250  1.00  0.00    -0.351 N 
HETATM   17  H   UNL     1      -5.807   1.496 -35.037  1.00  0.00     0.163 HD
HETATM   18  O   UNL     1      -7.065   1.987 -32.178  1.00  0.00    -0.266 OA
BRANCH  16  19
HETATM   19  C   UNL     1      -7.132   0.011 -34.244  1.00  0.00     0.161 C 
BRANCH  19  20
HETATM   20  C   UNL     1      -6.205  -1.177 -34.199  1.00  0.00    -0.040 A 
HETATM   21  C   UNL     1      -4.989  -1.101 -33.503  1.00  0.00     0.010 A 
HETATM   22  C   UNL     1      -4.133  -2.205 -33.444  1.00  0.00     0.024 A 
HETATM   23  C   UNL     1      -4.493  -3.392 -34.076  1.00  0.00     0.034 A 
HETATM   24 CL   UNL     1      -3.444  -4.753 -34.000  1.00  0.00    -0.084 Cl
HETATM   25  C   UNL     1      -5.698  -3.485 -34.768  1.00  0.00     0.024 A 
HETATM   26  C   UNL     1      -6.552  -2.380 -34.830  1.00  0.00     0.010 A 
ENDBRANCH  19  20
ENDBRANCH  16  19
ENDBRANCH  12  15
TORSDOF 3
ENDMDL
MODEL 2
REMARK VINA RESULT:      -9.2      3.551      8.388
REMARK  3 active torsions:
REMARK  status: ('A' for Active; 'I' for Inactive)
REMARK    1  A    between atoms: C_12  and  C_13 
REMARK       I    between atoms: C_13  and  N_14 
REMARK    2  A    between atoms: N_14  and  C_15 
REMARK    3  A    between atoms: C_15  and  C_16 
ROOT
HETATM    1  C   UNL     1      -3.845  -4.848 -33.651  1.00  0.00     0.001 A 
HETATM    2  C   UNL     1      -3.409  -3.740 -32.921  1.00  0.00     0.016 A 
HETATM    3  C   UNL     1      -4.023  -2.500 -33.111  1.00  0.00     0.026 A 
HETATM    4  C   UNL     1      -5.079  -2.370 -34.036  1.00  0.00     0.081 A 
HETATM    5  O   UNL     1      -5.753  -1.197 -34.300  1.00  0.00    -0.346 OA
HETATM    6  C   UNL     1      -5.390   0.024 -33.593  1.00  0.00     0.219 A 
HETATM    7  C   UNL     1      -4.284  -0.107 -32.620  1.00  0.00     0.031 A 
HETATM    8  C   UNL     1      -3.650  -1.300 -32.406  1.00  0.00     0.074 A 
HETATM    9  N   UNL     1      -2.701  -1.066 -31.466  1.00  0.00    -0.276 N 
HETATM   10  H   UNL     1      -2.038  -1.720 -31.062  1.00  0.00     0.189 HD
HETATM   11  N   UNL     1      -2.675   0.218 -31.043  1.00  0.00    -0.168 NA
HETATM   12  C   UNL     1      -3.657   0.820 -31.756  1.00  0.00     0.155 A 
HETATM   13  C   UNL     1      -5.505  -3.483 -34.760  1.00  0.00     0.038 A 
HETATM   14  C   UNL     1      -4.889  -4.720 -34.567  1.00  0.00     0.003 A 
ENDROOT
BRANCH  12  15
HETATM   15  C   UNL     1      -3.978   2.247 -31.602  1.00  0.00     0.272 C 
HETATM   16  N   UNL     1      -3.429   3.036 -32.582  1.00  0.00    -0.351 N 
HETATM   17  H   UNL     1      -2.897   2.551 -33.298  1.00  0.00     0.163 HD
HETATM   18  O   UNL     1      -4.669   2.673 -30.683  1.00  0.00    -0.266 OA
BRANCH  16  19
HETATM   19  C   UNL     1      -3.602   4.464 -32.640  1.00  0.00     0.161 C 
BRANCH  19  20
HETATM   20  C   UNL     1      -2.533   5.180 -31.854  1.00  0.00    -0.040 A 
HETATM   21  C   UNL     1      -2.884   6.066 -30.824  1.00  0.00     0.010 A 
HETATM   22  C   UNL     1      -1.897   6.720 -30.081  1.00  0.00     0.024 A 
HETATM   23  C   UNL     1      -0.554   6.487 -30.362  1.00  0.00     0.034 A 
HETATM   24 CL   UNL     1       0.663   7.286 -29.445  1.00  0.00    -0.084 Cl
HETATM   25  C   UNL     1      -0.188   5.608 -31.378  1.00  0.00     0.024 A 
HETATM   26  C   UNL     1      -1.175   4.956 -32.123  1.00  0.00     0.010 A 
ENDBRANCH  19  20
ENDBRANCH  16  19
ENDBRANCH  12  15
TORSDOF 3
ENDMDL
MODEL 3
REMARK VINA RESULT:      -9.0      2.713      7.538
REMARK  3 active torsions:
REMARK  status: ('A' for Active; 'I' for Inactive)
REMARK    1  A    between atoms: C_12  and  C_13 
REMARK       I    between atoms: C_13  and  N_14 
REMARK    2  A    between atoms: N_14  and  C_15 
REMARK    3  A    between atoms: C_15  and  C_16 
ROOT
HETATM    1  C   UNL     1      -6.023  -4.544 -34.968  1.00  0.00     0.001 A 
HETATM    2  C   UNL     1      -6.663  -3.302 -34.977  1.00  0.00     0.016 A 
HETATM    3  C   UNL     1      -6.031  -2.192 -34.414  1.00  0.00     0.026 A 
HETATM    4  C   UNL     1      -4.751  -2.326 -33.838  1.00  0.00     0.081 A 
HETATM    5  O   UNL     1      -4.038  -1.300 -33.257  1.00  0.00    -0.346 OA
HETATM    6  C   UNL     1      -4.602   0.043 -33.215  1.00  0.00     0.219 A 
HETATM    7  C   UNL     1      -5.944   0.189 -33.818  1.00  0.00     0.031 A 
HETATM    8  C   UNL     1      -6.604  -0.871 -34.376  1.00  0.00     0.074 A 
HETATM    9  N   UNL     1      -7.790  -0.391 -34.828  1.00  0.00    -0.276 N 
HETATM   10  H   UNL     1      -8.537  -0.893 -35.296  1.00  0.00     0.189 HD
HETATM   11  N   UNL     1      -7.949   0.933 -34.602  1.00  0.00    -0.168 NA
HETATM   12  C   UNL     1      -6.805   1.300 -33.975  1.00  0.00     0.155 A 
HETATM   13  C   UNL     1      -4.121  -3.571 -33.834  1.00  0.00     0.038 A 
HETATM   14  C   UNL     1      -4.757  -4.678 -34.398  1.00  0.00     0.003 A 
ENDROOT
BRANCH  12  15
HETATM   15  C   UNL     1      -6.555   2.684 -33.544  1.00  0.00     0.272 C 
HETATM   16  N   UNL     1      -5.715   3.371 -34.385  1.00  0.00    -0.351 N 
HETATM   17  H   UNL     1      -5.390   2.863 -35.202  1.00  0.00     0.163 HD
HETATM   18  O   UNL     1      -7.056   3.161 -32.531  1.00  0.00    -0.266 OA
BRANCH  16  19
HETATM   19  C   UNL     1      -5.322   4.739 -34.169  1.00  0.00     0.161 C 
BRANCH  19  20
HETATM   20  C   UNL     1      -3.965   4.825 -33.516  1.00  0.00    -0.040 A 
HETATM   21  C   UNL     1      -2.824   5.095 -34.287  1.00  0.00     0.010 A 
HETATM   22  C   UNL     1      -1.566   5.192 -33.685  1.00  0.00     0.024 A 
HETATM   23  C   UNL     1      -1.446   5.027 -32.308  1.00  0.00     0.034 A 
HETATM   24 CL   UNL     1       0.101   5.154 -31.564  1.00  0.00    -0.084 Cl
HETATM   25  C   UNL     1      -2.569   4.764 -31.528  1.00  0.00     0.024 A 
HETATM   26  C   UNL     1      -3.826   4.662 -32.131  1.00  0.00     0.010 A 
ENDBRANCH  19  20
ENDBRANCH  16  19
ENDBRANCH  12  15
TORSDOF 3
ENDMDL
MODEL 4
REMARK VINA RESULT:      -8.6      1.610      2.029
REMARK  3 active torsions:
REMARK  status: ('A' for Active; 'I' for Inactive)
REMARK    1  A    between atoms: C_12  and  C_13 
REMARK       I    between atoms: C_13  and  N_14 
REMARK    2  A    between atoms: N_14  and  C_15 
REMARK    3  A    between atoms: C_15  and  C_16 
ROOT
HETATM    1  C   UNL     1      -0.555   6.752 -31.824  1.00  0.00     0.001 A 
HETATM    2  C   UNL     1      -1.292   5.620 -31.467  1.00  0.00     0.016 A 
HETATM    3  C   UNL     1      -2.403   5.248 -32.228  1.00  0.00     0.026 A 
HETATM    4  C   UNL     1      -2.777   6.013 -33.351  1.00  0.00     0.081 A 
HETATM    5  O   UNL     1      -3.851   5.736 -34.169  1.00  0.00    -0.346 OA
HETATM    6  C   UNL     1      -4.689   4.576 -33.899  1.00  0.00     0.219 A 
HETATM    7  C   UNL     1      -4.301   3.769 -32.722  1.00  0.00     0.031 A 
HETATM    8  C   UNL     1      -3.224   4.099 -31.945  1.00  0.00     0.074 A 
HETATM    9  N   UNL     1      -3.155   3.162 -30.967  1.00  0.00    -0.276 N 
HETATM   10  H   UNL     1      -2.485   3.088 -30.209  1.00  0.00     0.189 HD
HETATM   11  N   UNL     1      -4.128   2.226 -31.057  1.00  0.00    -0.168 NA
HETATM   12  C   UNL     1      -4.843   2.597 -32.146  1.00  0.00     0.155 A 
HETATM   13  C   UNL     1      -2.034   7.142 -33.697  1.00  0.00     0.038 A 
HETATM   14  C   UNL     1      -0.925   7.511 -32.935  1.00  0.00     0.003 A 
ENDROOT
BRANCH  12  15
HETATM   15  C   UNL     1      -6.012   1.838 -32.614  1.00  0.00     0.272 C 
HETATM   16  N   UNL     1      -5.752   1.065 -33.719  1.00  0.00    -0.351 N 
HETATM   17  H   UNL     1      -4.797   1.088 -34.063  1.00  0.00     0.163 HD
HETATM   18  O   UNL     1      -7.105   1.900 -32.060  1.00  0.00    -0.266 OA
BRANCH  16  19
HETATM   19  C   UNL     1      -6.740   0.237 -34.358  1.00  0.00     0.161 C 
BRANCH  19  20
HETATM   20  C   UNL     1      -6.285  -1.198 -34.443  1.00  0.00    -0.040 A 
HETATM   21  C   UNL     1      -4.941  -1.530 -34.214  1.00  0.00     0.010 A 
HETATM   22  C   UNL     1      -4.517  -2.860 -34.276  1.00  0.00     0.024 A 
HETATM   23  C   UNL     1      -5.437  -3.865 -34.561  1.00  0.00     0.034 A 
HETATM   24 CL   UNL     1      -4.918  -5.504 -34.630  1.00  0.00    -0.084 Cl
HETATM   25  C   UNL     1      -6.776  -3.553 -34.787  1.00  0.00     0.024 A 
HETATM   26  C   UNL     1      -7.199  -2.222 -34.729  1.00  0.00     0.010 A 
ENDBRANCH  19  20
ENDBRANCH  16  19
ENDBRANCH  12  15
TORSDOF 3
ENDMDL
MODEL 5
REMARK VINA RESULT:      -8.4      3.761      8.437
REMARK  3 active torsions:
REMARK  status: ('A' for Active; 'I' for Inactive)
REMARK    1  A    between atoms: C_12  and  C_13 
REMARK       I    between atoms: C_13  and  N_14 
REMARK    2  A    between atoms: N_14  and  C_15 
REMARK    3  A    between atoms: C_15  and  C_16 
ROOT
HETATM    1  C   UNL     1      -6.693  -1.501 -33.728  1.00  0.00     0.001 A 
HETATM    2  C   UNL     1      -5.713  -0.793 -33.027  1.00  0.00     0.016 A 
HETATM    3  C   UNL     1      -5.586   0.585 -33.217  1.00  0.00     0.026 A 
HETATM    4  C   UNL     1      -6.443   1.256 -34.112  1.00  0.00     0.081 A 
HETATM    5  O   UNL     1      -6.405   2.609 -34.372  1.00  0.00    -0.346 OA
HETATM    6  C   UNL     1      -5.429   3.452 -33.695  1.00  0.00     0.219 A 
HETATM    7  C   UNL     1      -4.528   2.753 -32.754  1.00  0.00     0.031 A 
HETATM    8  C   UNL     1      -4.613   1.404 -32.541  1.00  0.00     0.074 A 
HETATM    9  N   UNL     1      -3.652   1.098 -31.633  1.00  0.00    -0.276 N 
HETATM   10  H   UNL     1      -3.421   0.192 -31.240  1.00  0.00     0.189 HD
HETATM   11  N   UNL     1      -2.938   2.174 -31.230  1.00  0.00    -0.168 NA
HETATM   12  C   UNL     1      -3.477   3.206 -31.923  1.00  0.00     0.155 A 
HETATM   13  C   UNL     1      -7.417   0.538 -34.806  1.00  0.00     0.038 A 
HETATM   14  C   UNL     1      -7.541  -0.838 -34.614  1.00  0.00     0.003 A 
ENDROOT
BRANCH  12  15
HETATM   15  C   UNL     1      -2.991   4.586 -31.780  1.00  0.00     0.272 C 
HETATM   16  N   UNL     1      -1.700   4.756 -32.216  1.00  0.00    -0.351 N 
HETATM   17  H   UNL     1      -1.249   3.931 -32.600  1.00  0.00     0.163 HD
HETATM   18  O   UNL     1      -3.684   5.486 -31.315  1.00  0.00    -0.266 OA
BRANCH  16  19
HETATM   19  C   UNL     1      -1.008   6.017 -32.173  1.00  0.00     0.161 C 
BRANCH  19  20
HETATM   20  C   UNL     1      -0.437   6.286 -30.804  1.00  0.00    -0.040 A 
HETATM   21  C   UNL     1      -0.603   7.542 -30.201  1.00  0.00     0.010 A 
HETATM   22  C   UNL     1      -0.091   7.793 -28.926  1.00  0.00     0.024 A 
HETATM   23  C   UNL     1       0.585   6.785 -28.244  1.00  0.00     0.034 A 
HETATM   24 CL   UNL     1       1.212   7.089 -26.670  1.00  0.00    -0.084 Cl
HETATM   25  C   UNL     1       0.756   5.531 -28.825  1.00  0.00     0.024 A 
HETATM   26  C   UNL     1       0.246   5.282 -30.103  1.00  0.00     0.010 A 
ENDBRANCH  19  20
ENDBRANCH  16  19
ENDBRANCH  12  15
TORSDOF 3
ENDMDL
MODEL 6
REMARK VINA RESULT:      -8.4      1.743      2.139
REMARK  3 active torsions:
REMARK  status: ('A' for Active; 'I' for Inactive)
REMARK    1  A    between atoms: C_12  and  C_13 
REMARK       I    between atoms: C_13  and  N_14 
REMARK    2  A    between atoms: N_14  and  C_15 
REMARK    3  A    between atoms: C_15  and  C_16 
ROOT
HETATM    1  C   UNL     1      -0.270   7.069 -29.700  1.00  0.00     0.001 A 
HETATM    2  C   UNL     1      -1.524   6.469 -29.836  1.00  0.00     0.016 A 
HETATM    3  C   UNL     1      -1.857   5.820 -31.027  1.00  0.00     0.026 A 
HETATM    4  C   UNL     1      -0.928   5.771 -32.086  1.00  0.00     0.081 A 
HETATM    5  O   UNL     1      -1.152   5.158 -33.300  1.00  0.00    -0.346 OA
HETATM    6  C   UNL     1      -2.423   4.492 -33.555  1.00  0.00     0.219 A 
HETATM    7  C   UNL     1      -3.400   4.540 -32.446  1.00  0.00     0.031 A 
HETATM    8  C   UNL     1      -3.119   5.169 -31.264  1.00  0.00     0.074 A 
HETATM    9  N   UNL     1      -4.219   5.023 -30.482  1.00  0.00    -0.276 N 
HETATM   10  H   UNL     1      -4.371   5.364 -29.539  1.00  0.00     0.189 HD
HETATM   11  N   UNL     1      -5.211   4.327 -31.082  1.00  0.00    -0.168 NA
HETATM   12  C   UNL     1      -4.708   4.023 -32.303  1.00  0.00     0.155 A 
HETATM   13  C   UNL     1       0.321   6.374 -31.940  1.00  0.00     0.038 A 
HETATM   14  C   UNL     1       0.649   7.022 -30.749  1.00  0.00     0.003 A 
ENDROOT
BRANCH  12  15
HETATM   15  C   UNL     1      -5.472   3.254 -33.297  1.00  0.00     0.272 C 
HETATM   16  N   UNL     1      -5.865   2.019 -32.844  1.00  0.00    -0.351 N 
HETATM   17  H   UNL     1      -5.609   1.794 -31.887  1.00  0.00     0.163 HD
HETATM   18  O   UNL     1      -5.724   3.688 -34.416  1.00  0.00    -0.266 OA
BRANCH  16  19
HETATM   19  C   UNL     1      -6.620   1.086 -33.638  1.00  0.00     0.161 C 
BRANCH  19  20
HETATM   20  C   UNL     1      -5.897  -0.230 -33.777  1.00  0.00    -0.040 A 
HETATM   21  C   UNL     1      -4.756  -0.497 -33.006  1.00  0.00     0.010 A 
HETATM   22  C   UNL     1      -4.091  -1.721 -33.119  1.00  0.00     0.024 A 
HETATM   23  C   UNL     1      -4.570  -2.687 -34.000  1.00  0.00     0.034 A 
HETATM   24 CL   UNL     1      -3.757  -4.198 -34.135  1.00  0.00    -0.084 Cl
HETATM   25  C   UNL     1      -5.704  -2.440 -34.770  1.00  0.00     0.024 A 
HETATM   26  C   UNL     1      -6.366  -1.214 -34.659  1.00  0.00     0.010 A 
ENDBRANCH  19  20
ENDBRANCH  16  19
ENDBRANCH  12  15
TORSDOF 3
ENDMDL
MODEL 7
REMARK VINA RESULT:      -8.1      2.219      2.579
REMARK  3 active torsions:
REMARK  status: ('A' for Active; 'I' for Inactive)
REMARK    1  A    between atoms: C_12  and  C_13 
REMARK       I    between atoms: C_13  and  N_14 
REMARK    2  A    between atoms: N_14  and  C_15 
REMARK    3  A    between atoms: C_15  and  C_16 
ROOT
HETATM    1  C   UNL     1      -1.455   7.608 -31.597  1.00  0.00     0.001 A 
HETATM    2  C   UNL     1      -2.554   6.996 -30.987  1.00  0.00     0.016 A 
HETATM    3  C   UNL     1      -2.875   5.675 -31.305  1.00  0.00     0.026 A 
HETATM    4  C   UNL     1      -2.093   4.963 -32.237  1.00  0.00     0.081 A 
HETATM    5  O   UNL     1      -2.320   3.659 -32.621  1.00  0.00    -0.346 OA
HETATM    6  C   UNL     1      -3.434   2.916 -32.046  1.00  0.00     0.219 A 
HETATM    7  C   UNL     1      -4.257   3.658 -31.067  1.00  0.00     0.031 A 
HETATM    8  C   UNL     1      -3.982   4.955 -30.730  1.00  0.00     0.074 A 
HETATM    9  N   UNL     1      -4.920   5.322 -29.820  1.00  0.00    -0.276 N 
HETATM   10  H   UNL     1      -5.029   6.215 -29.352  1.00  0.00     0.189 HD
HETATM   11  N   UNL     1      -5.799   4.334 -29.534  1.00  0.00    -0.168 NA
HETATM   12  C   UNL     1      -5.392   3.297 -30.305  1.00  0.00     0.155 A 
HETATM   13  C   UNL     1      -1.000   5.585 -32.840  1.00  0.00     0.038 A 
HETATM   14  C   UNL     1      -0.681   6.905 -32.520  1.00  0.00     0.003 A 
ENDROOT
BRANCH  12  15
HETATM   15  C   UNL     1      -6.081   1.998 -30.301  1.00  0.00     0.272 C 
HETATM   16  N   UNL     1      -6.887   1.806 -31.396  1.00  0.00    -0.351 N 
HETATM   17  H   UNL     1      -6.894   2.557 -32.080  1.00  0.00     0.163 HD
HETATM   18  O   UNL     1      -5.939   1.178 -29.399  1.00  0.00    -0.266 OA
BRANCH  16  19
HETATM   19  C   UNL     1      -7.663   0.613 -31.610  1.00  0.00     0.161 C 
BRANCH  19  20
HETATM   20  C   UNL     1      -6.967  -0.336 -32.553  1.00  0.00    -0.040 A 
HETATM   21  C   UNL     1      -7.635  -0.826 -33.685  1.00  0.00     0.010 A 
HETATM   22  C   UNL     1      -6.989  -1.693 -34.571  1.00  0.00     0.024 A 
HETATM   23  C   UNL     1      -5.670  -2.068 -34.331  1.00  0.00     0.034 A 
HETATM   24 CL   UNL     1      -4.871  -3.130 -35.425  1.00  0.00    -0.084 Cl
HETATM   25  C   UNL     1      -4.992  -1.587 -33.214  1.00  0.00     0.024 A 
HETATM   26  C   UNL     1      -5.639  -0.723 -32.326  1.00  0.00     0.010 A 
ENDBRANCH  19  20
ENDBRANCH  16  19
ENDBRANCH  12  15
TORSDOF 3
ENDMDL
MODEL 8
REMARK VINA RESULT:      -8.0      4.091      6.050
REMARK  3 active torsions:
REMARK  status: ('A' for Active; 'I' for Inactive)
REMARK    1  A    between atoms: C_12  and  C_13 
REMARK       I    between atoms: C_13  and  N_14 
REMARK    2  A    between atoms: N_14  and  C_15 
REMARK    3  A    between atoms: C_15  and  C_16 
ROOT
HETATM    1  C   UNL     1       1.749   8.226 -26.006  1.00  0.00     0.001 A 
HETATM    2  C   UNL     1       1.506   7.196 -26.918  1.00  0.00     0.016 A 
HETATM    3  C   UNL     1       0.575   7.383 -27.942  1.00  0.00     0.026 A 
HETATM    4  C   UNL     1      -0.116   8.607 -28.053  1.00  0.00     0.081 A 
HETATM    5  O   UNL     1      -1.052   8.897 -29.022  1.00  0.00    -0.346 OA
HETATM    6  C   UNL     1      -1.382   7.901 -30.034  1.00  0.00     0.219 A 
HETATM    7  C   UNL     1      -0.659   6.616 -29.922  1.00  0.00     0.031 A 
HETATM    8  C   UNL     1       0.257   6.387 -28.933  1.00  0.00     0.074 A 
HETATM    9  N   UNL     1       0.721   5.127 -29.124  1.00  0.00    -0.276 N 
HETATM   10  H   UNL     1       1.410   4.619 -28.580  1.00  0.00     0.189 HD
HETATM   11  N   UNL     1       0.164   4.510 -30.191  1.00  0.00    -0.168 NA
HETATM   12  C   UNL     1      -0.695   5.430 -30.692  1.00  0.00     0.155 A 
HETATM   13  C   UNL     1       0.134   9.628 -27.136  1.00  0.00     0.038 A 
HETATM   14  C   UNL     1       1.065   9.438 -26.114  1.00  0.00     0.003 A 
ENDROOT
BRANCH  12  15
HETATM   15  C   UNL     1      -1.521   5.169 -31.881  1.00  0.00     0.272 C 
HETATM   16  N   UNL     1      -2.840   4.932 -31.584  1.00  0.00    -0.351 N 
HETATM   17  H   UNL     1      -3.093   4.988 -30.602  1.00  0.00     0.163 HD
HETATM   18  O   UNL     1      -1.060   5.166 -33.017  1.00  0.00    -0.266 OA
BRANCH  16  19
HETATM   19  C   UNL     1      -3.839   4.649 -32.581  1.00  0.00     0.161 C 
BRANCH  19  20
HETATM   20  C   UNL     1      -4.238   3.195 -32.563  1.00  0.00    -0.040 A 
HETATM   21  C   UNL     1      -5.451   2.786 -33.139  1.00  0.00     0.010 A 
HETATM   22  C   UNL     1      -5.819   1.438 -33.140  1.00  0.00     0.024 A 
HETATM   23  C   UNL     1      -4.972   0.491 -32.570  1.00  0.00     0.034 A 
HETATM   24 CL   UNL     1      -5.421  -1.170 -32.576  1.00  0.00    -0.084 Cl
HETATM   25  C   UNL     1      -3.764   0.879 -31.998  1.00  0.00     0.024 A 
HETATM   26  C   UNL     1      -3.397   2.229 -31.994  1.00  0.00     0.010 A 
ENDBRANCH  19  20
ENDBRANCH  16  19
ENDBRANCH  12  15
TORSDOF 3
ENDMDL
MODEL 9
REMARK VINA RESULT:      -7.7      3.980      8.122
REMARK  3 active torsions:
REMARK  status: ('A' for Active; 'I' for Inactive)
REMARK    1  A    between atoms: C_12  and  C_13 
REMARK       I    between atoms: C_13  and  N_14 
REMARK    2  A    between atoms: N_14  and  C_15 
REMARK    3  A    between atoms: C_15  and  C_16 
ROOT
HETATM    1  C   UNL     1      -6.378  -4.516 -34.961  1.00  0.00     0.001 A 
HETATM    2  C   UNL     1      -6.795  -3.196 -34.776  1.00  0.00     0.016 A 
HETATM    3  C   UNL     1      -5.904  -2.254 -34.258  1.00  0.00     0.026 A 
HETATM    4  C   UNL     1      -4.589  -2.636 -33.924  1.00  0.00     0.081 A 
HETATM    5  O   UNL     1      -3.631  -1.789 -33.409  1.00  0.00    -0.346 OA
HETATM    6  C   UNL     1      -3.949  -0.386 -33.179  1.00  0.00     0.219 A 
HETATM    7  C   UNL     1      -5.327   0.020 -33.528  1.00  0.00     0.031 A 
HETATM    8  C   UNL     1      -6.235  -0.870 -34.033  1.00  0.00     0.074 A 
HETATM    9  N   UNL     1      -7.382  -0.174 -34.238  1.00  0.00    -0.276 N 
HETATM   10  H   UNL     1      -8.267  -0.509 -34.602  1.00  0.00     0.189 HD
HETATM   11  N   UNL     1      -7.279   1.132 -33.899  1.00  0.00    -0.168 NA
HETATM   12  C   UNL     1      -6.005   1.259 -33.458  1.00  0.00     0.155 A 
HETATM   13  C   UNL     1      -4.183  -3.957 -34.112  1.00  0.00     0.038 A 
HETATM   14  C   UNL     1      -5.077  -4.896 -34.630  1.00  0.00     0.003 A 
ENDROOT
BRANCH  12  15
HETATM   15  C   UNL     1      -5.462   2.541 -32.985  1.00  0.00     0.272 C 
HETATM   16  N   UNL     1      -5.095   2.523 -31.663  1.00  0.00    -0.351 N 
HETATM   17  H   UNL     1      -5.216   1.637 -31.180  1.00  0.00     0.163 HD
HETATM   18  O   UNL     1      -5.354   3.522 -33.715  1.00  0.00    -0.266 OA
BRANCH  16  19
HETATM   19  C   UNL     1      -4.541   3.660 -30.977  1.00  0.00     0.161 C 
BRANCH  19  20
HETATM   20  C   UNL     1      -5.601   4.411 -30.211  1.00  0.00    -0.040 A 
HETATM   21  C   UNL     1      -5.256   5.529 -29.435  1.00  0.00     0.010 A 
HETATM   22  C   UNL     1      -6.237   6.238 -28.736  1.00  0.00     0.024 A 
HETATM   23  C   UNL     1      -7.567   5.837 -28.815  1.00  0.00     0.034 A 
HETATM   24 CL   UNL     1      -8.777   6.713 -27.960  1.00  0.00    -0.084 Cl
HETATM   25  C   UNL     1      -7.927   4.732 -29.584  1.00  0.00     0.024 A 
HETATM   26  C   UNL     1      -6.946   4.020 -30.280  1.00  0.00     0.010 A 
ENDBRANCH  19  20
ENDBRANCH  16  19
ENDBRANCH  12  15
TORSDOF 3
ENDMDL
MODEL 10
REMARK VINA RESULT:      -7.7      4.483      8.140
REMARK  3 active torsions:
REMARK  status: ('A' for Active; 'I' for Inactive)
REMARK    1  A    between atoms: C_12  and  C_13 
REMARK       I    between atoms: C_13  and  N_14 
REMARK    2  A    between atoms: N_14  and  C_15 
REMARK    3  A    between atoms: C_15  and  C_16 
ROOT
HETATM    1  C   UNL     1      -5.536  -4.890 -34.929  1.00  0.00     0.001 A 
HETATM    2  C   UNL     1      -6.180  -3.655 -35.041  1.00  0.00     0.016 A 
HETATM    3  C   UNL     1      -5.644  -2.533 -34.405  1.00  0.00     0.026 A 
HETATM    4  C   UNL     1      -4.457  -2.649 -33.654  1.00  0.00     0.081 A 
HETATM    5  O   UNL     1      -3.843  -1.610 -32.988  1.00  0.00    -0.346 OA
HETATM    6  C   UNL     1      -4.420  -0.273 -33.039  1.00  0.00     0.219 A 
HETATM    7  C   UNL     1      -5.665  -0.146 -33.827  1.00  0.00     0.031 A 
HETATM    8  C   UNL     1      -6.229  -1.219 -34.462  1.00  0.00     0.074 A 
HETATM    9  N   UNL     1      -7.344  -0.755 -35.081  1.00  0.00    -0.276 N 
HETATM   10  H   UNL     1      -8.013  -1.269 -35.645  1.00  0.00     0.189 HD
HETATM   11  N   UNL     1      -7.546   0.569 -34.893  1.00  0.00    -0.168 NA
HETATM   12  C   UNL     1      -6.506   0.954 -34.114  1.00  0.00     0.155 A 
HETATM   13  C   UNL     1      -3.823  -3.887 -33.548  1.00  0.00     0.038 A 
HETATM   14  C   UNL     1      -4.362  -5.005 -34.185  1.00  0.00     0.003 A 
ENDROOT
BRANCH  12  15
HETATM   15  C   UNL     1      -6.332   2.344 -33.667  1.00  0.00     0.272 C 
HETATM   16  N   UNL     1      -6.577   2.518 -32.327  1.00  0.00    -0.351 N 
HETATM   17  H   UNL     1      -6.822   1.681 -31.807  1.00  0.00     0.163 HD
HETATM   18  O   UNL     1      -6.001   3.246 -34.429  1.00  0.00    -0.266 OA
BRANCH  16  19
HETATM   19  C   UNL     1      -6.475   3.790 -31.661  1.00  0.00     0.161 C 
BRANCH  19  20
HETATM   20  C   UNL     1      -7.836   4.378 -31.384  1.00  0.00    -0.040 A 
HETATM   21  C   UNL     1      -8.816   3.617 -30.729  1.00  0.00     0.010 A 
HETATM   22  C   UNL     1     -10.074   4.161 -30.455  1.00  0.00     0.024 A 
HETATM   23  C   UNL     1     -10.354   5.473 -30.829  1.00  0.00     0.034 A 
HETATM   24 CL   UNL     1     -11.899   6.148 -30.486  1.00  0.00    -0.084 Cl
HETATM   25  C   UNL     1      -9.391   6.243 -31.476  1.00  0.00     0.024 A 
HETATM   26  C   UNL     1      -8.134   5.697 -31.753  1.00  0.00     0.010 A 
ENDBRANCH  19  20
ENDBRANCH  16  19
ENDBRANCH  12  15
TORSDOF 3
ENDMDL
