MODEL 1
REMARK VINA RESULT:     -10.0      0.000      0.000
REMARK  3 active torsions:
REMARK  status: ('A' for Active; 'I' for Inactive)
REMARK    1  A    between atoms: C_4  and  C_5 
REMARK    2  A    between atoms: C_9  and  C_10 
REMARK    3  A    between atoms: C_23  and  N_24 
ROOT
HETATM    1  C   UNL     1      -7.099  -0.599 -33.204  1.00  0.00     0.070 A 
HETATM    2  N   UNL     1      -6.552   0.122 -32.201  1.00  0.00    -0.228 NA
HETATM    3  C   UNL     1      -7.222   1.112 -31.618  1.00  0.00     0.165 A 
HETATM    4  C   UNL     1      -8.526   1.450 -31.991  1.00  0.00     0.063 A 
HETATM    5  C   UNL     1      -9.116   0.710 -33.070  1.00  0.00    -0.006 A 
HETATM    6  C   UNL     1      -8.375  -0.321 -33.663  1.00  0.00     0.046 A 
HETATM    7  N   UNL     1      -6.561   1.733 -30.655  1.00  0.00    -0.222 NA
HETATM    8  C   UNL     1      -7.180   2.722 -30.018  1.00  0.00     0.237 A 
HETATM    9  N   UNL     1      -8.424   3.133 -30.244  1.00  0.00    -0.229 NA
HETATM   10  C   UNL     1      -9.086   2.488 -31.212  1.00  0.00     0.117 A 
ENDROOT
BRANCH   5  11
HETATM   11  C   UNL     1     -10.470   0.959 -33.598  1.00  0.00    -0.022 A 
HETATM   12  C   UNL     1     -11.565   0.187 -33.168  1.00  0.00     0.052 A 
HETATM   13  C   UNL     1     -12.807   0.451 -33.708  1.00  0.00     0.105 A 
HETATM   14  C   UNL     1     -13.001   1.456 -34.625  1.00  0.00     0.105 A 
HETATM   15  O   UNL     1     -13.955  -0.221 -33.425  1.00  0.00    -0.323 OA
HETATM   16  O   UNL     1     -14.294   1.543 -35.035  1.00  0.00    -0.323 OA
HETATM   17  C   UNL     1     -11.965   2.255 -35.053  1.00  0.00     0.040 A 
HETATM   18  C   UNL     1     -14.887   0.452 -34.299  1.00  0.00     0.352 A 
HETATM   19  C   UNL     1     -10.691   2.000 -34.534  1.00  0.00     0.015 A 
ENDBRANCH   5  11
BRANCH  10  20
HETATM   20  N   UNL     1     -10.380   2.970 -31.392  1.00  0.00    -0.286 NA
HETATM   21  H   UNL     1     -10.650   3.460 -30.543  1.00  0.00     0.125 HD
HETATM   22  H   UNL     1     -11.040   2.239 -31.633  1.00  0.00     0.125 HD
ENDBRANCH  10  20
BRANCH   1  23
HETATM   23  C   UNL     1      -6.263  -1.700 -33.730  1.00  0.00    -0.007 A 
HETATM   24  C   UNL     1      -4.885  -1.751 -33.442  1.00  0.00     0.014 A 
HETATM   25  C   UNL     1      -4.073  -2.790 -33.907  1.00  0.00     0.001 A 
HETATM   26  C   UNL     1      -4.622  -3.806 -34.680  1.00  0.00     0.000 A 
HETATM   27  C   UNL     1      -5.978  -3.778 -34.993  1.00  0.00     0.001 A 
HETATM   28  C   UNL     1      -6.788  -2.737 -34.526  1.00  0.00     0.014 A 
ENDBRANCH   1  23
TORSDOF 3
ENDMDL
MODEL 2
REMARK VINA RESULT:      -9.4      4.680      6.601
REMARK  3 active torsions:
REMARK  status: ('A' for Active; 'I' for Inactive)
REMARK    1  A    between atoms: C_4  and  C_5 
REMARK    2  A    between atoms: C_9  and  C_10 
REMARK    3  A    between atoms: C_23  and  N_24 
ROOT
HETATM    1  C   UNL     1      -6.163  -0.071 -33.115  1.00  0.00     0.070 A 
HETATM    2  N   UNL     1      -7.364   0.131 -32.531  1.00  0.00    -0.228 NA
HETATM    3  C   UNL     1      -7.672   1.298 -31.975  1.00  0.00     0.165 A 
HETATM    4  C   UNL     1      -6.789   2.382 -31.978  1.00  0.00     0.063 A 
HETATM    5  C   UNL     1      -5.500   2.179 -32.574  1.00  0.00    -0.006 A 
HETATM    6  C   UNL     1      -5.210   0.932 -33.144  1.00  0.00     0.046 A 
HETATM    7  N   UNL     1      -8.880   1.352 -31.436  1.00  0.00    -0.222 NA
HETATM    8  C   UNL     1      -9.259   2.497 -30.879  1.00  0.00     0.237 A 
HETATM    9  N   UNL     1      -8.540   3.614 -30.833  1.00  0.00    -0.229 NA
HETATM   10  C   UNL     1      -7.326   3.551 -31.391  1.00  0.00     0.117 A 
ENDROOT
BRANCH   5  11
HETATM   11  C   UNL     1      -4.448   3.211 -32.636  1.00  0.00    -0.022 A 
HETATM   12  C   UNL     1      -4.479   4.214 -33.622  1.00  0.00     0.052 A 
HETATM   13  C   UNL     1      -3.460   5.145 -33.646  1.00  0.00     0.105 A 
HETATM   14  C   UNL     1      -2.443   5.129 -32.723  1.00  0.00     0.105 A 
HETATM   15  O   UNL     1      -3.326   6.153 -34.548  1.00  0.00    -0.323 OA
HETATM   16  O   UNL     1      -1.539   6.124 -32.928  1.00  0.00    -0.323 OA
HETATM   17  C   UNL     1      -2.386   4.184 -31.724  1.00  0.00     0.040 A 
HETATM   18  C   UNL     1      -2.085   6.748 -34.110  1.00  0.00     0.352 A 
HETATM   19  C   UNL     1      -3.397   3.218 -31.685  1.00  0.00     0.015 A 
ENDBRANCH   5  11
BRANCH  10  20
HETATM   20  N   UNL     1      -6.631   4.755 -31.308  1.00  0.00    -0.286 NA
HETATM   21  H   UNL     1      -6.333   4.876 -30.343  1.00  0.00     0.125 HD
HETATM   22  H   UNL     1      -7.175   5.545 -31.637  1.00  0.00     0.125 HD
ENDBRANCH  10  20
BRANCH   1  23
HETATM   23  C   UNL     1      -5.969  -1.400 -33.736  1.00  0.00    -0.007 A 
HETATM   24  C   UNL     1      -4.677  -1.950 -33.855  1.00  0.00     0.014 A 
HETATM   25  C   UNL     1      -4.464  -3.212 -34.418  1.00  0.00     0.001 A 
HETATM   26  C   UNL     1      -5.542  -3.956 -34.882  1.00  0.00     0.000 A 
HETATM   27  C   UNL     1      -6.829  -3.435 -34.791  1.00  0.00     0.001 A 
HETATM   28  C   UNL     1      -7.040  -2.172 -34.227  1.00  0.00     0.014 A 
ENDBRANCH   1  23
TORSDOF 3
ENDMDL
MODEL 3
REMARK VINA RESULT:      -9.4      1.304      1.983
REMARK  3 active torsions:
REMARK  status: ('A' for Active; 'I' for Inactive)
REMARK    1  A    between atoms: C_4  and  C_5 
REMARK    2  A    between atoms: C_9  and  C_10 
REMARK    3  A    between atoms: C_23  and  N_24 
ROOT
HETATM    1  C   UNL     1      -6.705  -1.195 -33.358  1.00  0.00     0.070 A 
HETATM    2  N   UNL     1      -5.999  -0.684 -32.326  1.00  0.00    -0.228 NA
HETATM    3  C   UNL     1      -6.419   0.393 -31.670  1.00  0.00     0.165 A 
HETATM    4  C   UNL     1      -7.614   1.044 -31.993  1.00  0.00     0.063 A 
HETATM    5  C   UNL     1      -8.366   0.529 -33.101  1.00  0.00    -0.006 A 
HETATM    6  C   UNL     1      -7.886  -0.605 -33.771  1.00  0.00     0.046 A 
HETATM    7  N   UNL     1      -5.626   0.784 -30.685  1.00  0.00    -0.222 NA
HETATM    8  C   UNL     1      -5.997   1.846 -29.977  1.00  0.00     0.237 A 
HETATM    9  N   UNL     1      -7.115   2.544 -30.150  1.00  0.00    -0.229 NA
HETATM   10  C   UNL     1      -7.914   2.131 -31.141  1.00  0.00     0.117 A 
ENDROOT
BRANCH   5  11
HETATM   11  C   UNL     1      -9.630   1.115 -33.583  1.00  0.00    -0.022 A 
HETATM   12  C   UNL     1      -9.631   2.268 -34.388  1.00  0.00     0.052 A 
HETATM   13  C   UNL     1     -10.845   2.784 -34.797  1.00  0.00     0.105 A 
HETATM   14  C   UNL     1     -12.036   2.188 -34.460  1.00  0.00     0.105 A 
HETATM   15  O   UNL     1     -11.020   3.904 -35.547  1.00  0.00    -0.323 OA
HETATM   16  O   UNL     1     -13.111   2.858 -34.955  1.00  0.00    -0.323 OA
HETATM   17  C   UNL     1     -12.083   1.043 -33.698  1.00  0.00     0.040 A 
HETATM   18  C   UNL     1     -12.460   3.967 -35.612  1.00  0.00     0.352 A 
HETATM   19  C   UNL     1     -10.868   0.506 -33.256  1.00  0.00     0.015 A 
ENDBRANCH   5  11
BRANCH  10  20
HETATM   20  N   UNL     1      -9.065   2.906 -31.263  1.00  0.00    -0.286 NA
HETATM   21  H   UNL     1      -8.807   3.874 -31.086  1.00  0.00     0.125 HD
HETATM   22  H   UNL     1      -9.812   2.596 -30.652  1.00  0.00     0.125 HD
ENDBRANCH  10  20
BRANCH   1  23
HETATM   23  C   UNL     1      -6.148  -2.423 -33.968  1.00  0.00    -0.007 A 
HETATM   24  C   UNL     1      -4.776  -2.718 -33.852  1.00  0.00     0.014 A 
HETATM   25  C   UNL     1      -4.224  -3.881 -34.400  1.00  0.00     0.001 A 
HETATM   26  C   UNL     1      -5.036  -4.778 -35.084  1.00  0.00     0.000 A 
HETATM   27  C   UNL     1      -6.393  -4.509 -35.227  1.00  0.00     0.001 A 
HETATM   28  C   UNL     1      -6.942  -3.344 -34.678  1.00  0.00     0.014 A 
ENDBRANCH   1  23
TORSDOF 3
ENDMDL
MODEL 4
REMARK VINA RESULT:      -9.2      0.878      1.302
REMARK  3 active torsions:
REMARK  status: ('A' for Active; 'I' for Inactive)
REMARK    1  A    between atoms: C_4  and  C_5 
REMARK    2  A    between atoms: C_9  and  C_10 
REMARK    3  A    between atoms: C_23  and  N_24 
ROOT
HETATM    1  C   UNL     1      -6.588  -0.937 -33.379  1.00  0.00     0.070 A 
HETATM    2  N   UNL     1      -5.872  -0.264 -32.452  1.00  0.00    -0.228 NA
HETATM    3  C   UNL     1      -6.346   0.841 -31.885  1.00  0.00     0.165 A 
HETATM    4  C   UNL     1      -7.607   1.357 -32.195  1.00  0.00     0.063 A 
HETATM    5  C   UNL     1      -8.373   0.669 -33.195  1.00  0.00    -0.006 A 
HETATM    6  C   UNL     1      -7.836  -0.489 -33.774  1.00  0.00     0.046 A 
HETATM    7  N   UNL     1      -5.535   1.397 -30.998  1.00  0.00    -0.222 NA
HETATM    8  C   UNL     1      -5.955   2.496 -30.380  1.00  0.00     0.237 A 
HETATM    9  N   UNL     1      -7.137   3.081 -30.551  1.00  0.00    -0.229 NA
HETATM   10  C   UNL     1      -7.951   2.502 -31.441  1.00  0.00     0.117 A 
ENDROOT
BRANCH   5  11
HETATM   11  C   UNL     1      -9.707   1.098 -33.652  1.00  0.00    -0.022 A 
HETATM   12  C   UNL     1     -10.861   0.384 -33.281  1.00  0.00     0.052 A 
HETATM   13  C   UNL     1     -12.084   0.818 -33.752  1.00  0.00     0.105 A 
HETATM   14  C   UNL     1     -12.200   1.935 -34.544  1.00  0.00     0.105 A 
HETATM   15  O   UNL     1     -13.283   0.225 -33.513  1.00  0.00    -0.323 OA
HETATM   16  O   UNL     1     -13.487   2.184 -34.905  1.00  0.00    -0.323 OA
HETATM   17  C   UNL     1     -11.102   2.681 -34.909  1.00  0.00     0.040 A 
HETATM   18  C   UNL     1     -14.165   1.074 -34.279  1.00  0.00     0.352 A 
HETATM   19  C   UNL     1      -9.848   2.254 -34.459  1.00  0.00     0.015 A 
ENDBRANCH   5  11
BRANCH  10  20
HETATM   20  N   UNL     1      -9.169   3.167 -31.568  1.00  0.00    -0.286 NA
HETATM   21  H   UNL     1      -9.884   2.593 -31.127  1.00  0.00     0.125 HD
HETATM   22  H   UNL     1      -9.398   3.384 -32.531  1.00  0.00     0.125 HD
ENDBRANCH  10  20
BRANCH   1  23
HETATM   23  C   UNL     1      -5.964  -2.175 -33.895  1.00  0.00    -0.007 A 
HETATM   24  C   UNL     1      -6.747  -3.157 -34.532  1.00  0.00     0.014 A 
HETATM   25  C   UNL     1      -6.184  -4.328 -35.048  1.00  0.00     0.001 A 
HETATM   26  C   UNL     1      -4.816  -4.548 -34.935  1.00  0.00     0.000 A 
HETATM   27  C   UNL     1      -4.016  -3.604 -34.299  1.00  0.00     0.001 A 
HETATM   28  C   UNL     1      -4.584  -2.432 -33.783  1.00  0.00     0.014 A 
ENDBRANCH   1  23
TORSDOF 3
ENDMDL
MODEL 5
REMARK VINA RESULT:      -9.0      4.488      6.394
REMARK  3 active torsions:
REMARK  status: ('A' for Active; 'I' for Inactive)
REMARK    1  A    between atoms: C_4  and  C_5 
REMARK    2  A    between atoms: C_9  and  C_10 
REMARK    3  A    between atoms: C_23  and  N_24 
ROOT
HETATM    1  C   UNL     1      -6.685  -0.184 -34.025  1.00  0.00     0.070 A 
HETATM    2  N   UNL     1      -8.011  -0.007 -34.209  1.00  0.00    -0.228 NA
HETATM    3  C   UNL     1      -8.567   1.195 -34.102  1.00  0.00     0.165 A 
HETATM    4  C   UNL     1      -7.818   2.340 -33.815  1.00  0.00     0.063 A 
HETATM    5  C   UNL     1      -6.411   2.169 -33.593  1.00  0.00    -0.006 A 
HETATM    6  C   UNL     1      -5.863   0.884 -33.709  1.00  0.00     0.046 A 
HETATM    7  N   UNL     1      -9.875   1.218 -34.303  1.00  0.00    -0.222 NA
HETATM    8  C   UNL     1     -10.492   2.393 -34.229  1.00  0.00     0.237 A 
HETATM    9  N   UNL     1      -9.908   3.564 -33.993  1.00  0.00    -0.229 NA
HETATM   10  C   UNL     1      -8.583   3.529 -33.804  1.00  0.00     0.117 A 
ENDROOT
BRANCH   5  11
HETATM   11  C   UNL     1      -5.489   3.269 -33.258  1.00  0.00    -0.022 A 
HETATM   12  C   UNL     1      -4.941   4.084 -34.265  1.00  0.00     0.052 A 
HETATM   13  C   UNL     1      -4.068   5.088 -33.897  1.00  0.00     0.105 A 
HETATM   14  C   UNL     1      -3.748   5.324 -32.582  1.00  0.00     0.105 A 
HETATM   15  O   UNL     1      -3.431   5.938 -34.745  1.00  0.00    -0.323 OA
HETATM   16  O   UNL     1      -2.868   6.350 -32.437  1.00  0.00    -0.323 OA
HETATM   17  C   UNL     1      -4.281   4.571 -31.560  1.00  0.00     0.040 A 
HETATM   18  C   UNL     1      -2.642   6.711 -33.816  1.00  0.00     0.352 A 
HETATM   19  C   UNL     1      -5.156   3.535 -31.906  1.00  0.00     0.015 A 
ENDBRANCH   5  11
BRANCH  10  20
HETATM   20  N   UNL     1      -8.040   4.789 -33.564  1.00  0.00    -0.286 NA
HETATM   21  H   UNL     1      -7.041   4.736 -33.746  1.00  0.00     0.125 HD
HETATM   22  H   UNL     1      -8.237   5.129 -32.630  1.00  0.00     0.125 HD
ENDBRANCH  10  20
BRANCH   1  23
HETATM   23  C   UNL     1      -6.190  -1.565 -34.220  1.00  0.00    -0.007 A 
HETATM   24  C   UNL     1      -7.071  -2.589 -34.622  1.00  0.00     0.014 A 
HETATM   25  C   UNL     1      -6.630  -3.898 -34.835  1.00  0.00     0.001 A 
HETATM   26  C   UNL     1      -5.290  -4.218 -34.646  1.00  0.00     0.000 A 
HETATM   27  C   UNL     1      -4.397  -3.233 -34.237  1.00  0.00     0.001 A 
HETATM   28  C   UNL     1      -4.842  -1.923 -34.024  1.00  0.00     0.014 A 
ENDBRANCH   1  23
TORSDOF 3
ENDMDL
MODEL 6
REMARK VINA RESULT:      -8.8      5.658      7.745
REMARK  3 active torsions:
REMARK  status: ('A' for Active; 'I' for Inactive)
REMARK    1  A    between atoms: C_4  and  C_5 
REMARK    2  A    between atoms: C_9  and  C_10 
REMARK    3  A    between atoms: C_23  and  N_24 
ROOT
HETATM    1  C   UNL     1      -4.507   0.178 -32.642  1.00  0.00     0.070 A 
HETATM    2  N   UNL     1      -5.832   0.432 -32.584  1.00  0.00    -0.228 NA
HETATM    3  C   UNL     1      -6.292   1.676 -32.497  1.00  0.00     0.165 A 
HETATM    4  C   UNL     1      -5.442   2.786 -32.480  1.00  0.00     0.063 A 
HETATM    5  C   UNL     1      -4.030   2.535 -32.517  1.00  0.00    -0.006 A 
HETATM    6  C   UNL     1      -3.584   1.208 -32.602  1.00  0.00     0.046 A 
HETATM    7  N   UNL     1      -7.611   1.775 -32.444  1.00  0.00    -0.222 NA
HETATM    8  C   UNL     1      -8.138   2.993 -32.375  1.00  0.00     0.237 A 
HETATM    9  N   UNL     1      -7.458   4.135 -32.379  1.00  0.00    -0.229 NA
HETATM   10  C   UNL     1      -6.126   4.022 -32.445  1.00  0.00     0.117 A 
ENDROOT
BRANCH   5  11
HETATM   11  C   UNL     1      -3.003   3.592 -32.482  1.00  0.00    -0.022 A 
HETATM   12  C   UNL     1      -2.449   4.019 -31.261  1.00  0.00     0.052 A 
HETATM   13  C   UNL     1      -1.504   5.025 -31.284  1.00  0.00     0.105 A 
HETATM   14  C   UNL     1      -1.077   5.592 -32.460  1.00  0.00     0.105 A 
HETATM   15  O   UNL     1      -0.898   5.571 -30.196  1.00  0.00    -0.323 OA
HETATM   16  O   UNL     1      -0.151   6.567 -32.261  1.00  0.00    -0.323 OA
HETATM   17  C   UNL     1      -1.569   5.187 -33.680  1.00  0.00     0.040 A 
HETATM   18  C   UNL     1      -0.070   6.575 -30.820  1.00  0.00     0.352 A 
HETATM   19  C   UNL     1      -2.541   4.180 -33.686  1.00  0.00     0.015 A 
ENDBRANCH   5  11
BRANCH  10  20
HETATM   20  N   UNL     1      -5.481   5.257 -32.447  1.00  0.00    -0.286 NA
HETATM   21  H   UNL     1      -4.528   5.110 -32.121  1.00  0.00     0.125 HD
HETATM   22  H   UNL     1      -5.967   5.953 -31.894  1.00  0.00     0.125 HD
ENDBRANCH  10  20
BRANCH   1  23
HETATM   23  C   UNL     1      -4.134  -1.247 -32.784  1.00  0.00    -0.007 A 
HETATM   24  C   UNL     1      -3.331  -1.875 -31.812  1.00  0.00     0.014 A 
HETATM   25  C   UNL     1      -2.979  -3.225 -31.908  1.00  0.00     0.001 A 
HETATM   26  C   UNL     1      -3.421  -3.982 -32.986  1.00  0.00     0.000 A 
HETATM   27  C   UNL     1      -4.205  -3.388 -33.970  1.00  0.00     0.001 A 
HETATM   28  C   UNL     1      -4.555  -2.036 -33.871  1.00  0.00     0.014 A 
ENDBRANCH   1  23
TORSDOF 3
ENDMDL
MODEL 7
REMARK VINA RESULT:      -8.7      2.462      3.135
REMARK  3 active torsions:
REMARK  status: ('A' for Active; 'I' for Inactive)
REMARK    1  A    between atoms: C_4  and  C_5 
REMARK    2  A    between atoms: C_9  and  C_10 
REMARK    3  A    between atoms: C_23  and  N_24 
ROOT
HETATM    1  C   UNL     1      -5.786  -0.811 -33.555  1.00  0.00     0.070 A 
HETATM    2  N   UNL     1      -4.647  -0.248 -33.097  1.00  0.00    -0.228 NA
HETATM    3  C   UNL     1      -4.633   0.996 -32.629  1.00  0.00     0.165 A 
HETATM    4  C   UNL     1      -5.787   1.781 -32.564  1.00  0.00     0.063 A 
HETATM    5  C   UNL     1      -7.003   1.209 -33.067  1.00  0.00    -0.006 A 
HETATM    6  C   UNL     1      -6.975  -0.103 -33.559  1.00  0.00     0.046 A 
HETATM    7  N   UNL     1      -3.447   1.418 -32.219  1.00  0.00    -0.222 NA
HETATM    8  C   UNL     1      -3.366   2.647 -31.722  1.00  0.00     0.237 A 
HETATM    9  N   UNL     1      -4.380   3.494 -31.573  1.00  0.00    -0.229 NA
HETATM   10  C   UNL     1      -5.575   3.051 -31.980  1.00  0.00     0.117 A 
ENDROOT
BRANCH   5  11
HETATM   11  C   UNL     1      -8.297   1.914 -33.093  1.00  0.00    -0.022 A 
HETATM   12  C   UNL     1      -8.732   2.582 -34.252  1.00  0.00     0.052 A 
HETATM   13  C   UNL     1      -9.945   3.241 -34.216  1.00  0.00     0.105 A 
HETATM   14  C   UNL     1     -10.739   3.236 -33.095  1.00  0.00     0.105 A 
HETATM   15  O   UNL     1     -10.491   3.957 -35.234  1.00  0.00    -0.323 OA
HETATM   16  O   UNL     1     -11.884   3.949 -33.266  1.00  0.00    -0.323 OA
HETATM   17  C   UNL     1     -10.368   2.573 -31.947  1.00  0.00     0.040 A 
HETATM   18  C   UNL     1     -11.703   4.435 -34.613  1.00  0.00     0.352 A 
HETATM   19  C   UNL     1      -9.136   1.909 -31.950  1.00  0.00     0.015 A 
ENDBRANCH   5  11
BRANCH  10  20
HETATM   20  N   UNL     1      -6.589   3.988 -31.793  1.00  0.00    -0.286 NA
HETATM   21  H   UNL     1      -7.479   3.502 -31.868  1.00  0.00     0.125 HD
HETATM   22  H   UNL     1      -6.526   4.766 -32.439  1.00  0.00     0.125 HD
ENDBRANCH  10  20
BRANCH   1  23
HETATM   23  C   UNL     1      -5.671  -2.216 -34.003  1.00  0.00    -0.007 A 
HETATM   24  C   UNL     1      -4.460  -2.919 -33.844  1.00  0.00     0.014 A 
HETATM   25  C   UNL     1      -4.326  -4.254 -34.238  1.00  0.00     0.001 A 
HETATM   26  C   UNL     1      -5.405  -4.920 -34.808  1.00  0.00     0.000 A 
HETATM   27  C   UNL     1      -6.610  -4.250 -34.992  1.00  0.00     0.001 A 
HETATM   28  C   UNL     1      -6.741  -2.914 -34.596  1.00  0.00     0.014 A 
ENDBRANCH   1  23
TORSDOF 3
ENDMDL
MODEL 8
REMARK VINA RESULT:      -8.5      4.798      7.659
REMARK  3 active torsions:
REMARK  status: ('A' for Active; 'I' for Inactive)
REMARK    1  A    between atoms: C_4  and  C_5 
REMARK    2  A    between atoms: C_9  and  C_10 
REMARK    3  A    between atoms: C_23  and  N_24 
ROOT
HETATM    1  C   UNL     1      -4.029   3.980 -32.599  1.00  0.00     0.070 A 
HETATM    2  N   UNL     1      -5.204   4.395 -32.076  1.00  0.00    -0.228 NA
HETATM    3  C   UNL     1      -6.122   3.524 -31.668  1.00  0.00     0.165 A 
HETATM    4  C   UNL     1      -5.921   2.143 -31.735  1.00  0.00     0.063 A 
HETATM    5  C   UNL     1      -4.689   1.683 -32.309  1.00  0.00    -0.006 A 
HETATM    6  C   UNL     1      -3.749   2.632 -32.733  1.00  0.00     0.046 A 
HETATM    7  N   UNL     1      -7.225   4.072 -31.182  1.00  0.00    -0.222 NA
HETATM    8  C   UNL     1      -8.176   3.257 -30.739  1.00  0.00     0.237 A 
HETATM    9  N   UNL     1      -8.114   1.929 -30.714  1.00  0.00    -0.229 NA
HETATM   10  C   UNL     1      -6.989   1.389 -31.196  1.00  0.00     0.117 A 
ENDROOT
BRANCH   5  11
HETATM   11  C   UNL     1      -4.335   0.261 -32.474  1.00  0.00    -0.022 A 
HETATM   12  C   UNL     1      -4.826  -0.483 -33.562  1.00  0.00     0.052 A 
HETATM   13  C   UNL     1      -4.478  -1.815 -33.659  1.00  0.00     0.105 A 
HETATM   14  C   UNL     1      -3.652  -2.417 -32.742  1.00  0.00     0.105 A 
HETATM   15  O   UNL     1      -4.892  -2.676 -34.627  1.00  0.00    -0.323 OA
HETATM   16  O   UNL     1      -3.442  -3.732 -33.015  1.00  0.00    -0.323 OA
HETATM   17  C   UNL     1      -3.125  -1.722 -31.677  1.00  0.00     0.040 A 
HETATM   18  C   UNL     1      -4.262  -3.900 -34.191  1.00  0.00     0.352 A 
HETATM   19  C   UNL     1      -3.474  -0.373 -31.544  1.00  0.00     0.015 A 
ENDBRANCH   5  11
BRANCH  10  20
HETATM   20  N   UNL     1      -6.992  -0.003 -31.138  1.00  0.00    -0.286 NA
HETATM   21  H   UNL     1      -6.027  -0.319 -31.199  1.00  0.00     0.125 HD
HETATM   22  H   UNL     1      -7.574  -0.424 -31.853  1.00  0.00     0.125 HD
ENDBRANCH  10  20
BRANCH   1  23
HETATM   23  C   UNL     1      -3.080   5.053 -32.969  1.00  0.00    -0.007 A 
HETATM   24  C   UNL     1      -3.158   6.319 -32.355  1.00  0.00     0.014 A 
HETATM   25  C   UNL     1      -2.263   7.346 -32.668  1.00  0.00     0.001 A 
HETATM   26  C   UNL     1      -1.264   7.131 -33.611  1.00  0.00     0.000 A 
HETATM   27  C   UNL     1      -1.167   5.896 -34.244  1.00  0.00     0.001 A 
HETATM   28  C   UNL     1      -2.066   4.870 -33.929  1.00  0.00     0.014 A 
ENDBRANCH   1  23
TORSDOF 3
ENDMDL
MODEL 9
REMARK VINA RESULT:      -8.4      3.319      6.893
REMARK  3 active torsions:
REMARK  status: ('A' for Active; 'I' for Inactive)
REMARK    1  A    between atoms: C_4  and  C_5 
REMARK    2  A    between atoms: C_9  and  C_10 
REMARK    3  A    between atoms: C_23  and  N_24 
ROOT
HETATM    1  C   UNL     1     -10.339   1.507 -33.693  1.00  0.00     0.070 A 
HETATM    2  N   UNL     1     -10.106   2.836 -33.752  1.00  0.00    -0.228 NA
HETATM    3  C   UNL     1      -8.870   3.323 -33.698  1.00  0.00     0.165 A 
HETATM    4  C   UNL     1      -7.748   2.496 -33.596  1.00  0.00     0.063 A 
HETATM    5  C   UNL     1      -7.976   1.083 -33.509  1.00  0.00    -0.006 A 
HETATM    6  C   UNL     1      -9.294   0.609 -33.564  1.00  0.00     0.046 A 
HETATM    7  N   UNL     1      -8.793   4.643 -33.762  1.00  0.00    -0.222 NA
HETATM    8  C   UNL     1      -7.584   5.194 -33.730  1.00  0.00     0.237 A 
HETATM    9  N   UNL     1      -6.431   4.535 -33.665  1.00  0.00    -0.229 NA
HETATM   10  C   UNL     1      -6.523   3.201 -33.613  1.00  0.00     0.117 A 
ENDROOT
BRANCH   5  11
HETATM   11  C   UNL     1      -6.903   0.080 -33.374  1.00  0.00    -0.022 A 
HETATM   12  C   UNL     1      -6.586  -0.786 -34.436  1.00  0.00     0.052 A 
HETATM   13  C   UNL     1      -5.585  -1.717 -34.250  1.00  0.00     0.105 A 
HETATM   14  C   UNL     1      -4.881  -1.799 -33.073  1.00  0.00     0.105 A 
HETATM   15  O   UNL     1      -5.181  -2.643 -35.160  1.00  0.00    -0.323 OA
HETATM   16  O   UNL     1      -3.947  -2.787 -33.093  1.00  0.00    -0.323 OA
HETATM   17  C   UNL     1      -5.137  -0.954 -32.016  1.00  0.00     0.040 A 
HETATM   18  C   UNL     1      -4.168  -3.343 -34.406  1.00  0.00     0.352 A 
HETATM   19  C   UNL     1      -6.158  -0.010 -32.172  1.00  0.00     0.015 A 
ENDBRANCH   5  11
BRANCH  10  20
HETATM   20  N   UNL     1      -5.278   2.579 -33.547  1.00  0.00    -0.286 NA
HETATM   21  H   UNL     1      -4.674   3.019 -34.238  1.00  0.00     0.125 HD
HETATM   22  H   UNL     1      -5.335   1.576 -33.679  1.00  0.00     0.125 HD
ENDBRANCH  10  20
BRANCH   1  23
HETATM   23  C   UNL     1     -11.756   1.100 -33.813  1.00  0.00    -0.007 A 
HETATM   24  C   UNL     1     -12.714   1.992 -34.334  1.00  0.00     0.014 A 
HETATM   25  C   UNL     1     -14.056   1.629 -34.479  1.00  0.00     0.001 A 
HETATM   26  C   UNL     1     -14.476   0.359 -34.100  1.00  0.00     0.000 A 
HETATM   27  C   UNL     1     -13.557  -0.541 -33.570  1.00  0.00     0.001 A 
HETATM   28  C   UNL     1     -12.214  -0.175 -33.426  1.00  0.00     0.014 A 
ENDBRANCH   1  23
TORSDOF 3
ENDMDL
MODEL 10
REMARK VINA RESULT:      -8.1     14.576     16.198
REMARK  3 active torsions:
REMARK  status: ('A' for Active; 'I' for Inactive)
REMARK    1  A    between atoms: C_4  and  C_5 
REMARK    2  A    between atoms: C_9  and  C_10 
REMARK    3  A    between atoms: C_23  and  N_24 
ROOT
HETATM    1  C   UNL     1      -7.177 -13.324 -38.223  1.00  0.00     0.070 A 
HETATM    2  N   UNL     1      -6.077 -13.037 -38.951  1.00  0.00    -0.228 NA
HETATM    3  C   UNL     1      -4.861 -13.100 -38.418  1.00  0.00     0.165 A 
HETATM    4  C   UNL     1      -4.649 -13.482 -37.090  1.00  0.00     0.063 A 
HETATM    5  C   UNL     1      -5.807 -13.768 -36.293  1.00  0.00    -0.006 A 
HETATM    6  C   UNL     1      -7.072 -13.685 -36.891  1.00  0.00     0.046 A 
HETATM    7  N   UNL     1      -3.877 -12.788 -39.247  1.00  0.00    -0.222 NA
HETATM    8  C   UNL     1      -2.634 -12.848 -38.781  1.00  0.00     0.237 A 
HETATM    9  N   UNL     1      -2.280 -13.221 -37.555  1.00  0.00    -0.229 NA
HETATM   10  C   UNL     1      -3.283 -13.545 -36.731  1.00  0.00     0.117 A 
ENDROOT
BRANCH   5  11
HETATM   11  C   UNL     1      -5.756 -14.160 -34.873  1.00  0.00    -0.022 A 
HETATM   12  C   UNL     1      -5.775 -15.515 -34.496  1.00  0.00     0.052 A 
HETATM   13  C   UNL     1      -5.743 -15.825 -33.152  1.00  0.00     0.105 A 
HETATM   14  C   UNL     1      -5.666 -14.852 -32.185  1.00  0.00     0.105 A 
HETATM   15  O   UNL     1      -5.788 -17.077 -32.623  1.00  0.00    -0.323 OA
HETATM   16  O   UNL     1      -5.654 -15.367 -30.927  1.00  0.00    -0.323 OA
HETATM   17  C   UNL     1      -5.616 -13.514 -32.507  1.00  0.00     0.040 A 
HETATM   18  C   UNL     1      -5.770 -16.778 -31.211  1.00  0.00     0.352 A 
HETATM   19  C   UNL     1      -5.663 -13.170 -33.862  1.00  0.00     0.015 A 
ENDBRANCH   5  11
BRANCH  10  20
HETATM   20  N   UNL     1      -2.839 -13.926 -35.467  1.00  0.00    -0.286 NA
HETATM   21  H   UNL     1      -3.639 -13.910 -34.838  1.00  0.00     0.125 HD
HETATM   22  H   UNL     1      -2.080 -13.346 -35.128  1.00  0.00     0.125 HD
ENDBRANCH  10  20
BRANCH   1  23
HETATM   23  C   UNL     1      -8.463 -13.261 -38.953  1.00  0.00    -0.007 A 
HETATM   24  C   UNL     1      -8.909 -12.045 -39.508  1.00  0.00     0.014 A 
HETATM   25  C   UNL     1     -10.109 -11.958 -40.221  1.00  0.00     0.001 A 
HETATM   26  C   UNL     1     -10.897 -13.089 -40.393  1.00  0.00     0.000 A 
HETATM   27  C   UNL     1     -10.491 -14.302 -39.846  1.00  0.00     0.001 A 
HETATM   28  C   UNL     1      -9.289 -14.386 -39.133  1.00  0.00     0.014 A 
ENDBRANCH   1  23
TORSDOF 3
ENDMDL
