MODEL 1
REMARK VINA RESULT:      -8.5      0.000      0.000
REMARK  5 active torsions:
REMARK  status: ('A' for Active; 'I' for Inactive)
REMARK    1  A    between atoms: C_2  and  N_3 
REMARK    2  A    between atoms: C_2  and  C_19 
REMARK       I    between atoms: N_3  and  C_4 
REMARK    3  A    between atoms: C_4  and  C_5 
REMARK    4  A    between atoms: C_7  and  O_8 
REMARK    5  A    between atoms: O_8  and  C_9 
ROOT
HETATM    1  C   UNL     1      -8.666   0.358 -33.976  1.00  0.00     0.146 A 
HETATM    2  O   UNL     1      -9.498   1.225 -34.640  1.00  0.00    -0.282 OA
HETATM    3  C   UNL     1     -10.639   1.322 -33.899  1.00  0.00     0.191 A 
HETATM    4  C   UNL     1     -10.534   0.573 -32.751  1.00  0.00     0.067 A 
HETATM    5  C   UNL     1      -9.279  -0.076 -32.816  1.00  0.00     0.048 A 
ENDROOT
BRANCH   1   6
HETATM    6  C   UNL     1      -7.368   0.040 -34.535  1.00  0.00     0.276 C 
HETATM    7  N   UNL     1      -6.593  -0.768 -33.735  1.00  0.00    -0.347 N 
HETATM    8  H   UNL     1      -6.979  -1.047 -32.840  1.00  0.00     0.163 HD
HETATM    9  O   UNL     1      -6.992   0.441 -35.632  1.00  0.00    -0.265 OA
BRANCH   7  10
HETATM   10  C   UNL     1      -5.247  -1.163 -34.095  1.00  0.00     0.114 C 
HETATM   11  C   UNL     1      -4.242  -0.664 -33.056  1.00  0.00     0.037 C 
BRANCH  10  12
HETATM   12  C   UNL     1      -5.182  -2.663 -34.300  1.00  0.00    -0.033 A 
HETATM   13  C   UNL     1      -6.257  -3.331 -34.901  1.00  0.00     0.028 A 
HETATM   14  C   UNL     1      -6.185  -4.704 -35.072  1.00  0.00     0.116 A 
HETATM   15  N   UNL     1      -5.131  -5.453 -34.686  1.00  0.00    -0.273 NA
HETATM   16  C   UNL     1      -4.109  -4.799 -34.097  1.00  0.00     0.116 A 
HETATM   17  C   UNL     1      -4.087  -3.429 -33.884  1.00  0.00     0.028 A 
ENDBRANCH  10  12
ENDBRANCH   7  10
ENDBRANCH   1   6
BRANCH   3  18
HETATM   18  O   UNL     1     -11.587   2.137 -34.351  1.00  0.00    -0.286 OA
BRANCH  18  19
HETATM   19  C   UNL     1     -12.901   2.009 -33.958  1.00  0.00     0.100 A 
HETATM   20  C   UNL     1     -13.352   2.790 -32.887  1.00  0.00     0.068 A 
HETATM   21 CL   UNL     1     -12.327   3.954 -32.128  1.00  0.00    -0.081 Cl
HETATM   22  C   UNL     1     -14.654   2.637 -32.403  1.00  0.00     0.026 A 
HETATM   23  C   UNL     1     -15.508   1.696 -32.981  1.00  0.00     0.002 A 
HETATM   24  C   UNL     1     -15.061   0.908 -34.040  1.00  0.00     0.003 A 
HETATM   25  C   UNL     1     -13.760   1.057 -34.524  1.00  0.00     0.039 A 
ENDBRANCH  18  19
ENDBRANCH   3  18
TORSDOF 5
ENDMDL
MODEL 2
REMARK VINA RESULT:      -8.4      4.989      7.959
REMARK  5 active torsions:
REMARK  status: ('A' for Active; 'I' for Inactive)
REMARK    1  A    between atoms: C_2  and  N_3 
REMARK    2  A    between atoms: C_2  and  C_19 
REMARK       I    between atoms: N_3  and  C_4 
REMARK    3  A    between atoms: C_4  and  C_5 
REMARK    4  A    between atoms: C_7  and  O_8 
REMARK    5  A    between atoms: O_8  and  C_9 
ROOT
HETATM    1  C   UNL     1      -5.696   2.029 -31.634  1.00  0.00     0.146 A 
HETATM    2  O   UNL     1      -4.378   2.032 -32.017  1.00  0.00    -0.282 OA
HETATM    3  C   UNL     1      -3.812   3.148 -31.475  1.00  0.00     0.191 A 
HETATM    4  C   UNL     1      -4.729   3.833 -30.713  1.00  0.00     0.067 A 
HETATM    5  C   UNL     1      -5.951   3.134 -30.843  1.00  0.00     0.048 A 
ENDROOT
BRANCH   1   6
HETATM    6  C   UNL     1      -6.569   0.961 -32.075  1.00  0.00     0.276 C 
HETATM    7  N   UNL     1      -6.300   0.501 -33.343  1.00  0.00    -0.347 N 
HETATM    8  H   UNL     1      -5.548   0.950 -33.853  1.00  0.00     0.163 HD
HETATM    9  O   UNL     1      -7.464   0.493 -31.377  1.00  0.00    -0.265 OA
BRANCH   7  10
HETATM   10  C   UNL     1      -7.088  -0.533 -33.982  1.00  0.00     0.114 C 
HETATM   11  C   UNL     1      -7.672  -0.027 -35.303  1.00  0.00     0.037 C 
BRANCH  10  12
HETATM   12  C   UNL     1      -6.258  -1.790 -34.152  1.00  0.00    -0.033 A 
HETATM   13  C   UNL     1      -6.850  -2.950 -34.668  1.00  0.00     0.028 A 
HETATM   14  C   UNL     1      -6.079  -4.093 -34.807  1.00  0.00     0.116 A 
HETATM   15  N   UNL     1      -4.775  -4.164 -34.467  1.00  0.00    -0.273 NA
HETATM   16  C   UNL     1      -4.222  -3.043 -33.959  1.00  0.00     0.116 A 
HETATM   17  C   UNL     1      -4.909  -1.852 -33.783  1.00  0.00     0.028 A 
ENDBRANCH  10  12
ENDBRANCH   7  10
ENDBRANCH   1   6
BRANCH   3  18
HETATM   18  O   UNL     1      -2.517   3.343 -31.704  1.00  0.00    -0.286 OA
BRANCH  18  19
HETATM   19  C   UNL     1      -2.068   4.379 -32.494  1.00  0.00     0.100 A 
HETATM   20  C   UNL     1      -1.167   5.295 -31.939  1.00  0.00     0.068 A 
HETATM   21 CL   UNL     1      -0.554   5.096 -30.337  1.00  0.00    -0.081 Cl
HETATM   22  C   UNL     1      -0.746   6.404 -32.677  1.00  0.00     0.026 A 
HETATM   23  C   UNL     1      -1.230   6.608 -33.970  1.00  0.00     0.002 A 
HETATM   24  C   UNL     1      -2.136   5.705 -34.524  1.00  0.00     0.003 A 
HETATM   25  C   UNL     1      -2.560   4.597 -33.788  1.00  0.00     0.039 A 
ENDBRANCH  18  19
ENDBRANCH   3  18
TORSDOF 5
ENDMDL
MODEL 3
REMARK VINA RESULT:      -8.3      4.907      8.049
REMARK  5 active torsions:
REMARK  status: ('A' for Active; 'I' for Inactive)
REMARK    1  A    between atoms: C_2  and  N_3 
REMARK    2  A    between atoms: C_2  and  C_19 
REMARK       I    between atoms: N_3  and  C_4 
REMARK    3  A    between atoms: C_4  and  C_5 
REMARK    4  A    between atoms: C_7  and  O_8 
REMARK    5  A    between atoms: O_8  and  C_9 
ROOT
HETATM    1  C   UNL     1      -5.542   2.157 -32.021  1.00  0.00     0.146 A 
HETATM    2  O   UNL     1      -4.379   2.270 -32.742  1.00  0.00    -0.282 OA
HETATM    3  C   UNL     1      -3.643   3.254 -32.150  1.00  0.00     0.191 A 
HETATM    4  C   UNL     1      -4.290   3.739 -31.038  1.00  0.00     0.067 A 
HETATM    5  C   UNL     1      -5.528   3.058 -30.974  1.00  0.00     0.048 A 
ENDROOT
BRANCH   1   6
HETATM    6  C   UNL     1      -6.544   1.190 -32.423  1.00  0.00     0.276 C 
HETATM    7  N   UNL     1      -6.145   0.356 -33.441  1.00  0.00    -0.347 N 
HETATM    8  H   UNL     1      -5.218   0.498 -33.825  1.00  0.00     0.163 HD
HETATM    9  O   UNL     1      -7.649   1.110 -31.895  1.00  0.00    -0.265 OA
BRANCH   7  10
HETATM   10  C   UNL     1      -7.018  -0.648 -34.015  1.00  0.00     0.114 C 
HETATM   11  C   UNL     1      -7.665  -0.129 -35.300  1.00  0.00     0.037 C 
BRANCH  10  12
HETATM   12  C   UNL     1      -6.256  -1.942 -34.223  1.00  0.00    -0.033 A 
HETATM   13  C   UNL     1      -6.933  -3.083 -34.671  1.00  0.00     0.028 A 
HETATM   14  C   UNL     1      -6.223  -4.260 -34.847  1.00  0.00     0.116 A 
HETATM   15  N   UNL     1      -4.901  -4.381 -34.605  1.00  0.00    -0.273 NA
HETATM   16  C   UNL     1      -4.265  -3.278 -34.162  1.00  0.00     0.116 A 
HETATM   17  C   UNL     1      -4.887  -2.055 -33.957  1.00  0.00     0.028 A 
ENDBRANCH  10  12
ENDBRANCH   7  10
ENDBRANCH   1   6
BRANCH   3  18
HETATM   18  O   UNL     1      -2.453   3.522 -32.679  1.00  0.00    -0.286 OA
BRANCH  18  19
HETATM   19  C   UNL     1      -1.912   4.788 -32.645  1.00  0.00     0.100 A 
HETATM   20  C   UNL     1      -2.233   5.674 -33.680  1.00  0.00     0.068 A 
HETATM   21 CL   UNL     1      -3.347   5.238 -34.925  1.00  0.00    -0.081 Cl
HETATM   22  C   UNL     1      -1.646   6.941 -33.729  1.00  0.00     0.026 A 
HETATM   23  C   UNL     1      -0.729   7.325 -32.750  1.00  0.00     0.002 A 
HETATM   24  C   UNL     1      -0.397   6.443 -31.723  1.00  0.00     0.003 A 
HETATM   25  C   UNL     1      -0.980   5.175 -31.673  1.00  0.00     0.039 A 
ENDBRANCH  18  19
ENDBRANCH   3  18
TORSDOF 5
ENDMDL
MODEL 4
REMARK VINA RESULT:      -8.1      5.827      8.669
REMARK  5 active torsions:
REMARK  status: ('A' for Active; 'I' for Inactive)
REMARK    1  A    between atoms: C_2  and  N_3 
REMARK    2  A    between atoms: C_2  and  C_19 
REMARK       I    between atoms: N_3  and  C_4 
REMARK    3  A    between atoms: C_4  and  C_5 
REMARK    4  A    between atoms: C_7  and  O_8 
REMARK    5  A    between atoms: O_8  and  C_9 
ROOT
HETATM    1  C   UNL     1      -5.298   1.453 -32.127  1.00  0.00     0.146 A 
HETATM    2  O   UNL     1      -4.716   0.853 -33.216  1.00  0.00    -0.282 OA
HETATM    3  C   UNL     1      -4.631  -0.479 -32.935  1.00  0.00     0.191 A 
HETATM    4  C   UNL     1      -5.191  -0.749 -31.708  1.00  0.00     0.067 A 
HETATM    5  C   UNL     1      -5.588   0.497 -31.171  1.00  0.00     0.048 A 
ENDROOT
BRANCH   1   6
HETATM    6  C   UNL     1      -5.509   2.886 -32.125  1.00  0.00     0.276 C 
HETATM    7  N   UNL     1      -4.350   3.625 -32.066  1.00  0.00    -0.347 N 
HETATM    8  H   UNL     1      -3.475   3.118 -32.012  1.00  0.00     0.163 HD
HETATM    9  O   UNL     1      -6.621   3.402 -32.183  1.00  0.00    -0.265 OA
BRANCH   7  10
HETATM   10  C   UNL     1      -4.350   5.073 -32.010  1.00  0.00     0.114 C 
HETATM   11  C   UNL     1      -4.327   5.556 -30.559  1.00  0.00     0.037 C 
BRANCH  10  12
HETATM   12  C   UNL     1      -3.202   5.626 -32.830  1.00  0.00    -0.033 A 
HETATM   13  C   UNL     1      -2.787   6.951 -32.643  1.00  0.00     0.028 A 
HETATM   14  C   UNL     1      -1.742   7.442 -33.408  1.00  0.00     0.116 A 
HETATM   15  N   UNL     1      -1.090   6.717 -34.340  1.00  0.00    -0.273 NA
HETATM   16  C   UNL     1      -1.508   5.447 -34.519  1.00  0.00     0.116 A 
HETATM   17  C   UNL     1      -2.542   4.865 -33.803  1.00  0.00     0.028 A 
ENDBRANCH  10  12
ENDBRANCH   7  10
ENDBRANCH   1   6
BRANCH   3  18
HETATM   18  O   UNL     1      -4.111  -1.264 -33.872  1.00  0.00    -0.286 OA
BRANCH  18  19
HETATM   19  C   UNL     1      -4.700  -2.458 -34.228  1.00  0.00     0.100 A 
HETATM   20  C   UNL     1      -5.990  -2.425 -34.770  1.00  0.00     0.068 A 
HETATM   21 CL   UNL     1      -6.800  -0.930 -35.075  1.00  0.00    -0.081 Cl
HETATM   22  C   UNL     1      -6.658  -3.614 -35.072  1.00  0.00     0.026 A 
HETATM   23  C   UNL     1      -6.043  -4.843 -34.826  1.00  0.00     0.002 A 
HETATM   24  C   UNL     1      -4.762  -4.882 -34.276  1.00  0.00     0.003 A 
HETATM   25  C   UNL     1      -4.094  -3.694 -33.971  1.00  0.00     0.039 A 
ENDBRANCH  18  19
ENDBRANCH   3  18
TORSDOF 5
ENDMDL
MODEL 5
REMARK VINA RESULT:      -8.1      6.177      9.387
REMARK  5 active torsions:
REMARK  status: ('A' for Active; 'I' for Inactive)
REMARK    1  A    between atoms: C_2  and  N_3 
REMARK    2  A    between atoms: C_2  and  C_19 
REMARK       I    between atoms: N_3  and  C_4 
REMARK    3  A    between atoms: C_4  and  C_5 
REMARK    4  A    between atoms: C_7  and  O_8 
REMARK    5  A    between atoms: O_8  and  C_9 
ROOT
HETATM    1  C   UNL     1      -3.268   2.937 -32.185  1.00  0.00     0.146 A 
HETATM    2  O   UNL     1      -2.045   3.472 -31.867  1.00  0.00    -0.282 OA
HETATM    3  C   UNL     1      -1.988   4.703 -32.452  1.00  0.00     0.191 A 
HETATM    4  C   UNL     1      -3.169   4.985 -33.097  1.00  0.00     0.067 A 
HETATM    5  C   UNL     1      -3.981   3.836 -32.957  1.00  0.00     0.048 A 
ENDROOT
BRANCH   1   6
HETATM    6  C   UNL     1      -3.617   1.613 -31.713  1.00  0.00     0.276 C 
HETATM    7  N   UNL     1      -4.887   1.209 -32.056  1.00  0.00    -0.347 N 
HETATM    8  H   UNL     1      -5.459   1.862 -32.579  1.00  0.00     0.163 HD
HETATM    9  O   UNL     1      -2.847   0.903 -31.073  1.00  0.00    -0.265 OA
BRANCH   7  10
HETATM   10  C   UNL     1      -5.440  -0.064 -31.641  1.00  0.00     0.114 C 
HETATM   11  C   UNL     1      -6.808   0.131 -30.986  1.00  0.00     0.037 C 
BRANCH  10  12
HETATM   12  C   UNL     1      -5.484  -1.021 -32.816  1.00  0.00    -0.033 A 
HETATM   13  C   UNL     1      -6.674  -1.183 -33.537  1.00  0.00     0.028 A 
HETATM   14  C   UNL     1      -6.698  -2.069 -34.602  1.00  0.00     0.116 A 
HETATM   15  N   UNL     1      -5.635  -2.801 -34.993  1.00  0.00    -0.273 NA
HETATM   16  C   UNL     1      -4.499  -2.644 -34.281  1.00  0.00     0.116 A 
HETATM   17  C   UNL     1      -4.375  -1.782 -33.202  1.00  0.00     0.028 A 
ENDBRANCH  10  12
ENDBRANCH   7  10
ENDBRANCH   1   6
BRANCH   3  18
HETATM   18  O   UNL     1      -0.884   5.417 -32.254  1.00  0.00    -0.286 OA
BRANCH  18  19
HETATM   19  C   UNL     1      -0.533   5.878 -31.005  1.00  0.00     0.100 A 
HETATM   20  C   UNL     1      -0.858   7.198 -30.669  1.00  0.00     0.068 A 
HETATM   21 CL   UNL     1      -1.758   8.205 -31.746  1.00  0.00    -0.081 Cl
HETATM   22  C   UNL     1      -0.453   7.733 -29.444  1.00  0.00     0.026 A 
HETATM   23  C   UNL     1       0.289   6.956 -28.553  1.00  0.00     0.002 A 
HETATM   24  C   UNL     1       0.626   5.645 -28.887  1.00  0.00     0.003 A 
HETATM   25  C   UNL     1       0.223   5.108 -30.112  1.00  0.00     0.039 A 
ENDBRANCH  18  19
ENDBRANCH   3  18
TORSDOF 5
ENDMDL
MODEL 6
REMARK VINA RESULT:      -7.9      3.199      8.557
REMARK  5 active torsions:
REMARK  status: ('A' for Active; 'I' for Inactive)
REMARK    1  A    between atoms: C_2  and  N_3 
REMARK    2  A    between atoms: C_2  and  C_19 
REMARK       I    between atoms: N_3  and  C_4 
REMARK    3  A    between atoms: C_4  and  C_5 
REMARK    4  A    between atoms: C_7  and  O_8 
REMARK    5  A    between atoms: O_8  and  C_9 
ROOT
HETATM    1  C   UNL     1      -8.880   1.244 -32.949  1.00  0.00     0.146 A 
HETATM    2  O   UNL     1      -8.232   0.825 -34.084  1.00  0.00    -0.282 OA
HETATM    3  C   UNL     1      -7.297  -0.087 -33.691  1.00  0.00     0.191 A 
HETATM    4  C   UNL     1      -7.367  -0.295 -32.333  1.00  0.00     0.067 A 
HETATM    5  C   UNL     1      -8.361   0.587 -31.849  1.00  0.00     0.048 A 
ENDROOT
BRANCH   1   6
HETATM    6  C   UNL     1      -9.930   2.237 -33.047  1.00  0.00     0.276 C 
HETATM    7  N   UNL     1     -10.752   2.081 -34.138  1.00  0.00    -0.347 N 
HETATM    8  H   UNL     1     -10.547   1.317 -34.772  1.00  0.00     0.163 HD
HETATM    9  O   UNL     1     -10.085   3.135 -32.224  1.00  0.00    -0.265 OA
BRANCH   7  10
HETATM   10  C   UNL     1     -11.834   2.997 -34.438  1.00  0.00     0.114 C 
HETATM   11  C   UNL     1     -11.899   3.281 -35.940  1.00  0.00     0.037 C 
BRANCH  10  12
HETATM   12  C   UNL     1     -13.139   2.460 -33.886  1.00  0.00    -0.033 A 
HETATM   13  C   UNL     1     -13.654   2.978 -32.690  1.00  0.00     0.028 A 
HETATM   14  C   UNL     1     -14.844   2.469 -32.195  1.00  0.00     0.116 A 
HETATM   15  N   UNL     1     -15.547   1.487 -32.796  1.00  0.00    -0.273 NA
HETATM   16  C   UNL     1     -15.033   0.989 -33.940  1.00  0.00     0.116 A 
HETATM   17  C   UNL     1     -13.852   1.433 -34.515  1.00  0.00     0.028 A 
ENDBRANCH  10  12
ENDBRANCH   7  10
ENDBRANCH   1   6
BRANCH   3  18
HETATM   18  O   UNL     1      -6.557  -0.646 -34.644  1.00  0.00    -0.286 OA
BRANCH  18  19
HETATM   19  C   UNL     1      -6.099  -1.941 -34.540  1.00  0.00     0.100 A 
HETATM   20  C   UNL     1      -4.794  -2.147 -34.078  1.00  0.00     0.068 A 
HETATM   21 CL   UNL     1      -3.804  -0.830 -33.560  1.00  0.00    -0.081 Cl
HETATM   22  C   UNL     1      -4.259  -3.437 -34.031  1.00  0.00     0.026 A 
HETATM   23  C   UNL     1      -5.022  -4.526 -34.455  1.00  0.00     0.002 A 
HETATM   24  C   UNL     1      -6.318  -4.326 -34.927  1.00  0.00     0.003 A 
HETATM   25  C   UNL     1      -6.854  -3.037 -34.977  1.00  0.00     0.039 A 
ENDBRANCH  18  19
ENDBRANCH   3  18
TORSDOF 5
ENDMDL
MODEL 7
REMARK VINA RESULT:      -7.7      3.765      8.373
REMARK  5 active torsions:
REMARK  status: ('A' for Active; 'I' for Inactive)
REMARK    1  A    between atoms: C_2  and  N_3 
REMARK    2  A    between atoms: C_2  and  C_19 
REMARK       I    between atoms: N_3  and  C_4 
REMARK    3  A    between atoms: C_4  and  C_5 
REMARK    4  A    between atoms: C_7  and  O_8 
REMARK    5  A    between atoms: O_8  and  C_9 
ROOT
HETATM    1  C   UNL     1      -7.150   1.224 -31.872  1.00  0.00     0.146 A 
HETATM    2  O   UNL     1      -6.460   0.843 -32.996  1.00  0.00    -0.282 OA
HETATM    3  C   UNL     1      -5.670  -0.209 -32.638  1.00  0.00     0.191 A 
HETATM    4  C   UNL     1      -5.877  -0.539 -31.319  1.00  0.00     0.067 A 
HETATM    5  C   UNL     1      -6.802   0.404 -30.815  1.00  0.00     0.048 A 
ENDROOT
BRANCH   1   6
HETATM    6  C   UNL     1      -8.069   2.342 -31.938  1.00  0.00     0.276 C 
HETATM    7  N   UNL     1      -8.682   2.495 -33.160  1.00  0.00    -0.347 N 
HETATM    8  H   UNL     1      -8.431   1.843 -33.894  1.00  0.00     0.163 HD
HETATM    9  O   UNL     1      -8.295   3.083 -30.986  1.00  0.00    -0.265 OA
BRANCH   7  10
HETATM   10  C   UNL     1      -9.602   3.579 -33.441  1.00  0.00     0.114 C 
HETATM   11  C   UNL     1      -8.865   4.760 -34.075  1.00  0.00     0.037 C 
BRANCH  10  12
HETATM   12  C   UNL     1     -10.751   3.078 -34.294  1.00  0.00    -0.033 A 
HETATM   13  C   UNL     1     -11.328   1.831 -34.021  1.00  0.00     0.028 A 
HETATM   14  C   UNL     1     -12.371   1.385 -34.817  1.00  0.00     0.116 A 
HETATM   15  N   UNL     1     -12.872   2.083 -35.857  1.00  0.00    -0.273 NA
HETATM   16  C   UNL     1     -12.298   3.277 -36.116  1.00  0.00     0.116 A 
HETATM   17  C   UNL     1     -11.252   3.809 -35.377  1.00  0.00     0.028 A 
ENDBRANCH  10  12
ENDBRANCH   7  10
ENDBRANCH   1   6
BRANCH   3  18
HETATM   18  O   UNL     1      -4.921  -0.757 -33.590  1.00  0.00    -0.286 OA
BRANCH  18  19
HETATM   19  C   UNL     1      -4.947  -2.110 -33.845  1.00  0.00     0.100 A 
HETATM   20  C   UNL     1      -4.001  -2.923 -33.209  1.00  0.00     0.068 A 
HETATM   21 CL   UNL     1      -2.884  -2.275 -32.062  1.00  0.00    -0.081 Cl
HETATM   22  C   UNL     1      -3.939  -4.289 -33.497  1.00  0.00     0.026 A 
HETATM   23  C   UNL     1      -4.815  -4.847 -34.429  1.00  0.00     0.002 A 
HETATM   24  C   UNL     1      -5.752  -4.040 -35.074  1.00  0.00     0.003 A 
HETATM   25  C   UNL     1      -5.814  -2.675 -34.789  1.00  0.00     0.039 A 
ENDBRANCH  18  19
ENDBRANCH   3  18
TORSDOF 5
ENDMDL
MODEL 8
REMARK VINA RESULT:      -7.6      5.077      7.672
REMARK  5 active torsions:
REMARK  status: ('A' for Active; 'I' for Inactive)
REMARK    1  A    between atoms: C_2  and  N_3 
REMARK    2  A    between atoms: C_2  and  C_19 
REMARK       I    between atoms: N_3  and  C_4 
REMARK    3  A    between atoms: C_4  and  C_5 
REMARK    4  A    between atoms: C_7  and  O_8 
REMARK    5  A    between atoms: O_8  and  C_9 
ROOT
HETATM    1  C   UNL     1      -4.916   2.127 -32.627  1.00  0.00     0.146 A 
HETATM    2  O   UNL     1      -5.100   3.361 -33.199  1.00  0.00    -0.282 OA
HETATM    3  C   UNL     1      -3.959   4.073 -32.976  1.00  0.00     0.191 A 
HETATM    4  C   UNL     1      -3.031   3.302 -32.315  1.00  0.00     0.067 A 
HETATM    5  C   UNL     1      -3.658   2.062 -32.059  1.00  0.00     0.048 A 
ENDROOT
BRANCH   1   6
HETATM    6  C   UNL     1      -5.978   1.143 -32.689  1.00  0.00     0.276 C 
HETATM    7  N   UNL     1      -5.884   0.280 -33.756  1.00  0.00    -0.347 N 
HETATM    8  H   UNL     1      -5.114   0.415 -34.400  1.00  0.00     0.163 HD
HETATM    9  O   UNL     1      -6.877   1.071 -31.856  1.00  0.00    -0.265 OA
BRANCH   7  10
HETATM   10  C   UNL     1      -6.872  -0.747 -34.019  1.00  0.00     0.114 C 
HETATM   11  C   UNL     1      -7.752  -0.358 -35.208  1.00  0.00     0.037 C 
BRANCH  10  12
HETATM   12  C   UNL     1      -6.192  -2.088 -34.207  1.00  0.00    -0.033 A 
HETATM   13  C   UNL     1      -4.826  -2.221 -33.926  1.00  0.00     0.028 A 
HETATM   14  C   UNL     1      -4.218  -3.452 -34.113  1.00  0.00     0.116 A 
HETATM   15  N   UNL     1      -4.865  -4.547 -34.561  1.00  0.00    -0.273 NA
HETATM   16  C   UNL     1      -6.177  -4.402 -34.841  1.00  0.00     0.116 A 
HETATM   17  C   UNL     1      -6.874  -3.213 -34.684  1.00  0.00     0.028 A 
ENDBRANCH  10  12
ENDBRANCH   7  10
ENDBRANCH   1   6
BRANCH   3  18
HETATM   18  O   UNL     1      -3.908   5.307 -33.468  1.00  0.00    -0.286 OA
BRANCH  18  19
HETATM   19  C   UNL     1      -3.249   6.324 -32.811  1.00  0.00     0.100 A 
HETATM   20  C   UNL     1      -3.980   7.124 -31.925  1.00  0.00     0.068 A 
HETATM   21 CL   UNL     1      -5.642   6.802 -31.583  1.00  0.00    -0.081 Cl
HETATM   22  C   UNL     1      -3.373   8.214 -31.297  1.00  0.00     0.026 A 
HETATM   23  C   UNL     1      -2.035   8.516 -31.558  1.00  0.00     0.002 A 
HETATM   24  C   UNL     1      -1.306   7.729 -32.449  1.00  0.00     0.003 A 
HETATM   25  C   UNL     1      -1.911   6.640 -33.079  1.00  0.00     0.039 A 
ENDBRANCH  18  19
ENDBRANCH   3  18
TORSDOF 5
ENDMDL
MODEL 9
REMARK VINA RESULT:      -7.6      6.892     10.076
REMARK  5 active torsions:
REMARK  status: ('A' for Active; 'I' for Inactive)
REMARK    1  A    between atoms: C_2  and  N_3 
REMARK    2  A    between atoms: C_2  and  C_19 
REMARK       I    between atoms: N_3  and  C_4 
REMARK    3  A    between atoms: C_4  and  C_5 
REMARK    4  A    between atoms: C_7  and  O_8 
REMARK    5  A    between atoms: O_8  and  C_9 
ROOT
HETATM    1  C   UNL     1      -2.637   3.704 -32.297  1.00  0.00     0.146 A 
HETATM    2  O   UNL     1      -1.635   4.197 -31.500  1.00  0.00    -0.282 OA
HETATM    3  C   UNL     1      -1.036   5.205 -32.196  1.00  0.00     0.191 A 
HETATM    4  C   UNL     1      -1.666   5.398 -33.403  1.00  0.00     0.067 A 
HETATM    5  C   UNL     1      -2.674   4.409 -33.485  1.00  0.00     0.048 A 
ENDROOT
BRANCH   1   6
HETATM    6  C   UNL     1      -3.451   2.600 -31.828  1.00  0.00     0.276 C 
HETATM    7  N   UNL     1      -4.787   2.716 -32.134  1.00  0.00    -0.347 N 
HETATM    8  H   UNL     1      -5.082   3.548 -32.632  1.00  0.00     0.163 HD
HETATM    9  O   UNL     1      -2.991   1.637 -31.221  1.00  0.00    -0.265 OA
BRANCH   7  10
HETATM   10  C   UNL     1      -5.771   1.739 -31.715  1.00  0.00     0.114 C 
HETATM   11  C   UNL     1      -7.009   2.432 -31.144  1.00  0.00     0.037 C 
BRANCH  10  12
HETATM   12  C   UNL     1      -6.099   0.805 -32.863  1.00  0.00    -0.033 A 
HETATM   13  C   UNL     1      -5.788  -0.557 -32.762  1.00  0.00     0.028 A 
HETATM   14  C   UNL     1      -6.086  -1.395 -33.825  1.00  0.00     0.116 A 
HETATM   15  N   UNL     1      -6.662  -0.976 -34.971  1.00  0.00    -0.273 NA
HETATM   16  C   UNL     1      -6.944   0.340 -35.059  1.00  0.00     0.116 A 
HETATM   17  C   UNL     1      -6.686   1.256 -34.051  1.00  0.00     0.028 A 
ENDBRANCH  10  12
ENDBRANCH   7  10
ENDBRANCH   1   6
BRANCH   3  18
HETATM   18  O   UNL     1      -0.038   5.846 -31.596  1.00  0.00    -0.286 OA
BRANCH  18  19
HETATM   19  C   UNL     1      -0.207   6.481 -30.385  1.00  0.00     0.100 A 
HETATM   20  C   UNL     1       0.349   5.892 -29.244  1.00  0.00     0.068 A 
HETATM   21 CL   UNL     1       1.303   4.456 -29.347  1.00  0.00    -0.081 Cl
HETATM   22  C   UNL     1       0.136   6.458 -27.984  1.00  0.00     0.026 A 
HETATM   23  C   UNL     1      -0.641   7.610 -27.858  1.00  0.00     0.002 A 
HETATM   24  C   UNL     1      -1.208   8.195 -28.990  1.00  0.00     0.003 A 
HETATM   25  C   UNL     1      -0.998   7.630 -30.250  1.00  0.00     0.039 A 
ENDBRANCH  18  19
ENDBRANCH   3  18
TORSDOF 5
ENDMDL
MODEL 10
REMARK VINA RESULT:      -7.6      6.176      9.101
REMARK  5 active torsions:
REMARK  status: ('A' for Active; 'I' for Inactive)
REMARK    1  A    between atoms: C_2  and  N_3 
REMARK    2  A    between atoms: C_2  and  C_19 
REMARK       I    between atoms: N_3  and  C_4 
REMARK    3  A    between atoms: C_4  and  C_5 
REMARK    4  A    between atoms: C_7  and  O_8 
REMARK    5  A    between atoms: O_8  and  C_9 
ROOT
HETATM    1  C   UNL     1      -4.081   4.345 -33.602  1.00  0.00     0.146 A 
HETATM    2  O   UNL     1      -4.267   3.137 -32.977  1.00  0.00    -0.282 OA
HETATM    3  C   UNL     1      -5.579   2.806 -33.142  1.00  0.00     0.191 A 
HETATM    4  C   UNL     1      -6.224   3.754 -33.901  1.00  0.00     0.067 A 
HETATM    5  C   UNL     1      -5.270   4.763 -34.168  1.00  0.00     0.048 A 
ENDROOT
BRANCH   1   6
HETATM    6  C   UNL     1      -2.773   4.969 -33.583  1.00  0.00     0.276 C 
HETATM    7  N   UNL     1      -2.581   5.842 -32.538  1.00  0.00    -0.347 N 
HETATM    8  H   UNL     1      -3.355   5.984 -31.900  1.00  0.00     0.163 HD
HETATM    9  O   UNL     1      -1.904   4.732 -34.417  1.00  0.00    -0.265 OA
BRANCH   7  10
HETATM   10  C   UNL     1      -1.357   6.599 -32.368  1.00  0.00     0.114 C 
HETATM   11  C   UNL     1      -1.631   8.099 -32.484  1.00  0.00     0.037 C 
BRANCH  10  12
HETATM   12  C   UNL     1      -0.690   6.224 -31.060  1.00  0.00    -0.033 A 
HETATM   13  C   UNL     1      -0.953   6.973 -29.906  1.00  0.00     0.028 A 
HETATM   14  C   UNL     1      -0.328   6.622 -28.720  1.00  0.00     0.116 A 
HETATM   15  N   UNL     1       0.536   5.592 -28.604  1.00  0.00    -0.273 NA
HETATM   16  C   UNL     1       0.790   4.888 -29.727  1.00  0.00     0.116 A 
HETATM   17  C   UNL     1       0.213   5.160 -30.958  1.00  0.00     0.028 A 
ENDBRANCH  10  12
ENDBRANCH   7  10
ENDBRANCH   1   6
BRANCH   3  18
HETATM   18  O   UNL     1      -5.981   1.648 -32.627  1.00  0.00    -0.286 OA
BRANCH  18  19
HETATM   19  C   UNL     1      -5.686   0.445 -33.229  1.00  0.00     0.100 A 
HETATM   20  C   UNL     1      -6.617  -0.093 -34.126  1.00  0.00     0.068 A 
HETATM   21 CL   UNL     1      -8.058   0.759 -34.547  1.00  0.00    -0.081 Cl
HETATM   22  C   UNL     1      -6.397  -1.348 -34.701  1.00  0.00     0.026 A 
HETATM   23  C   UNL     1      -5.251  -2.075 -34.375  1.00  0.00     0.002 A 
HETATM   24  C   UNL     1      -4.326  -1.549 -33.473  1.00  0.00     0.003 A 
HETATM   25  C   UNL     1      -4.545  -0.296 -32.896  1.00  0.00     0.039 A 
ENDBRANCH  18  19
ENDBRANCH   3  18
TORSDOF 5
ENDMDL
