MODEL 1
REMARK VINA RESULT:      -9.0      0.000      0.000
REMARK  6 active torsions:
REMARK  status: ('A' for Active; 'I' for Inactive)
REMARK    1  A    between atoms: C_6  and  C_7 
REMARK    2  A    between atoms: C_7  and  C_8 
REMARK       I    between atoms: C_8  and  N_9 
REMARK    3  A    between atoms: N_9  and  C_10 
REMARK    4  A    between atoms: C_12  and  C_13 
REMARK       I    between atoms: C_13  and  N_14 
REMARK    5  A    between atoms: N_14  and  C_15 
REMARK    6  A    between atoms: C_15  and  C_16 
ROOT
HETATM    1  C   UNL     1      -4.276   3.150 -31.548  1.00  0.00     0.035 A 
HETATM    2  C   UNL     1      -4.801   2.139 -32.363  1.00  0.00     0.046 A 
HETATM    3  C   UNL     1      -6.057   1.580 -32.079  1.00  0.00     0.034 A 
HETATM    4  C   UNL     1      -6.776   2.043 -30.966  1.00  0.00     0.017 A 
HETATM    5  C   UNL     1      -6.254   3.040 -30.147  1.00  0.00     0.003 A 
HETATM    6  C   UNL     1      -5.008   3.588 -30.437  1.00  0.00     0.029 A 
ENDROOT
BRANCH   1   7
HETATM    7  N   UNL     1      -3.026   3.761 -31.755  1.00  0.00    -0.327 N 
HETATM    8  C   UNL     1      -2.664   4.684 -32.717  1.00  0.00     0.227 C 
HETATM    9  O   UNL     1      -3.410   5.145 -33.581  1.00  0.00    -0.273 OA
HETATM   10  H   UNL     1      -2.298   3.562 -31.064  1.00  0.00     0.169 HD
BRANCH   8  11
HETATM   11  C   UNL     1      -1.181   5.043 -32.712  1.00  0.00     0.164 C 
BRANCH  11  12
HETATM   12  C   UNL     1      -0.635   5.417 -31.371  1.00  0.00     0.065 A 
HETATM   13  N   UNL     1      -0.341   4.474 -30.459  1.00  0.00    -0.179 NA
HETATM   14  N   UNL     1       0.162   5.169 -29.422  1.00  0.00    -0.282 N 
HETATM   15  C   UNL     1       0.204   6.517 -29.636  1.00  0.00     0.026 A 
HETATM   16  H   UNL     1       0.467   4.656 -28.600  1.00  0.00     0.189 HD
HETATM   17  C   UNL     1       0.733   7.467 -28.631  1.00  0.00     0.070 C 
HETATM   18  C   UNL     1      -0.317   6.711 -30.895  1.00  0.00     0.055 A 
ENDBRANCH  11  12
ENDBRANCH   8  11
ENDBRANCH   1   7
BRANCH   3  19
HETATM   19  C   UNL     1      -6.679   0.481 -32.882  1.00  0.00     0.252 C 
HETATM   20  N   UNL     1      -6.036   0.053 -34.024  1.00  0.00    -0.353 N 
HETATM   21  H   UNL     1      -5.283   0.590 -34.429  1.00  0.00     0.163 HD
HETATM   22  O   UNL     1      -7.740  -0.012 -32.508  1.00  0.00    -0.268 OA
BRANCH  20  23
HETATM   23  C   UNL     1      -6.645  -0.963 -34.858  1.00  0.00     0.161 C 
BRANCH  23  24
HETATM   24  C   UNL     1      -5.986  -2.314 -34.732  1.00  0.00    -0.041 A 
HETATM   25  C   UNL     1      -4.682  -2.453 -34.233  1.00  0.00     0.009 A 
HETATM   26  C   UNL     1      -4.119  -3.719 -34.057  1.00  0.00     0.001 A 
HETATM   27  C   UNL     1      -4.858  -4.861 -34.357  1.00  0.00     0.000 A 
HETATM   28  C   UNL     1      -6.160  -4.739 -34.835  1.00  0.00     0.001 A 
HETATM   29  C   UNL     1      -6.723  -3.474 -35.018  1.00  0.00     0.009 A 
ENDBRANCH  23  24
ENDBRANCH  20  23
ENDBRANCH   3  19
TORSDOF 6
ENDMDL
MODEL 2
REMARK VINA RESULT:      -8.9      1.552      1.972
REMARK  6 active torsions:
REMARK  status: ('A' for Active; 'I' for Inactive)
REMARK    1  A    between atoms: C_6  and  C_7 
REMARK    2  A    between atoms: C_7  and  C_8 
REMARK       I    between atoms: C_8  and  N_9 
REMARK    3  A    between atoms: N_9  and  C_10 
REMARK    4  A    between atoms: C_12  and  C_13 
REMARK       I    between atoms: C_13  and  N_14 
REMARK    5  A    between atoms: N_14  and  C_15 
REMARK    6  A    between atoms: C_15  and  C_16 
ROOT
HETATM    1  C   UNL     1      -3.576   3.865 -32.426  1.00  0.00     0.035 A 
HETATM    2  C   UNL     1      -3.341   2.505 -32.191  1.00  0.00     0.046 A 
HETATM    3  C   UNL     1      -4.355   1.560 -32.414  1.00  0.00     0.034 A 
HETATM    4  C   UNL     1      -5.608   1.997 -32.871  1.00  0.00     0.017 A 
HETATM    5  C   UNL     1      -5.850   3.349 -33.097  1.00  0.00     0.003 A 
HETATM    6  C   UNL     1      -4.838   4.278 -32.872  1.00  0.00     0.029 A 
ENDROOT
BRANCH   1   7
HETATM    7  N   UNL     1      -2.620   4.877 -32.224  1.00  0.00    -0.327 N 
HETATM    8  C   UNL     1      -1.681   5.368 -33.110  1.00  0.00     0.227 C 
HETATM    9  O   UNL     1      -1.526   4.987 -34.271  1.00  0.00    -0.273 OA
HETATM   10  H   UNL     1      -2.664   5.378 -31.333  1.00  0.00     0.169 HD
BRANCH   8  11
HETATM   11  C   UNL     1      -0.728   6.394 -32.504  1.00  0.00     0.164 C 
BRANCH  11  12
HETATM   12  C   UNL     1      -0.327   6.114 -31.090  1.00  0.00     0.065 A 
HETATM   13  N   UNL     1      -0.171   4.852 -30.655  1.00  0.00    -0.179 NA
HETATM   14  N   UNL     1       0.231   4.994 -29.379  1.00  0.00    -0.282 N 
HETATM   15  C   UNL     1       0.341   6.296 -28.983  1.00  0.00     0.026 A 
HETATM   16  H   UNL     1       0.423   4.157 -28.837  1.00  0.00     0.189 HD
HETATM   17  C   UNL     1       0.782   6.681 -27.623  1.00  0.00     0.070 C 
HETATM   18  C   UNL     1      -0.024   7.051 -30.074  1.00  0.00     0.055 A 
ENDBRANCH  11  12
ENDBRANCH   8  11
ENDBRANCH   1   7
BRANCH   3  19
HETATM   19  C   UNL     1      -4.196   0.093 -32.163  1.00  0.00     0.252 C 
HETATM   20  N   UNL     1      -3.738  -0.706 -33.189  1.00  0.00    -0.353 N 
HETATM   21  H   UNL     1      -3.704  -0.365 -34.139  1.00  0.00     0.163 HD
HETATM   22  O   UNL     1      -4.476  -0.363 -31.057  1.00  0.00    -0.268 OA
BRANCH  20  23
HETATM   23  C   UNL     1      -3.636  -2.138 -32.998  1.00  0.00     0.161 C 
BRANCH  23  24
HETATM   24  C   UNL     1      -4.636  -2.923 -33.810  1.00  0.00    -0.041 A 
HETATM   25  C   UNL     1      -4.418  -4.268 -34.144  1.00  0.00     0.009 A 
HETATM   26  C   UNL     1      -5.390  -4.996 -34.834  1.00  0.00     0.001 A 
HETATM   27  C   UNL     1      -6.598  -4.395 -35.181  1.00  0.00     0.000 A 
HETATM   28  C   UNL     1      -6.836  -3.067 -34.839  1.00  0.00     0.001 A 
HETATM   29  C   UNL     1      -5.863  -2.335 -34.155  1.00  0.00     0.009 A 
ENDBRANCH  23  24
ENDBRANCH  20  23
ENDBRANCH   3  19
TORSDOF 6
ENDMDL
MODEL 3
REMARK VINA RESULT:      -8.3      2.086      3.009
REMARK  6 active torsions:
REMARK  status: ('A' for Active; 'I' for Inactive)
REMARK    1  A    between atoms: C_6  and  C_7 
REMARK    2  A    between atoms: C_7  and  C_8 
REMARK       I    between atoms: C_8  and  N_9 
REMARK    3  A    between atoms: N_9  and  C_10 
REMARK    4  A    between atoms: C_12  and  C_13 
REMARK       I    between atoms: C_13  and  N_14 
REMARK    5  A    between atoms: N_14  and  C_15 
REMARK    6  A    between atoms: C_15  and  C_16 
ROOT
HETATM    1  C   UNL     1      -2.555   5.272 -32.110  1.00  0.00     0.035 A 
HETATM    2  C   UNL     1      -2.678   3.925 -31.746  1.00  0.00     0.046 A 
HETATM    3  C   UNL     1      -3.719   3.141 -32.268  1.00  0.00     0.034 A 
HETATM    4  C   UNL     1      -4.637   3.726 -33.154  1.00  0.00     0.017 A 
HETATM    5  C   UNL     1      -4.525   5.067 -33.512  1.00  0.00     0.003 A 
HETATM    6  C   UNL     1      -3.489   5.835 -32.989  1.00  0.00     0.029 A 
ENDROOT
BRANCH   1   7
HETATM    7  N   UNL     1      -1.547   6.129 -31.633  1.00  0.00    -0.327 N 
HETATM    8  C   UNL     1      -0.215   5.850 -31.395  1.00  0.00     0.227 C 
HETATM    9  O   UNL     1       0.329   4.761 -31.576  1.00  0.00    -0.273 OA
HETATM   10  H   UNL     1      -1.802   7.113 -31.512  1.00  0.00     0.169 HD
BRANCH   8  11
HETATM   11  C   UNL     1       0.561   7.002 -30.765  1.00  0.00     0.164 C 
BRANCH  11  12
HETATM   12  C   UNL     1       0.434   7.100 -29.277  1.00  0.00     0.065 A 
HETATM   13  N   UNL     1      -0.406   6.296 -28.603  1.00  0.00    -0.179 NA
HETATM   14  N   UNL     1      -0.216   6.633 -27.314  1.00  0.00    -0.282 N 
HETATM   15  C   UNL     1       0.715   7.616 -27.138  1.00  0.00     0.026 A 
HETATM   16  H   UNL     1      -0.749   6.142 -26.603  1.00  0.00     0.189 HD
HETATM   17  C   UNL     1       1.091   8.128 -25.800  1.00  0.00     0.070 C 
HETATM   18  C   UNL     1       1.152   7.947 -28.400  1.00  0.00     0.055 A 
ENDBRANCH  11  12
ENDBRANCH   8  11
ENDBRANCH   1   7
BRANCH   3  19
HETATM   19  C   UNL     1      -3.938   1.705 -31.911  1.00  0.00     0.252 C 
HETATM   20  N   UNL     1      -5.146   1.122 -32.232  1.00  0.00    -0.353 N 
HETATM   21  H   UNL     1      -5.937   1.684 -32.510  1.00  0.00     0.163 HD
HETATM   22  O   UNL     1      -3.044   1.081 -31.344  1.00  0.00    -0.268 OA
BRANCH  20  23
HETATM   23  C   UNL     1      -5.413  -0.247 -31.842  1.00  0.00     0.161 C 
BRANCH  23  24
HETATM   24  C   UNL     1      -5.452  -1.205 -33.006  1.00  0.00    -0.041 A 
HETATM   25  C   UNL     1      -4.316  -1.927 -33.403  1.00  0.00     0.009 A 
HETATM   26  C   UNL     1      -4.394  -2.862 -34.437  1.00  0.00     0.001 A 
HETATM   27  C   UNL     1      -5.610  -3.103 -35.073  1.00  0.00     0.000 A 
HETATM   28  C   UNL     1      -6.749  -2.408 -34.677  1.00  0.00     0.001 A 
HETATM   29  C   UNL     1      -6.673  -1.467 -33.648  1.00  0.00     0.009 A 
ENDBRANCH  23  24
ENDBRANCH  20  23
ENDBRANCH   3  19
TORSDOF 6
ENDMDL
MODEL 4
REMARK VINA RESULT:      -8.3      4.089      9.511
REMARK  6 active torsions:
REMARK  status: ('A' for Active; 'I' for Inactive)
REMARK    1  A    between atoms: C_6  and  C_7 
REMARK    2  A    between atoms: C_7  and  C_8 
REMARK       I    between atoms: C_8  and  N_9 
REMARK    3  A    between atoms: N_9  and  C_10 
REMARK    4  A    between atoms: C_12  and  C_13 
REMARK       I    between atoms: C_13  and  N_14 
REMARK    5  A    between atoms: N_14  and  C_15 
REMARK    6  A    between atoms: C_15  and  C_16 
ROOT
HETATM    1  C   UNL     1      -7.539   0.515 -34.246  1.00  0.00     0.035 A 
HETATM    2  C   UNL     1      -6.541   1.183 -33.526  1.00  0.00     0.046 A 
HETATM    3  C   UNL     1      -5.315   0.554 -33.261  1.00  0.00     0.034 A 
HETATM    4  C   UNL     1      -5.105  -0.755 -33.721  1.00  0.00     0.017 A 
HETATM    5  C   UNL     1      -6.097  -1.429 -34.429  1.00  0.00     0.003 A 
HETATM    6  C   UNL     1      -7.310  -0.795 -34.687  1.00  0.00     0.029 A 
ENDROOT
BRANCH   1   7
HETATM    7  N   UNL     1      -8.796   1.067 -34.552  1.00  0.00    -0.327 N 
HETATM    8  C   UNL     1      -9.994   0.917 -33.881  1.00  0.00     0.227 C 
HETATM    9  O   UNL     1     -10.161   0.250 -32.860  1.00  0.00    -0.273 OA
HETATM   10  H   UNL     1      -8.827   1.733 -35.329  1.00  0.00     0.169 HD
BRANCH   8  11
HETATM   11  C   UNL     1     -11.184   1.575 -34.572  1.00  0.00     0.164 C 
BRANCH  11  12
HETATM   12  C   UNL     1     -12.294   1.977 -33.653  1.00  0.00     0.065 A 
HETATM   13  N   UNL     1     -12.135   2.984 -32.778  1.00  0.00    -0.179 NA
HETATM   14  N   UNL     1     -13.333   3.085 -32.174  1.00  0.00    -0.282 N 
HETATM   15  C   UNL     1     -14.253   2.185 -32.631  1.00  0.00     0.026 A 
HETATM   16  H   UNL     1     -13.457   3.799 -31.464  1.00  0.00     0.189 HD
HETATM   17  C   UNL     1     -15.639   2.130 -32.115  1.00  0.00     0.070 C 
HETATM   18  C   UNL     1     -13.603   1.442 -33.591  1.00  0.00     0.055 A 
ENDBRANCH  11  12
ENDBRANCH   8  11
ENDBRANCH   1   7
BRANCH   3  19
HETATM   19  C   UNL     1      -4.208   1.185 -32.477  1.00  0.00     0.252 C 
HETATM   20  N   UNL     1      -4.142   2.561 -32.420  1.00  0.00    -0.353 N 
HETATM   21  H   UNL     1      -4.688   3.135 -33.046  1.00  0.00     0.163 HD
HETATM   22  O   UNL     1      -3.388   0.469 -31.908  1.00  0.00    -0.268 OA
BRANCH  20  23
HETATM   23  C   UNL     1      -3.045   3.203 -31.725  1.00  0.00     0.161 C 
BRANCH  23  24
HETATM   24  C   UNL     1      -2.412   4.324 -32.511  1.00  0.00    -0.041 A 
HETATM   25  C   UNL     1      -1.612   5.297 -31.892  1.00  0.00     0.009 A 
HETATM   26  C   UNL     1      -0.977   6.282 -32.651  1.00  0.00     0.001 A 
HETATM   27  C   UNL     1      -1.117   6.298 -34.037  1.00  0.00     0.000 A 
HETATM   28  C   UNL     1      -1.892   5.328 -34.666  1.00  0.00     0.001 A 
HETATM   29  C   UNL     1      -2.533   4.344 -33.910  1.00  0.00     0.009 A 
ENDBRANCH  23  24
ENDBRANCH  20  23
ENDBRANCH   3  19
TORSDOF 6
ENDMDL
MODEL 5
REMARK VINA RESULT:      -8.1      4.433      7.606
REMARK  6 active torsions:
REMARK  status: ('A' for Active; 'I' for Inactive)
REMARK    1  A    between atoms: C_6  and  C_7 
REMARK    2  A    between atoms: C_7  and  C_8 
REMARK       I    between atoms: C_8  and  N_9 
REMARK    3  A    between atoms: N_9  and  C_10 
REMARK    4  A    between atoms: C_12  and  C_13 
REMARK       I    between atoms: C_13  and  N_14 
REMARK    5  A    between atoms: N_14  and  C_15 
REMARK    6  A    between atoms: C_15  and  C_16 
ROOT
HETATM    1  C   UNL     1      -8.353   2.572 -31.875  1.00  0.00     0.035 A 
HETATM    2  C   UNL     1      -7.443   1.588 -32.282  1.00  0.00     0.046 A 
HETATM    3  C   UNL     1      -6.340   1.265 -31.476  1.00  0.00     0.034 A 
HETATM    4  C   UNL     1      -6.158   1.944 -30.261  1.00  0.00     0.017 A 
HETATM    5  C   UNL     1      -7.054   2.931 -29.857  1.00  0.00     0.003 A 
HETATM    6  C   UNL     1      -8.144   3.244 -30.663  1.00  0.00     0.029 A 
ENDROOT
BRANCH   1   7
HETATM    7  N   UNL     1      -9.479   2.961 -32.621  1.00  0.00    -0.327 N 
HETATM    8  C   UNL     1      -9.555   3.854 -33.673  1.00  0.00     0.227 C 
HETATM    9  O   UNL     1      -8.606   4.475 -34.152  1.00  0.00    -0.273 OA
HETATM   10  H   UNL     1     -10.355   2.471 -32.420  1.00  0.00     0.169 HD
BRANCH   8  11
HETATM   11  C   UNL     1     -10.973   4.117 -34.169  1.00  0.00     0.164 C 
BRANCH  11  12
HETATM   12  C   UNL     1     -11.983   3.100 -33.740  1.00  0.00     0.065 A 
HETATM   13  N   UNL     1     -12.724   3.289 -32.634  1.00  0.00    -0.179 NA
HETATM   14  N   UNL     1     -13.535   2.215 -32.598  1.00  0.00    -0.282 N 
HETATM   15  C   UNL     1     -13.343   1.350 -33.637  1.00  0.00     0.026 A 
HETATM   16  H   UNL     1     -14.204   2.141 -31.838  1.00  0.00     0.189 HD
HETATM   17  C   UNL     1     -14.137   0.112 -33.800  1.00  0.00     0.070 C 
HETATM   18  C   UNL     1     -12.332   1.896 -34.395  1.00  0.00     0.055 A 
ENDBRANCH  11  12
ENDBRANCH   8  11
ENDBRANCH   1   7
BRANCH   3  19
HETATM   19  C   UNL     1      -5.308   0.247 -31.847  1.00  0.00     0.252 C 
HETATM   20  N   UNL     1      -5.082  -0.006 -33.184  1.00  0.00    -0.353 N 
HETATM   21  H   UNL     1      -5.723   0.323 -33.891  1.00  0.00     0.163 HD
HETATM   22  O   UNL     1      -4.691  -0.338 -30.960  1.00  0.00    -0.268 OA
BRANCH  20  23
HETATM   23  C   UNL     1      -4.137  -1.032 -33.574  1.00  0.00     0.161 C 
BRANCH  23  24
HETATM   24  C   UNL     1      -4.796  -2.297 -34.065  1.00  0.00    -0.041 A 
HETATM   25  C   UNL     1      -4.128  -3.531 -34.042  1.00  0.00     0.009 A 
HETATM   26  C   UNL     1      -4.783  -4.701 -34.433  1.00  0.00     0.001 A 
HETATM   27  C   UNL     1      -6.117  -4.656 -34.831  1.00  0.00     0.000 A 
HETATM   28  C   UNL     1      -6.798  -3.442 -34.841  1.00  0.00     0.001 A 
HETATM   29  C   UNL     1      -6.144  -2.269 -34.457  1.00  0.00     0.009 A 
ENDBRANCH  23  24
ENDBRANCH  20  23
ENDBRANCH   3  19
TORSDOF 6
ENDMDL
MODEL 6
REMARK VINA RESULT:      -8.1      5.374      9.069
REMARK  6 active torsions:
REMARK  status: ('A' for Active; 'I' for Inactive)
REMARK    1  A    between atoms: C_6  and  C_7 
REMARK    2  A    between atoms: C_7  and  C_8 
REMARK       I    between atoms: C_8  and  N_9 
REMARK    3  A    between atoms: N_9  and  C_10 
REMARK    4  A    between atoms: C_12  and  C_13 
REMARK       I    between atoms: C_13  and  N_14 
REMARK    5  A    between atoms: N_14  and  C_15 
REMARK    6  A    between atoms: C_15  and  C_16 
ROOT
HETATM    1  C   UNL     1     -10.079   2.122 -33.108  1.00  0.00     0.035 A 
HETATM    2  C   UNL     1      -8.890   1.383 -33.134  1.00  0.00     0.046 A 
HETATM    3  C   UNL     1      -7.650   2.035 -33.222  1.00  0.00     0.034 A 
HETATM    4  C   UNL     1      -7.618   3.436 -33.289  1.00  0.00     0.017 A 
HETATM    5  C   UNL     1      -8.798   4.176 -33.274  1.00  0.00     0.003 A 
HETATM    6  C   UNL     1     -10.022   3.519 -33.187  1.00  0.00     0.029 A 
ENDROOT
BRANCH   1   7
HETATM    7  N   UNL     1     -11.361   1.551 -33.026  1.00  0.00    -0.327 N 
HETATM    8  C   UNL     1     -12.259   1.290 -34.044  1.00  0.00     0.227 C 
HETATM    9  O   UNL     1     -12.071   1.521 -35.238  1.00  0.00    -0.273 OA
HETATM   10  H   UNL     1     -11.653   1.207 -32.107  1.00  0.00     0.169 HD
BRANCH   8  11
HETATM   11  C   UNL     1     -13.610   0.767 -33.566  1.00  0.00     0.164 C 
BRANCH  11  12
HETATM   12  C   UNL     1     -14.483   1.794 -32.917  1.00  0.00     0.065 A 
HETATM   13  N   UNL     1     -13.954   2.907 -32.380  1.00  0.00    -0.179 NA
HETATM   14  N   UNL     1     -15.024   3.598 -31.945  1.00  0.00    -0.282 N 
HETATM   15  C   UNL     1     -16.214   2.973 -32.185  1.00  0.00     0.026 A 
HETATM   16  H   UNL     1     -14.869   4.498 -31.500  1.00  0.00     0.189 HD
HETATM   17  C   UNL     1     -17.516   3.563 -31.802  1.00  0.00     0.070 C 
HETATM   18  C   UNL     1     -15.894   1.790 -32.811  1.00  0.00     0.055 A 
ENDBRANCH  11  12
ENDBRANCH   8  11
ENDBRANCH   1   7
BRANCH   3  19
HETATM   19  C   UNL     1      -6.336   1.321 -33.281  1.00  0.00     0.252 C 
HETATM   20  N   UNL     1      -6.311   0.023 -33.746  1.00  0.00    -0.353 N 
HETATM   21  H   UNL     1      -7.163  -0.509 -33.850  1.00  0.00     0.163 HD
HETATM   22  O   UNL     1      -5.317   1.902 -32.916  1.00  0.00    -0.268 OA
BRANCH  20  23
HETATM   23  C   UNL     1      -5.066  -0.717 -33.754  1.00  0.00     0.161 C 
BRANCH  23  24
HETATM   24  C   UNL     1      -5.231  -2.162 -34.153  1.00  0.00    -0.041 A 
HETATM   25  C   UNL     1      -4.219  -3.108 -33.928  1.00  0.00     0.009 A 
HETATM   26  C   UNL     1      -4.422  -4.454 -34.238  1.00  0.00     0.001 A 
HETATM   27  C   UNL     1      -5.643  -4.876 -34.758  1.00  0.00     0.000 A 
HETATM   28  C   UNL     1      -6.664  -3.952 -34.969  1.00  0.00     0.001 A 
HETATM   29  C   UNL     1      -6.461  -2.604 -34.665  1.00  0.00     0.009 A 
ENDBRANCH  23  24
ENDBRANCH  20  23
ENDBRANCH   3  19
TORSDOF 6
ENDMDL
MODEL 7
REMARK VINA RESULT:      -7.9      1.955      9.873
REMARK  6 active torsions:
REMARK  status: ('A' for Active; 'I' for Inactive)
REMARK    1  A    between atoms: C_6  and  C_7 
REMARK    2  A    between atoms: C_7  and  C_8 
REMARK       I    between atoms: C_8  and  N_9 
REMARK    3  A    between atoms: N_9  and  C_10 
REMARK    4  A    between atoms: C_12  and  C_13 
REMARK       I    between atoms: C_13  and  N_14 
REMARK    5  A    between atoms: N_14  and  C_15 
REMARK    6  A    between atoms: C_15  and  C_16 
ROOT
HETATM    1  C   UNL     1      -3.438   4.037 -32.657  1.00  0.00     0.035 A 
HETATM    2  C   UNL     1      -2.479   4.127 -31.641  1.00  0.00     0.046 A 
HETATM    3  C   UNL     1      -1.335   4.923 -31.812  1.00  0.00     0.034 A 
HETATM    4  C   UNL     1      -1.163   5.621 -33.018  1.00  0.00     0.017 A 
HETATM    5  C   UNL     1      -2.109   5.527 -34.036  1.00  0.00     0.003 A 
HETATM    6  C   UNL     1      -3.239   4.735 -33.855  1.00  0.00     0.029 A 
ENDROOT
BRANCH   1   7
HETATM    7  N   UNL     1      -4.608   3.261 -32.571  1.00  0.00    -0.327 N 
HETATM    8  C   UNL     1      -5.738   3.483 -31.807  1.00  0.00     0.227 C 
HETATM    9  O   UNL     1      -5.913   4.438 -31.051  1.00  0.00    -0.273 OA
HETATM   10  H   UNL     1      -4.678   2.464 -33.209  1.00  0.00     0.169 HD
BRANCH   8  11
HETATM   11  C   UNL     1      -6.771   2.362 -31.880  1.00  0.00     0.164 C 
BRANCH  11  12
HETATM   12  C   UNL     1      -6.238   1.054 -32.372  1.00  0.00     0.065 A 
HETATM   13  N   UNL     1      -5.334   0.364 -31.655  1.00  0.00    -0.179 NA
HETATM   14  N   UNL     1      -5.134  -0.756 -32.373  1.00  0.00    -0.282 N 
HETATM   15  C   UNL     1      -5.875  -0.811 -33.518  1.00  0.00     0.026 A 
HETATM   16  H   UNL     1      -4.482  -1.448 -32.016  1.00  0.00     0.189 HD
HETATM   17  C   UNL     1      -5.820  -1.962 -34.449  1.00  0.00     0.070 C 
HETATM   18  C   UNL     1      -6.600   0.358 -33.550  1.00  0.00     0.055 A 
ENDBRANCH  11  12
ENDBRANCH   8  11
ENDBRANCH   1   7
BRANCH   3  19
HETATM   19  C   UNL     1      -0.251   5.053 -30.789  1.00  0.00     0.252 C 
HETATM   20  N   UNL     1      -0.562   5.609 -29.566  1.00  0.00    -0.353 N 
HETATM   21  H   UNL     1      -1.432   6.102 -29.425  1.00  0.00     0.163 HD
HETATM   22  O   UNL     1       0.883   4.667 -31.060  1.00  0.00    -0.268 OA
BRANCH  20  23
HETATM   23  C   UNL     1       0.479   5.809 -28.579  1.00  0.00     0.161 C 
BRANCH  23  24
HETATM   24  C   UNL     1       0.459   7.184 -27.959  1.00  0.00    -0.041 A 
HETATM   25  C   UNL     1       1.453   7.600 -27.060  1.00  0.00     0.009 A 
HETATM   26  C   UNL     1       1.455   8.902 -26.555  1.00  0.00     0.001 A 
HETATM   27  C   UNL     1       0.477   9.809 -26.956  1.00  0.00     0.000 A 
HETATM   28  C   UNL     1      -0.505   9.417 -27.861  1.00  0.00     0.001 A 
HETATM   29  C   UNL     1      -0.513   8.113 -28.363  1.00  0.00     0.009 A 
ENDBRANCH  23  24
ENDBRANCH  20  23
ENDBRANCH   3  19
TORSDOF 6
ENDMDL
MODEL 8
REMARK VINA RESULT:      -7.7      2.279      4.175
REMARK  6 active torsions:
REMARK  status: ('A' for Active; 'I' for Inactive)
REMARK    1  A    between atoms: C_6  and  C_7 
REMARK    2  A    between atoms: C_7  and  C_8 
REMARK       I    between atoms: C_8  and  N_9 
REMARK    3  A    between atoms: N_9  and  C_10 
REMARK    4  A    between atoms: C_12  and  C_13 
REMARK       I    between atoms: C_13  and  N_14 
REMARK    5  A    between atoms: N_14  and  C_15 
REMARK    6  A    between atoms: C_15  and  C_16 
ROOT
HETATM    1  C   UNL     1      -1.589   5.723 -32.094  1.00  0.00     0.035 A 
HETATM    2  C   UNL     1      -2.788   5.005 -31.995  1.00  0.00     0.046 A 
HETATM    3  C   UNL     1      -3.468   4.594 -33.152  1.00  0.00     0.034 A 
HETATM    4  C   UNL     1      -2.934   4.918 -34.409  1.00  0.00     0.017 A 
HETATM    5  C   UNL     1      -1.749   5.641 -34.514  1.00  0.00     0.003 A 
HETATM    6  C   UNL     1      -1.082   6.043 -33.360  1.00  0.00     0.029 A 
ENDROOT
BRANCH   1   7
HETATM    7  N   UNL     1      -0.847   6.175 -30.989  1.00  0.00    -0.327 N 
HETATM    8  C   UNL     1       0.086   5.491 -30.235  1.00  0.00     0.227 C 
HETATM    9  O   UNL     1       0.438   4.326 -30.420  1.00  0.00    -0.273 OA
HETATM   10  H   UNL     1      -0.944   7.165 -30.745  1.00  0.00     0.169 HD
BRANCH   8  11
HETATM   11  C   UNL     1       0.610   6.269 -29.032  1.00  0.00     0.164 C 
BRANCH  11  12
HETATM   12  C   UNL     1      -0.453   6.881 -28.175  1.00  0.00     0.065 A 
HETATM   13  N   UNL     1      -1.251   7.851 -28.654  1.00  0.00    -0.179 NA
HETATM   14  N   UNL     1      -2.094   8.112 -27.638  1.00  0.00    -0.282 N 
HETATM   15  C   UNL     1      -1.868   7.346 -26.530  1.00  0.00     0.026 A 
HETATM   16  H   UNL     1      -2.807   8.821 -27.773  1.00  0.00     0.189 HD
HETATM   17  C   UNL     1      -2.688   7.458 -25.303  1.00  0.00     0.070 C 
HETATM   18  C   UNL     1      -0.799   6.538 -26.846  1.00  0.00     0.055 A 
ENDBRANCH  11  12
ENDBRANCH   8  11
ENDBRANCH   1   7
BRANCH   3  19
HETATM   19  C   UNL     1      -4.765   3.848 -33.135  1.00  0.00     0.252 C 
HETATM   20  N   UNL     1      -4.758   2.524 -32.753  1.00  0.00    -0.353 N 
HETATM   21  H   UNL     1      -3.894   2.006 -32.684  1.00  0.00     0.163 HD
HETATM   22  O   UNL     1      -5.798   4.428 -33.460  1.00  0.00    -0.268 OA
BRANCH  20  23
HETATM   23  C   UNL     1      -5.986   1.756 -32.789  1.00  0.00     0.161 C 
BRANCH  23  24
HETATM   24  C   UNL     1      -5.808   0.366 -33.346  1.00  0.00    -0.041 A 
HETATM   25  C   UNL     1      -6.732  -0.191 -34.244  1.00  0.00     0.009 A 
HETATM   26  C   UNL     1      -6.508  -1.450 -34.804  1.00  0.00     0.001 A 
HETATM   27  C   UNL     1      -5.351  -2.160 -34.490  1.00  0.00     0.000 A 
HETATM   28  C   UNL     1      -4.416  -1.612 -33.616  1.00  0.00     0.001 A 
HETATM   29  C   UNL     1      -4.641  -0.355 -33.050  1.00  0.00     0.009 A 
ENDBRANCH  23  24
ENDBRANCH  20  23
ENDBRANCH   3  19
TORSDOF 6
ENDMDL
MODEL 9
REMARK VINA RESULT:      -7.6     16.464     17.875
REMARK  6 active torsions:
REMARK  status: ('A' for Active; 'I' for Inactive)
REMARK    1  A    between atoms: C_6  and  C_7 
REMARK    2  A    between atoms: C_7  and  C_8 
REMARK       I    between atoms: C_8  and  N_9 
REMARK    3  A    between atoms: N_9  and  C_10 
REMARK    4  A    between atoms: C_12  and  C_13 
REMARK       I    between atoms: C_13  and  N_14 
REMARK    5  A    between atoms: N_14  and  C_15 
REMARK    6  A    between atoms: C_15  and  C_16 
ROOT
HETATM    1  C   UNL     1      -6.487 -12.758 -38.456  1.00  0.00     0.035 A 
HETATM    2  C   UNL     1      -5.237 -13.144 -38.956  1.00  0.00     0.046 A 
HETATM    3  C   UNL     1      -5.004 -13.173 -40.340  1.00  0.00     0.034 A 
HETATM    4  C   UNL     1      -6.042 -12.815 -41.215  1.00  0.00     0.017 A 
HETATM    5  C   UNL     1      -7.289 -12.440 -40.724  1.00  0.00     0.003 A 
HETATM    6  C   UNL     1      -7.509 -12.415 -39.350  1.00  0.00     0.029 A 
ENDROOT
BRANCH   1   7
HETATM    7  N   UNL     1      -6.807 -12.705 -37.088  1.00  0.00    -0.327 N 
HETATM    8  C   UNL     1      -6.979 -13.748 -36.199  1.00  0.00     0.227 C 
HETATM    9  O   UNL     1      -6.869 -14.944 -36.471  1.00  0.00    -0.273 OA
HETATM   10  H   UNL     1      -6.847 -11.775 -36.662  1.00  0.00     0.169 HD
BRANCH   8  11
HETATM   11  C   UNL     1      -7.437 -13.316 -34.810  1.00  0.00     0.164 C 
BRANCH  11  12
HETATM   12  C   UNL     1      -6.584 -13.817 -33.687  1.00  0.00     0.065 A 
HETATM   13  N   UNL     1      -5.500 -13.130 -33.286  1.00  0.00    -0.179 NA
HETATM   14  N   UNL     1      -5.027 -13.844 -32.249  1.00  0.00    -0.282 N 
HETATM   15  C   UNL     1      -5.766 -14.958 -31.969  1.00  0.00     0.026 A 
HETATM   16  H   UNL     1      -4.197 -13.508 -31.769  1.00  0.00     0.189 HD
HETATM   17  C   UNL     1      -5.431 -15.879 -30.860  1.00  0.00     0.070 C 
HETATM   18  C   UNL     1      -6.784 -14.972 -32.895  1.00  0.00     0.055 A 
ENDBRANCH  11  12
ENDBRANCH   8  11
ENDBRANCH   1   7
BRANCH   3  19
HETATM   19  C   UNL     1      -3.709 -13.597 -40.958  1.00  0.00     0.252 C 
HETATM   20  N   UNL     1      -2.605 -13.739 -40.144  1.00  0.00    -0.353 N 
HETATM   21  H   UNL     1      -2.603 -13.375 -39.202  1.00  0.00     0.163 HD
HETATM   22  O   UNL     1      -3.658 -13.808 -42.167  1.00  0.00    -0.268 OA
BRANCH  20  23
HETATM   23  C   UNL     1      -1.323 -14.085 -40.721  1.00  0.00     0.161 C 
BRANCH  23  24
HETATM   24  C   UNL     1      -0.343 -14.637 -39.715  1.00  0.00    -0.041 A 
HETATM   25  C   UNL     1       0.993 -14.896 -40.056  1.00  0.00     0.009 A 
HETATM   26  C   UNL     1       1.900 -15.338 -39.090  1.00  0.00     0.001 A 
HETATM   27  C   UNL     1       1.490 -15.506 -37.770  1.00  0.00     0.000 A 
HETATM   28  C   UNL     1       0.172 -15.234 -37.413  1.00  0.00     0.001 A 
HETATM   29  C   UNL     1      -0.739 -14.799 -38.378  1.00  0.00     0.009 A 
ENDBRANCH  23  24
ENDBRANCH  20  23
ENDBRANCH   3  19
TORSDOF 6
ENDMDL
MODEL 10
REMARK VINA RESULT:      -7.4      1.927      2.590
REMARK  6 active torsions:
REMARK  status: ('A' for Active; 'I' for Inactive)
REMARK    1  A    between atoms: C_6  and  C_7 
REMARK    2  A    between atoms: C_7  and  C_8 
REMARK       I    between atoms: C_8  and  N_9 
REMARK    3  A    between atoms: N_9  and  C_10 
REMARK    4  A    between atoms: C_12  and  C_13 
REMARK       I    between atoms: C_13  and  N_14 
REMARK    5  A    between atoms: N_14  and  C_15 
REMARK    6  A    between atoms: C_15  and  C_16 
ROOT
HETATM    1  C   UNL     1      -6.805   4.748 -31.223  1.00  0.00     0.035 A 
HETATM    2  C   UNL     1      -6.963   3.470 -31.774  1.00  0.00     0.046 A 
HETATM    3  C   UNL     1      -8.137   2.737 -31.540  1.00  0.00     0.034 A 
HETATM    4  C   UNL     1      -9.146   3.299 -30.743  1.00  0.00     0.017 A 
HETATM    5  C   UNL     1      -8.990   4.564 -30.185  1.00  0.00     0.003 A 
HETATM    6  C   UNL     1      -7.822   5.283 -30.423  1.00  0.00     0.029 A 
ENDROOT
BRANCH   1   7
HETATM    7  N   UNL     1      -5.662   5.548 -31.403  1.00  0.00    -0.327 N 
HETATM    8  C   UNL     1      -5.140   6.060 -32.575  1.00  0.00     0.227 C 
HETATM    9  O   UNL     1      -5.614   5.896 -33.699  1.00  0.00    -0.273 OA
HETATM   10  H   UNL     1      -5.186   5.864 -30.554  1.00  0.00     0.169 HD
BRANCH   8  11
HETATM   11  C   UNL     1      -3.814   6.794 -32.399  1.00  0.00     0.164 C 
BRANCH  11  12
HETATM   12  C   UNL     1      -2.737   5.988 -31.744  1.00  0.00     0.065 A 
HETATM   13  N   UNL     1      -2.896   4.671 -31.528  1.00  0.00    -0.179 NA
HETATM   14  N   UNL     1      -1.729   4.287 -30.981  1.00  0.00    -0.282 N 
HETATM   15  C   UNL     1      -0.829   5.305 -30.841  1.00  0.00     0.026 A 
HETATM   16  H   UNL     1      -1.610   3.309 -30.734  1.00  0.00     0.189 HD
HETATM   17  C   UNL     1       0.523   5.101 -30.274  1.00  0.00     0.070 C 
HETATM   18  C   UNL     1      -1.460   6.429 -31.323  1.00  0.00     0.055 A 
ENDBRANCH  11  12
ENDBRANCH   8  11
ENDBRANCH   1   7
BRANCH   3  19
HETATM   19  C   UNL     1      -8.376   1.357 -32.068  1.00  0.00     0.252 C 
HETATM   20  N   UNL     1      -7.722   0.969 -33.219  1.00  0.00    -0.353 N 
HETATM   21  H   UNL     1      -7.259   1.646 -33.808  1.00  0.00     0.163 HD
HETATM   22  O   UNL     1      -9.143   0.607 -31.470  1.00  0.00    -0.268 OA
BRANCH  20  23
HETATM   23  C   UNL     1      -7.982  -0.336 -33.791  1.00  0.00     0.161 C 
BRANCH  23  24
HETATM   24  C   UNL     1      -6.746  -1.190 -33.922  1.00  0.00    -0.041 A 
HETATM   25  C   UNL     1      -6.767  -2.416 -34.603  1.00  0.00     0.009 A 
HETATM   26  C   UNL     1      -5.594  -3.155 -34.775  1.00  0.00     0.001 A 
HETATM   27  C   UNL     1      -4.384  -2.669 -34.286  1.00  0.00     0.000 A 
HETATM   28  C   UNL     1      -4.344  -1.444 -33.624  1.00  0.00     0.001 A 
HETATM   29  C   UNL     1      -5.517  -0.707 -33.445  1.00  0.00     0.009 A 
ENDBRANCH  23  24
ENDBRANCH  20  23
ENDBRANCH   3  19
TORSDOF 6
ENDMDL
