MODEL 1
REMARK VINA RESULT:      -9.6      0.000      0.000
REMARK  8 active torsions:
REMARK  status: ('A' for Active; 'I' for Inactive)
REMARK       I    between atoms: N_2  and  C_3 
REMARK    1  A    between atoms: N_2  and  C_29 
REMARK    2  A    between atoms: C_3  and  C_4 
REMARK    3  A    between atoms: C_7  and  C_8 
REMARK       I    between atoms: C_8  and  N_9 
REMARK    4  A    between atoms: N_9  and  C_10 
REMARK    5  A    between atoms: N_20  and  C_21 
REMARK    6  A    between atoms: C_21  and  C_22 
REMARK    7  A    between atoms: C_29  and  C_30 
REMARK    8  A    between atoms: C_30  and  C_31 
ROOT
HETATM    1  C   UNL     1      -4.402   2.852 -32.474  1.00  0.00     0.098 C 
HETATM    2  C   UNL     1      -5.841   3.183 -32.350  1.00  0.00     0.206 C 
HETATM    3  O   UNL     1      -6.529   2.752 -31.425  1.00  0.00    -0.286 OA
HETATM    4  C   UNL     1      -6.448   4.042 -33.408  1.00  0.00     0.098 C 
HETATM    5  C   UNL     1      -5.596   4.703 -34.213  1.00  0.00     0.111 C 
HETATM    6  N   UNL     1      -4.211   4.575 -34.171  1.00  0.00    -0.362 N 
HETATM    7  C   UNL     1      -3.684   3.600 -33.329  1.00  0.00     0.111 C 
ENDROOT
BRANCH   1   8
HETATM    8  C   UNL     1      -3.667   1.815 -31.714  1.00  0.00     0.258 C 
HETATM    9  N   UNL     1      -3.990   0.470 -31.889  1.00  0.00    -0.352 N 
HETATM   10  C   UNL     1      -3.120  -0.502 -31.239  1.00  0.00     0.152 C 
HETATM   11  O   UNL     1      -2.693   2.171 -31.045  1.00  0.00    -0.267 OA
BRANCH   9  12
HETATM   12  C   UNL     1      -5.268  -0.077 -32.379  1.00  0.00     0.131 C 
BRANCH  12  13
HETATM   13  C   UNL     1      -5.362  -0.352 -33.880  1.00  0.00     0.079 C 
BRANCH  13  14
HETATM   14  C   UNL     1      -5.475  -1.818 -34.196  1.00  0.00     0.035 A 
HETATM   15  N   UNL     1      -4.353  -2.563 -34.040  1.00  0.00    -0.266 NA
HETATM   16  C   UNL     1      -4.451  -3.887 -34.287  1.00  0.00     0.117 A 
HETATM   17  C   UNL     1      -5.620  -4.510 -34.689  1.00  0.00     0.019 A 
HETATM   18  C   UNL     1      -6.757  -3.729 -34.856  1.00  0.00     0.003 A 
HETATM   19  C   UNL     1      -6.686  -2.362 -34.610  1.00  0.00     0.027 A 
ENDBRANCH  13  14
ENDBRANCH  12  13
ENDBRANCH   9  12
ENDBRANCH   1   8
BRANCH   4  20
HETATM   20  C   UNL     1      -7.912   4.139 -33.662  1.00  0.00     0.257 C 
HETATM   21  N   UNL     1      -8.641   3.081 -33.179  1.00  0.00    -0.352 N 
HETATM   22  H   UNL     1      -8.181   2.437 -32.535  1.00  0.00     0.163 HD
HETATM   23  O   UNL     1      -8.398   5.058 -34.315  1.00  0.00    -0.267 OA
BRANCH  21  24
HETATM   24  C   UNL     1     -10.066   2.868 -33.440  1.00  0.00     0.084 C 
HETATM   25  C   UNL     1     -10.311   1.352 -33.411  1.00  0.00     0.025 C 
HETATM   26  C   UNL     1     -11.705   0.833 -33.757  1.00  0.00     0.002 C 
HETATM   27  C   UNL     1     -12.373   1.499 -34.959  1.00  0.00     0.000 C 
HETATM   28  C   UNL     1     -13.440   2.533 -34.594  1.00  0.00     0.000 C 
HETATM   29  C   UNL     1     -12.946   3.829 -33.949  1.00  0.00     0.000 C 
HETATM   30  C   UNL     1     -12.394   3.662 -32.533  1.00  0.00     0.002 C 
HETATM   31  C   UNL     1     -10.869   3.684 -32.422  1.00  0.00     0.025 C 
ENDBRANCH  21  24
ENDBRANCH   4  20
BRANCH   6  32
HETATM   32  C   UNL     1      -3.322   5.455 -34.965  1.00  0.00     0.159 C 
BRANCH  32  33
HETATM   33  C   UNL     1      -2.607   6.546 -34.152  1.00  0.00     0.139 C 
HETATM   34  O   UNL     1      -3.220   6.759 -32.865  1.00  0.00    -0.384 OA
HETATM   35  C   UNL     1      -2.193   7.244 -31.996  1.00  0.00     0.168 C 
HETATM   36  C   UNL     1      -0.947   6.502 -32.415  1.00  0.00     0.029 C 
HETATM   37  C   UNL     1      -1.114   6.343 -33.910  1.00  0.00     0.035 C 
ENDBRANCH  32  33
ENDBRANCH   6  32
TORSDOF 8
ENDMDL
MODEL 2
REMARK VINA RESULT:      -9.5      1.304      1.981
REMARK  8 active torsions:
REMARK  status: ('A' for Active; 'I' for Inactive)
REMARK       I    between atoms: N_2  and  C_3 
REMARK    1  A    between atoms: N_2  and  C_29 
REMARK    2  A    between atoms: C_3  and  C_4 
REMARK    3  A    between atoms: C_7  and  C_8 
REMARK       I    between atoms: C_8  and  N_9 
REMARK    4  A    between atoms: N_9  and  C_10 
REMARK    5  A    between atoms: N_20  and  C_21 
REMARK    6  A    between atoms: C_21  and  C_22 
REMARK    7  A    between atoms: C_29  and  C_30 
REMARK    8  A    between atoms: C_30  and  C_31 
ROOT
HETATM    1  C   UNL     1      -4.873   2.197 -31.689  1.00  0.00     0.098 C 
HETATM    2  C   UNL     1      -6.261   2.095 -31.182  1.00  0.00     0.206 C 
HETATM    3  O   UNL     1      -6.580   1.276 -30.320  1.00  0.00    -0.286 OA
HETATM    4  C   UNL     1      -7.283   3.006 -31.776  1.00  0.00     0.098 C 
HETATM    5  C   UNL     1      -6.822   4.050 -32.488  1.00  0.00     0.111 C 
HETATM    6  N   UNL     1      -5.479   4.284 -32.766  1.00  0.00    -0.362 N 
HETATM    7  C   UNL     1      -4.568   3.299 -32.394  1.00  0.00     0.111 C 
ENDROOT
BRANCH   1   8
HETATM    8  C   UNL     1      -3.776   1.230 -31.453  1.00  0.00     0.258 C 
HETATM    9  N   UNL     1      -3.866  -0.060 -31.976  1.00  0.00    -0.352 N 
HETATM   10  C   UNL     1      -2.683  -0.902 -31.848  1.00  0.00     0.152 C 
HETATM   11  O   UNL     1      -2.747   1.644 -30.912  1.00  0.00    -0.267 OA
BRANCH   9  12
HETATM   12  C   UNL     1      -5.098  -0.779 -32.351  1.00  0.00     0.131 C 
BRANCH  12  13
HETATM   13  C   UNL     1      -5.354  -0.956 -33.847  1.00  0.00     0.079 C 
BRANCH  13  14
HETATM   14  C   UNL     1      -5.471  -2.401 -34.249  1.00  0.00     0.035 A 
HETATM   15  N   UNL     1      -4.370  -3.172 -34.078  1.00  0.00    -0.266 NA
HETATM   16  C   UNL     1      -4.474  -4.478 -34.403  1.00  0.00     0.117 A 
HETATM   17  C   UNL     1      -5.630  -5.058 -34.899  1.00  0.00     0.019 A 
HETATM   18  C   UNL     1      -6.745  -4.249 -35.079  1.00  0.00     0.003 A 
HETATM   19  C   UNL     1      -6.667  -2.900 -34.755  1.00  0.00     0.027 A 
ENDBRANCH  13  14
ENDBRANCH  12  13
ENDBRANCH   9  12
ENDBRANCH   1   8
BRANCH   4  20
HETATM   20  C   UNL     1      -8.752   2.777 -31.689  1.00  0.00     0.257 C 
HETATM   21  N   UNL     1      -9.358   2.528 -32.895  1.00  0.00    -0.352 N 
HETATM   22  H   UNL     1      -8.762   2.325 -33.697  1.00  0.00     0.163 HD
HETATM   23  O   UNL     1      -9.363   2.880 -30.629  1.00  0.00    -0.267 OA
BRANCH  21  24
HETATM   24  C   UNL     1     -10.806   2.430 -33.090  1.00  0.00     0.084 C 
HETATM   25  C   UNL     1     -11.354   3.863 -33.152  1.00  0.00     0.025 C 
HETATM   26  C   UNL     1     -12.865   4.062 -33.249  1.00  0.00     0.002 C 
HETATM   27  C   UNL     1     -13.704   3.166 -32.339  1.00  0.00     0.000 C 
HETATM   28  C   UNL     1     -14.359   1.981 -33.050  1.00  0.00     0.000 C 
HETATM   29  C   UNL     1     -13.425   0.875 -33.544  1.00  0.00     0.000 C 
HETATM   30  C   UNL     1     -12.521   1.282 -34.707  1.00  0.00     0.002 C 
HETATM   31  C   UNL     1     -11.066   1.572 -34.333  1.00  0.00     0.025 C 
ENDBRANCH  21  24
ENDBRANCH   4  20
BRANCH   6  32
HETATM   32  C   UNL     1      -5.022   5.539 -33.407  1.00  0.00     0.159 C 
BRANCH  32  33
HETATM   33  C   UNL     1      -3.519   5.823 -33.260  1.00  0.00     0.139 C 
HETATM   34  O   UNL     1      -2.969   6.474 -34.422  1.00  0.00    -0.384 OA
HETATM   35  C   UNL     1      -1.847   7.239 -33.973  1.00  0.00     0.168 C 
HETATM   36  C   UNL     1      -2.250   7.760 -32.615  1.00  0.00     0.029 C 
HETATM   37  C   UNL     1      -3.099   6.645 -32.045  1.00  0.00     0.035 C 
ENDBRANCH  32  33
ENDBRANCH   6  32
TORSDOF 8
ENDMDL
MODEL 3
REMARK VINA RESULT:      -9.2      1.845      6.294
REMARK  8 active torsions:
REMARK  status: ('A' for Active; 'I' for Inactive)
REMARK       I    between atoms: N_2  and  C_3 
REMARK    1  A    between atoms: N_2  and  C_29 
REMARK    2  A    between atoms: C_3  and  C_4 
REMARK    3  A    between atoms: C_7  and  C_8 
REMARK       I    between atoms: C_8  and  N_9 
REMARK    4  A    between atoms: N_9  and  C_10 
REMARK    5  A    between atoms: N_20  and  C_21 
REMARK    6  A    between atoms: C_21  and  C_22 
REMARK    7  A    between atoms: C_29  and  C_30 
REMARK    8  A    between atoms: C_30  and  C_31 
ROOT
HETATM    1  C   UNL     1      -6.041   3.970 -32.884  1.00  0.00     0.098 C 
HETATM    2  C   UNL     1      -5.956   2.535 -33.246  1.00  0.00     0.206 C 
HETATM    3  O   UNL     1      -6.764   2.009 -34.011  1.00  0.00    -0.286 OA
HETATM    4  C   UNL     1      -4.864   1.728 -32.627  1.00  0.00     0.098 C 
HETATM    5  C   UNL     1      -3.863   2.412 -32.041  1.00  0.00     0.111 C 
HETATM    6  N   UNL     1      -3.825   3.797 -31.912  1.00  0.00    -0.362 N 
HETATM    7  C   UNL     1      -4.959   4.508 -32.295  1.00  0.00     0.111 C 
ENDROOT
BRANCH   1   8
HETATM    8  C   UNL     1      -7.178   4.880 -33.151  1.00  0.00     0.258 C 
HETATM    9  N   UNL     1      -8.013   5.269 -32.105  1.00  0.00    -0.352 N 
HETATM   10  C   UNL     1      -9.007   6.292 -32.406  1.00  0.00     0.152 C 
HETATM   11  O   UNL     1      -7.269   5.375 -34.278  1.00  0.00    -0.267 OA
BRANCH   9  12
HETATM   12  C   UNL     1      -8.227   4.558 -30.831  1.00  0.00     0.131 C 
BRANCH  12  13
HETATM   13  C   UNL     1      -9.549   3.803 -30.686  1.00  0.00     0.079 C 
BRANCH  13  14
HETATM   14  C   UNL     1      -9.616   2.577 -31.553  1.00  0.00     0.035 A 
HETATM   15  N   UNL     1     -10.402   2.652 -32.655  1.00  0.00    -0.266 NA
HETATM   16  C   UNL     1     -10.443   1.569 -33.460  1.00  0.00     0.117 A 
HETATM   17  C   UNL     1      -9.737   0.403 -33.217  1.00  0.00     0.019 A 
HETATM   18  C   UNL     1      -8.946   0.339 -32.077  1.00  0.00     0.003 A 
HETATM   19  C   UNL     1      -8.886   1.438 -31.228  1.00  0.00     0.027 A 
ENDBRANCH  13  14
ENDBRANCH  12  13
ENDBRANCH   9  12
ENDBRANCH   1   8
BRANCH   4  20
HETATM   20  C   UNL     1      -4.867   0.241 -32.556  1.00  0.00     0.257 C 
HETATM   21  N   UNL     1      -4.763  -0.384 -33.773  1.00  0.00    -0.352 N 
HETATM   22  H   UNL     1      -4.499   0.182 -34.580  1.00  0.00     0.163 HD
HETATM   23  O   UNL     1      -5.025  -0.357 -31.495  1.00  0.00    -0.267 OA
BRANCH  21  24
HETATM   24  C   UNL     1      -4.903  -1.827 -33.980  1.00  0.00     0.084 C 
HETATM   25  C   UNL     1      -4.050  -2.523 -32.909  1.00  0.00     0.025 C 
HETATM   26  C   UNL     1      -3.928  -4.045 -32.952  1.00  0.00     0.002 C 
HETATM   27  C   UNL     1      -3.710  -4.646 -34.339  1.00  0.00     0.000 C 
HETATM   28  C   UNL     1      -4.960  -5.271 -34.959  1.00  0.00     0.000 C 
HETATM   29  C   UNL     1      -6.073  -4.308 -35.377  1.00  0.00     0.000 C 
HETATM   30  C   UNL     1      -6.793  -3.628 -34.213  1.00  0.00     0.002 C 
HETATM   31  C   UNL     1      -6.395  -2.173 -33.960  1.00  0.00     0.025 C 
ENDBRANCH  21  24
ENDBRANCH   4  20
BRANCH   6  32
HETATM   32  C   UNL     1      -2.620   4.501 -31.412  1.00  0.00     0.159 C 
BRANCH  32  33
HETATM   33  C   UNL     1      -1.567   4.809 -32.487  1.00  0.00     0.139 C 
HETATM   34  O   UNL     1      -2.049   4.542 -33.819  1.00  0.00    -0.384 OA
HETATM   35  C   UNL     1      -1.332   5.413 -34.698  1.00  0.00     0.168 C 
HETATM   36  C   UNL     1      -1.159   6.695 -33.921  1.00  0.00     0.029 C 
HETATM   37  C   UNL     1      -0.996   6.225 -32.492  1.00  0.00     0.035 C 
ENDBRANCH  32  33
ENDBRANCH   6  32
TORSDOF 8
ENDMDL
MODEL 4
REMARK VINA RESULT:      -9.1      2.519      6.617
REMARK  8 active torsions:
REMARK  status: ('A' for Active; 'I' for Inactive)
REMARK       I    between atoms: N_2  and  C_3 
REMARK    1  A    between atoms: N_2  and  C_29 
REMARK    2  A    between atoms: C_3  and  C_4 
REMARK    3  A    between atoms: C_7  and  C_8 
REMARK       I    between atoms: C_8  and  N_9 
REMARK    4  A    between atoms: N_9  and  C_10 
REMARK    5  A    between atoms: N_20  and  C_21 
REMARK    6  A    between atoms: C_21  and  C_22 
REMARK    7  A    between atoms: C_29  and  C_30 
REMARK    8  A    between atoms: C_30  and  C_31 
ROOT
HETATM    1  C   UNL     1      -5.904   2.183 -33.109  1.00  0.00     0.098 C 
HETATM    2  C   UNL     1      -7.358   2.146 -33.393  1.00  0.00     0.206 C 
HETATM    3  O   UNL     1      -7.985   3.158 -33.702  1.00  0.00    -0.286 OA
HETATM    4  C   UNL     1      -8.056   0.833 -33.262  1.00  0.00     0.098 C 
HETATM    5  C   UNL     1      -7.277  -0.263 -33.205  1.00  0.00     0.111 C 
HETATM    6  N   UNL     1      -5.886  -0.242 -33.181  1.00  0.00    -0.362 N 
HETATM    7  C   UNL     1      -5.267   1.001 -33.075  1.00  0.00     0.111 C 
ENDROOT
BRANCH   1   8
HETATM    8  C   UNL     1      -5.077   3.395 -32.908  1.00  0.00     0.258 C 
HETATM    9  N   UNL     1      -4.613   3.712 -31.632  1.00  0.00    -0.352 N 
HETATM   10  C   UNL     1      -3.671   4.820 -31.534  1.00  0.00     0.152 C 
HETATM   11  O   UNL     1      -4.708   4.015 -33.909  1.00  0.00    -0.267 OA
BRANCH   9  12
HETATM   12  C   UNL     1      -5.193   3.281 -30.347  1.00  0.00     0.131 C 
BRANCH  12  13
HETATM   13  C   UNL     1      -5.931   4.349 -29.539  1.00  0.00     0.079 C 
BRANCH  13  14
HETATM   14  C   UNL     1      -7.409   4.368 -29.815  1.00  0.00     0.035 A 
HETATM   15  N   UNL     1      -8.025   5.574 -29.755  1.00  0.00    -0.266 NA
HETATM   16  C   UNL     1      -9.345   5.608 -30.036  1.00  0.00     0.117 A 
HETATM   17  C   UNL     1     -10.090   4.490 -30.372  1.00  0.00     0.019 A 
HETATM   18  C   UNL     1      -9.444   3.261 -30.416  1.00  0.00     0.003 A 
HETATM   19  C   UNL     1      -8.086   3.193 -30.131  1.00  0.00     0.027 A 
ENDBRANCH  13  14
ENDBRANCH  12  13
ENDBRANCH   9  12
ENDBRANCH   1   8
BRANCH   4  20
HETATM   20  C   UNL     1      -9.530   0.686 -33.115  1.00  0.00     0.257 C 
HETATM   21  N   UNL     1     -10.257   1.735 -33.621  1.00  0.00    -0.352 N 
HETATM   22  H   UNL     1      -9.773   2.409 -34.215  1.00  0.00     0.163 HD
HETATM   23  O   UNL     1     -10.031  -0.265 -32.522  1.00  0.00    -0.267 OA
BRANCH  21  24
HETATM   24  C   UNL     1     -11.702   1.899 -33.457  1.00  0.00     0.084 C 
HETATM   25  C   UNL     1     -11.969   3.397 -33.249  1.00  0.00     0.025 C 
HETATM   26  C   UNL     1     -13.396   3.848 -32.947  1.00  0.00     0.002 C 
HETATM   27  C   UNL     1     -14.156   2.985 -31.940  1.00  0.00     0.000 C 
HETATM   28  C   UNL     1     -15.169   2.028 -32.569  1.00  0.00     0.000 C 
HETATM   29  C   UNL     1     -14.600   0.861 -33.379  1.00  0.00     0.000 C 
HETATM   30  C   UNL     1     -13.928   1.269 -34.690  1.00  0.00     0.002 C 
HETATM   31  C   UNL     1     -12.399   1.268 -34.667  1.00  0.00     0.025 C 
ENDBRANCH  21  24
ENDBRANCH   4  20
BRANCH   6  32
HETATM   32  C   UNL     1      -5.085  -1.484 -33.291  1.00  0.00     0.159 C 
BRANCH  32  33
HETATM   33  C   UNL     1      -5.453  -2.380 -34.484  1.00  0.00     0.139 C 
HETATM   34  O   UNL     1      -4.641  -3.569 -34.546  1.00  0.00    -0.384 OA
HETATM   35  C   UNL     1      -5.423  -4.568 -35.205  1.00  0.00     0.168 C 
HETATM   36  C   UNL     1      -6.836  -4.329 -34.733  1.00  0.00     0.029 C 
HETATM   37  C   UNL     1      -6.909  -2.827 -34.574  1.00  0.00     0.035 C 
ENDBRANCH  32  33
ENDBRANCH   6  32
TORSDOF 8
ENDMDL
MODEL 5
REMARK VINA RESULT:      -9.0      2.020      6.873
REMARK  8 active torsions:
REMARK  status: ('A' for Active; 'I' for Inactive)
REMARK       I    between atoms: N_2  and  C_3 
REMARK    1  A    between atoms: N_2  and  C_29 
REMARK    2  A    between atoms: C_3  and  C_4 
REMARK    3  A    between atoms: C_7  and  C_8 
REMARK       I    between atoms: C_8  and  N_9 
REMARK    4  A    between atoms: N_9  and  C_10 
REMARK    5  A    between atoms: N_20  and  C_21 
REMARK    6  A    between atoms: C_21  and  C_22 
REMARK    7  A    between atoms: C_29  and  C_30 
REMARK    8  A    between atoms: C_30  and  C_31 
ROOT
HETATM    1  C   UNL     1      -8.016   4.035 -33.825  1.00  0.00     0.098 C 
HETATM    2  C   UNL     1      -7.675   2.605 -34.004  1.00  0.00     0.206 C 
HETATM    3  O   UNL     1      -8.408   1.835 -34.623  1.00  0.00    -0.286 OA
HETATM    4  C   UNL     1      -6.413   2.110 -33.379  1.00  0.00     0.098 C 
HETATM    5  C   UNL     1      -5.533   3.043 -32.973  1.00  0.00     0.111 C 
HETATM    6  N   UNL     1      -5.757   4.416 -33.028  1.00  0.00    -0.362 N 
HETATM    7  C   UNL     1      -7.028   4.843 -33.404  1.00  0.00     0.111 C 
ENDROOT
BRANCH   1   8
HETATM    8  C   UNL     1      -9.322   4.672 -34.112  1.00  0.00     0.258 C 
HETATM    9  N   UNL     1     -10.378   4.522 -33.213  1.00  0.00    -0.352 N 
HETATM   10  C   UNL     1     -11.577   5.308 -33.473  1.00  0.00     0.152 C 
HETATM   11  O   UNL     1      -9.393   5.435 -35.079  1.00  0.00    -0.267 OA
BRANCH   9  12
HETATM   12  C   UNL     1     -10.552   3.441 -32.225  1.00  0.00     0.131 C 
BRANCH  12  13
HETATM   13  C   UNL     1     -10.449   3.840 -30.753  1.00  0.00     0.079 C 
BRANCH  13  14
HETATM   14  C   UNL     1      -9.036   4.128 -30.326  1.00  0.00     0.035 A 
HETATM   15  N   UNL     1      -8.717   5.427 -30.111  1.00  0.00    -0.266 NA
HETATM   16  C   UNL     1      -7.461   5.694 -29.693  1.00  0.00     0.117 A 
HETATM   17  C   UNL     1      -6.497   4.723 -29.483  1.00  0.00     0.019 A 
HETATM   18  C   UNL     1      -6.838   3.397 -29.721  1.00  0.00     0.003 A 
HETATM   19  C   UNL     1      -8.124   3.091 -30.153  1.00  0.00     0.027 A 
ENDBRANCH  13  14
ENDBRANCH  12  13
ENDBRANCH   9  12
ENDBRANCH   1   8
BRANCH   4  20
HETATM   20  C   UNL     1      -6.123   0.674 -33.115  1.00  0.00     0.257 C 
HETATM   21  N   UNL     1      -5.784  -0.049 -34.232  1.00  0.00    -0.352 N 
HETATM   22  H   UNL     1      -5.566   0.465 -35.086  1.00  0.00     0.163 HD
HETATM   23  O   UNL     1      -6.255   0.180 -31.999  1.00  0.00    -0.267 OA
BRANCH  21  24
HETATM   24  C   UNL     1      -5.611  -1.503 -34.258  1.00  0.00     0.084 C 
HETATM   25  C   UNL     1      -4.601  -1.859 -33.157  1.00  0.00     0.025 C 
HETATM   26  C   UNL     1      -4.151  -3.312 -33.025  1.00  0.00     0.002 C 
HETATM   27  C   UNL     1      -3.841  -4.025 -34.340  1.00  0.00     0.000 C 
HETATM   28  C   UNL     1      -4.940  -4.976 -34.817  1.00  0.00     0.000 C 
HETATM   29  C   UNL     1      -6.246  -4.333 -35.288  1.00  0.00     0.000 C 
HETATM   30  C   UNL     1      -7.068  -3.680 -34.178  1.00  0.00     0.002 C 
HETATM   31  C   UNL     1      -6.991  -2.154 -34.121  1.00  0.00     0.025 C 
ENDBRANCH  21  24
ENDBRANCH   4  20
BRANCH   6  32
HETATM   32  C   UNL     1      -4.685   5.394 -32.726  1.00  0.00     0.159 C 
BRANCH  32  33
HETATM   33  C   UNL     1      -3.441   5.277 -33.621  1.00  0.00     0.139 C 
HETATM   34  O   UNL     1      -2.956   6.563 -34.055  1.00  0.00    -0.384 OA
HETATM   35  C   UNL     1      -1.553   6.417 -34.286  1.00  0.00     0.168 C 
HETATM   36  C   UNL     1      -1.080   5.464 -33.216  1.00  0.00     0.029 C 
HETATM   37  C   UNL     1      -2.251   4.523 -33.034  1.00  0.00     0.035 C 
ENDBRANCH  32  33
ENDBRANCH   6  32
TORSDOF 8
ENDMDL
MODEL 6
REMARK VINA RESULT:      -8.9      2.268      8.400
REMARK  8 active torsions:
REMARK  status: ('A' for Active; 'I' for Inactive)
REMARK       I    between atoms: N_2  and  C_3 
REMARK    1  A    between atoms: N_2  and  C_29 
REMARK    2  A    between atoms: C_3  and  C_4 
REMARK    3  A    between atoms: C_7  and  C_8 
REMARK       I    between atoms: C_8  and  N_9 
REMARK    4  A    between atoms: N_9  and  C_10 
REMARK    5  A    between atoms: N_20  and  C_21 
REMARK    6  A    between atoms: C_21  and  C_22 
REMARK    7  A    between atoms: C_29  and  C_30 
REMARK    8  A    between atoms: C_30  and  C_31 
ROOT
HETATM    1  C   UNL     1      -9.259   3.207 -34.158  1.00  0.00     0.098 C 
HETATM    2  C   UNL     1      -8.128   4.096 -33.804  1.00  0.00     0.206 C 
HETATM    3  O   UNL     1      -8.293   5.292 -33.566  1.00  0.00    -0.286 OA
HETATM    4  C   UNL     1      -6.761   3.499 -33.772  1.00  0.00     0.098 C 
HETATM    5  C   UNL     1      -6.688   2.155 -33.758  1.00  0.00     0.111 C 
HETATM    6  N   UNL     1      -7.785   1.305 -33.849  1.00  0.00    -0.362 N 
HETATM    7  C   UNL     1      -9.025   1.884 -34.105  1.00  0.00     0.111 C 
ENDROOT
BRANCH   1   8
HETATM    8  C   UNL     1     -10.633   3.628 -34.515  1.00  0.00     0.258 C 
HETATM    9  N   UNL     1     -11.563   3.884 -33.508  1.00  0.00    -0.352 N 
HETATM   10  C   UNL     1     -12.839   4.452 -33.924  1.00  0.00     0.152 C 
HETATM   11  O   UNL     1     -10.872   3.872 -35.701  1.00  0.00    -0.267 OA
BRANCH   9  12
HETATM   12  C   UNL     1     -11.540   3.362 -32.129  1.00  0.00     0.131 C 
BRANCH  12  13
HETATM   13  C   UNL     1     -11.181   4.359 -31.028  1.00  0.00     0.079 C 
BRANCH  13  14
HETATM   14  C   UNL     1      -9.752   4.237 -30.576  1.00  0.00     0.035 A 
HETATM   15  N   UNL     1      -9.210   2.995 -30.601  1.00  0.00    -0.266 NA
HETATM   16  C   UNL     1      -7.917   2.878 -30.230  1.00  0.00     0.117 A 
HETATM   17  C   UNL     1      -7.131   3.946 -29.829  1.00  0.00     0.019 A 
HETATM   18  C   UNL     1      -7.708   5.210 -29.799  1.00  0.00     0.003 A 
HETATM   19  C   UNL     1      -9.038   5.361 -30.173  1.00  0.00     0.027 A 
ENDBRANCH  13  14
ENDBRANCH  12  13
ENDBRANCH   9  12
ENDBRANCH   1   8
BRANCH   4  20
HETATM   20  C   UNL     1      -5.504   4.295 -33.835  1.00  0.00     0.257 C 
HETATM   21  N   UNL     1      -4.862   4.434 -32.630  1.00  0.00    -0.352 N 
HETATM   22  H   UNL     1      -5.165   3.843 -31.856  1.00  0.00     0.163 HD
HETATM   23  O   UNL     1      -5.129   4.835 -34.872  1.00  0.00    -0.267 OA
BRANCH  21  24
HETATM   24  C   UNL     1      -3.702   5.299 -32.403  1.00  0.00     0.084 C 
HETATM   25  C   UNL     1      -3.798   5.818 -30.962  1.00  0.00     0.025 C 
HETATM   26  C   UNL     1      -2.762   6.833 -30.483  1.00  0.00     0.002 C 
HETATM   27  C   UNL     1      -2.431   7.948 -31.474  1.00  0.00     0.000 C 
HETATM   28  C   UNL     1      -1.107   7.759 -32.216  1.00  0.00     0.000 C 
HETATM   29  C   UNL     1      -1.048   6.619 -33.234  1.00  0.00     0.000 C 
HETATM   30  C   UNL     1      -1.091   5.219 -32.622  1.00  0.00     0.002 C 
HETATM   31  C   UNL     1      -2.436   4.500 -32.732  1.00  0.00     0.025 C 
ENDBRANCH  21  24
ENDBRANCH   4  20
BRANCH   6  32
HETATM   32  C   UNL     1      -7.656  -0.159 -33.656  1.00  0.00     0.159 C 
BRANCH  32  33
HETATM   33  C   UNL     1      -6.400  -0.780 -34.289  1.00  0.00     0.139 C 
HETATM   34  O   UNL     1      -5.355  -1.004 -33.322  1.00  0.00    -0.384 OA
HETATM   35  C   UNL     1      -4.572  -2.097 -33.809  1.00  0.00     0.168 C 
HETATM   36  C   UNL     1      -5.566  -3.027 -34.461  1.00  0.00     0.029 C 
HETATM   37  C   UNL     1      -6.599  -2.090 -35.046  1.00  0.00     0.035 C 
ENDBRANCH  32  33
ENDBRANCH   6  32
TORSDOF 8
ENDMDL
MODEL 7
REMARK VINA RESULT:      -8.9      2.160      6.551
REMARK  8 active torsions:
REMARK  status: ('A' for Active; 'I' for Inactive)
REMARK       I    between atoms: N_2  and  C_3 
REMARK    1  A    between atoms: N_2  and  C_29 
REMARK    2  A    between atoms: C_3  and  C_4 
REMARK    3  A    between atoms: C_7  and  C_8 
REMARK       I    between atoms: C_8  and  N_9 
REMARK    4  A    between atoms: N_9  and  C_10 
REMARK    5  A    between atoms: N_20  and  C_21 
REMARK    6  A    between atoms: C_21  and  C_22 
REMARK    7  A    between atoms: C_29  and  C_30 
REMARK    8  A    between atoms: C_30  and  C_31 
ROOT
HETATM    1  C   UNL     1      -6.035   2.673 -31.196  1.00  0.00     0.098 C 
HETATM    2  C   UNL     1      -7.382   2.594 -31.806  1.00  0.00     0.206 C 
HETATM    3  O   UNL     1      -8.070   3.597 -31.994  1.00  0.00    -0.286 OA
HETATM    4  C   UNL     1      -7.901   1.242 -32.166  1.00  0.00     0.098 C 
HETATM    5  C   UNL     1      -7.005   0.239 -32.202  1.00  0.00     0.111 C 
HETATM    6  N   UNL     1      -5.663   0.368 -31.855  1.00  0.00    -0.362 N 
HETATM    7  C   UNL     1      -5.257   1.582 -31.308  1.00  0.00     0.111 C 
ENDROOT
BRANCH   1   8
HETATM    8  C   UNL     1      -5.442   3.849 -30.519  1.00  0.00     0.258 C 
HETATM    9  N   UNL     1      -4.775   4.817 -31.270  1.00  0.00    -0.352 N 
HETATM   10  C   UNL     1      -4.364   6.024 -30.565  1.00  0.00     0.152 C 
HETATM   11  O   UNL     1      -5.676   4.003 -29.317  1.00  0.00    -0.267 OA
BRANCH   9  12
HETATM   12  C   UNL     1      -4.160   4.638 -32.598  1.00  0.00     0.131 C 
BRANCH  12  13
HETATM   13  C   UNL     1      -2.785   3.973 -32.628  1.00  0.00     0.079 C 
BRANCH  13  14
HETATM   14  C   UNL     1      -1.689   4.881 -32.143  1.00  0.00     0.035 A 
HETATM   15  N   UNL     1      -1.010   4.481 -31.040  1.00  0.00    -0.266 NA
HETATM   16  C   UNL     1      -0.001   5.271 -30.616  1.00  0.00     0.117 A 
HETATM   17  C   UNL     1       0.366   6.452 -31.238  1.00  0.00     0.019 A 
HETATM   18  C   UNL     1      -0.350   6.853 -32.360  1.00  0.00     0.003 A 
HETATM   19  C   UNL     1      -1.395   6.061 -32.819  1.00  0.00     0.027 A 
ENDBRANCH  13  14
ENDBRANCH  12  13
ENDBRANCH   9  12
ENDBRANCH   1   8
BRANCH   4  20
HETATM   20  C   UNL     1      -9.340   0.939 -32.402  1.00  0.00     0.257 C 
HETATM   21  N   UNL     1     -10.049   1.969 -32.967  1.00  0.00    -0.352 N 
HETATM   22  H   UNL     1      -9.526   2.755 -33.354  1.00  0.00     0.163 HD
HETATM   23  O   UNL     1      -9.847  -0.121 -32.046  1.00  0.00    -0.267 OA
BRANCH  21  24
HETATM   24  C   UNL     1     -11.502   1.974 -33.149  1.00  0.00     0.084 C 
HETATM   25  C   UNL     1     -11.992   3.398 -32.849  1.00  0.00     0.025 C 
HETATM   26  C   UNL     1     -13.495   3.669 -32.862  1.00  0.00     0.002 C 
HETATM   27  C   UNL     1     -14.358   2.610 -32.178  1.00  0.00     0.000 C 
HETATM   28  C   UNL     1     -15.070   1.658 -33.141  1.00  0.00     0.000 C 
HETATM   29  C   UNL     1     -14.187   0.672 -33.908  1.00  0.00     0.000 C 
HETATM   30  C   UNL     1     -13.282   1.316 -34.958  1.00  0.00     0.002 C 
HETATM   31  C   UNL     1     -11.813   1.454 -34.557  1.00  0.00     0.025 C 
ENDBRANCH  21  24
ENDBRANCH   4  20
BRANCH   6  32
HETATM   32  C   UNL     1      -4.691  -0.727 -32.079  1.00  0.00     0.159 C 
BRANCH  32  33
HETATM   33  C   UNL     1      -4.593  -1.210 -33.535  1.00  0.00     0.139 C 
HETATM   34  O   UNL     1      -3.991  -2.515 -33.640  1.00  0.00    -0.384 OA
HETATM   35  C   UNL     1      -4.512  -3.114 -34.829  1.00  0.00     0.168 C 
HETATM   36  C   UNL     1      -5.947  -2.651 -34.901  1.00  0.00     0.029 C 
HETATM   37  C   UNL     1      -5.899  -1.253 -34.325  1.00  0.00     0.035 C 
ENDBRANCH  32  33
ENDBRANCH   6  32
TORSDOF 8
ENDMDL
MODEL 8
REMARK VINA RESULT:      -8.8      2.551      6.556
REMARK  8 active torsions:
REMARK  status: ('A' for Active; 'I' for Inactive)
REMARK       I    between atoms: N_2  and  C_3 
REMARK    1  A    between atoms: N_2  and  C_29 
REMARK    2  A    between atoms: C_3  and  C_4 
REMARK    3  A    between atoms: C_7  and  C_8 
REMARK       I    between atoms: C_8  and  N_9 
REMARK    4  A    between atoms: N_9  and  C_10 
REMARK    5  A    between atoms: N_20  and  C_21 
REMARK    6  A    between atoms: C_21  and  C_22 
REMARK    7  A    between atoms: C_29  and  C_30 
REMARK    8  A    between atoms: C_30  and  C_31 
ROOT
HETATM    1  C   UNL     1      -3.585   3.562 -31.212  1.00  0.00     0.098 C 
HETATM    2  C   UNL     1      -3.735   2.093 -31.330  1.00  0.00     0.206 C 
HETATM    3  O   UNL     1      -2.794   1.367 -31.647  1.00  0.00    -0.286 OA
HETATM    4  C   UNL     1      -5.087   1.513 -31.078  1.00  0.00     0.098 C 
HETATM    5  C   UNL     1      -5.983   2.309 -30.466  1.00  0.00     0.111 C 
HETATM    6  N   UNL     1      -5.756   3.641 -30.132  1.00  0.00    -0.362 N 
HETATM    7  C   UNL     1      -4.572   4.220 -30.581  1.00  0.00     0.111 C 
ENDROOT
BRANCH   1   8
HETATM    8  C   UNL     1      -2.433   4.370 -31.676  1.00  0.00     0.258 C 
HETATM    9  N   UNL     1      -2.529   5.091 -32.865  1.00  0.00    -0.352 N 
HETATM   10  C   UNL     1      -1.425   5.991 -33.175  1.00  0.00     0.152 C 
HETATM   11  O   UNL     1      -1.467   4.487 -30.917  1.00  0.00    -0.267 OA
BRANCH   9  12
HETATM   12  C   UNL     1      -3.441   4.824 -33.992  1.00  0.00     0.131 C 
BRANCH  12  13
HETATM   13  C   UNL     1      -4.771   5.577 -33.986  1.00  0.00     0.079 C 
BRANCH  13  14
HETATM   14  C   UNL     1      -5.952   4.669 -33.778  1.00  0.00     0.035 A 
HETATM   15  N   UNL     1      -7.047   5.218 -33.198  1.00  0.00    -0.266 NA
HETATM   16  C   UNL     1      -8.126   4.421 -33.039  1.00  0.00     0.117 A 
HETATM   17  C   UNL     1      -8.166   3.093 -33.427  1.00  0.00     0.019 A 
HETATM   18  C   UNL     1      -7.029   2.544 -34.008  1.00  0.00     0.003 A 
HETATM   19  C   UNL     1      -5.903   3.339 -34.184  1.00  0.00     0.027 A 
ENDBRANCH  13  14
ENDBRANCH  12  13
ENDBRANCH   9  12
ENDBRANCH   1   8
BRANCH   4  20
HETATM   20  C   UNL     1      -5.508   0.158 -31.531  1.00  0.00     0.257 C 
HETATM   21  N   UNL     1      -4.843  -0.299 -32.641  1.00  0.00    -0.352 N 
HETATM   22  H   UNL     1      -4.009   0.206 -32.941  1.00  0.00     0.163 HD
HETATM   23  O   UNL     1      -6.426  -0.451 -30.988  1.00  0.00    -0.267 OA
BRANCH  21  24
HETATM   24  C   UNL     1      -5.186  -1.524 -33.367  1.00  0.00     0.084 C 
HETATM   25  C   UNL     1      -6.276  -1.158 -34.384  1.00  0.00     0.025 C 
HETATM   26  C   UNL     1      -6.900  -2.276 -35.217  1.00  0.00     0.002 C 
HETATM   27  C   UNL     1      -7.237  -3.555 -34.450  1.00  0.00     0.000 C 
HETATM   28  C   UNL     1      -6.239  -4.695 -34.656  1.00  0.00     0.000 C 
HETATM   29  C   UNL     1      -4.847  -4.507 -34.048  1.00  0.00     0.000 C 
HETATM   30  C   UNL     1      -4.001  -3.428 -34.724  1.00  0.00     0.002 C 
HETATM   31  C   UNL     1      -3.900  -2.106 -33.961  1.00  0.00     0.025 C 
ENDBRANCH  21  24
ENDBRANCH   4  20
BRANCH   6  32
HETATM   32  C   UNL     1      -6.716   4.413 -29.309  1.00  0.00     0.159 C 
BRANCH  32  33
HETATM   33  C   UNL     1      -6.605   5.939 -29.458  1.00  0.00     0.139 C 
HETATM   34  O   UNL     1      -7.786   6.518 -30.047  1.00  0.00    -0.384 OA
HETATM   35  C   UNL     1      -7.869   7.862 -29.565  1.00  0.00     0.168 C 
HETATM   36  C   UNL     1      -7.374   7.796 -28.141  1.00  0.00     0.029 C 
HETATM   37  C   UNL     1      -6.307   6.725 -28.185  1.00  0.00     0.035 C 
ENDBRANCH  32  33
ENDBRANCH   6  32
TORSDOF 8
ENDMDL
MODEL 9
REMARK VINA RESULT:      -8.8      1.833      2.998
REMARK  8 active torsions:
REMARK  status: ('A' for Active; 'I' for Inactive)
REMARK       I    between atoms: N_2  and  C_3 
REMARK    1  A    between atoms: N_2  and  C_29 
REMARK    2  A    between atoms: C_3  and  C_4 
REMARK    3  A    between atoms: C_7  and  C_8 
REMARK       I    between atoms: C_8  and  N_9 
REMARK    4  A    between atoms: N_9  and  C_10 
REMARK    5  A    between atoms: N_20  and  C_21 
REMARK    6  A    between atoms: C_21  and  C_22 
REMARK    7  A    between atoms: C_29  and  C_30 
REMARK    8  A    between atoms: C_30  and  C_31 
ROOT
HETATM    1  C   UNL     1      -4.404   1.666 -31.988  1.00  0.00     0.098 C 
HETATM    2  C   UNL     1      -5.715   2.357 -31.976  1.00  0.00     0.206 C 
HETATM    3  O   UNL     1      -6.704   1.864 -31.437  1.00  0.00    -0.286 OA
HETATM    4  C   UNL     1      -5.809   3.675 -32.671  1.00  0.00     0.098 C 
HETATM    5  C   UNL     1      -4.648   4.279 -32.982  1.00  0.00     0.111 C 
HETATM    6  N   UNL     1      -3.389   3.726 -32.770  1.00  0.00    -0.362 N 
HETATM    7  C   UNL     1      -3.336   2.406 -32.331  1.00  0.00     0.111 C 
ENDROOT
BRANCH   1   8
HETATM    8  C   UNL     1      -4.148   0.256 -31.613  1.00  0.00     0.258 C 
HETATM    9  N   UNL     1      -4.226  -0.743 -32.583  1.00  0.00    -0.352 N 
HETATM   10  C   UNL     1      -3.801  -2.078 -32.182  1.00  0.00     0.152 C 
HETATM   11  O   UNL     1      -3.738   0.028 -30.472  1.00  0.00    -0.267 OA
BRANCH   9  12
HETATM   12  C   UNL     1      -4.974  -0.688 -33.852  1.00  0.00     0.131 C 
BRANCH  12  13
HETATM   13  C   UNL     1      -6.308  -1.435 -33.889  1.00  0.00     0.079 C 
BRANCH  13  14
HETATM   14  C   UNL     1      -7.493  -0.510 -33.843  1.00  0.00     0.035 A 
HETATM   15  N   UNL     1      -8.454  -0.796 -32.931  1.00  0.00    -0.266 NA
HETATM   16  C   UNL     1      -9.505   0.048 -32.858  1.00  0.00     0.117 A 
HETATM   17  C   UNL     1      -9.651   1.169 -33.657  1.00  0.00     0.019 A 
HETATM   18  C   UNL     1      -8.662   1.438 -34.595  1.00  0.00     0.003 A 
HETATM   19  C   UNL     1      -7.568   0.587 -34.696  1.00  0.00     0.027 A 
ENDBRANCH  13  14
ENDBRANCH  12  13
ENDBRANCH   9  12
ENDBRANCH   1   8
BRANCH   4  20
HETATM   20  C   UNL     1      -7.092   4.299 -33.098  1.00  0.00     0.257 C 
HETATM   21  N   UNL     1      -8.097   4.220 -32.167  1.00  0.00    -0.352 N 
HETATM   22  H   UNL     1      -7.849   3.936 -31.219  1.00  0.00     0.163 HD
HETATM   23  O   UNL     1      -7.240   4.774 -34.221  1.00  0.00    -0.267 OA
BRANCH  21  24
HETATM   24  C   UNL     1      -9.486   4.615 -32.410  1.00  0.00     0.084 C 
HETATM   25  C   UNL     1     -10.347   3.929 -31.340  1.00  0.00     0.025 C 
HETATM   26  C   UNL     1     -11.864   4.085 -31.416  1.00  0.00     0.002 C 
HETATM   27  C   UNL     1     -12.468   3.947 -32.813  1.00  0.00     0.000 C 
HETATM   28  C   UNL     1     -12.842   5.275 -33.472  1.00  0.00     0.000 C 
HETATM   29  C   UNL     1     -11.684   6.183 -33.890  1.00  0.00     0.000 C 
HETATM   30  C   UNL     1     -10.907   6.796 -32.724  1.00  0.00     0.002 C 
HETATM   31  C   UNL     1      -9.554   6.146 -32.429  1.00  0.00     0.025 C 
ENDBRANCH  21  24
ENDBRANCH   4  20
BRANCH   6  32
HETATM   32  C   UNL     1      -2.148   4.509 -32.975  1.00  0.00     0.159 C 
BRANCH  32  33
HETATM   33  C   UNL     1      -1.647   5.254 -31.728  1.00  0.00     0.139 C 
HETATM   34  O   UNL     1      -0.744   4.455 -30.939  1.00  0.00    -0.384 OA
HETATM   35  C   UNL     1       0.116   5.366 -30.249  1.00  0.00     0.168 C 
HETATM   36  C   UNL     1       0.349   6.494 -31.224  1.00  0.00     0.029 C 
HETATM   37  C   UNL     1      -0.964   6.598 -31.968  1.00  0.00     0.035 C 
ENDBRANCH  32  33
ENDBRANCH   6  32
TORSDOF 8
ENDMDL
MODEL 10
REMARK VINA RESULT:      -8.7      2.037      7.518
REMARK  8 active torsions:
REMARK  status: ('A' for Active; 'I' for Inactive)
REMARK       I    between atoms: N_2  and  C_3 
REMARK    1  A    between atoms: N_2  and  C_29 
REMARK    2  A    between atoms: C_3  and  C_4 
REMARK    3  A    between atoms: C_7  and  C_8 
REMARK       I    between atoms: C_8  and  N_9 
REMARK    4  A    between atoms: N_9  and  C_10 
REMARK    5  A    between atoms: N_20  and  C_21 
REMARK    6  A    between atoms: C_21  and  C_22 
REMARK    7  A    between atoms: C_29  and  C_30 
REMARK    8  A    between atoms: C_30  and  C_31 
ROOT
HETATM    1  C   UNL     1      -5.179   4.410 -33.781  1.00  0.00     0.098 C 
HETATM    2  C   UNL     1      -5.050   3.070 -33.162  1.00  0.00     0.206 C 
HETATM    3  O   UNL     1      -4.001   2.693 -32.640  1.00  0.00    -0.286 OA
HETATM    4  C   UNL     1      -6.236   2.165 -33.215  1.00  0.00     0.098 C 
HETATM    5  C   UNL     1      -7.415   2.731 -33.534  1.00  0.00     0.111 C 
HETATM    6  N   UNL     1      -7.578   4.067 -33.888  1.00  0.00    -0.362 N 
HETATM    7  C   UNL     1      -6.426   4.832 -34.050  1.00  0.00     0.111 C 
ENDROOT
BRANCH   1   8
HETATM    8  C   UNL     1      -4.075   5.348 -34.087  1.00  0.00     0.258 C 
HETATM    9  N   UNL     1      -3.631   6.237 -33.109  1.00  0.00    -0.352 N 
HETATM   10  C   UNL     1      -2.438   7.013 -33.422  1.00  0.00     0.152 C 
HETATM   11  O   UNL     1      -3.488   5.218 -35.165  1.00  0.00    -0.267 OA
BRANCH   9  12
HETATM   12  C   UNL     1      -4.390   6.718 -31.940  1.00  0.00     0.131 C 
BRANCH  12  13
HETATM   13  C   UNL     1      -4.385   5.817 -30.706  1.00  0.00     0.079 C 
BRANCH  13  14
HETATM   14  C   UNL     1      -5.731   5.207 -30.426  1.00  0.00     0.035 A 
HETATM   15  N   UNL     1      -6.816   5.967 -30.714  1.00  0.00    -0.266 NA
HETATM   16  C   UNL     1      -8.030   5.416 -30.499  1.00  0.00     0.117 A 
HETATM   17  C   UNL     1      -8.218   4.137 -30.004  1.00  0.00     0.019 A 
HETATM   18  C   UNL     1      -7.094   3.377 -29.704  1.00  0.00     0.003 A 
HETATM   19  C   UNL     1      -5.831   3.918 -29.912  1.00  0.00     0.027 A 
ENDBRANCH  13  14
ENDBRANCH  12  13
ENDBRANCH   9  12
ENDBRANCH   1   8
BRANCH   4  20
HETATM   20  C   UNL     1      -6.168   0.691 -33.016  1.00  0.00     0.257 C 
HETATM   21  N   UNL     1      -5.479   0.020 -33.995  1.00  0.00    -0.352 N 
HETATM   22  H   UNL     1      -4.917   0.569 -34.647  1.00  0.00     0.163 HD
HETATM   23  O   UNL     1      -6.748   0.134 -32.089  1.00  0.00    -0.267 OA
BRANCH  21  24
HETATM   24  C   UNL     1      -5.409  -1.438 -34.109  1.00  0.00     0.084 C 
HETATM   25  C   UNL     1      -4.473  -1.935 -32.997  1.00  0.00     0.025 C 
HETATM   26  C   UNL     1      -4.134  -3.423 -32.941  1.00  0.00     0.002 C 
HETATM   27  C   UNL     1      -3.821  -4.074 -34.288  1.00  0.00     0.000 C 
HETATM   28  C   UNL     1      -4.964  -4.911 -34.865  1.00  0.00     0.000 C 
HETATM   29  C   UNL     1      -6.200  -4.146 -35.342  1.00  0.00     0.000 C 
HETATM   30  C   UNL     1      -7.019  -3.503 -34.223  1.00  0.00     0.002 C 
HETATM   31  C   UNL     1      -6.836  -1.993 -34.065  1.00  0.00     0.025 C 
ENDBRANCH  21  24
ENDBRANCH   4  20
BRANCH   6  32
HETATM   32  C   UNL     1      -8.921   4.670 -34.062  1.00  0.00     0.159 C 
BRANCH  32  33
HETATM   33  C   UNL     1     -10.063   3.654 -34.221  1.00  0.00     0.139 C 
HETATM   34  O   UNL     1     -10.838   3.508 -33.015  1.00  0.00    -0.384 OA
HETATM   35  C   UNL     1     -12.151   3.109 -33.416  1.00  0.00     0.168 C 
HETATM   36  C   UNL     1     -12.409   3.854 -34.702  1.00  0.00     0.029 C 
HETATM   37  C   UNL     1     -11.047   3.912 -35.359  1.00  0.00     0.035 C 
ENDBRANCH  32  33
ENDBRANCH   6  32
TORSDOF 8
ENDMDL
