MODEL 1
REMARK VINA RESULT:      -8.3      0.000      0.000
REMARK  9 active torsions:
REMARK  status: ('A' for Active; 'I' for Inactive)
REMARK    1  A    between atoms: C_2  and  C_3 
REMARK    2  A    between atoms: C_3  and  O_4 
REMARK    3  A    between atoms: O_4  and  C_5 
REMARK    4  A    between atoms: C_8  and  C_9 
REMARK    5  A    between atoms: N_10  and  N_11 
REMARK       I    between atoms: N_11  and  C_12 
REMARK    6  A    between atoms: C_12  and  C_13 
REMARK    7  A    between atoms: C_17  and  C_18 
REMARK    8  A    between atoms: C_21  and  O_22 
REMARK    9  A    between atoms: O_22  and  C_23 
ROOT
HETATM    1  N   UNL     1      -2.547   4.076 -31.087  1.00  0.00    -0.242 N 
HETATM    2  C   UNL     1      -1.567   4.972 -31.487  1.00  0.00     0.289 C 
HETATM    3  O   UNL     1      -0.983   4.921 -32.566  1.00  0.00    -0.264 OA
HETATM    4  H   UNL     1      -2.964   4.144 -30.168  1.00  0.00     0.192 HD
ENDROOT
BRANCH   2   5
HETATM    5  C   UNL     1      -1.249   5.994 -30.521  1.00  0.00     0.121 A 
HETATM    6  N   UNL     1      -2.013   7.123 -30.416  1.00  0.00    -0.272 N 
HETATM    7  H   UNL     1      -2.838   7.349 -30.964  1.00  0.00     0.189 HD
HETATM    8  N   UNL     1      -1.581   7.996 -29.495  1.00  0.00    -0.174 NA
HETATM    9  C   UNL     1      -0.511   7.405 -28.941  1.00  0.00     0.089 A 
HETATM   10  C   UNL     1      -0.267   6.146 -29.563  1.00  0.00     0.071 A 
BRANCH   9  11
HETATM   11  C   UNL     1       0.249   8.045 -27.864  1.00  0.00    -0.005 A 
HETATM   12  C   UNL     1      -0.020   9.360 -27.469  1.00  0.00     0.016 A 
HETATM   13  C   UNL     1       0.706   9.950 -26.427  1.00  0.00     0.037 A 
HETATM   14  C   UNL     1       1.704   9.238 -25.759  1.00  0.00     0.068 A 
HETATM   15  C   UNL     1       1.989   7.933 -26.157  1.00  0.00     0.037 A 
HETATM   16  C   UNL     1       1.267   7.344 -27.202  1.00  0.00     0.016 A 
BRANCH  14  17
HETATM   17  O   UNL     1       2.325   9.928 -24.756  1.00  0.00    -0.352 OA
BRANCH  17  18
HETATM   18  C   UNL     1       3.316   9.226 -24.008  1.00  0.00     0.171 C 
HETATM   19  C   UNL     1       2.776   9.007 -22.606  1.00  0.00     0.034 C 
ENDBRANCH  17  18
ENDBRANCH  14  17
ENDBRANCH   9  11
ENDBRANCH   2   5
BRANCH   1  20
HETATM   20  N   UNL     1      -2.929   3.069 -31.923  1.00  0.00    -0.184 NA
HETATM   21  C   UNL     1      -3.558   2.080 -31.375  1.00  0.00     0.150 C 
BRANCH  21  22
HETATM   22  C   UNL     1      -4.027   0.932 -32.176  1.00  0.00    -0.017 A 
HETATM   23  C   UNL     1      -5.205   1.021 -32.922  1.00  0.00     0.016 A 
HETATM   24  C   UNL     1      -5.643  -0.074 -33.675  1.00  0.00     0.037 A 
HETATM   25  C   UNL     1      -4.905  -1.258 -33.685  1.00  0.00     0.068 A 
HETATM   26  C   UNL     1      -3.726  -1.338 -32.934  1.00  0.00     0.037 A 
HETATM   27  C   UNL     1      -3.284  -0.249 -32.178  1.00  0.00     0.016 A 
BRANCH  25  28
HETATM   28  O   UNL     1      -5.220  -2.395 -34.377  1.00  0.00    -0.351 OA
BRANCH  28  29
HETATM   29  C   UNL     1      -4.338  -3.508 -34.229  1.00  0.00     0.175 C 
BRANCH  29  30
HETATM   30  C   UNL     1      -5.140  -4.781 -34.482  1.00  0.00     0.022 C 
HETATM   31  C   UNL     1      -6.461  -4.487 -35.173  1.00  0.00     0.007 C 
ENDBRANCH  29  30
ENDBRANCH  28  29
ENDBRANCH  25  28
ENDBRANCH  21  22
ENDBRANCH   1  20
TORSDOF 9
ENDMDL
MODEL 2
REMARK VINA RESULT:      -7.6      1.212     12.464
REMARK  9 active torsions:
REMARK  status: ('A' for Active; 'I' for Inactive)
REMARK    1  A    between atoms: C_2  and  C_3 
REMARK    2  A    between atoms: C_3  and  O_4 
REMARK    3  A    between atoms: O_4  and  C_5 
REMARK    4  A    between atoms: C_8  and  C_9 
REMARK    5  A    between atoms: N_10  and  N_11 
REMARK       I    between atoms: N_11  and  C_12 
REMARK    6  A    between atoms: C_12  and  C_13 
REMARK    7  A    between atoms: C_17  and  C_18 
REMARK    8  A    between atoms: C_21  and  O_22 
REMARK    9  A    between atoms: O_22  and  C_23 
ROOT
HETATM    1  N   UNL     1      -2.268   6.149 -30.264  1.00  0.00    -0.242 N 
HETATM    2  C   UNL     1      -1.764   5.100 -31.019  1.00  0.00     0.289 C 
HETATM    3  O   UNL     1      -0.567   4.876 -31.179  1.00  0.00    -0.264 OA
HETATM    4  H   UNL     1      -3.264   6.308 -30.202  1.00  0.00     0.192 HD
ENDROOT
BRANCH   2   5
HETATM    5  C   UNL     1      -2.762   4.267 -31.641  1.00  0.00     0.121 A 
HETATM    6  N   UNL     1      -3.760   4.813 -32.399  1.00  0.00    -0.272 N 
HETATM    7  H   UNL     1      -3.897   5.800 -32.601  1.00  0.00     0.189 HD
HETATM    8  N   UNL     1      -4.631   3.920 -32.890  1.00  0.00    -0.174 NA
HETATM    9  C   UNL     1      -4.169   2.731 -32.473  1.00  0.00     0.089 A 
HETATM   10  C   UNL     1      -2.999   2.907 -31.680  1.00  0.00     0.071 A 
BRANCH   9  11
HETATM   11  C   UNL     1      -4.848   1.479 -32.818  1.00  0.00    -0.005 A 
HETATM   12  C   UNL     1      -6.081   1.480 -33.479  1.00  0.00     0.016 A 
HETATM   13  C   UNL     1      -6.708   0.275 -33.816  1.00  0.00     0.037 A 
HETATM   14  C   UNL     1      -6.113  -0.950 -33.506  1.00  0.00     0.068 A 
HETATM   15  C   UNL     1      -4.892  -0.961 -32.834  1.00  0.00     0.037 A 
HETATM   16  C   UNL     1      -4.267   0.245 -32.492  1.00  0.00     0.016 A 
BRANCH  14  17
HETATM   17  O   UNL     1      -6.825  -2.048 -33.901  1.00  0.00    -0.352 OA
BRANCH  17  18
HETATM   18  C   UNL     1      -6.206  -2.909 -34.856  1.00  0.00     0.171 C 
HETATM   19  C   UNL     1      -6.879  -4.266 -34.767  1.00  0.00     0.034 C 
ENDBRANCH  17  18
ENDBRANCH  14  17
ENDBRANCH   9  11
ENDBRANCH   2   5
BRANCH   1  20
HETATM   20  N   UNL     1      -1.413   7.000 -29.628  1.00  0.00    -0.184 NA
HETATM   21  C   UNL     1      -1.277   6.825 -28.353  1.00  0.00     0.150 C 
BRANCH  21  22
HETATM   22  C   UNL     1      -0.377   7.679 -27.553  1.00  0.00    -0.017 A 
HETATM   23  C   UNL     1       0.987   7.744 -27.847  1.00  0.00     0.016 A 
HETATM   24  C   UNL     1       1.832   8.555 -27.081  1.00  0.00     0.037 A 
HETATM   25  C   UNL     1       1.316   9.302 -26.022  1.00  0.00     0.068 A 
HETATM   26  C   UNL     1      -0.052   9.232 -25.736  1.00  0.00     0.037 A 
HETATM   27  C   UNL     1      -0.902   8.422 -26.496  1.00  0.00     0.016 A 
BRANCH  25  28
HETATM   28  O   UNL     1       2.030  10.131 -25.202  1.00  0.00    -0.351 OA
BRANCH  28  29
HETATM   29  C   UNL     1       3.087   9.540 -24.445  1.00  0.00     0.175 C 
BRANCH  29  30
HETATM   30  C   UNL     1       2.505   9.064 -23.117  1.00  0.00     0.022 C 
HETATM   31  C   UNL     1       3.566   8.431 -22.233  1.00  0.00     0.007 C 
ENDBRANCH  29  30
ENDBRANCH  28  29
ENDBRANCH  25  28
ENDBRANCH  21  22
ENDBRANCH   1  20
TORSDOF 9
ENDMDL
MODEL 3
REMARK VINA RESULT:      -7.2      2.216     12.328
REMARK  9 active torsions:
REMARK  status: ('A' for Active; 'I' for Inactive)
REMARK    1  A    between atoms: C_2  and  C_3 
REMARK    2  A    between atoms: C_3  and  O_4 
REMARK    3  A    between atoms: O_4  and  C_5 
REMARK    4  A    between atoms: C_8  and  C_9 
REMARK    5  A    between atoms: N_10  and  N_11 
REMARK       I    between atoms: N_11  and  C_12 
REMARK    6  A    between atoms: C_12  and  C_13 
REMARK    7  A    between atoms: C_17  and  C_18 
REMARK    8  A    between atoms: C_21  and  O_22 
REMARK    9  A    between atoms: O_22  and  C_23 
ROOT
HETATM    1  N   UNL     1      -0.781   5.769 -29.522  1.00  0.00    -0.242 N 
HETATM    2  C   UNL     1      -0.697   5.874 -30.902  1.00  0.00     0.289 C 
HETATM    3  O   UNL     1       0.048   6.651 -31.492  1.00  0.00    -0.264 OA
HETATM    4  H   UNL     1      -1.444   5.138 -29.091  1.00  0.00     0.192 HD
ENDROOT
BRANCH   2   5
HETATM    5  C   UNL     1      -1.578   4.996 -31.631  1.00  0.00     0.121 A 
HETATM    6  N   UNL     1      -1.491   4.884 -32.990  1.00  0.00    -0.272 N 
HETATM    7  H   UNL     1      -0.836   5.368 -33.598  1.00  0.00     0.189 HD
HETATM    8  N   UNL     1      -2.392   4.053 -33.534  1.00  0.00    -0.174 NA
HETATM    9  C   UNL     1      -3.077   3.565 -32.488  1.00  0.00     0.089 A 
HETATM   10  C   UNL     1      -2.600   4.138 -31.275  1.00  0.00     0.071 A 
BRANCH   9  11
HETATM   11  C   UNL     1      -4.162   2.595 -32.666  1.00  0.00    -0.005 A 
HETATM   12  C   UNL     1      -3.993   1.248 -32.326  1.00  0.00     0.016 A 
HETATM   13  C   UNL     1      -5.045   0.338 -32.487  1.00  0.00     0.037 A 
HETATM   14  C   UNL     1      -6.282   0.757 -32.982  1.00  0.00     0.068 A 
HETATM   15  C   UNL     1      -6.454   2.093 -33.338  1.00  0.00     0.037 A 
HETATM   16  C   UNL     1      -5.400   3.003 -33.182  1.00  0.00     0.016 A 
BRANCH  14  17
HETATM   17  O   UNL     1      -7.223  -0.230 -33.078  1.00  0.00    -0.352 OA
BRANCH  17  18
HETATM   18  C   UNL     1      -8.443   0.105 -33.735  1.00  0.00     0.171 C 
HETATM   19  C   UNL     1      -9.564   0.014 -32.716  1.00  0.00     0.034 C 
ENDBRANCH  17  18
ENDBRANCH  14  17
ENDBRANCH   9  11
ENDBRANCH   2   5
BRANCH   1  20
HETATM   20  N   UNL     1       0.009   6.551 -28.732  1.00  0.00    -0.184 NA
HETATM   21  C   UNL     1      -0.545   7.027 -27.664  1.00  0.00     0.150 C 
BRANCH  21  22
HETATM   22  C   UNL     1       0.209   7.883 -26.726  1.00  0.00    -0.017 A 
HETATM   23  C   UNL     1      -0.459   8.788 -25.897  1.00  0.00     0.016 A 
HETATM   24  C   UNL     1       0.265   9.597 -25.014  1.00  0.00     0.037 A 
HETATM   25  C   UNL     1       1.656   9.502 -24.957  1.00  0.00     0.068 A 
HETATM   26  C   UNL     1       2.316   8.592 -25.790  1.00  0.00     0.037 A 
HETATM   27  C   UNL     1       1.600   7.782 -26.677  1.00  0.00     0.016 A 
BRANCH  25  28
HETATM   28  O   UNL     1       2.476  10.230 -24.141  1.00  0.00    -0.351 OA
BRANCH  28  29
HETATM   29  C   UNL     1       2.419   9.944 -22.743  1.00  0.00     0.175 C 
BRANCH  29  30
HETATM   30  C   UNL     1       3.777   9.394 -22.318  1.00  0.00     0.022 C 
HETATM   31  C   UNL     1       3.657   8.010 -21.703  1.00  0.00     0.007 C 
ENDBRANCH  29  30
ENDBRANCH  28  29
ENDBRANCH  25  28
ENDBRANCH  21  22
ENDBRANCH   1  20
TORSDOF 9
ENDMDL
MODEL 4
REMARK VINA RESULT:      -7.1      9.287     13.530
REMARK  9 active torsions:
REMARK  status: ('A' for Active; 'I' for Inactive)
REMARK    1  A    between atoms: C_2  and  C_3 
REMARK    2  A    between atoms: C_3  and  O_4 
REMARK    3  A    between atoms: O_4  and  C_5 
REMARK    4  A    between atoms: C_8  and  C_9 
REMARK    5  A    between atoms: N_10  and  N_11 
REMARK       I    between atoms: N_11  and  C_12 
REMARK    6  A    between atoms: C_12  and  C_13 
REMARK    7  A    between atoms: C_17  and  C_18 
REMARK    8  A    between atoms: C_21  and  O_22 
REMARK    9  A    between atoms: O_22  and  C_23 
ROOT
HETATM    1  N   UNL     1     -11.886   1.390 -33.359  1.00  0.00    -0.242 N 
HETATM    2  C   UNL     1     -10.937   2.138 -34.038  1.00  0.00     0.289 C 
HETATM    3  O   UNL     1     -11.180   3.180 -34.642  1.00  0.00    -0.264 OA
HETATM    4  H   UNL     1     -11.633   0.518 -32.913  1.00  0.00     0.192 HD
ENDROOT
BRANCH   2   5
HETATM    5  C   UNL     1      -9.602   1.596 -34.008  1.00  0.00     0.121 A 
HETATM    6  N   UNL     1      -8.521   2.401 -33.780  1.00  0.00    -0.272 N 
HETATM    7  H   UNL     1      -8.536   3.403 -33.611  1.00  0.00     0.189 HD
HETATM    8  N   UNL     1      -7.342   1.763 -33.808  1.00  0.00    -0.174 NA
HETATM    9  C   UNL     1      -7.658   0.476 -34.024  1.00  0.00     0.089 A 
HETATM   10  C   UNL     1      -9.068   0.331 -34.161  1.00  0.00     0.071 A 
BRANCH   9  11
HETATM   11  C   UNL     1      -6.629  -0.564 -34.110  1.00  0.00    -0.005 A 
HETATM   12  C   UNL     1      -5.314  -0.320 -33.696  1.00  0.00     0.016 A 
HETATM   13  C   UNL     1      -4.348  -1.329 -33.770  1.00  0.00     0.037 A 
HETATM   14  C   UNL     1      -4.676  -2.599 -34.251  1.00  0.00     0.068 A 
HETATM   15  C   UNL     1      -5.979  -2.846 -34.680  1.00  0.00     0.037 A 
HETATM   16  C   UNL     1      -6.945  -1.835 -34.611  1.00  0.00     0.016 A 
BRANCH  14  17
HETATM   17  O   UNL     1      -3.642  -3.493 -34.258  1.00  0.00    -0.352 OA
BRANCH  17  18
HETATM   18  C   UNL     1      -3.605  -4.444 -33.196  1.00  0.00     0.171 C 
HETATM   19  C   UNL     1      -3.173  -3.719 -31.934  1.00  0.00     0.034 C 
ENDBRANCH  17  18
ENDBRANCH  14  17
ENDBRANCH   9  11
ENDBRANCH   2   5
BRANCH   1  20
HETATM   20  N   UNL     1     -13.182   1.811 -33.319  1.00  0.00    -0.184 NA
HETATM   21  C   UNL     1     -13.514   2.540 -32.304  1.00  0.00     0.150 C 
BRANCH  21  22
HETATM   22  C   UNL     1     -14.888   3.061 -32.151  1.00  0.00    -0.017 A 
HETATM   23  C   UNL     1     -15.984   2.197 -32.201  1.00  0.00     0.016 A 
HETATM   24  C   UNL     1     -17.282   2.701 -32.058  1.00  0.00     0.037 A 
HETATM   25  C   UNL     1     -17.485   4.068 -31.863  1.00  0.00     0.068 A 
HETATM   26  C   UNL     1     -16.381   4.926 -31.813  1.00  0.00     0.037 A 
HETATM   27  C   UNL     1     -15.082   4.429 -31.958  1.00  0.00     0.016 A 
BRANCH  25  28
HETATM   28  O   UNL     1     -18.696   4.684 -31.707  1.00  0.00    -0.351 OA
BRANCH  28  29
HETATM   29  C   UNL     1     -18.777   5.710 -30.717  1.00  0.00     0.175 C 
BRANCH  29  30
HETATM   30  C   UNL     1     -19.330   5.088 -29.438  1.00  0.00     0.022 C 
HETATM   31  C   UNL     1     -18.783   5.773 -28.197  1.00  0.00     0.007 C 
ENDBRANCH  29  30
ENDBRANCH  28  29
ENDBRANCH  25  28
ENDBRANCH  21  22
ENDBRANCH   1  20
TORSDOF 9
ENDMDL
MODEL 5
REMARK VINA RESULT:      -7.1      9.459     14.014
REMARK  9 active torsions:
REMARK  status: ('A' for Active; 'I' for Inactive)
REMARK    1  A    between atoms: C_2  and  C_3 
REMARK    2  A    between atoms: C_3  and  O_4 
REMARK    3  A    between atoms: O_4  and  C_5 
REMARK    4  A    between atoms: C_8  and  C_9 
REMARK    5  A    between atoms: N_10  and  N_11 
REMARK       I    between atoms: N_11  and  C_12 
REMARK    6  A    between atoms: C_12  and  C_13 
REMARK    7  A    between atoms: C_17  and  C_18 
REMARK    8  A    between atoms: C_21  and  O_22 
REMARK    9  A    between atoms: O_22  and  C_23 
ROOT
HETATM    1  N   UNL     1     -12.522   1.703 -32.967  1.00  0.00    -0.242 N 
HETATM    2  C   UNL     1     -11.312   2.289 -33.308  1.00  0.00     0.289 C 
HETATM    3  O   UNL     1     -11.196   3.424 -33.760  1.00  0.00    -0.264 OA
HETATM    4  H   UNL     1     -12.559   0.748 -32.637  1.00  0.00     0.192 HD
ENDROOT
BRANCH   2   5
HETATM    5  C   UNL     1     -10.156   1.451 -33.107  1.00  0.00     0.121 A 
HETATM    6  N   UNL     1      -9.674   1.208 -31.851  1.00  0.00    -0.272 N 
HETATM    7  H   UNL     1     -10.054   1.561 -30.977  1.00  0.00     0.189 HD
HETATM    8  N   UNL     1      -8.579   0.435 -31.821  1.00  0.00    -0.174 NA
HETATM    9  C   UNL     1      -8.349   0.122 -33.106  1.00  0.00     0.089 A 
HETATM   10  C   UNL     1      -9.316   0.746 -33.946  1.00  0.00     0.071 A 
BRANCH   9  11
HETATM   11  C   UNL     1      -7.227  -0.735 -33.499  1.00  0.00    -0.005 A 
HETATM   12  C   UNL     1      -7.436  -1.930 -34.198  1.00  0.00     0.016 A 
HETATM   13  C   UNL     1      -6.352  -2.728 -34.580  1.00  0.00     0.037 A 
HETATM   14  C   UNL     1      -5.043  -2.346 -34.277  1.00  0.00     0.068 A 
HETATM   15  C   UNL     1      -4.826  -1.167 -33.567  1.00  0.00     0.037 A 
HETATM   16  C   UNL     1      -5.911  -0.370 -33.181  1.00  0.00     0.016 A 
BRANCH  14  17
HETATM   17  O   UNL     1      -4.079  -3.210 -34.718  1.00  0.00    -0.352 OA
BRANCH  17  18
HETATM   18  C   UNL     1      -4.104  -4.532 -34.182  1.00  0.00     0.171 C 
HETATM   19  C   UNL     1      -3.300  -4.530 -32.895  1.00  0.00     0.034 C 
ENDBRANCH  17  18
ENDBRANCH  14  17
ENDBRANCH   9  11
ENDBRANCH   2   5
BRANCH   1  20
HETATM   20  N   UNL     1     -13.681   2.406 -33.114  1.00  0.00    -0.184 NA
HETATM   21  C   UNL     1     -14.376   2.591 -32.038  1.00  0.00     0.150 C 
BRANCH  21  22
HETATM   22  C   UNL     1     -15.648   3.341 -32.067  1.00  0.00    -0.017 A 
HETATM   23  C   UNL     1     -15.677   4.702 -31.754  1.00  0.00     0.016 A 
HETATM   24  C   UNL     1     -16.888   5.403 -31.781  1.00  0.00     0.037 A 
HETATM   25  C   UNL     1     -18.071   4.746 -32.121  1.00  0.00     0.068 A 
HETATM   26  C   UNL     1     -18.032   3.382 -32.434  1.00  0.00     0.037 A 
HETATM   27  C   UNL     1     -16.826   2.675 -32.407  1.00  0.00     0.016 A 
BRANCH  25  28
HETATM   28  O   UNL     1     -19.313   5.312 -32.187  1.00  0.00    -0.351 OA
BRANCH  28  29
HETATM   29  C   UNL     1     -19.395   6.720 -31.963  1.00  0.00     0.175 C 
BRANCH  29  30
HETATM   30  C   UNL     1     -19.491   7.408 -33.322  1.00  0.00     0.022 C 
HETATM   31  C   UNL     1     -18.375   8.420 -33.520  1.00  0.00     0.007 C 
ENDBRANCH  29  30
ENDBRANCH  28  29
ENDBRANCH  25  28
ENDBRANCH  21  22
ENDBRANCH   1  20
TORSDOF 9
ENDMDL
MODEL 6
REMARK VINA RESULT:      -7.1      4.755     12.983
REMARK  9 active torsions:
REMARK  status: ('A' for Active; 'I' for Inactive)
REMARK    1  A    between atoms: C_2  and  C_3 
REMARK    2  A    between atoms: C_3  and  O_4 
REMARK    3  A    between atoms: O_4  and  C_5 
REMARK    4  A    between atoms: C_8  and  C_9 
REMARK    5  A    between atoms: N_10  and  N_11 
REMARK       I    between atoms: N_11  and  C_12 
REMARK    6  A    between atoms: C_12  and  C_13 
REMARK    7  A    between atoms: C_17  and  C_18 
REMARK    8  A    between atoms: C_21  and  O_22 
REMARK    9  A    between atoms: O_22  and  C_23 
ROOT
HETATM    1  N   UNL     1      -4.967   4.439 -31.709  1.00  0.00    -0.242 N 
HETATM    2  C   UNL     1      -5.742   3.395 -31.226  1.00  0.00     0.289 C 
HETATM    3  O   UNL     1      -5.569   2.851 -30.139  1.00  0.00    -0.264 OA
HETATM    4  H   UNL     1      -5.132   4.821 -32.631  1.00  0.00     0.192 HD
ENDROOT
BRANCH   2   5
HETATM    5  C   UNL     1      -6.791   2.959 -32.113  1.00  0.00     0.121 A 
HETATM    6  N   UNL     1      -6.502   2.470 -33.357  1.00  0.00    -0.272 N 
HETATM    7  H   UNL     1      -5.578   2.361 -33.765  1.00  0.00     0.189 HD
HETATM    8  N   UNL     1      -7.579   2.131 -34.079  1.00  0.00    -0.174 NA
HETATM    9  C   UNL     1      -8.621   2.367 -33.267  1.00  0.00     0.089 A 
HETATM   10  C   UNL     1      -8.168   2.894 -32.024  1.00  0.00     0.071 A 
BRANCH   9  11
HETATM   11  C   UNL     1     -10.000   2.106 -33.691  1.00  0.00    -0.005 A 
HETATM   12  C   UNL     1     -10.700   3.021 -34.485  1.00  0.00     0.016 A 
HETATM   13  C   UNL     1     -12.011   2.748 -34.894  1.00  0.00     0.037 A 
HETATM   14  C   UNL     1     -12.641   1.558 -34.524  1.00  0.00     0.068 A 
HETATM   15  C   UNL     1     -11.957   0.648 -33.720  1.00  0.00     0.037 A 
HETATM   16  C   UNL     1     -10.647   0.923 -33.307  1.00  0.00     0.016 A 
BRANCH  14  17
HETATM   17  O   UNL     1     -13.914   1.413 -35.000  1.00  0.00    -0.352 OA
BRANCH  17  18
HETATM   18  C   UNL     1     -14.837   0.710 -34.169  1.00  0.00     0.171 C 
HETATM   19  C   UNL     1     -15.299   1.658 -33.077  1.00  0.00     0.034 C 
ENDBRANCH  17  18
ENDBRANCH  14  17
ENDBRANCH   9  11
ENDBRANCH   2   5
BRANCH   1  20
HETATM   20  N   UNL     1      -3.947   4.934 -30.951  1.00  0.00    -0.184 NA
HETATM   21  C   UNL     1      -3.083   5.671 -31.570  1.00  0.00     0.150 C 
BRANCH  21  22
HETATM   22  C   UNL     1      -1.935   6.269 -30.858  1.00  0.00    -0.017 A 
HETATM   23  C   UNL     1      -0.630   6.052 -31.307  1.00  0.00     0.016 A 
HETATM   24  C   UNL     1       0.450   6.621 -30.624  1.00  0.00     0.037 A 
HETATM   25  C   UNL     1       0.229   7.407 -29.492  1.00  0.00     0.068 A 
HETATM   26  C   UNL     1      -1.082   7.620 -29.051  1.00  0.00     0.037 A 
HETATM   27  C   UNL     1      -2.166   7.053 -29.727  1.00  0.00     0.016 A 
BRANCH  25  28
HETATM   28  O   UNL     1       1.192   8.019 -28.739  1.00  0.00    -0.351 OA
BRANCH  28  29
HETATM   29  C   UNL     1       0.815   8.449 -27.431  1.00  0.00     0.175 C 
BRANCH  29  30
HETATM   30  C   UNL     1       1.827   7.883 -26.439  1.00  0.00     0.022 C 
HETATM   31  C   UNL     1       1.909   8.725 -25.177  1.00  0.00     0.007 C 
ENDBRANCH  29  30
ENDBRANCH  28  29
ENDBRANCH  25  28
ENDBRANCH  21  22
ENDBRANCH   1  20
TORSDOF 9
ENDMDL
MODEL 7
REMARK VINA RESULT:      -6.9      9.889     13.723
REMARK  9 active torsions:
REMARK  status: ('A' for Active; 'I' for Inactive)
REMARK    1  A    between atoms: C_2  and  C_3 
REMARK    2  A    between atoms: C_3  and  O_4 
REMARK    3  A    between atoms: O_4  and  C_5 
REMARK    4  A    between atoms: C_8  and  C_9 
REMARK    5  A    between atoms: N_10  and  N_11 
REMARK       I    between atoms: N_11  and  C_12 
REMARK    6  A    between atoms: C_12  and  C_13 
REMARK    7  A    between atoms: C_17  and  C_18 
REMARK    8  A    between atoms: C_21  and  O_22 
REMARK    9  A    between atoms: O_22  and  C_23 
ROOT
HETATM    1  N   UNL     1     -12.176   1.551 -33.285  1.00  0.00    -0.242 N 
HETATM    2  C   UNL     1     -13.428   1.012 -33.541  1.00  0.00     0.289 C 
HETATM    3  O   UNL     1     -13.617  -0.052 -34.125  1.00  0.00    -0.264 OA
HETATM    4  H   UNL     1     -12.083   2.452 -32.835  1.00  0.00     0.192 HD
ENDROOT
BRANCH   2   5
HETATM    5  C   UNL     1     -14.536   1.810 -33.080  1.00  0.00     0.121 A 
HETATM    6  N   UNL     1     -15.824   1.466 -33.384  1.00  0.00    -0.272 N 
HETATM    7  H   UNL     1     -16.124   0.661 -33.926  1.00  0.00     0.189 HD
HETATM    8  N   UNL     1     -16.747   2.316 -32.912  1.00  0.00    -0.174 NA
HETATM    9  C   UNL     1     -16.045   3.238 -32.235  1.00  0.00     0.089 A 
HETATM   10  C   UNL     1     -14.651   2.959 -32.322  1.00  0.00     0.071 A 
BRANCH   9  11
HETATM   11  C   UNL     1     -16.704   4.353 -31.547  1.00  0.00    -0.005 A 
HETATM   12  C   UNL     1     -16.001   5.516 -31.213  1.00  0.00     0.016 A 
HETATM   13  C   UNL     1     -16.650   6.577 -30.571  1.00  0.00     0.037 A 
HETATM   14  C   UNL     1     -18.008   6.499 -30.258  1.00  0.00     0.068 A 
HETATM   15  C   UNL     1     -18.712   5.338 -30.572  1.00  0.00     0.037 A 
HETATM   16  C   UNL     1     -18.063   4.274 -31.210  1.00  0.00     0.016 A 
BRANCH  14  17
HETATM   17  O   UNL     1     -18.518   7.608 -29.643  1.00  0.00    -0.352 OA
BRANCH  17  18
HETATM   18  C   UNL     1     -18.046   8.874 -30.102  1.00  0.00     0.171 C 
HETATM   19  C   UNL     1     -17.623   9.682 -28.889  1.00  0.00     0.034 C 
ENDBRANCH  17  18
ENDBRANCH  14  17
ENDBRANCH   9  11
ENDBRANCH   2   5
BRANCH   1  20
HETATM   20  N   UNL     1     -11.055   0.879 -33.675  1.00  0.00    -0.184 NA
HETATM   21  C   UNL     1      -9.937   1.297 -33.176  1.00  0.00     0.150 C 
BRANCH  21  22
HETATM   22  C   UNL     1      -8.655   0.649 -33.518  1.00  0.00    -0.017 A 
HETATM   23  C   UNL     1      -8.271   0.495 -34.852  1.00  0.00     0.016 A 
HETATM   24  C   UNL     1      -7.055  -0.123 -35.166  1.00  0.00     0.037 A 
HETATM   25  C   UNL     1      -6.222  -0.588 -34.148  1.00  0.00     0.068 A 
HETATM   26  C   UNL     1      -6.614  -0.429 -32.814  1.00  0.00     0.037 A 
HETATM   27  C   UNL     1      -7.829   0.186 -32.493  1.00  0.00     0.016 A 
BRANCH  25  28
HETATM   28  O   UNL     1      -5.013  -1.204 -34.319  1.00  0.00    -0.351 OA
BRANCH  28  29
HETATM   29  C   UNL     1      -4.915  -2.564 -33.894  1.00  0.00     0.175 C 
BRANCH  29  30
HETATM   30  C   UNL     1      -5.349  -3.453 -35.055  1.00  0.00     0.022 C 
HETATM   31  C   UNL     1      -6.734  -4.036 -34.831  1.00  0.00     0.007 C 
ENDBRANCH  29  30
ENDBRANCH  28  29
ENDBRANCH  25  28
ENDBRANCH  21  22
ENDBRANCH   1  20
TORSDOF 9
ENDMDL
MODEL 8
REMARK VINA RESULT:      -6.9      9.408     13.071
REMARK  9 active torsions:
REMARK  status: ('A' for Active; 'I' for Inactive)
REMARK    1  A    between atoms: C_2  and  C_3 
REMARK    2  A    between atoms: C_3  and  O_4 
REMARK    3  A    between atoms: O_4  and  C_5 
REMARK    4  A    between atoms: C_8  and  C_9 
REMARK    5  A    between atoms: N_10  and  N_11 
REMARK       I    between atoms: N_11  and  C_12 
REMARK    6  A    between atoms: C_12  and  C_13 
REMARK    7  A    between atoms: C_17  and  C_18 
REMARK    8  A    between atoms: C_21  and  O_22 
REMARK    9  A    between atoms: O_22  and  C_23 
ROOT
HETATM    1  N   UNL     1     -11.157   1.238 -32.760  1.00  0.00    -0.242 N 
HETATM    2  C   UNL     1     -12.178   1.587 -33.632  1.00  0.00     0.289 C 
HETATM    3  O   UNL     1     -12.171   1.347 -34.836  1.00  0.00    -0.264 OA
HETATM    4  H   UNL     1     -11.201   1.498 -31.783  1.00  0.00     0.192 HD
ENDROOT
BRANCH   2   5
HETATM    5  C   UNL     1     -13.281   2.288 -33.024  1.00  0.00     0.121 A 
HETATM    6  N   UNL     1     -14.378   1.611 -32.569  1.00  0.00    -0.272 N 
HETATM    7  H   UNL     1     -14.526   0.606 -32.600  1.00  0.00     0.189 HD
HETATM    8  N   UNL     1     -15.335   2.396 -32.055  1.00  0.00    -0.174 NA
HETATM    9  C   UNL     1     -14.836   3.638 -32.136  1.00  0.00     0.089 A 
HETATM   10  C   UNL     1     -13.548   3.613 -32.744  1.00  0.00     0.071 A 
BRANCH   9  11
HETATM   11  C   UNL     1     -15.587   4.802 -31.655  1.00  0.00    -0.005 A 
HETATM   12  C   UNL     1     -16.926   4.998 -32.011  1.00  0.00     0.016 A 
HETATM   13  C   UNL     1     -17.633   6.106 -31.530  1.00  0.00     0.037 A 
HETATM   14  C   UNL     1     -17.020   7.032 -30.683  1.00  0.00     0.068 A 
HETATM   15  C   UNL     1     -15.682   6.853 -30.336  1.00  0.00     0.037 A 
HETATM   16  C   UNL     1     -14.973   5.747 -30.821  1.00  0.00     0.016 A 
BRANCH  14  17
HETATM   17  O   UNL     1     -17.827   8.059 -30.278  1.00  0.00    -0.352 OA
BRANCH  17  18
HETATM   18  C   UNL     1     -19.014   7.706 -29.570  1.00  0.00     0.171 C 
HETATM   19  C   UNL     1     -18.620   7.342 -28.150  1.00  0.00     0.034 C 
ENDBRANCH  17  18
ENDBRANCH  14  17
ENDBRANCH   9  11
ENDBRANCH   2   5
BRANCH   1  20
HETATM   20  N   UNL     1     -10.065   0.568 -33.226  1.00  0.00    -0.184 NA
HETATM   21  C   UNL     1      -9.012   0.603 -32.475  1.00  0.00     0.150 C 
BRANCH  21  22
HETATM   22  C   UNL     1      -7.767  -0.088 -32.869  1.00  0.00    -0.017 A 
HETATM   23  C   UNL     1      -6.689  -0.167 -31.984  1.00  0.00     0.016 A 
HETATM   24  C   UNL     1      -5.513  -0.821 -32.368  1.00  0.00     0.037 A 
HETATM   25  C   UNL     1      -5.412  -1.396 -33.635  1.00  0.00     0.068 A 
HETATM   26  C   UNL     1      -6.497  -1.312 -34.515  1.00  0.00     0.037 A 
HETATM   27  C   UNL     1      -7.675  -0.659 -34.139  1.00  0.00     0.016 A 
BRANCH  25  28
HETATM   28  O   UNL     1      -4.325  -2.061 -34.130  1.00  0.00    -0.351 OA
BRANCH  28  29
HETATM   29  C   UNL     1      -4.582  -3.182 -34.976  1.00  0.00     0.175 C 
BRANCH  29  30
HETATM   30  C   UNL     1      -4.446  -4.448 -34.135  1.00  0.00     0.022 C 
HETATM   31  C   UNL     1      -3.374  -4.304 -33.069  1.00  0.00     0.007 C 
ENDBRANCH  29  30
ENDBRANCH  28  29
ENDBRANCH  25  28
ENDBRANCH  21  22
ENDBRANCH   1  20
TORSDOF 9
ENDMDL
MODEL 9
REMARK VINA RESULT:      -6.8      9.356     13.703
REMARK  9 active torsions:
REMARK  status: ('A' for Active; 'I' for Inactive)
REMARK    1  A    between atoms: C_2  and  C_3 
REMARK    2  A    between atoms: C_3  and  O_4 
REMARK    3  A    between atoms: O_4  and  C_5 
REMARK    4  A    between atoms: C_8  and  C_9 
REMARK    5  A    between atoms: N_10  and  N_11 
REMARK       I    between atoms: N_11  and  C_12 
REMARK    6  A    between atoms: C_12  and  C_13 
REMARK    7  A    between atoms: C_17  and  C_18 
REMARK    8  A    between atoms: C_21  and  O_22 
REMARK    9  A    between atoms: O_22  and  C_23 
ROOT
HETATM    1  N   UNL     1     -11.440   3.600 -34.882  1.00  0.00    -0.242 N 
HETATM    2  C   UNL     1     -11.768   2.255 -34.801  1.00  0.00     0.289 C 
HETATM    3  O   UNL     1     -12.854   1.787 -35.131  1.00  0.00    -0.264 OA
HETATM    4  H   UNL     1     -10.542   3.933 -34.557  1.00  0.00     0.192 HD
ENDROOT
BRANCH   2   5
HETATM    5  C   UNL     1     -10.727   1.409 -34.274  1.00  0.00     0.121 A 
HETATM    6  N   UNL     1     -10.931   0.665 -33.145  1.00  0.00    -0.272 N 
HETATM    7  H   UNL     1     -11.783   0.622 -32.593  1.00  0.00     0.189 HD
HETATM    8  N   UNL     1      -9.866  -0.051 -32.757  1.00  0.00    -0.174 NA
HETATM    9  C   UNL     1      -8.932   0.198 -33.688  1.00  0.00     0.089 A 
HETATM   10  C   UNL     1      -9.433   1.116 -34.656  1.00  0.00     0.071 A 
BRANCH   9  11
HETATM   11  C   UNL     1      -7.604  -0.419 -33.628  1.00  0.00    -0.005 A 
HETATM   12  C   UNL     1      -6.735  -0.170 -32.559  1.00  0.00     0.016 A 
HETATM   13  C   UNL     1      -5.477  -0.781 -32.511  1.00  0.00     0.037 A 
HETATM   14  C   UNL     1      -5.067  -1.653 -33.521  1.00  0.00     0.068 A 
HETATM   15  C   UNL     1      -5.919  -1.895 -34.597  1.00  0.00     0.037 A 
HETATM   16  C   UNL     1      -7.176  -1.280 -34.649  1.00  0.00     0.016 A 
BRANCH  14  17
HETATM   17  O   UNL     1      -3.821  -2.188 -33.344  1.00  0.00    -0.352 OA
BRANCH  17  18
HETATM   18  C   UNL     1      -3.316  -2.218 -32.010  1.00  0.00     0.171 C 
HETATM   19  C   UNL     1      -2.925  -3.650 -31.691  1.00  0.00     0.034 C 
ENDBRANCH  17  18
ENDBRANCH  14  17
ENDBRANCH   9  11
ENDBRANCH   2   5
BRANCH   1  20
HETATM   20  N   UNL     1     -12.349   4.492 -35.370  1.00  0.00    -0.184 NA
HETATM   21  C   UNL     1     -12.009   5.739 -35.316  1.00  0.00     0.150 C 
BRANCH  21  22
HETATM   22  C   UNL     1     -12.906   6.801 -35.817  1.00  0.00    -0.017 A 
HETATM   23  C   UNL     1     -14.282   6.733 -35.588  1.00  0.00     0.016 A 
HETATM   24  C   UNL     1     -15.123   7.743 -36.069  1.00  0.00     0.037 A 
HETATM   25  C   UNL     1     -14.591   8.820 -36.778  1.00  0.00     0.068 A 
HETATM   26  C   UNL     1     -13.211   8.880 -37.001  1.00  0.00     0.037 A 
HETATM   27  C   UNL     1     -12.364   7.874 -36.525  1.00  0.00     0.016 A 
BRANCH  25  28
HETATM   28  O   UNL     1     -15.300   9.868 -37.297  1.00  0.00    -0.351 OA
BRANCH  28  29
HETATM   29  C   UNL     1     -14.670  10.628 -38.328  1.00  0.00     0.175 C 
BRANCH  29  30
HETATM   30  C   UNL     1     -15.580  10.606 -39.553  1.00  0.00     0.022 C 
HETATM   31  C   UNL     1     -15.289   9.415 -40.449  1.00  0.00     0.007 C 
ENDBRANCH  29  30
ENDBRANCH  28  29
ENDBRANCH  25  28
ENDBRANCH  21  22
ENDBRANCH   1  20
TORSDOF 9
ENDMDL
MODEL 10
REMARK VINA RESULT:      -6.7      2.392     12.556
REMARK  9 active torsions:
REMARK  status: ('A' for Active; 'I' for Inactive)
REMARK    1  A    between atoms: C_2  and  C_3 
REMARK    2  A    between atoms: C_3  and  O_4 
REMARK    3  A    between atoms: O_4  and  C_5 
REMARK    4  A    between atoms: C_8  and  C_9 
REMARK    5  A    between atoms: N_10  and  N_11 
REMARK       I    between atoms: N_11  and  C_12 
REMARK    6  A    between atoms: C_12  and  C_13 
REMARK    7  A    between atoms: C_17  and  C_18 
REMARK    8  A    between atoms: C_21  and  O_22 
REMARK    9  A    between atoms: O_22  and  C_23 
ROOT
HETATM    1  N   UNL     1      -3.573   6.034 -29.869  1.00  0.00    -0.242 N 
HETATM    2  C   UNL     1      -4.925   5.837 -29.632  1.00  0.00     0.289 C 
HETATM    3  O   UNL     1      -5.580   6.462 -28.801  1.00  0.00    -0.264 OA
HETATM    4  H   UNL     1      -3.078   5.460 -30.538  1.00  0.00     0.192 HD
ENDROOT
BRANCH   2   5
HETATM    5  C   UNL     1      -5.538   4.809 -30.435  1.00  0.00     0.121 A 
HETATM    6  N   UNL     1      -6.898   4.714 -30.537  1.00  0.00    -0.272 N 
HETATM    7  H   UNL     1      -7.583   5.320 -30.094  1.00  0.00     0.189 HD
HETATM    8  N   UNL     1      -7.324   3.693 -31.294  1.00  0.00    -0.174 NA
HETATM    9  C   UNL     1      -6.201   3.112 -31.744  1.00  0.00     0.089 A 
HETATM   10  C   UNL     1      -5.056   3.781 -31.221  1.00  0.00     0.071 A 
BRANCH   9  11
HETATM   11  C   UNL     1      -6.240   1.946 -32.631  1.00  0.00    -0.005 A 
HETATM   12  C   UNL     1      -5.899   0.670 -32.168  1.00  0.00     0.016 A 
HETATM   13  C   UNL     1      -5.958  -0.435 -33.025  1.00  0.00     0.037 A 
HETATM   14  C   UNL     1      -6.364  -0.288 -34.352  1.00  0.00     0.068 A 
HETATM   15  C   UNL     1      -6.691   0.981 -34.826  1.00  0.00     0.037 A 
HETATM   16  C   UNL     1      -6.627   2.087 -33.971  1.00  0.00     0.016 A 
BRANCH  14  17
HETATM   17  O   UNL     1      -6.388  -1.449 -35.075  1.00  0.00    -0.352 OA
BRANCH  17  18
HETATM   18  C   UNL     1      -6.872  -2.613 -34.408  1.00  0.00     0.171 C 
HETATM   19  C   UNL     1      -6.154  -3.818 -34.991  1.00  0.00     0.034 C 
ENDBRANCH  17  18
ENDBRANCH  14  17
ENDBRANCH   9  11
ENDBRANCH   2   5
BRANCH   1  20
HETATM   20  N   UNL     1      -2.892   6.984 -29.167  1.00  0.00    -0.184 NA
HETATM   21  C   UNL     1      -1.603   6.876 -29.165  1.00  0.00     0.150 C 
BRANCH  21  22
HETATM   22  C   UNL     1      -0.754   7.847 -28.444  1.00  0.00    -0.017 A 
HETATM   23  C   UNL     1       0.633   7.684 -28.405  1.00  0.00     0.016 A 
HETATM   24  C   UNL     1       1.428   8.608 -27.718  1.00  0.00     0.037 A 
HETATM   25  C   UNL     1       0.840   9.694 -27.069  1.00  0.00     0.068 A 
HETATM   26  C   UNL     1      -0.550   9.849 -27.115  1.00  0.00     0.037 A 
HETATM   27  C   UNL     1      -1.351   8.929 -27.798  1.00  0.00     0.016 A 
BRANCH  25  28
HETATM   28  O   UNL     1       1.501  10.664 -26.368  1.00  0.00    -0.351 OA
BRANCH  28  29
HETATM   29  C   UNL     1       0.951  11.037 -25.104  1.00  0.00     0.175 C 
BRANCH  29  30
HETATM   30  C   UNL     1       1.590  10.157 -24.034  1.00  0.00     0.022 C 
HETATM   31  C   UNL     1       0.794  10.175 -22.741  1.00  0.00     0.007 C 
ENDBRANCH  29  30
ENDBRANCH  28  29
ENDBRANCH  25  28
ENDBRANCH  21  22
ENDBRANCH   1  20
TORSDOF 9
ENDMDL
