MODEL 1
REMARK VINA RESULT:      -7.5      0.000      0.000
REMARK  10 active torsions:
REMARK  status: ('A' for Active; 'I' for Inactive)
REMARK    1  A    between atoms: C_2  and  O_3 
REMARK    2  A    between atoms: O_3  and  C_4 
REMARK    3  A    between atoms: C_4  and  C_5 
REMARK    4  A    between atoms: C_6  and  N_7 
REMARK       I    between atoms: N_7  and  C_8 
REMARK    5  A    between atoms: C_14  and  O_15 
REMARK    6  A    between atoms: O_15  and  C_16 
REMARK    7  A    between atoms: C_16  and  C_17 
REMARK    8  A    between atoms: C_17  and  O_18 
REMARK    9  A    between atoms: C_17  and  C_19 
REMARK   10  A    between atoms: C_19  and  N_20 
ROOT
HETATM    1  C   UNL     1      -9.242   0.632 -32.556  1.00  0.00     0.085 A 
HETATM    2  C   UNL     1      -9.019   1.672 -31.666  1.00  0.00     0.094 A 
HETATM    3  S   UNL     1      -7.387   1.824 -31.247  1.00  0.00    -0.068 SA
HETATM    4  C   UNL     1      -6.891   0.485 -32.212  1.00  0.00     0.053 A 
HETATM    5  C   UNL     1      -7.991  -0.042 -32.898  1.00  0.00     0.003 A 
HETATM    6  C   UNL     1      -5.568  -0.045 -32.322  1.00  0.00     0.104 A 
HETATM    7  C   UNL     1      -5.403  -1.170 -33.157  1.00  0.00     0.045 A 
HETATM    8 BR   UNL     1      -3.800  -2.186 -33.327  1.00  0.00    -0.048 Br
HETATM    9  C   UNL     1      -6.473  -1.679 -33.889  1.00  0.00     0.023 A 
HETATM   10  C   UNL     1      -7.747  -1.129 -33.770  1.00  0.00     0.015 A 
ENDROOT
BRANCH   6  11
HETATM   11  O   UNL     1      -4.612   0.542 -31.529  1.00  0.00    -0.346 OA
BRANCH  11  12
HETATM   12  C   UNL     1      -3.641   1.371 -32.163  1.00  0.00     0.209 C 
BRANCH  12  13
HETATM   13  C   UNL     1      -3.709   2.782 -31.561  1.00  0.00     0.168 C 
BRANCH  13  14
HETATM   14  O   UNL     1      -2.409   3.210 -31.108  1.00  0.00    -0.392 OA
HETATM   15  H   UNL     1      -1.812   3.120 -31.885  1.00  0.00     0.210 HD
ENDBRANCH  13  14
BRANCH  13  16
HETATM   16  C   UNL     1      -4.164   3.787 -32.635  1.00  0.00     0.268 C 
BRANCH  16  17
HETATM   17  N   UNL     1      -3.107   4.877 -32.789  1.00  0.00    -0.069 N 
HETATM   18  H   UNL     1      -2.394   4.607 -32.083  1.00  0.00     0.280 HD
HETATM   19  C   UNL     1      -2.452   4.841 -34.146  1.00  0.00     0.235 C 
HETATM   20  C   UNL     1      -1.326   5.862 -34.214  1.00  0.00     0.028 C 
HETATM   21  C   UNL     1      -1.814   7.259 -33.853  1.00  0.00     0.003 C 
HETATM   22  C   UNL     1      -2.487   7.259 -32.486  1.00  0.00     0.028 C 
HETATM   23  C   UNL     1      -3.618   6.243 -32.415  1.00  0.00     0.235 C 
ENDBRANCH  16  17
ENDBRANCH  13  16
ENDBRANCH  12  13
ENDBRANCH  11  12
ENDBRANCH   6  11
BRANCH   2  24
HETATM   24  N   UNL     1      -9.977   2.520 -31.122  1.00  0.00    -0.321 N 
HETATM   25  C   UNL     1     -10.396   3.747 -31.606  1.00  0.00     0.218 C 
HETATM   26  C   UNL     1     -11.417   4.400 -30.703  1.00  0.00     0.117 C 
HETATM   27  O   UNL     1     -10.021   4.317 -32.623  1.00  0.00    -0.274 OA
HETATM   28  H   UNL     1     -10.415   2.179 -30.270  1.00  0.00     0.169 HD
ENDBRANCH   2  24
BRANCH   1  29
HETATM   29  C   UNL     1     -10.559   0.231 -33.075  1.00  0.00     0.297 C 
HETATM   30  O   UNL     1     -11.096  -0.834 -32.797  1.00  0.00    -0.259 OA
BRANCH  29  31
HETATM   31  O   UNL     1     -11.137   1.171 -33.888  1.00  0.00    -0.318 OA
BRANCH  31  32
HETATM   32  C   UNL     1     -12.492   1.527 -33.559  1.00  0.00     0.174 C 
HETATM   33  C   UNL     1     -13.450   1.046 -34.634  1.00  0.00     0.034 C 
ENDBRANCH  31  32
ENDBRANCH  29  31
ENDBRANCH   1  29
TORSDOF 10
ENDMDL
MODEL 2
REMARK VINA RESULT:      -7.2      3.384      8.366
REMARK  10 active torsions:
REMARK  status: ('A' for Active; 'I' for Inactive)
REMARK    1  A    between atoms: C_2  and  O_3 
REMARK    2  A    between atoms: O_3  and  C_4 
REMARK    3  A    between atoms: C_4  and  C_5 
REMARK    4  A    between atoms: C_6  and  N_7 
REMARK       I    between atoms: N_7  and  C_8 
REMARK    5  A    between atoms: C_14  and  O_15 
REMARK    6  A    between atoms: O_15  and  C_16 
REMARK    7  A    between atoms: C_16  and  C_17 
REMARK    8  A    between atoms: C_17  and  O_18 
REMARK    9  A    between atoms: C_17  and  C_19 
REMARK   10  A    between atoms: C_19  and  N_20 
ROOT
HETATM    1  C   UNL     1      -5.373  -0.257 -32.975  1.00  0.00     0.085 A 
HETATM    2  C   UNL     1      -6.446  -0.821 -33.648  1.00  0.00     0.094 A 
HETATM    3  S   UNL     1      -7.517   0.345 -34.246  1.00  0.00    -0.068 SA
HETATM    4  C   UNL     1      -6.617   1.671 -33.610  1.00  0.00     0.053 A 
HETATM    5  C   UNL     1      -5.458   1.202 -32.981  1.00  0.00     0.003 A 
HETATM    6  C   UNL     1      -6.965   3.054 -33.686  1.00  0.00     0.104 A 
HETATM    7  C   UNL     1      -6.085   3.965 -33.066  1.00  0.00     0.045 A 
HETATM    8 BR   UNL     1      -6.408   5.831 -32.849  1.00  0.00    -0.048 Br
HETATM    9  C   UNL     1      -4.900   3.527 -32.480  1.00  0.00     0.023 A 
HETATM   10  C   UNL     1      -4.583   2.171 -32.436  1.00  0.00     0.015 A 
ENDROOT
BRANCH   6  11
HETATM   11  O   UNL     1      -8.173   3.344 -34.276  1.00  0.00    -0.346 OA
BRANCH  11  12
HETATM   12  C   UNL     1      -9.242   3.760 -33.428  1.00  0.00     0.209 C 
BRANCH  12  13
HETATM   13  C   UNL     1     -10.562   3.180 -33.956  1.00  0.00     0.168 C 
BRANCH  13  14
HETATM   14  O   UNL     1     -10.567   3.145 -35.397  1.00  0.00    -0.392 OA
HETATM   15  H   UNL     1     -11.018   3.971 -35.683  1.00  0.00     0.210 HD
ENDBRANCH  13  14
BRANCH  13  16
HETATM   16  C   UNL     1     -10.726   1.727 -33.471  1.00  0.00     0.268 C 
BRANCH  16  17
HETATM   17  N   UNL     1     -12.192   1.470 -33.132  1.00  0.00    -0.069 N 
HETATM   18  H   UNL     1     -12.133   0.983 -32.215  1.00  0.00     0.280 HD
HETATM   19  C   UNL     1     -12.959   2.752 -32.928  1.00  0.00     0.235 C 
HETATM   20  C   UNL     1     -14.379   2.448 -32.476  1.00  0.00     0.028 C 
HETATM   21  C   UNL     1     -15.086   1.508 -33.443  1.00  0.00     0.003 C 
HETATM   22  C   UNL     1     -14.278   0.231 -33.642  1.00  0.00     0.028 C 
HETATM   23  C   UNL     1     -12.858   0.529 -34.100  1.00  0.00     0.235 C 
ENDBRANCH  16  17
ENDBRANCH  13  16
ENDBRANCH  12  13
ENDBRANCH  11  12
ENDBRANCH   6  11
BRANCH   2  24
HETATM   24  N   UNL     1      -6.692  -2.177 -33.833  1.00  0.00    -0.321 N 
HETATM   25  C   UNL     1      -6.234  -2.990 -34.854  1.00  0.00     0.218 C 
HETATM   26  C   UNL     1      -6.764  -4.401 -34.744  1.00  0.00     0.117 C 
HETATM   27  O   UNL     1      -5.500  -2.680 -35.785  1.00  0.00    -0.274 OA
HETATM   28  H   UNL     1      -7.277  -2.606 -33.120  1.00  0.00     0.169 HD
ENDBRANCH   2  24
BRANCH   1  29
HETATM   29  C   UNL     1      -4.296  -1.013 -32.315  1.00  0.00     0.297 C 
HETATM   30  O   UNL     1      -3.885  -0.757 -31.191  1.00  0.00    -0.259 OA
BRANCH  29  31
HETATM   31  O   UNL     1      -3.808  -2.046 -33.073  1.00  0.00    -0.318 OA
BRANCH  31  32
HETATM   32  C   UNL     1      -3.306  -3.175 -32.336  1.00  0.00     0.174 C 
HETATM   33  C   UNL     1      -3.388  -4.441 -33.167  1.00  0.00     0.034 C 
ENDBRANCH  31  32
ENDBRANCH  29  31
ENDBRANCH   1  29
TORSDOF 10
ENDMDL
MODEL 3
REMARK VINA RESULT:      -7.2      3.499      6.245
REMARK  10 active torsions:
REMARK  status: ('A' for Active; 'I' for Inactive)
REMARK    1  A    between atoms: C_2  and  O_3 
REMARK    2  A    between atoms: O_3  and  C_4 
REMARK    3  A    between atoms: C_4  and  C_5 
REMARK    4  A    between atoms: C_6  and  N_7 
REMARK       I    between atoms: N_7  and  C_8 
REMARK    5  A    between atoms: C_14  and  O_15 
REMARK    6  A    between atoms: O_15  and  C_16 
REMARK    7  A    between atoms: C_16  and  C_17 
REMARK    8  A    between atoms: C_17  and  O_18 
REMARK    9  A    between atoms: C_17  and  C_19 
REMARK   10  A    between atoms: C_19  and  N_20 
ROOT
HETATM    1  C   UNL     1     -10.751   3.501 -32.999  1.00  0.00     0.085 A 
HETATM    2  C   UNL     1     -10.896   2.141 -33.224  1.00  0.00     0.094 A 
HETATM    3  S   UNL     1      -9.427   1.389 -33.601  1.00  0.00    -0.068 SA
HETATM    4  C   UNL     1      -8.519   2.851 -33.512  1.00  0.00     0.053 A 
HETATM    5  C   UNL     1      -9.354   3.909 -33.136  1.00  0.00     0.003 A 
HETATM    6  C   UNL     1      -7.124   3.007 -33.776  1.00  0.00     0.104 A 
HETATM    7  C   UNL     1      -6.598   4.312 -33.666  1.00  0.00     0.045 A 
HETATM    8 BR   UNL     1      -4.830   4.830 -34.151  1.00  0.00    -0.048 Br
HETATM    9  C   UNL     1      -7.399   5.370 -33.244  1.00  0.00     0.023 A 
HETATM   10  C   UNL     1      -8.754   5.181 -32.979  1.00  0.00     0.015 A 
ENDROOT
BRANCH   6  11
HETATM   11  O   UNL     1      -6.458   1.883 -34.203  1.00  0.00    -0.346 OA
BRANCH  11  12
HETATM   12  C   UNL     1      -5.520   1.288 -33.308  1.00  0.00     0.209 C 
BRANCH  12  13
HETATM   13  C   UNL     1      -5.812  -0.215 -33.196  1.00  0.00     0.168 C 
BRANCH  13  14
HETATM   14  O   UNL     1      -6.797  -0.472 -32.176  1.00  0.00    -0.392 OA
HETATM   15  H   UNL     1      -6.787   0.318 -31.590  1.00  0.00     0.210 HD
ENDBRANCH  13  14
BRANCH  13  16
HETATM   16  C   UNL     1      -6.392  -0.737 -34.524  1.00  0.00     0.268 C 
BRANCH  16  17
HETATM   17  N   UNL     1      -5.829  -2.125 -34.812  1.00  0.00    -0.069 N 
HETATM   18  H   UNL     1      -5.531  -2.050 -35.805  1.00  0.00     0.280 HD
HETATM   19  C   UNL     1      -4.605  -2.422 -33.983  1.00  0.00     0.235 C 
HETATM   20  C   UNL     1      -4.009  -3.762 -34.387  1.00  0.00     0.028 C 
HETATM   21  C   UNL     1      -5.038  -4.882 -34.306  1.00  0.00     0.003 C 
HETATM   22  C   UNL     1      -6.269  -4.544 -35.138  1.00  0.00     0.028 C 
HETATM   23  C   UNL     1      -6.873  -3.207 -34.733  1.00  0.00     0.235 C 
ENDBRANCH  16  17
ENDBRANCH  13  16
ENDBRANCH  12  13
ENDBRANCH  11  12
ENDBRANCH   6  11
BRANCH   2  24
HETATM   24  N   UNL     1     -12.080   1.413 -33.185  1.00  0.00    -0.321 N 
HETATM   25  C   UNL     1     -12.899   1.068 -34.245  1.00  0.00     0.218 C 
HETATM   26  C   UNL     1     -14.132   0.319 -33.797  1.00  0.00     0.117 C 
HETATM   27  O   UNL     1     -12.729   1.318 -35.433  1.00  0.00    -0.274 OA
HETATM   28  H   UNL     1     -12.359   1.100 -32.258  1.00  0.00     0.169 HD
ENDBRANCH   2  24
BRANCH   1  29
HETATM   29  C   UNL     1     -11.850   4.429 -32.686  1.00  0.00     0.297 C 
HETATM   30  O   UNL     1     -12.576   4.306 -31.707  1.00  0.00    -0.259 OA
BRANCH  29  31
HETATM   31  O   UNL     1     -11.973   5.455 -33.586  1.00  0.00    -0.318 OA
BRANCH  31  32
HETATM   32  C   UNL     1     -13.119   5.386 -34.454  1.00  0.00     0.174 C 
HETATM   33  C   UNL     1     -12.734   4.821 -35.809  1.00  0.00     0.034 C 
ENDBRANCH  31  32
ENDBRANCH  29  31
ENDBRANCH   1  29
TORSDOF 10
ENDMDL
MODEL 4
REMARK VINA RESULT:      -7.1      2.756      7.929
REMARK  10 active torsions:
REMARK  status: ('A' for Active; 'I' for Inactive)
REMARK    1  A    between atoms: C_2  and  O_3 
REMARK    2  A    between atoms: O_3  and  C_4 
REMARK    3  A    between atoms: C_4  and  C_5 
REMARK    4  A    between atoms: C_6  and  N_7 
REMARK       I    between atoms: N_7  and  C_8 
REMARK    5  A    between atoms: C_14  and  O_15 
REMARK    6  A    between atoms: O_15  and  C_16 
REMARK    7  A    between atoms: C_16  and  C_17 
REMARK    8  A    between atoms: C_17  and  O_18 
REMARK    9  A    between atoms: C_17  and  C_19 
REMARK   10  A    between atoms: C_19  and  N_20 
ROOT
HETATM    1  C   UNL     1      -3.059   5.085 -31.653  1.00  0.00     0.085 A 
HETATM    2  C   UNL     1      -3.752   6.135 -31.068  1.00  0.00     0.094 A 
HETATM    3  S   UNL     1      -5.134   5.615 -30.241  1.00  0.00    -0.068 SA
HETATM    4  C   UNL     1      -4.897   3.956 -30.645  1.00  0.00     0.053 A 
HETATM    5  C   UNL     1      -3.714   3.807 -31.377  1.00  0.00     0.003 A 
HETATM    6  C   UNL     1      -5.755   2.864 -30.307  1.00  0.00     0.104 A 
HETATM    7  C   UNL     1      -5.371   1.589 -30.771  1.00  0.00     0.045 A 
HETATM    8 BR   UNL     1      -6.424   0.006 -30.634  1.00  0.00    -0.048 Br
HETATM    9  C   UNL     1      -4.172   1.409 -31.457  1.00  0.00     0.023 A 
HETATM   10  C   UNL     1      -3.350   2.494 -31.756  1.00  0.00     0.015 A 
ENDROOT
BRANCH   6  11
HETATM   11  O   UNL     1      -6.915   3.186 -29.645  1.00  0.00    -0.346 OA
BRANCH  11  12
HETATM   12  C   UNL     1      -7.976   3.762 -30.406  1.00  0.00     0.209 C 
BRANCH  12  13
HETATM   13  C   UNL     1      -8.972   2.663 -30.800  1.00  0.00     0.168 C 
BRANCH  13  14
HETATM   14  O   UNL     1     -10.224   2.832 -30.106  1.00  0.00    -0.392 OA
HETATM   15  H   UNL     1      -9.993   3.207 -29.226  1.00  0.00     0.210 HD
ENDBRANCH  13  14
BRANCH  13  16
HETATM   16  C   UNL     1      -9.277   2.749 -32.307  1.00  0.00     0.268 C 
BRANCH  16  17
HETATM   17  N   UNL     1      -8.353   1.800 -33.065  1.00  0.00    -0.069 N 
HETATM   18  H   UNL     1      -7.906   1.255 -32.301  1.00  0.00     0.280 HD
HETATM   19  C   UNL     1      -9.122   0.835 -33.932  1.00  0.00     0.235 C 
HETATM   20  C   UNL     1      -8.174  -0.166 -34.574  1.00  0.00     0.028 C 
HETATM   21  C   UNL     1      -7.061   0.532 -35.345  1.00  0.00     0.003 C 
HETATM   22  C   UNL     1      -6.315   1.511 -34.448  1.00  0.00     0.028 C 
HETATM   23  C   UNL     1      -7.259   2.520 -33.808  1.00  0.00     0.235 C 
ENDBRANCH  16  17
ENDBRANCH  13  16
ENDBRANCH  12  13
ENDBRANCH  11  12
ENDBRANCH   6  11
BRANCH   2  24
HETATM   24  N   UNL     1      -3.424   7.484 -31.129  1.00  0.00    -0.321 N 
HETATM   25  C   UNL     1      -2.737   8.233 -30.190  1.00  0.00     0.218 C 
HETATM   26  C   UNL     1      -2.624   9.686 -30.588  1.00  0.00     0.117 C 
HETATM   27  O   UNL     1      -2.263   7.847 -29.128  1.00  0.00    -0.274 OA
HETATM   28  H   UNL     1      -3.728   7.960 -31.975  1.00  0.00     0.169 HD
ENDBRANCH   2  24
BRANCH   1  29
HETATM   29  C   UNL     1      -1.841   5.225 -32.466  1.00  0.00     0.297 C 
HETATM   30  O   UNL     1      -1.819   5.786 -33.553  1.00  0.00    -0.259 OA
BRANCH  29  31
HETATM   31  O   UNL     1      -0.727   4.681 -31.880  1.00  0.00    -0.318 OA
BRANCH  31  32
HETATM   32  C   UNL     1      -0.272   5.336 -30.683  1.00  0.00     0.174 C 
HETATM   33  C   UNL     1       0.452   6.627 -31.017  1.00  0.00     0.034 C 
ENDBRANCH  31  32
ENDBRANCH  29  31
ENDBRANCH   1  29
TORSDOF 10
ENDMDL
MODEL 5
REMARK VINA RESULT:      -7.1      3.296      5.241
REMARK  10 active torsions:
REMARK  status: ('A' for Active; 'I' for Inactive)
REMARK    1  A    between atoms: C_2  and  O_3 
REMARK    2  A    between atoms: O_3  and  C_4 
REMARK    3  A    between atoms: C_4  and  C_5 
REMARK    4  A    between atoms: C_6  and  N_7 
REMARK       I    between atoms: N_7  and  C_8 
REMARK    5  A    between atoms: C_14  and  O_15 
REMARK    6  A    between atoms: O_15  and  C_16 
REMARK    7  A    between atoms: C_16  and  C_17 
REMARK    8  A    between atoms: C_17  and  O_18 
REMARK    9  A    between atoms: C_17  and  C_19 
REMARK   10  A    between atoms: C_19  and  N_20 
ROOT
HETATM    1  C   UNL     1      -6.778   0.050 -33.189  1.00  0.00     0.085 A 
HETATM    2  C   UNL     1      -5.932  -0.097 -32.101  1.00  0.00     0.094 A 
HETATM    3  S   UNL     1      -6.072   1.179 -30.998  1.00  0.00    -0.068 SA
HETATM    4  C   UNL     1      -7.254   2.016 -31.933  1.00  0.00     0.053 A 
HETATM    5  C   UNL     1      -7.574   1.271 -33.073  1.00  0.00     0.003 A 
HETATM    6  C   UNL     1      -7.843   3.282 -31.629  1.00  0.00     0.104 A 
HETATM    7  C   UNL     1      -8.775   3.787 -32.560  1.00  0.00     0.045 A 
HETATM    8 BR   UNL     1      -9.554   5.525 -32.502  1.00  0.00    -0.048 Br
HETATM    9  C   UNL     1      -9.147   3.040 -33.675  1.00  0.00     0.023 A 
HETATM   10  C   UNL     1      -8.564   1.802 -33.934  1.00  0.00     0.015 A 
ENDROOT
BRANCH   6  11
HETATM   11  O   UNL     1      -7.369   3.918 -30.507  1.00  0.00    -0.346 OA
BRANCH  11  12
HETATM   12  C   UNL     1      -6.622   5.119 -30.691  1.00  0.00     0.209 C 
BRANCH  12  13
HETATM   13  C   UNL     1      -5.226   4.947 -30.077  1.00  0.00     0.168 C 
BRANCH  13  14
HETATM   14  O   UNL     1      -5.249   3.970 -29.017  1.00  0.00    -0.392 OA
HETATM   15  H   UNL     1      -4.538   4.238 -28.393  1.00  0.00     0.210 HD
ENDBRANCH  13  14
BRANCH  13  16
HETATM   16  C   UNL     1      -4.246   4.429 -31.146  1.00  0.00     0.268 C 
BRANCH  16  17
HETATM   17  N   UNL     1      -2.863   5.025 -30.896  1.00  0.00    -0.069 N 
HETATM   18  H   UNL     1      -2.533   4.498 -30.064  1.00  0.00     0.280 HD
HETATM   19  C   UNL     1      -1.912   4.743 -32.031  1.00  0.00     0.235 C 
HETATM   20  C   UNL     1      -0.519   5.249 -31.688  1.00  0.00     0.028 C 
HETATM   21  C   UNL     1      -0.536   6.725 -31.312  1.00  0.00     0.003 C 
HETATM   22  C   UNL     1      -1.519   6.980 -30.176  1.00  0.00     0.028 C 
HETATM   23  C   UNL     1      -2.916   6.481 -30.517  1.00  0.00     0.235 C 
ENDBRANCH  16  17
ENDBRANCH  13  16
ENDBRANCH  12  13
ENDBRANCH  11  12
ENDBRANCH   6  11
BRANCH   2  24
HETATM   24  N   UNL     1      -5.031  -1.132 -31.882  1.00  0.00    -0.321 N 
HETATM   25  C   UNL     1      -3.731  -1.237 -32.346  1.00  0.00     0.218 C 
HETATM   26  C   UNL     1      -3.084  -2.543 -31.945  1.00  0.00     0.117 C 
HETATM   27  O   UNL     1      -3.111  -0.426 -33.024  1.00  0.00    -0.274 OA
HETATM   28  H   UNL     1      -5.384  -1.892 -31.306  1.00  0.00     0.169 HD
ENDBRANCH   2  24
BRANCH   1  29
HETATM   29  C   UNL     1      -6.859  -0.877 -34.329  1.00  0.00     0.297 C 
HETATM   30  O   UNL     1      -6.905  -0.506 -35.495  1.00  0.00    -0.259 OA
BRANCH  29  31
HETATM   31  O   UNL     1      -6.859  -2.198 -33.962  1.00  0.00    -0.318 OA
BRANCH  31  32
HETATM   32  C   UNL     1      -5.980  -3.052 -34.716  1.00  0.00     0.174 C 
HETATM   33  C   UNL     1      -6.704  -4.307 -35.166  1.00  0.00     0.034 C 
ENDBRANCH  31  32
ENDBRANCH  29  31
ENDBRANCH   1  29
TORSDOF 10
ENDMDL
MODEL 6
REMARK VINA RESULT:      -7.1      1.962      7.776
REMARK  10 active torsions:
REMARK  status: ('A' for Active; 'I' for Inactive)
REMARK    1  A    between atoms: C_2  and  O_3 
REMARK    2  A    between atoms: O_3  and  C_4 
REMARK    3  A    between atoms: C_4  and  C_5 
REMARK    4  A    between atoms: C_6  and  N_7 
REMARK       I    between atoms: N_7  and  C_8 
REMARK    5  A    between atoms: C_14  and  O_15 
REMARK    6  A    between atoms: O_15  and  C_16 
REMARK    7  A    between atoms: C_16  and  C_17 
REMARK    8  A    between atoms: C_17  and  O_18 
REMARK    9  A    between atoms: C_17  and  C_19 
REMARK   10  A    between atoms: C_19  and  N_20 
ROOT
HETATM    1  C   UNL     1      -3.900   3.085 -31.917  1.00  0.00     0.085 A 
HETATM    2  C   UNL     1      -5.008   3.667 -31.320  1.00  0.00     0.094 A 
HETATM    3  S   UNL     1      -6.348   2.632 -31.303  1.00  0.00    -0.068 SA
HETATM    4  C   UNL     1      -5.526   1.358 -32.121  1.00  0.00     0.053 A 
HETATM    5  C   UNL     1      -4.195   1.722 -32.356  1.00  0.00     0.003 A 
HETATM    6  C   UNL     1      -6.079   0.103 -32.521  1.00  0.00     0.104 A 
HETATM    7  C   UNL     1      -5.219  -0.781 -33.205  1.00  0.00     0.045 A 
HETATM    8 BR   UNL     1      -5.748  -2.422 -34.017  1.00  0.00    -0.048 Br
HETATM    9  C   UNL     1      -3.878  -0.461 -33.405  1.00  0.00     0.023 A 
HETATM   10  C   UNL     1      -3.366   0.766 -32.989  1.00  0.00     0.015 A 
ENDROOT
BRANCH   6  11
HETATM   11  O   UNL     1      -7.420  -0.074 -32.278  1.00  0.00    -0.346 OA
BRANCH  11  12
HETATM   12  C   UNL     1      -8.337   0.330 -33.294  1.00  0.00     0.209 C 
BRANCH  12  13
HETATM   13  C   UNL     1      -9.747   0.426 -32.695  1.00  0.00     0.168 C 
BRANCH  13  14
HETATM   14  O   UNL     1      -9.689   0.781 -31.299  1.00  0.00    -0.392 OA
HETATM   15  H   UNL     1      -8.804   1.190 -31.164  1.00  0.00     0.210 HD
ENDBRANCH  13  14
BRANCH  13  16
HETATM   16  C   UNL     1     -10.545   1.533 -33.408  1.00  0.00     0.268 C 
BRANCH  16  17
HETATM   17  N   UNL     1     -12.031   1.359 -33.109  1.00  0.00    -0.069 N 
HETATM   18  H   UNL     1     -12.027   0.963 -32.148  1.00  0.00     0.280 HD
HETATM   19  C   UNL     1     -12.757   2.679 -33.064  1.00  0.00     0.235 C 
HETATM   20  C   UNL     1     -14.204   2.470 -32.646  1.00  0.00     0.028 C 
HETATM   21  C   UNL     1     -14.908   1.462 -33.547  1.00  0.00     0.003 C 
HETATM   22  C   UNL     1     -14.141   0.146 -33.586  1.00  0.00     0.028 C 
HETATM   23  C   UNL     1     -12.693   0.350 -34.010  1.00  0.00     0.235 C 
ENDBRANCH  16  17
ENDBRANCH  13  16
ENDBRANCH  12  13
ENDBRANCH  11  12
ENDBRANCH   6  11
BRANCH   2  24
HETATM   24  N   UNL     1      -5.092   4.951 -30.795  1.00  0.00    -0.321 N 
HETATM   25  C   UNL     1      -5.519   6.102 -31.434  1.00  0.00     0.218 C 
HETATM   26  C   UNL     1      -5.413   7.321 -30.548  1.00  0.00     0.117 C 
HETATM   27  O   UNL     1      -5.929   6.211 -32.583  1.00  0.00    -0.274 OA
HETATM   28  H   UNL     1      -4.807   5.034 -29.823  1.00  0.00     0.169 HD
ENDBRANCH   2  24
BRANCH   1  29
HETATM   29  C   UNL     1      -2.600   3.747 -32.112  1.00  0.00     0.297 C 
HETATM   30  O   UNL     1      -1.837   4.015 -31.193  1.00  0.00    -0.259 OA
BRANCH  29  31
HETATM   31  O   UNL     1      -2.315   4.017 -33.426  1.00  0.00    -0.318 OA
BRANCH  31  32
HETATM   32  C   UNL     1      -2.718   5.317 -33.893  1.00  0.00     0.174 C 
HETATM   33  C   UNL     1      -3.684   5.194 -35.058  1.00  0.00     0.034 C 
ENDBRANCH  31  32
ENDBRANCH  29  31
ENDBRANCH   1  29
TORSDOF 10
ENDMDL
MODEL 7
REMARK VINA RESULT:      -7.1      3.169      5.552
REMARK  10 active torsions:
REMARK  status: ('A' for Active; 'I' for Inactive)
REMARK    1  A    between atoms: C_2  and  O_3 
REMARK    2  A    between atoms: O_3  and  C_4 
REMARK    3  A    between atoms: C_4  and  C_5 
REMARK    4  A    between atoms: C_6  and  N_7 
REMARK       I    between atoms: N_7  and  C_8 
REMARK    5  A    between atoms: C_14  and  O_15 
REMARK    6  A    between atoms: O_15  and  C_16 
REMARK    7  A    between atoms: C_16  and  C_17 
REMARK    8  A    between atoms: C_17  and  O_18 
REMARK    9  A    between atoms: C_17  and  C_19 
REMARK   10  A    between atoms: C_19  and  N_20 
ROOT
HETATM    1  C   UNL     1      -7.245  -0.282 -33.200  1.00  0.00     0.085 A 
HETATM    2  C   UNL     1      -6.468  -0.271 -32.052  1.00  0.00     0.094 A 
HETATM    3  S   UNL     1      -7.061   0.798 -30.881  1.00  0.00    -0.068 SA
HETATM    4  C   UNL     1      -8.378   1.328 -31.860  1.00  0.00     0.053 A 
HETATM    5  C   UNL     1      -8.381   0.631 -33.073  1.00  0.00     0.003 A 
HETATM    6  C   UNL     1      -9.342   2.327 -31.525  1.00  0.00     0.104 A 
HETATM    7  C   UNL     1     -10.321   2.617 -32.499  1.00  0.00     0.045 A 
HETATM    8 BR   UNL     1     -11.593   4.030 -32.393  1.00  0.00    -0.048 Br
HETATM    9  C   UNL     1     -10.374   1.900 -33.692  1.00  0.00     0.023 A 
HETATM   10  C   UNL     1      -9.426   0.920 -33.981  1.00  0.00     0.015 A 
ENDROOT
BRANCH   6  11
HETATM   11  O   UNL     1      -9.159   2.969 -30.324  1.00  0.00    -0.346 OA
BRANCH  11  12
HETATM   12  C   UNL     1      -9.035   4.390 -30.343  1.00  0.00     0.209 C 
BRANCH  12  13
HETATM   13  C   UNL     1      -7.817   4.803 -29.505  1.00  0.00     0.168 C 
BRANCH  13  14
HETATM   14  O   UNL     1      -7.129   3.644 -28.994  1.00  0.00    -0.392 OA
HETATM   15  H   UNL     1      -6.266   3.974 -28.654  1.00  0.00     0.210 HD
ENDBRANCH  13  14
BRANCH  13  16
HETATM   16  C   UNL     1      -6.814   5.572 -30.385  1.00  0.00     0.268 C 
BRANCH  16  17
HETATM   17  N   UNL     1      -5.884   4.579 -31.077  1.00  0.00    -0.069 N 
HETATM   18  H   UNL     1      -6.090   3.688 -30.582  1.00  0.00     0.280 HD
HETATM   19  C   UNL     1      -6.236   4.394 -32.531  1.00  0.00     0.235 C 
HETATM   20  C   UNL     1      -5.364   3.312 -33.149  1.00  0.00     0.028 C 
HETATM   21  C   UNL     1      -3.882   3.606 -32.954  1.00  0.00     0.003 C 
HETATM   22  C   UNL     1      -3.562   3.805 -31.478  1.00  0.00     0.028 C 
HETATM   23  C   UNL     1      -4.428   4.892 -30.856  1.00  0.00     0.235 C 
ENDBRANCH  16  17
ENDBRANCH  13  16
ENDBRANCH  12  13
ENDBRANCH  11  12
ENDBRANCH   6  11
BRANCH   2  24
HETATM   24  N   UNL     1      -5.311  -1.007 -31.824  1.00  0.00    -0.321 N 
HETATM   25  C   UNL     1      -4.045  -0.776 -32.334  1.00  0.00     0.218 C 
HETATM   26  C   UNL     1      -3.053  -1.831 -31.902  1.00  0.00     0.117 C 
HETATM   27  O   UNL     1      -3.690   0.138 -33.069  1.00  0.00    -0.274 OA
HETATM   28  H   UNL     1      -5.426  -1.803 -31.202  1.00  0.00     0.169 HD
ENDBRANCH   2  24
BRANCH   1  29
HETATM   29  C   UNL     1      -6.966  -1.081 -34.403  1.00  0.00     0.297 C 
HETATM   30  O   UNL     1      -6.699  -0.587 -35.491  1.00  0.00    -0.259 OA
BRANCH  29  31
HETATM   31  O   UNL     1      -7.015  -2.434 -34.186  1.00  0.00    -0.318 OA
BRANCH  31  32
HETATM   32  C   UNL     1      -5.977  -3.203 -34.821  1.00  0.00     0.174 C 
HETATM   33  C   UNL     1      -6.526  -4.516 -35.347  1.00  0.00     0.034 C 
ENDBRANCH  31  32
ENDBRANCH  29  31
ENDBRANCH   1  29
TORSDOF 10
ENDMDL
MODEL 8
REMARK VINA RESULT:      -6.9      1.597      2.048
REMARK  10 active torsions:
REMARK  status: ('A' for Active; 'I' for Inactive)
REMARK    1  A    between atoms: C_2  and  O_3 
REMARK    2  A    between atoms: O_3  and  C_4 
REMARK    3  A    between atoms: C_4  and  C_5 
REMARK    4  A    between atoms: C_6  and  N_7 
REMARK       I    between atoms: N_7  and  C_8 
REMARK    5  A    between atoms: C_14  and  O_15 
REMARK    6  A    between atoms: O_15  and  C_16 
REMARK    7  A    between atoms: C_16  and  C_17 
REMARK    8  A    between atoms: C_17  and  O_18 
REMARK    9  A    between atoms: C_17  and  C_19 
REMARK   10  A    between atoms: C_19  and  N_20 
ROOT
HETATM    1  C   UNL     1      -9.913   1.952 -33.494  1.00  0.00     0.085 A 
HETATM    2  C   UNL     1      -9.932   2.428 -32.192  1.00  0.00     0.094 A 
HETATM    3  S   UNL     1      -8.601   1.898 -31.291  1.00  0.00    -0.068 SA
HETATM    4  C   UNL     1      -7.939   0.975 -32.588  1.00  0.00     0.053 A 
HETATM    5  C   UNL     1      -8.729   1.127 -33.733  1.00  0.00     0.003 A 
HETATM    6  C   UNL     1      -6.766   0.161 -32.544  1.00  0.00     0.104 A 
HETATM    7  C   UNL     1      -6.428  -0.529 -33.728  1.00  0.00     0.045 A 
HETATM    8 BR   UNL     1      -5.041  -1.825 -33.887  1.00  0.00    -0.048 Br
HETATM    9  C   UNL     1      -7.170  -0.352 -34.894  1.00  0.00     0.023 A 
HETATM   10  C   UNL     1      -8.300   0.462 -34.906  1.00  0.00     0.015 A 
ENDROOT
BRANCH   6  11
HETATM   11  O   UNL     1      -6.142   0.061 -31.324  1.00  0.00    -0.346 OA
BRANCH  11  12
HETATM   12  C   UNL     1      -4.827   0.602 -31.205  1.00  0.00     0.209 C 
BRANCH  12  13
HETATM   13  C   UNL     1      -4.918   2.128 -31.070  1.00  0.00     0.168 C 
BRANCH  13  14
HETATM   14  O   UNL     1      -5.357   2.501 -29.748  1.00  0.00    -0.392 OA
HETATM   15  H   UNL     1      -5.905   3.309 -29.866  1.00  0.00     0.210 HD
ENDBRANCH  13  14
BRANCH  13  16
HETATM   16  C   UNL     1      -3.527   2.755 -31.276  1.00  0.00     0.268 C 
BRANCH  16  17
HETATM   17  N   UNL     1      -3.470   3.421 -32.648  1.00  0.00    -0.069 N 
HETATM   18  H   UNL     1      -3.392   2.609 -33.293  1.00  0.00     0.280 HD
HETATM   19  C   UNL     1      -4.747   4.152 -32.975  1.00  0.00     0.235 C 
HETATM   20  C   UNL     1      -4.692   4.696 -34.395  1.00  0.00     0.028 C 
HETATM   21  C   UNL     1      -3.463   5.568 -34.614  1.00  0.00     0.003 C 
HETATM   22  C   UNL     1      -2.192   4.808 -34.258  1.00  0.00     0.028 C 
HETATM   23  C   UNL     1      -2.239   4.266 -32.836  1.00  0.00     0.235 C 
ENDBRANCH  16  17
ENDBRANCH  13  16
ENDBRANCH  12  13
ENDBRANCH  11  12
ENDBRANCH   6  11
BRANCH   2  24
HETATM   24  N   UNL     1     -10.908   3.233 -31.616  1.00  0.00    -0.321 N 
HETATM   25  C   UNL     1     -11.030   4.609 -31.701  1.00  0.00     0.218 C 
HETATM   26  C   UNL     1     -12.192   5.132 -30.888  1.00  0.00     0.117 C 
HETATM   27  O   UNL     1     -10.314   5.387 -32.320  1.00  0.00    -0.274 OA
HETATM   28  H   UNL     1     -11.610   2.734 -31.076  1.00  0.00     0.169 HD
ENDBRANCH   2  24
BRANCH   1  29
HETATM   29  C   UNL     1     -10.950   2.211 -34.505  1.00  0.00     0.297 C 
HETATM   30  O   UNL     1     -11.092   3.293 -35.060  1.00  0.00    -0.259 OA
BRANCH  29  31
HETATM   31  O   UNL     1     -11.731   1.119 -34.781  1.00  0.00    -0.318 OA
BRANCH  31  32
HETATM   32  C   UNL     1     -12.669   0.751 -33.755  1.00  0.00     0.174 C 
HETATM   33  C   UNL     1     -13.679   1.861 -33.525  1.00  0.00     0.034 C 
ENDBRANCH  31  32
ENDBRANCH  29  31
ENDBRANCH   1  29
TORSDOF 10
ENDMDL
MODEL 9
REMARK VINA RESULT:      -6.9      2.502      8.582
REMARK  10 active torsions:
REMARK  status: ('A' for Active; 'I' for Inactive)
REMARK    1  A    between atoms: C_2  and  O_3 
REMARK    2  A    between atoms: O_3  and  C_4 
REMARK    3  A    between atoms: C_4  and  C_5 
REMARK    4  A    between atoms: C_6  and  N_7 
REMARK       I    between atoms: N_7  and  C_8 
REMARK    5  A    between atoms: C_14  and  O_15 
REMARK    6  A    between atoms: O_15  and  C_16 
REMARK    7  A    between atoms: C_16  and  C_17 
REMARK    8  A    between atoms: C_17  and  O_18 
REMARK    9  A    between atoms: C_17  and  C_19 
REMARK   10  A    between atoms: C_19  and  N_20 
ROOT
HETATM    1  C   UNL     1      -2.949   4.729 -31.401  1.00  0.00     0.085 A 
HETATM    2  C   UNL     1      -3.728   5.781 -30.944  1.00  0.00     0.094 A 
HETATM    3  S   UNL     1      -5.332   5.320 -30.660  1.00  0.00    -0.068 SA
HETATM    4  C   UNL     1      -5.079   3.691 -31.163  1.00  0.00     0.053 A 
HETATM    5  C   UNL     1      -3.734   3.499 -31.499  1.00  0.00     0.003 A 
HETATM    6  C   UNL     1      -6.064   2.660 -31.245  1.00  0.00     0.104 A 
HETATM    7  C   UNL     1      -5.629   1.402 -31.712  1.00  0.00     0.045 A 
HETATM    8 BR   UNL     1      -6.764  -0.078 -32.102  1.00  0.00    -0.048 Br
HETATM    9  C   UNL     1      -4.286   1.174 -32.003  1.00  0.00     0.023 A 
HETATM   10  C   UNL     1      -3.348   2.198 -31.898  1.00  0.00     0.015 A 
ENDROOT
BRANCH   6  11
HETATM   11  O   UNL     1      -7.354   3.029 -30.947  1.00  0.00    -0.346 OA
BRANCH  11  12
HETATM   12  C   UNL     1      -8.238   3.290 -32.036  1.00  0.00     0.209 C 
BRANCH  12  13
HETATM   13  C   UNL     1      -9.528   2.481 -31.847  1.00  0.00     0.168 C 
BRANCH  13  14
HETATM   14  O   UNL     1      -9.821   2.301 -30.448  1.00  0.00    -0.392 OA
HETATM   15  H   UNL     1     -10.355   1.477 -30.390  1.00  0.00     0.210 HD
ENDBRANCH  13  14
BRANCH  13  16
HETATM   16  C   UNL     1     -10.717   3.242 -32.462  1.00  0.00     0.268 C 
BRANCH  16  17
HETATM   17  N   UNL     1     -11.899   2.289 -32.623  1.00  0.00    -0.069 N 
HETATM   18  H   UNL     1     -11.931   1.807 -31.702  1.00  0.00     0.280 HD
HETATM   19  C   UNL     1     -13.201   3.029 -32.803  1.00  0.00     0.235 C 
HETATM   20  C   UNL     1     -14.362   2.048 -32.838  1.00  0.00     0.028 C 
HETATM   21  C   UNL     1     -14.161   0.978 -33.904  1.00  0.00     0.003 C 
HETATM   22  C   UNL     1     -12.831   0.262 -33.705  1.00  0.00     0.028 C 
HETATM   23  C   UNL     1     -11.664   1.239 -33.675  1.00  0.00     0.235 C 
ENDBRANCH  16  17
ENDBRANCH  13  16
ENDBRANCH  12  13
ENDBRANCH  11  12
ENDBRANCH   6  11
BRANCH   2  24
HETATM   24  N   UNL     1      -3.316   7.093 -30.738  1.00  0.00    -0.321 N 
HETATM   25  C   UNL     1      -2.646   7.608 -29.643  1.00  0.00     0.218 C 
HETATM   26  C   UNL     1      -2.421   9.098 -29.759  1.00  0.00     0.117 C 
HETATM   27  O   UNL     1      -2.262   7.005 -28.648  1.00  0.00    -0.274 OA
HETATM   28  H   UNL     1      -3.538   7.734 -31.495  1.00  0.00     0.169 HD
ENDBRANCH   2  24
BRANCH   1  29
HETATM   29  C   UNL     1      -1.527   4.826 -31.768  1.00  0.00     0.297 C 
HETATM   30  O   UNL     1      -0.625   4.909 -30.945  1.00  0.00    -0.259 OA
BRANCH  29  31
HETATM   31  O   UNL     1      -1.307   4.797 -33.121  1.00  0.00    -0.318 OA
BRANCH  31  32
HETATM   32  C   UNL     1      -1.914   5.864 -33.872  1.00  0.00     0.174 C 
HETATM   33  C   UNL     1      -2.772   5.312 -34.995  1.00  0.00     0.034 C 
ENDBRANCH  31  32
ENDBRANCH  29  31
ENDBRANCH   1  29
TORSDOF 10
ENDMDL
MODEL 10
REMARK VINA RESULT:      -6.9      3.305      6.448
REMARK  10 active torsions:
REMARK  status: ('A' for Active; 'I' for Inactive)
REMARK    1  A    between atoms: C_2  and  O_3 
REMARK    2  A    between atoms: O_3  and  C_4 
REMARK    3  A    between atoms: C_4  and  C_5 
REMARK    4  A    between atoms: C_6  and  N_7 
REMARK       I    between atoms: N_7  and  C_8 
REMARK    5  A    between atoms: C_14  and  O_15 
REMARK    6  A    between atoms: O_15  and  C_16 
REMARK    7  A    between atoms: C_16  and  C_17 
REMARK    8  A    between atoms: C_17  and  O_18 
REMARK    9  A    between atoms: C_17  and  C_19 
REMARK   10  A    between atoms: C_19  and  N_20 
ROOT
HETATM    1  C   UNL     1      -5.349   0.844 -31.542  1.00  0.00     0.085 A 
HETATM    2  C   UNL     1      -6.409   0.186 -32.148  1.00  0.00     0.094 A 
HETATM    3  S   UNL     1      -7.878   1.000 -31.938  1.00  0.00    -0.068 SA
HETATM    4  C   UNL     1      -7.180   2.265 -30.998  1.00  0.00     0.053 A 
HETATM    5  C   UNL     1      -5.797   2.077 -30.897  1.00  0.00     0.003 A 
HETATM    6  C   UNL     1      -7.871   3.359 -30.392  1.00  0.00     0.104 A 
HETATM    7  C   UNL     1      -7.092   4.264 -29.642  1.00  0.00     0.045 A 
HETATM    8 BR   UNL     1      -7.780   5.685 -28.575  1.00  0.00    -0.048 Br
HETATM    9  C   UNL     1      -5.707   4.126 -29.570  1.00  0.00     0.023 A 
HETATM   10  C   UNL     1      -5.063   3.055 -30.186  1.00  0.00     0.015 A 
ENDROOT
BRANCH   6  11
HETATM   11  O   UNL     1      -9.239   3.362 -30.526  1.00  0.00    -0.346 OA
BRANCH  11  12
HETATM   12  C   UNL     1      -9.834   4.448 -31.234  1.00  0.00     0.209 C 
BRANCH  12  13
HETATM   13  C   UNL     1      -9.380   4.407 -32.700  1.00  0.00     0.168 C 
BRANCH  13  14
HETATM   14  O   UNL     1     -10.485   4.092 -33.570  1.00  0.00    -0.392 OA
HETATM   15  H   UNL     1     -11.257   3.944 -32.978  1.00  0.00     0.210 HD
ENDBRANCH  13  14
BRANCH  13  16
HETATM   16  C   UNL     1      -8.853   5.791 -33.123  1.00  0.00     0.268 C 
BRANCH  16  17
HETATM   17  N   UNL     1      -7.373   5.682 -33.479  1.00  0.00    -0.069 N 
HETATM   18  H   UNL     1      -7.298   6.273 -34.331  1.00  0.00     0.280 HD
HETATM   19  C   UNL     1      -6.490   6.286 -32.416  1.00  0.00     0.235 C 
HETATM   20  C   UNL     1      -5.037   6.264 -32.865  1.00  0.00     0.028 C 
HETATM   21  C   UNL     1      -4.590   4.859 -33.247  1.00  0.00     0.003 C 
HETATM   22  C   UNL     1      -5.511   4.269 -34.308  1.00  0.00     0.028 C 
HETATM   23  C   UNL     1      -6.966   4.284 -33.861  1.00  0.00     0.235 C 
ENDBRANCH  16  17
ENDBRANCH  13  16
ENDBRANCH  12  13
ENDBRANCH  11  12
ENDBRANCH   6  11
BRANCH   2  24
HETATM   24  N   UNL     1      -6.353  -1.016 -32.844  1.00  0.00    -0.321 N 
HETATM   25  C   UNL     1      -6.465  -1.210 -34.209  1.00  0.00     0.218 C 
HETATM   26  C   UNL     1      -6.411  -2.673 -34.586  1.00  0.00     0.117 C 
HETATM   27  O   UNL     1      -6.613  -0.357 -35.077  1.00  0.00    -0.274 OA
HETATM   28  H   UNL     1      -6.206  -1.839 -32.265  1.00  0.00     0.169 HD
ENDBRANCH   2  24
BRANCH   1  29
HETATM   29  C   UNL     1      -3.957   0.365 -31.521  1.00  0.00     0.297 C 
HETATM   30  O   UNL     1      -2.995   1.087 -31.747  1.00  0.00    -0.259 OA
BRANCH  29  31
HETATM   31  O   UNL     1      -3.840  -0.963 -31.205  1.00  0.00    -0.318 OA
BRANCH  31  32
HETATM   32  C   UNL     1      -2.806  -1.679 -31.906  1.00  0.00     0.174 C 
HETATM   33  C   UNL     1      -3.146  -3.154 -32.008  1.00  0.00     0.034 C 
ENDBRANCH  31  32
ENDBRANCH  29  31
ENDBRANCH   1  29
TORSDOF 10
ENDMDL
