MODEL 1
REMARK VINA RESULT:     -10.5      0.000      0.000
REMARK  9 active torsions:
REMARK  status: ('A' for Active; 'I' for Inactive)
REMARK    1  A    between atoms: C_2  and  O_3 
REMARK    2  A    between atoms: O_3  and  C_4 
REMARK    3  A    between atoms: C_4  and  C_5 
REMARK    4  A    between atoms: C_8  and  N_9 
REMARK       I    between atoms: N_9  and  C_10 
REMARK    5  A    between atoms: C_10  and  C_11 
REMARK    6  A    between atoms: C_13  and  N_14 
REMARK    7  A    between atoms: N_17  and  C_19 
REMARK    8  A    between atoms: C_19  and  C_20 
REMARK    9  A    between atoms: C_19  and  C_26 
ROOT
HETATM    1  C   UNL     1      -1.545   5.294 -31.985  1.00  0.00     0.164 C 
HETATM    2  N   UNL     1      -2.940   4.825 -32.039  1.00  0.00    -0.249 NA
HETATM    3  C   UNL     1      -3.668   4.939 -33.179  1.00  0.00     0.181 C 
HETATM    4  N   UNL     1      -3.169   5.186 -34.344  1.00  0.00    -0.185 NA
HETATM    5  C   UNL     1      -1.809   5.376 -34.386  1.00  0.00     0.247 C 
HETATM    6  O   UNL     1      -1.118   5.037 -35.340  1.00  0.00    -0.271 OA
HETATM    7  C   UNL     1      -1.210   6.104 -33.215  1.00  0.00     0.134 C 
HETATM    8  H   UNL     1      -3.440   5.179 -31.216  1.00  0.00     0.131 HD
ENDROOT
BRANCH   3   9
HETATM    9  N   UNL     1      -5.022   4.797 -32.972  1.00  0.00    -0.353 N 
HETATM   10  C   UNL     1      -5.573   4.451 -31.646  1.00  0.00     0.153 C 
HETATM   11  C   UNL     1      -5.858   2.938 -31.566  1.00  0.00     0.256 C 
HETATM   12  N   UNL     1      -6.831   2.557 -32.682  1.00  0.00    -0.056 N 
HETATM   13  H   UNL     1      -7.629   3.193 -32.634  1.00  0.00     0.281 HD
HETATM   14  C   UNL     1      -6.172   2.861 -34.035  1.00  0.00     0.256 C 
HETATM   15  C   UNL     1      -5.873   4.373 -34.106  1.00  0.00     0.153 C 
BRANCH  12  16
HETATM   16  C   UNL     1      -7.446   1.166 -32.576  1.00  0.00     0.254 C 
BRANCH  16  17
HETATM   17  C   UNL     1      -8.901   1.130 -33.035  1.00  0.00    -0.023 A 
HETATM   18  C   UNL     1      -9.457   2.150 -33.828  1.00  0.00     0.009 A 
HETATM   19  C   UNL     1     -10.791   2.093 -34.230  1.00  0.00     0.001 A 
HETATM   20  C   UNL     1     -11.590   1.018 -33.850  1.00  0.00     0.000 A 
HETATM   21  C   UNL     1     -11.057  -0.005 -33.070  1.00  0.00     0.001 A 
HETATM   22  C   UNL     1      -9.723   0.048 -32.665  1.00  0.00     0.009 A 
ENDBRANCH  16  17
BRANCH  16  23
HETATM   23  C   UNL     1      -6.567   0.029 -33.132  1.00  0.00    -0.023 A 
HETATM   24  C   UNL     1      -5.428  -0.473 -32.472  1.00  0.00     0.009 A 
HETATM   25  C   UNL     1      -4.684  -1.529 -33.010  1.00  0.00     0.001 A 
HETATM   26  C   UNL     1      -5.070  -2.121 -34.207  1.00  0.00     0.000 A 
HETATM   27  C   UNL     1      -6.207  -1.667 -34.864  1.00  0.00     0.001 A 
HETATM   28  C   UNL     1      -6.953  -0.613 -34.328  1.00  0.00     0.009 A 
ENDBRANCH  16  23
ENDBRANCH  12  16
ENDBRANCH   3   9
BRANCH   1  29
HETATM   29  C   UNL     1      -1.408   6.132 -30.693  1.00  0.00     0.240 C 
HETATM   30  N   UNL     1      -0.152   6.133 -30.119  1.00  0.00    -0.326 N 
HETATM   31  H   UNL     1       0.593   5.638 -30.594  1.00  0.00     0.169 HD
HETATM   32  O   UNL     1      -2.410   6.702 -30.253  1.00  0.00    -0.271 OA
BRANCH  30  33
HETATM   33  C   UNL     1       0.214   6.748 -28.897  1.00  0.00     0.034 A 
HETATM   34  C   UNL     1      -0.140   6.253 -27.639  1.00  0.00     0.030 A 
HETATM   35  C   UNL     1       0.280   6.901 -26.472  1.00  0.00     0.020 A 
HETATM   36  C   UNL     1       1.059   8.059 -26.540  1.00  0.00     0.039 A 
HETATM   37  C   UNL     1       1.410   8.565 -27.796  1.00  0.00     0.020 A 
HETATM   38  C   UNL     1       0.991   7.911 -28.964  1.00  0.00     0.030 A 
BRANCH  36  39
HETATM   39  C   UNL     1       1.484   8.689 -25.260  1.00  0.00     0.293 C 
HETATM   40  O   UNL     1       0.731   9.337 -24.553  1.00  0.00    -0.259 OA
BRANCH  39  41
HETATM   41  O   UNL     1       2.793   8.434 -25.014  1.00  0.00    -0.318 OA
BRANCH  41  42
HETATM   42  C   UNL     1       3.414   9.289 -24.040  1.00  0.00     0.174 C 
HETATM   43  C   UNL     1       3.602   8.547 -22.731  1.00  0.00     0.034 C 
ENDBRANCH  41  42
ENDBRANCH  39  41
ENDBRANCH  36  39
ENDBRANCH  30  33
ENDBRANCH   1  29
TORSDOF 9
ENDMDL
MODEL 2
REMARK VINA RESULT:     -10.2      4.425      7.576
REMARK  9 active torsions:
REMARK  status: ('A' for Active; 'I' for Inactive)
REMARK    1  A    between atoms: C_2  and  O_3 
REMARK    2  A    between atoms: O_3  and  C_4 
REMARK    3  A    between atoms: C_4  and  C_5 
REMARK    4  A    between atoms: C_8  and  N_9 
REMARK       I    between atoms: N_9  and  C_10 
REMARK    5  A    between atoms: C_10  and  C_11 
REMARK    6  A    between atoms: C_13  and  N_14 
REMARK    7  A    between atoms: N_17  and  C_19 
REMARK    8  A    between atoms: C_19  and  C_20 
REMARK    9  A    between atoms: C_19  and  C_26 
ROOT
HETATM    1  C   UNL     1      -3.936   5.384 -31.381  1.00  0.00     0.164 C 
HETATM    2  N   UNL     1      -5.128   5.478 -32.242  1.00  0.00    -0.249 NA
HETATM    3  C   UNL     1      -6.286   6.002 -31.769  1.00  0.00     0.181 C 
HETATM    4  N   UNL     1      -6.387   6.694 -30.683  1.00  0.00    -0.185 NA
HETATM    5  C   UNL     1      -5.226   6.858 -29.967  1.00  0.00     0.247 C 
HETATM    6  O   UNL     1      -4.978   7.873 -29.326  1.00  0.00    -0.271 OA
HETATM    7  C   UNL     1      -4.295   5.678 -29.944  1.00  0.00     0.134 C 
HETATM    8  H   UNL     1      -5.267   4.577 -32.713  1.00  0.00     0.131 HD
ENDROOT
BRANCH   3   9
HETATM    9  N   UNL     1      -7.378   5.696 -32.551  1.00  0.00    -0.353 N 
HETATM   10  C   UNL     1      -8.728   5.537 -31.973  1.00  0.00     0.153 C 
HETATM   11  C   UNL     1      -9.038   4.044 -31.745  1.00  0.00     0.256 C 
HETATM   12  N   UNL     1      -8.919   3.304 -33.078  1.00  0.00    -0.056 N 
HETATM   13  H   UNL     1      -9.483   3.806 -33.767  1.00  0.00     0.281 HD
HETATM   14  C   UNL     1      -7.477   3.434 -33.588  1.00  0.00     0.256 C 
HETATM   15  C   UNL     1      -7.164   4.930 -33.799  1.00  0.00     0.153 C 
BRANCH  12  16
HETATM   16  C   UNL     1      -9.472   1.884 -33.096  1.00  0.00     0.254 C 
BRANCH  16  17
HETATM   17  C   UNL     1     -10.848   1.796 -33.750  1.00  0.00    -0.023 A 
HETATM   18  C   UNL     1     -11.725   0.726 -33.497  1.00  0.00     0.009 A 
HETATM   19  C   UNL     1     -12.977   0.669 -34.112  1.00  0.00     0.001 A 
HETATM   20  C   UNL     1     -13.373   1.679 -34.985  1.00  0.00     0.000 A 
HETATM   21  C   UNL     1     -12.520   2.749 -35.244  1.00  0.00     0.001 A 
HETATM   22  C   UNL     1     -11.268   2.810 -34.632  1.00  0.00     0.009 A 
ENDBRANCH  16  17
BRANCH  16  23
HETATM   23  C   UNL     1      -8.470   0.809 -33.560  1.00  0.00    -0.023 A 
HETATM   24  C   UNL     1      -7.811  -0.077 -32.684  1.00  0.00     0.009 A 
HETATM   25  C   UNL     1      -6.933  -1.054 -33.165  1.00  0.00     0.001 A 
HETATM   26  C   UNL     1      -6.707  -1.184 -34.530  1.00  0.00     0.000 A 
HETATM   27  C   UNL     1      -7.367  -0.345 -35.420  1.00  0.00     0.001 A 
HETATM   28  C   UNL     1      -8.246   0.632 -34.941  1.00  0.00     0.009 A 
ENDBRANCH  16  23
ENDBRANCH  12  16
ENDBRANCH   3   9
BRANCH   1  29
HETATM   29  C   UNL     1      -3.377   3.952 -31.551  1.00  0.00     0.240 C 
HETATM   30  N   UNL     1      -4.325   2.967 -31.748  1.00  0.00    -0.326 N 
HETATM   31  H   UNL     1      -5.297   3.243 -31.816  1.00  0.00     0.169 HD
HETATM   32  O   UNL     1      -2.158   3.784 -31.468  1.00  0.00    -0.271 OA
BRANCH  30  33
HETATM   33  C   UNL     1      -4.083   1.575 -31.846  1.00  0.00     0.034 A 
HETATM   34  C   UNL     1      -4.364   0.661 -30.827  1.00  0.00     0.030 A 
HETATM   35  C   UNL     1      -4.122  -0.705 -31.005  1.00  0.00     0.020 A 
HETATM   36  C   UNL     1      -3.589  -1.185 -32.205  1.00  0.00     0.039 A 
HETATM   37  C   UNL     1      -3.297  -0.274 -33.227  1.00  0.00     0.020 A 
HETATM   38  C   UNL     1      -3.545   1.094 -33.047  1.00  0.00     0.030 A 
BRANCH  36  39
HETATM   39  C   UNL     1      -3.371  -2.651 -32.334  1.00  0.00     0.293 C 
HETATM   40  O   UNL     1      -2.945  -3.344 -31.425  1.00  0.00    -0.259 OA
BRANCH  39  41
HETATM   41  O   UNL     1      -3.711  -3.078 -33.575  1.00  0.00    -0.318 OA
BRANCH  41  42
HETATM   42  C   UNL     1      -3.751  -4.504 -33.746  1.00  0.00     0.174 C 
HETATM   43  C   UNL     1      -5.041  -4.918 -34.427  1.00  0.00     0.034 C 
ENDBRANCH  41  42
ENDBRANCH  39  41
ENDBRANCH  36  39
ENDBRANCH  30  33
ENDBRANCH   1  29
TORSDOF 9
ENDMDL
MODEL 3
REMARK VINA RESULT:     -10.1      3.903      6.980
REMARK  9 active torsions:
REMARK  status: ('A' for Active; 'I' for Inactive)
REMARK    1  A    between atoms: C_2  and  O_3 
REMARK    2  A    between atoms: O_3  and  C_4 
REMARK    3  A    between atoms: C_4  and  C_5 
REMARK    4  A    between atoms: C_8  and  N_9 
REMARK       I    between atoms: N_9  and  C_10 
REMARK    5  A    between atoms: C_10  and  C_11 
REMARK    6  A    between atoms: C_13  and  N_14 
REMARK    7  A    between atoms: N_17  and  C_19 
REMARK    8  A    between atoms: C_19  and  C_20 
REMARK    9  A    between atoms: C_19  and  C_26 
ROOT
HETATM    1  C   UNL     1      -9.340   4.939 -32.647  1.00  0.00     0.164 C 
HETATM    2  N   UNL     1      -9.394   3.575 -33.202  1.00  0.00    -0.249 NA
HETATM    3  C   UNL     1     -10.281   2.666 -32.725  1.00  0.00     0.181 C 
HETATM    4  N   UNL     1     -11.301   2.955 -31.987  1.00  0.00    -0.185 NA
HETATM    5  C   UNL     1     -11.443   4.280 -31.654  1.00  0.00     0.247 C 
HETATM    6  O   UNL     1     -12.535   4.818 -31.514  1.00  0.00    -0.271 OA
HETATM    7  C   UNL     1     -10.168   5.032 -31.387  1.00  0.00     0.134 C 
HETATM    8  H   UNL     1      -8.439   3.203 -33.255  1.00  0.00     0.131 HD
ENDROOT
BRANCH   3   9
HETATM    9  N   UNL     1      -9.971   1.371 -33.079  1.00  0.00    -0.353 N 
HETATM   10  C   UNL     1      -9.390   0.419 -32.110  1.00  0.00     0.153 C 
HETATM   11  C   UNL     1      -7.859   0.355 -32.278  1.00  0.00     0.256 C 
HETATM   12  N   UNL     1      -7.536  -0.056 -33.715  1.00  0.00    -0.056 N 
HETATM   13  H   UNL     1      -8.072  -0.899 -33.929  1.00  0.00     0.281 HD
HETATM   14  C   UNL     1      -8.090   1.011 -34.670  1.00  0.00     0.256 C 
HETATM   15  C   UNL     1      -9.621   1.085 -34.488  1.00  0.00     0.153 C 
BRANCH  12  16
HETATM   16  C   UNL     1      -6.087  -0.450 -33.979  1.00  0.00     0.254 C 
BRANCH  16  17
HETATM   17  C   UNL     1      -5.118   0.156 -32.968  1.00  0.00    -0.023 A 
HETATM   18  C   UNL     1      -4.556  -0.606 -31.928  1.00  0.00     0.009 A 
HETATM   19  C   UNL     1      -3.676  -0.024 -31.014  1.00  0.00     0.001 A 
HETATM   20  C   UNL     1      -3.342   1.323 -31.125  1.00  0.00     0.000 A 
HETATM   21  C   UNL     1      -3.885   2.092 -32.151  1.00  0.00     0.001 A 
HETATM   22  C   UNL     1      -4.766   1.515 -33.066  1.00  0.00     0.009 A 
ENDBRANCH  16  17
BRANCH  16  23
HETATM   23  C   UNL     1      -5.869  -1.950 -34.260  1.00  0.00    -0.023 A 
HETATM   24  C   UNL     1      -4.606  -2.574 -34.238  1.00  0.00     0.009 A 
HETATM   25  C   UNL     1      -4.471  -3.948 -34.471  1.00  0.00     0.001 A 
HETATM   26  C   UNL     1      -5.593  -4.732 -34.712  1.00  0.00     0.000 A 
HETATM   27  C   UNL     1      -6.854  -4.148 -34.710  1.00  0.00     0.001 A 
HETATM   28  C   UNL     1      -6.992  -2.776 -34.475  1.00  0.00     0.009 A 
ENDBRANCH  16  23
ENDBRANCH  12  16
ENDBRANCH   3   9
BRANCH   1  29
HETATM   29  C   UNL     1      -7.851   5.252 -32.378  1.00  0.00     0.240 C 
HETATM   30  N   UNL     1      -7.045   5.308 -33.498  1.00  0.00    -0.326 N 
HETATM   31  H   UNL     1      -7.479   5.192 -34.407  1.00  0.00     0.169 HD
HETATM   32  O   UNL     1      -7.482   5.394 -31.209  1.00  0.00    -0.271 OA
BRANCH  30  33
HETATM   33  C   UNL     1      -5.642   5.493 -33.517  1.00  0.00     0.034 A 
HETATM   34  C   UNL     1      -4.793   4.916 -34.466  1.00  0.00     0.030 A 
HETATM   35  C   UNL     1      -3.416   5.164 -34.437  1.00  0.00     0.020 A 
HETATM   36  C   UNL     1      -2.860   5.991 -33.457  1.00  0.00     0.039 A 
HETATM   37  C   UNL     1      -3.703   6.565 -32.499  1.00  0.00     0.020 A 
HETATM   38  C   UNL     1      -5.083   6.317 -32.532  1.00  0.00     0.030 A 
BRANCH  36  39
HETATM   39  C   UNL     1      -1.391   6.226 -33.494  1.00  0.00     0.293 C 
HETATM   40  O   UNL     1      -0.881   7.169 -34.076  1.00  0.00    -0.259 OA
BRANCH  39  41
HETATM   41  O   UNL     1      -0.735   5.260 -32.805  1.00  0.00    -0.318 OA
BRANCH  41  42
HETATM   42  C   UNL     1      -0.694   5.440 -31.380  1.00  0.00     0.174 C 
HETATM   43  C   UNL     1       0.475   6.324 -30.993  1.00  0.00     0.034 C 
ENDBRANCH  41  42
ENDBRANCH  39  41
ENDBRANCH  36  39
ENDBRANCH  30  33
ENDBRANCH   1  29
TORSDOF 9
ENDMDL
MODEL 4
REMARK VINA RESULT:     -10.0      1.205      3.306
REMARK  9 active torsions:
REMARK  status: ('A' for Active; 'I' for Inactive)
REMARK    1  A    between atoms: C_2  and  O_3 
REMARK    2  A    between atoms: O_3  and  C_4 
REMARK    3  A    between atoms: C_4  and  C_5 
REMARK    4  A    between atoms: C_8  and  N_9 
REMARK       I    between atoms: N_9  and  C_10 
REMARK    5  A    between atoms: C_10  and  C_11 
REMARK    6  A    between atoms: C_13  and  N_14 
REMARK    7  A    between atoms: N_17  and  C_19 
REMARK    8  A    between atoms: C_19  and  C_20 
REMARK    9  A    between atoms: C_19  and  C_26 
ROOT
HETATM    1  C   UNL     1      -0.691   5.546 -31.503  1.00  0.00     0.164 C 
HETATM    2  N   UNL     1      -1.609   4.416 -31.276  1.00  0.00    -0.249 NA
HETATM    3  C   UNL     1      -2.518   4.060 -32.219  1.00  0.00     0.181 C 
HETATM    4  N   UNL     1      -2.490   4.452 -33.448  1.00  0.00    -0.185 NA
HETATM    5  C   UNL     1      -1.476   5.319 -33.778  1.00  0.00     0.247 C 
HETATM    6  O   UNL     1      -0.938   5.327 -34.879  1.00  0.00    -0.271 OA
HETATM    7  C   UNL     1      -1.106   6.328 -32.727  1.00  0.00     0.134 C 
HETATM    8  H   UNL     1      -2.026   4.513 -30.344  1.00  0.00     0.131 HD
ENDROOT
BRANCH   3   9
HETATM    9  N   UNL     1      -3.516   3.248 -31.727  1.00  0.00    -0.353 N 
HETATM   10  C   UNL     1      -3.319   1.794 -31.552  1.00  0.00     0.153 C 
HETATM   11  C   UNL     1      -3.907   1.029 -32.755  1.00  0.00     0.256 C 
HETATM   12  N   UNL     1      -5.391   1.371 -32.882  1.00  0.00    -0.056 N 
HETATM   13  H   UNL     1      -5.827   1.227 -31.969  1.00  0.00     0.281 HD
HETATM   14  C   UNL     1      -5.529   2.878 -33.144  1.00  0.00     0.256 C 
HETATM   15  C   UNL     1      -4.925   3.642 -31.947  1.00  0.00     0.153 C 
BRANCH  12  16
HETATM   16  C   UNL     1      -6.194   0.487 -33.830  1.00  0.00     0.254 C 
BRANCH  16  17
HETATM   17  C   UNL     1      -5.643  -0.933 -33.919  1.00  0.00    -0.023 A 
HETATM   18  C   UNL     1      -4.597  -1.378 -33.092  1.00  0.00     0.009 A 
HETATM   19  C   UNL     1      -4.109  -2.681 -33.198  1.00  0.00     0.001 A 
HETATM   20  C   UNL     1      -4.660  -3.560 -34.128  1.00  0.00     0.000 A 
HETATM   21  C   UNL     1      -5.700  -3.139 -34.952  1.00  0.00     0.001 A 
HETATM   22  C   UNL     1      -6.190  -1.837 -34.850  1.00  0.00     0.009 A 
ENDBRANCH  16  17
BRANCH  16  23
HETATM   23  C   UNL     1      -7.723   0.575 -33.652  1.00  0.00    -0.023 A 
HETATM   24  C   UNL     1      -8.590   1.147 -34.604  1.00  0.00     0.009 A 
HETATM   25  C   UNL     1      -9.974   1.172 -34.403  1.00  0.00     0.001 A 
HETATM   26  C   UNL     1     -10.527   0.609 -33.259  1.00  0.00     0.000 A 
HETATM   27  C   UNL     1      -9.699   0.009 -32.318  1.00  0.00     0.001 A 
HETATM   28  C   UNL     1      -8.315  -0.017 -32.517  1.00  0.00     0.009 A 
ENDBRANCH  16  23
ENDBRANCH  12  16
ENDBRANCH   3   9
BRANCH   1  29
HETATM   29  C   UNL     1      -0.732   6.415 -30.226  1.00  0.00     0.240 C 
HETATM   30  N   UNL     1       0.475   6.560 -29.569  1.00  0.00    -0.326 N 
HETATM   31  H   UNL     1       1.299   6.139 -29.982  1.00  0.00     0.169 HD
HETATM   32  O   UNL     1      -1.816   6.884 -29.869  1.00  0.00    -0.271 OA
BRANCH  30  33
HETATM   33  C   UNL     1       0.689   7.232 -28.342  1.00  0.00     0.034 A 
HETATM   34  C   UNL     1       0.377   6.689 -27.092  1.00  0.00     0.030 A 
HETATM   35  C   UNL     1       0.641   7.402 -25.917  1.00  0.00     0.020 A 
HETATM   36  C   UNL     1       1.218   8.674 -25.969  1.00  0.00     0.039 A 
HETATM   37  C   UNL     1       1.526   9.227 -27.217  1.00  0.00     0.020 A 
HETATM   38  C   UNL     1       1.263   8.508 -28.392  1.00  0.00     0.030 A 
BRANCH  36  39
HETATM   39  C   UNL     1       1.487   9.370 -24.681  1.00  0.00     0.293 C 
HETATM   40  O   UNL     1       0.631   9.555 -23.832  1.00  0.00    -0.259 OA
BRANCH  39  41
HETATM   41  O   UNL     1       2.786   9.751 -24.605  1.00  0.00    -0.318 OA
BRANCH  41  42
HETATM   42  C   UNL     1       3.655   8.840 -23.912  1.00  0.00     0.174 C 
HETATM   43  C   UNL     1       4.429   9.569 -22.831  1.00  0.00     0.034 C 
ENDBRANCH  41  42
ENDBRANCH  39  41
ENDBRANCH  36  39
ENDBRANCH  30  33
ENDBRANCH   1  29
TORSDOF 9
ENDMDL
MODEL 5
REMARK VINA RESULT:      -9.9      4.003      7.606
REMARK  9 active torsions:
REMARK  status: ('A' for Active; 'I' for Inactive)
REMARK    1  A    between atoms: C_2  and  O_3 
REMARK    2  A    between atoms: O_3  and  C_4 
REMARK    3  A    between atoms: C_4  and  C_5 
REMARK    4  A    between atoms: C_8  and  N_9 
REMARK       I    between atoms: N_9  and  C_10 
REMARK    5  A    between atoms: C_10  and  C_11 
REMARK    6  A    between atoms: C_13  and  N_14 
REMARK    7  A    between atoms: N_17  and  C_19 
REMARK    8  A    between atoms: C_19  and  C_20 
REMARK    9  A    between atoms: C_19  and  C_26 
ROOT
HETATM    1  C   UNL     1     -10.405   4.559 -34.212  1.00  0.00     0.164 C 
HETATM    2  N   UNL     1     -10.104   3.138 -34.461  1.00  0.00    -0.249 NA
HETATM    3  C   UNL     1     -10.614   2.169 -33.660  1.00  0.00     0.181 C 
HETATM    4  N   UNL     1     -11.584   2.344 -32.825  1.00  0.00    -0.185 NA
HETATM    5  C   UNL     1     -12.083   3.622 -32.745  1.00  0.00     0.247 C 
HETATM    6  O   UNL     1     -13.264   3.863 -32.523  1.00  0.00    -0.271 OA
HETATM    7  C   UNL     1     -11.075   4.731 -32.869  1.00  0.00     0.134 C 
HETATM    8  H   UNL     1      -9.094   3.036 -34.609  1.00  0.00     0.131 HD
ENDROOT
BRANCH   3   9
HETATM    9  N   UNL     1      -9.968   0.960 -33.795  1.00  0.00    -0.353 N 
HETATM   10  C   UNL     1      -9.973  -0.049 -32.716  1.00  0.00     0.153 C 
HETATM   11  C   UNL     1      -8.672   0.044 -31.895  1.00  0.00     0.256 C 
HETATM   12  N   UNL     1      -7.480  -0.157 -32.830  1.00  0.00    -0.056 N 
HETATM   13  H   UNL     1      -7.642  -1.012 -33.367  1.00  0.00     0.281 HD
HETATM   14  C   UNL     1      -7.480   0.965 -33.878  1.00  0.00     0.256 C 
HETATM   15  C   UNL     1      -8.791   0.881 -34.688  1.00  0.00     0.153 C 
BRANCH  12  16
HETATM   16  C   UNL     1      -6.136  -0.387 -32.148  1.00  0.00     0.254 C 
BRANCH  16  17
HETATM   17  C   UNL     1      -5.317  -1.488 -32.816  1.00  0.00    -0.023 A 
HETATM   18  C   UNL     1      -5.635  -1.980 -34.095  1.00  0.00     0.009 A 
HETATM   19  C   UNL     1      -4.872  -2.991 -34.680  1.00  0.00     0.001 A 
HETATM   20  C   UNL     1      -3.779  -3.524 -34.001  1.00  0.00     0.000 A 
HETATM   21  C   UNL     1      -3.446  -3.047 -32.736  1.00  0.00     0.001 A 
HETATM   22  C   UNL     1      -4.207  -2.036 -32.147  1.00  0.00     0.009 A 
ENDBRANCH  16  17
BRANCH  16  23
HETATM   23  C   UNL     1      -5.347   0.898 -31.831  1.00  0.00    -0.023 A 
HETATM   24  C   UNL     1      -5.703   1.802 -30.809  1.00  0.00     0.009 A 
HETATM   25  C   UNL     1      -4.931   2.939 -30.545  1.00  0.00     0.001 A 
HETATM   26  C   UNL     1      -3.778   3.190 -31.280  1.00  0.00     0.000 A 
HETATM   27  C   UNL     1      -3.386   2.300 -32.272  1.00  0.00     0.001 A 
HETATM   28  C   UNL     1      -4.155   1.162 -32.537  1.00  0.00     0.009 A 
ENDBRANCH  16  23
ENDBRANCH  12  16
ENDBRANCH   3   9
BRANCH   1  29
HETATM   29  C   UNL     1      -9.060   5.317 -34.282  1.00  0.00     0.240 C 
HETATM   30  N   UNL     1      -7.980   4.661 -33.723  1.00  0.00    -0.326 N 
HETATM   31  H   UNL     1      -8.125   3.728 -33.354  1.00  0.00     0.169 HD
HETATM   32  O   UNL     1      -9.045   6.441 -34.791  1.00  0.00    -0.271 OA
BRANCH  30  33
HETATM   33  C   UNL     1      -6.667   5.170 -33.584  1.00  0.00     0.034 A 
HETATM   34  C   UNL     1      -6.297   6.125 -32.633  1.00  0.00     0.030 A 
HETATM   35  C   UNL     1      -4.972   6.563 -32.538  1.00  0.00     0.020 A 
HETATM   36  C   UNL     1      -3.990   6.059 -33.395  1.00  0.00     0.039 A 
HETATM   37  C   UNL     1      -4.355   5.109 -34.356  1.00  0.00     0.020 A 
HETATM   38  C   UNL     1      -5.683   4.669 -34.446  1.00  0.00     0.030 A 
BRANCH  36  39
HETATM   39  C   UNL     1      -2.597   6.556 -33.229  1.00  0.00     0.293 C 
HETATM   40  O   UNL     1      -2.007   7.188 -34.089  1.00  0.00    -0.259 OA
BRANCH  39  41
HETATM   41  O   UNL     1      -2.107   6.209 -32.013  1.00  0.00    -0.318 OA
BRANCH  41  42
HETATM   42  C   UNL     1      -0.778   5.664 -32.018  1.00  0.00     0.174 C 
HETATM   43  C   UNL     1       0.185   6.618 -31.339  1.00  0.00     0.034 C 
ENDBRANCH  41  42
ENDBRANCH  39  41
ENDBRANCH  36  39
ENDBRANCH  30  33
ENDBRANCH   1  29
TORSDOF 9
ENDMDL
MODEL 6
REMARK VINA RESULT:      -9.7      4.480      8.250
REMARK  9 active torsions:
REMARK  status: ('A' for Active; 'I' for Inactive)
REMARK    1  A    between atoms: C_2  and  O_3 
REMARK    2  A    between atoms: O_3  and  C_4 
REMARK    3  A    between atoms: C_4  and  C_5 
REMARK    4  A    between atoms: C_8  and  N_9 
REMARK       I    between atoms: N_9  and  C_10 
REMARK    5  A    between atoms: C_10  and  C_11 
REMARK    6  A    between atoms: C_13  and  N_14 
REMARK    7  A    between atoms: N_17  and  C_19 
REMARK    8  A    between atoms: C_19  and  C_20 
REMARK    9  A    between atoms: C_19  and  C_26 
ROOT
HETATM    1  C   UNL     1      -4.298   5.076 -31.512  1.00  0.00     0.164 C 
HETATM    2  N   UNL     1      -5.740   4.921 -31.768  1.00  0.00    -0.249 NA
HETATM    3  C   UNL     1      -6.657   5.491 -30.946  1.00  0.00     0.181 C 
HETATM    4  N   UNL     1      -6.390   6.408 -30.077  1.00  0.00    -0.185 NA
HETATM    5  C   UNL     1      -5.071   6.780 -29.983  1.00  0.00     0.247 C 
HETATM    6  O   UNL     1      -4.719   7.924 -29.719  1.00  0.00    -0.271 OA
HETATM    7  C   UNL     1      -4.063   5.677 -30.146  1.00  0.00     0.134 C 
HETATM    8  H   UNL     1      -5.938   3.931 -31.952  1.00  0.00     0.131 HD
ENDROOT
BRANCH   3   9
HETATM    9  N   UNL     1      -7.921   4.968 -31.101  1.00  0.00    -0.353 N 
HETATM   10  C   UNL     1      -8.254   3.597 -30.663  1.00  0.00     0.153 C 
HETATM   11  C   UNL     1      -8.194   2.627 -31.860  1.00  0.00     0.256 C 
HETATM   12  N   UNL     1      -9.163   3.110 -32.939  1.00  0.00    -0.056 N 
HETATM   13  H   UNL     1     -10.073   3.265 -32.498  1.00  0.00     0.281 HD
HETATM   14  C   UNL     1      -8.720   4.502 -33.413  1.00  0.00     0.256 C 
HETATM   15  C   UNL     1      -8.765   5.467 -32.210  1.00  0.00     0.153 C 
BRANCH  12  16
HETATM   16  C   UNL     1      -9.449   2.120 -34.062  1.00  0.00     0.254 C 
BRANCH  16  17
HETATM   17  C   UNL     1      -8.459   0.959 -34.089  1.00  0.00    -0.023 A 
HETATM   18  C   UNL     1      -8.581  -0.143 -33.224  1.00  0.00     0.009 A 
HETATM   19  C   UNL     1      -7.659  -1.189 -33.268  1.00  0.00     0.001 A 
HETATM   20  C   UNL     1      -6.603  -1.153 -34.174  1.00  0.00     0.000 A 
HETATM   21  C   UNL     1      -6.468  -0.072 -35.042  1.00  0.00     0.001 A 
HETATM   22  C   UNL     1      -7.387   0.976 -35.002  1.00  0.00     0.009 A 
ENDBRANCH  16  17
BRANCH  16  23
HETATM   23  C   UNL     1     -10.928   1.708 -34.197  1.00  0.00    -0.023 A 
HETATM   24  C   UNL     1     -11.519   0.664 -33.458  1.00  0.00     0.009 A 
HETATM   25  C   UNL     1     -12.876   0.353 -33.599  1.00  0.00     0.001 A 
HETATM   26  C   UNL     1     -13.678   1.088 -34.465  1.00  0.00     0.000 A 
HETATM   27  C   UNL     1     -13.129   2.143 -35.183  1.00  0.00     0.001 A 
HETATM   28  C   UNL     1     -11.773   2.457 -35.042  1.00  0.00     0.009 A 
ENDBRANCH  16  23
ENDBRANCH  12  16
ENDBRANCH   3   9
BRANCH   1  29
HETATM   29  C   UNL     1      -3.671   3.668 -31.634  1.00  0.00     0.240 C 
HETATM   30  N   UNL     1      -4.565   2.639 -31.855  1.00  0.00    -0.326 N 
HETATM   31  H   UNL     1      -5.545   2.871 -31.968  1.00  0.00     0.169 HD
HETATM   32  O   UNL     1      -2.450   3.555 -31.498  1.00  0.00    -0.271 OA
BRANCH  30  33
HETATM   33  C   UNL     1      -4.259   1.258 -31.920  1.00  0.00     0.034 A 
HETATM   34  C   UNL     1      -4.761   0.306 -31.029  1.00  0.00     0.030 A 
HETATM   35  C   UNL     1      -4.434  -1.047 -31.170  1.00  0.00     0.020 A 
HETATM   36  C   UNL     1      -3.596  -1.475 -32.204  1.00  0.00     0.039 A 
HETATM   37  C   UNL     1      -3.083  -0.526 -33.095  1.00  0.00     0.020 A 
HETATM   38  C   UNL     1      -3.415   0.829 -32.952  1.00  0.00     0.030 A 
BRANCH  36  39
HETATM   39  C   UNL     1      -3.303  -2.930 -32.306  1.00  0.00     0.293 C 
HETATM   40  O   UNL     1      -2.734  -3.560 -31.429  1.00  0.00    -0.259 OA
BRANCH  39  41
HETATM   41  O   UNL     1      -3.753  -3.427 -33.485  1.00  0.00    -0.318 OA
BRANCH  41  42
HETATM   42  C   UNL     1      -3.776  -4.861 -33.580  1.00  0.00     0.174 C 
HETATM   43  C   UNL     1      -4.912  -5.311 -34.478  1.00  0.00     0.034 C 
ENDBRANCH  41  42
ENDBRANCH  39  41
ENDBRANCH  36  39
ENDBRANCH  30  33
ENDBRANCH   1  29
TORSDOF 9
ENDMDL
MODEL 7
REMARK VINA RESULT:      -9.5      3.460      6.319
REMARK  9 active torsions:
REMARK  status: ('A' for Active; 'I' for Inactive)
REMARK    1  A    between atoms: C_2  and  O_3 
REMARK    2  A    between atoms: O_3  and  C_4 
REMARK    3  A    between atoms: C_4  and  C_5 
REMARK    4  A    between atoms: C_8  and  N_9 
REMARK       I    between atoms: N_9  and  C_10 
REMARK    5  A    between atoms: C_10  and  C_11 
REMARK    6  A    between atoms: C_13  and  N_14 
REMARK    7  A    between atoms: N_17  and  C_19 
REMARK    8  A    between atoms: C_19  and  C_20 
REMARK    9  A    between atoms: C_19  and  C_26 
ROOT
HETATM    1  C   UNL     1      -4.086  -0.465 -32.010  1.00  0.00     0.164 C 
HETATM    2  N   UNL     1      -5.534  -0.261 -31.827  1.00  0.00    -0.249 NA
HETATM    3  C   UNL     1      -6.417  -0.668 -32.772  1.00  0.00     0.181 C 
HETATM    4  N   UNL     1      -6.137  -1.481 -33.735  1.00  0.00    -0.185 NA
HETATM    5  C   UNL     1      -4.834  -1.913 -33.794  1.00  0.00     0.247 C 
HETATM    6  O   UNL     1      -4.521  -3.033 -34.184  1.00  0.00    -0.271 OA
HETATM    7  C   UNL     1      -3.787  -0.899 -33.426  1.00  0.00     0.134 C 
HETATM    8  H   UNL     1      -5.695   0.707 -31.527  1.00  0.00     0.131 HD
ENDROOT
BRANCH   3   9
HETATM    9  N   UNL     1      -7.663  -0.098 -32.629  1.00  0.00    -0.353 N 
HETATM   10  C   UNL     1      -8.608  -0.001 -33.761  1.00  0.00     0.153 C 
HETATM   11  C   UNL     1      -8.534   1.402 -34.397  1.00  0.00     0.256 C 
HETATM   12  N   UNL     1      -8.848   2.448 -33.327  1.00  0.00    -0.056 N 
HETATM   13  H   UNL     1      -9.722   2.179 -32.871  1.00  0.00     0.281 HD
HETATM   14  C   UNL     1      -7.788   2.355 -32.220  1.00  0.00     0.256 C 
HETATM   15  C   UNL     1      -7.852   0.945 -31.596  1.00  0.00     0.153 C 
BRANCH  12  16
HETATM   16  C   UNL     1      -9.106   3.860 -33.840  1.00  0.00     0.254 C 
BRANCH  16  17
HETATM   17  C   UNL     1     -10.579   4.250 -33.775  1.00  0.00    -0.023 A 
HETATM   18  C   UNL     1     -11.158   5.130 -34.707  1.00  0.00     0.009 A 
HETATM   19  C   UNL     1     -12.508   5.472 -34.621  1.00  0.00     0.001 A 
HETATM   20  C   UNL     1     -13.301   4.941 -33.608  1.00  0.00     0.000 A 
HETATM   21  C   UNL     1     -12.747   4.064 -32.678  1.00  0.00     0.001 A 
HETATM   22  C   UNL     1     -11.398   3.720 -32.760  1.00  0.00     0.009 A 
ENDBRANCH  16  17
BRANCH  16  23
HETATM   23  C   UNL     1      -8.133   4.928 -33.302  1.00  0.00    -0.023 A 
HETATM   24  C   UNL     1      -8.462   5.842 -32.281  1.00  0.00     0.009 A 
HETATM   25  C   UNL     1      -7.528   6.771 -31.810  1.00  0.00     0.001 A 
HETATM   26  C   UNL     1      -6.240   6.797 -32.333  1.00  0.00     0.000 A 
HETATM   27  C   UNL     1      -5.878   5.887 -33.319  1.00  0.00     0.001 A 
HETATM   28  C   UNL     1      -6.810   4.957 -33.790  1.00  0.00     0.009 A 
ENDBRANCH  16  23
ENDBRANCH  12  16
ENDBRANCH   3   9
BRANCH   1  29
HETATM   29  C   UNL     1      -3.401   0.878 -31.666  1.00  0.00     0.240 C 
HETATM   30  N   UNL     1      -3.875   1.978 -32.354  1.00  0.00    -0.326 N 
HETATM   31  H   UNL     1      -4.654   1.847 -32.989  1.00  0.00     0.169 HD
HETATM   32  O   UNL     1      -2.480   0.874 -30.846  1.00  0.00    -0.271 OA
BRANCH  30  33
HETATM   33  C   UNL     1      -3.366   3.297 -32.285  1.00  0.00     0.034 A 
HETATM   34  C   UNL     1      -3.541   4.144 -31.188  1.00  0.00     0.030 A 
HETATM   35  C   UNL     1      -2.987   5.428 -31.180  1.00  0.00     0.020 A 
HETATM   36  C   UNL     1      -2.248   5.893 -32.272  1.00  0.00     0.039 A 
HETATM   37  C   UNL     1      -2.075   5.054 -33.378  1.00  0.00     0.020 A 
HETATM   38  C   UNL     1      -2.629   3.766 -33.381  1.00  0.00     0.030 A 
BRANCH  36  39
HETATM   39  C   UNL     1      -1.673   7.263 -32.190  1.00  0.00     0.293 C 
HETATM   40  O   UNL     1      -1.881   8.125 -33.028  1.00  0.00    -0.259 OA
BRANCH  39  41
HETATM   41  O   UNL     1      -0.909   7.396 -31.078  1.00  0.00    -0.318 OA
BRANCH  41  42
HETATM   42  C   UNL     1       0.404   6.819 -31.160  1.00  0.00     0.174 C 
HETATM   43  C   UNL     1       0.573   5.739 -30.110  1.00  0.00     0.034 C 
ENDBRANCH  41  42
ENDBRANCH  39  41
ENDBRANCH  36  39
ENDBRANCH  30  33
ENDBRANCH   1  29
TORSDOF 9
ENDMDL
MODEL 8
REMARK VINA RESULT:      -9.5      4.250     10.582
REMARK  9 active torsions:
REMARK  status: ('A' for Active; 'I' for Inactive)
REMARK    1  A    between atoms: C_2  and  O_3 
REMARK    2  A    between atoms: O_3  and  C_4 
REMARK    3  A    between atoms: C_4  and  C_5 
REMARK    4  A    between atoms: C_8  and  N_9 
REMARK       I    between atoms: N_9  and  C_10 
REMARK    5  A    between atoms: C_10  and  C_11 
REMARK    6  A    between atoms: C_13  and  N_14 
REMARK    7  A    between atoms: N_17  and  C_19 
REMARK    8  A    between atoms: C_19  and  C_20 
REMARK    9  A    between atoms: C_19  and  C_26 
ROOT
HETATM    1  C   UNL     1      -8.802   4.152 -31.789  1.00  0.00     0.164 C 
HETATM    2  N   UNL     1      -8.074   5.103 -30.931  1.00  0.00    -0.249 NA
HETATM    3  C   UNL     1      -7.762   6.345 -31.379  1.00  0.00     0.181 C 
HETATM    4  N   UNL     1      -8.280   6.898 -32.424  1.00  0.00    -0.185 NA
HETATM    5  C   UNL     1      -9.180   6.132 -33.124  1.00  0.00     0.247 C 
HETATM    6  O   UNL     1     -10.149   6.606 -33.705  1.00  0.00    -0.271 OA
HETATM    7  C   UNL     1      -8.867   4.664 -33.209  1.00  0.00     0.134 C 
HETATM    8  H   UNL     1      -7.271   4.622 -30.512  1.00  0.00     0.131 HD
ENDROOT
BRANCH   3   9
HETATM    9  N   UNL     1      -6.794   6.965 -30.620  1.00  0.00    -0.353 N 
HETATM   10  C   UNL     1      -5.883   7.975 -31.198  1.00  0.00     0.153 C 
HETATM   11  C   UNL     1      -4.536   7.325 -31.572  1.00  0.00     0.256 C 
HETATM   12  N   UNL     1      -3.929   6.689 -30.321  1.00  0.00    -0.056 N 
HETATM   13  H   UNL     1      -3.927   7.392 -29.580  1.00  0.00     0.281 HD
HETATM   14  C   UNL     1      -4.878   5.593 -29.815  1.00  0.00     0.256 C 
HETATM   15  C   UNL     1      -6.232   6.243 -29.458  1.00  0.00     0.153 C 
BRANCH  12  16
HETATM   16  C   UNL     1      -2.471   6.258 -30.441  1.00  0.00     0.254 C 
BRANCH  16  17
HETATM   17  C   UNL     1      -2.034   6.055 -31.888  1.00  0.00    -0.023 A 
HETATM   18  C   UNL     1      -1.332   7.044 -32.599  1.00  0.00     0.009 A 
HETATM   19  C   UNL     1      -0.948   6.833 -33.924  1.00  0.00     0.001 A 
HETATM   20  C   UNL     1      -1.256   5.633 -34.558  1.00  0.00     0.000 A 
HETATM   21  C   UNL     1      -1.947   4.639 -33.869  1.00  0.00     0.001 A 
HETATM   22  C   UNL     1      -2.333   4.846 -32.545  1.00  0.00     0.009 A 
ENDBRANCH  16  17
BRANCH  16  23
HETATM   23  C   UNL     1      -1.487   7.073 -29.579  1.00  0.00    -0.023 A 
HETATM   24  C   UNL     1      -0.166   6.666 -29.305  1.00  0.00     0.009 A 
HETATM   25  C   UNL     1       0.695   7.462 -28.541  1.00  0.00     0.001 A 
HETATM   26  C   UNL     1       0.264   8.689 -28.050  1.00  0.00     0.000 A 
HETATM   27  C   UNL     1      -1.023   9.130 -28.331  1.00  0.00     0.001 A 
HETATM   28  C   UNL     1      -1.884   8.337 -29.095  1.00  0.00     0.009 A 
ENDBRANCH  16  23
ENDBRANCH  12  16
ENDBRANCH   3   9
BRANCH   1  29
HETATM   29  C   UNL     1      -8.048   2.806 -31.699  1.00  0.00     0.240 C 
HETATM   30  N   UNL     1      -7.402   2.410 -32.854  1.00  0.00    -0.326 N 
HETATM   31  H   UNL     1      -7.422   3.034 -33.652  1.00  0.00     0.169 HD
HETATM   32  O   UNL     1      -8.099   2.174 -30.641  1.00  0.00    -0.271 OA
BRANCH  30  33
HETATM   33  C   UNL     1      -6.717   1.188 -33.059  1.00  0.00     0.034 A 
HETATM   34  C   UNL     1      -7.323   0.026 -33.543  1.00  0.00     0.030 A 
HETATM   35  C   UNL     1      -6.576  -1.140 -33.744  1.00  0.00     0.020 A 
HETATM   36  C   UNL     1      -5.207  -1.167 -33.461  1.00  0.00     0.039 A 
HETATM   37  C   UNL     1      -4.595  -0.010 -32.968  1.00  0.00     0.020 A 
HETATM   38  C   UNL     1      -5.346   1.158 -32.771  1.00  0.00     0.030 A 
BRANCH  36  39
HETATM   39  C   UNL     1      -4.470  -2.435 -33.713  1.00  0.00     0.293 C 
HETATM   40  O   UNL     1      -3.612  -2.869 -32.962  1.00  0.00    -0.259 OA
BRANCH  39  41
HETATM   41  O   UNL     1      -4.888  -3.010 -34.868  1.00  0.00    -0.318 OA
BRANCH  41  42
HETATM   42  C   UNL     1      -5.297  -4.383 -34.759  1.00  0.00     0.174 C 
HETATM   43  C   UNL     1      -6.677  -4.571 -35.359  1.00  0.00     0.034 C 
ENDBRANCH  41  42
ENDBRANCH  39  41
ENDBRANCH  36  39
ENDBRANCH  30  33
ENDBRANCH   1  29
TORSDOF 9
ENDMDL
MODEL 9
REMARK VINA RESULT:      -9.4      3.715     10.568
REMARK  9 active torsions:
REMARK  status: ('A' for Active; 'I' for Inactive)
REMARK    1  A    between atoms: C_2  and  O_3 
REMARK    2  A    between atoms: O_3  and  C_4 
REMARK    3  A    between atoms: C_4  and  C_5 
REMARK    4  A    between atoms: C_8  and  N_9 
REMARK       I    between atoms: N_9  and  C_10 
REMARK    5  A    between atoms: C_10  and  C_11 
REMARK    6  A    between atoms: C_13  and  N_14 
REMARK    7  A    between atoms: N_17  and  C_19 
REMARK    8  A    between atoms: C_19  and  C_20 
REMARK    9  A    between atoms: C_19  and  C_26 
ROOT
HETATM    1  C   UNL     1      -7.551   4.743 -29.699  1.00  0.00     0.164 C 
HETATM    2  N   UNL     1      -6.682   5.864 -29.300  1.00  0.00    -0.249 NA
HETATM    3  C   UNL     1      -7.016   7.144 -29.602  1.00  0.00     0.181 C 
HETATM    4  N   UNL     1      -8.188   7.523 -29.989  1.00  0.00    -0.185 NA
HETATM    5  C   UNL     1      -9.125   6.527 -30.127  1.00  0.00     0.247 C 
HETATM    6  O   UNL     1     -10.317   6.698 -29.897  1.00  0.00    -0.271 OA
HETATM    7  C   UNL     1      -8.617   5.216 -30.659  1.00  0.00     0.134 C 
HETATM    8  H   UNL     1      -5.715   5.638 -29.556  1.00  0.00     0.131 HD
ENDROOT
BRANCH   3   9
HETATM    9  N   UNL     1      -5.959   8.019 -29.488  1.00  0.00    -0.353 N 
HETATM   10  C   UNL     1      -5.493   8.828 -30.633  1.00  0.00     0.153 C 
HETATM   11  C   UNL     1      -4.279   8.154 -31.302  1.00  0.00     0.256 C 
HETATM   12  N   UNL     1      -3.171   7.984 -30.262  1.00  0.00    -0.056 N 
HETATM   13  H   UNL     1      -3.023   8.889 -29.810  1.00  0.00     0.281 HD
HETATM   14  C   UNL     1      -3.684   7.070 -29.141  1.00  0.00     0.256 C 
HETATM   15  C   UNL     1      -4.909   7.738 -28.483  1.00  0.00     0.153 C 
BRANCH  12  16
HETATM   16  C   UNL     1      -1.801   7.605 -30.813  1.00  0.00     0.254 C 
BRANCH  16  17
HETATM   17  C   UNL     1      -0.789   7.300 -29.712  1.00  0.00    -0.023 A 
HETATM   18  C   UNL     1      -0.237   6.018 -29.543  1.00  0.00     0.009 A 
HETATM   19  C   UNL     1       0.684   5.767 -28.525  1.00  0.00     0.001 A 
HETATM   20  C   UNL     1       1.070   6.790 -27.664  1.00  0.00     0.000 A 
HETATM   21  C   UNL     1       0.538   8.068 -27.818  1.00  0.00     0.001 A 
HETATM   22  C   UNL     1      -0.383   8.323 -28.834  1.00  0.00     0.009 A 
ENDBRANCH  16  17
BRANCH  16  23
HETATM   23  C   UNL     1      -1.831   6.578 -31.962  1.00  0.00    -0.023 A 
HETATM   24  C   UNL     1      -2.433   5.308 -31.861  1.00  0.00     0.009 A 
HETATM   25  C   UNL     1      -2.456   4.428 -32.948  1.00  0.00     0.001 A 
HETATM   26  C   UNL     1      -1.898   4.801 -34.165  1.00  0.00     0.000 A 
HETATM   27  C   UNL     1      -1.325   6.060 -34.303  1.00  0.00     0.001 A 
HETATM   28  C   UNL     1      -1.302   6.941 -33.218  1.00  0.00     0.009 A 
ENDBRANCH  16  23
ENDBRANCH  12  16
ENDBRANCH   3   9
BRANCH   1  29
HETATM   29  C   UNL     1      -6.634   3.677 -30.341  1.00  0.00     0.240 C 
HETATM   30  N   UNL     1      -7.281   2.711 -31.087  1.00  0.00    -0.326 N 
HETATM   31  H   UNL     1      -8.285   2.788 -31.204  1.00  0.00     0.169 HD
HETATM   32  O   UNL     1      -5.421   3.738 -30.125  1.00  0.00    -0.271 OA
BRANCH  30  33
HETATM   33  C   UNL     1      -6.685   1.585 -31.704  1.00  0.00     0.034 A 
HETATM   34  C   UNL     1      -6.283   0.439 -31.013  1.00  0.00     0.030 A 
HETATM   35  C   UNL     1      -5.723  -0.647 -31.694  1.00  0.00     0.020 A 
HETATM   36  C   UNL     1      -5.550  -0.607 -33.080  1.00  0.00     0.039 A 
HETATM   37  C   UNL     1      -5.942   0.540 -33.778  1.00  0.00     0.020 A 
HETATM   38  C   UNL     1      -6.507   1.626 -33.093  1.00  0.00     0.030 A 
BRANCH  36  39
HETATM   39  C   UNL     1      -4.963  -1.804 -33.743  1.00  0.00     0.293 C 
HETATM   40  O   UNL     1      -3.971  -2.378 -33.327  1.00  0.00    -0.259 OA
BRANCH  39  41
HETATM   41  O   UNL     1      -5.681  -2.141 -34.843  1.00  0.00    -0.318 OA
BRANCH  41  42
HETATM   42  C   UNL     1      -6.804  -3.005 -34.605  1.00  0.00     0.174 C 
HETATM   43  C   UNL     1      -6.521  -4.397 -35.137  1.00  0.00     0.034 C 
ENDBRANCH  41  42
ENDBRANCH  39  41
ENDBRANCH  36  39
ENDBRANCH  30  33
ENDBRANCH   1  29
TORSDOF 9
ENDMDL
MODEL 10
REMARK VINA RESULT:      -9.4      5.410      8.252
REMARK  9 active torsions:
REMARK  status: ('A' for Active; 'I' for Inactive)
REMARK    1  A    between atoms: C_2  and  O_3 
REMARK    2  A    between atoms: O_3  and  C_4 
REMARK    3  A    between atoms: C_4  and  C_5 
REMARK    4  A    between atoms: C_8  and  N_9 
REMARK       I    between atoms: N_9  and  C_10 
REMARK    5  A    between atoms: C_10  and  C_11 
REMARK    6  A    between atoms: C_13  and  N_14 
REMARK    7  A    between atoms: N_17  and  C_19 
REMARK    8  A    between atoms: C_19  and  C_20 
REMARK    9  A    between atoms: C_19  and  C_26 
ROOT
HETATM    1  C   UNL     1      -6.748   5.952 -30.049  1.00  0.00     0.164 C 
HETATM    2  N   UNL     1      -7.658   6.048 -31.204  1.00  0.00    -0.249 NA
HETATM    3  C   UNL     1      -9.004   6.051 -31.030  1.00  0.00     0.181 C 
HETATM    4  N   UNL     1      -9.595   6.248 -29.900  1.00  0.00    -0.185 NA
HETATM    5  C   UNL     1      -8.771   6.429 -28.815  1.00  0.00     0.247 C 
HETATM    6  O   UNL     1      -9.055   7.166 -27.879  1.00  0.00    -0.271 OA
HETATM    7  C   UNL     1      -7.517   5.600 -28.797  1.00  0.00     0.134 C 
HETATM    8  H   UNL     1      -7.355   5.378 -31.919  1.00  0.00     0.131 HD
ENDROOT
BRANCH   3   9
HETATM    9  N   UNL     1      -9.699   5.785 -32.189  1.00  0.00    -0.353 N 
HETATM   10  C   UNL     1     -11.053   5.194 -32.165  1.00  0.00     0.153 C 
HETATM   11  C   UNL     1     -10.974   3.672 -32.395  1.00  0.00     0.256 C 
HETATM   12  N   UNL     1     -10.283   3.408 -33.733  1.00  0.00    -0.056 N 
HETATM   13  H   UNL     1     -10.752   3.972 -34.445  1.00  0.00     0.281 HD
HETATM   14  C   UNL     1      -8.855   3.969 -33.670  1.00  0.00     0.256 C 
HETATM   15  C   UNL     1      -8.937   5.491 -33.423  1.00  0.00     0.153 C 
BRANCH  12  16
HETATM   16  C   UNL     1     -10.379   1.979 -34.256  1.00  0.00     0.254 C 
BRANCH  16  17
HETATM   17  C   UNL     1      -9.272   1.079 -33.716  1.00  0.00    -0.023 A 
HETATM   18  C   UNL     1      -9.077   0.885 -32.337  1.00  0.00     0.009 A 
HETATM   19  C   UNL     1      -8.054   0.059 -31.871  1.00  0.00     0.001 A 
HETATM   20  C   UNL     1      -7.212  -0.587 -32.772  1.00  0.00     0.000 A 
HETATM   21  C   UNL     1      -7.391  -0.411 -34.141  1.00  0.00     0.001 A 
HETATM   22  C   UNL     1      -8.413   0.414 -34.612  1.00  0.00     0.009 A 
ENDBRANCH  16  17
BRANCH  16  23
HETATM   23  C   UNL     1     -11.792   1.367 -34.199  1.00  0.00    -0.023 A 
HETATM   24  C   UNL     1     -12.086   0.133 -33.584  1.00  0.00     0.009 A 
HETATM   25  C   UNL     1     -13.394  -0.361 -33.536  1.00  0.00     0.001 A 
HETATM   26  C   UNL     1     -14.441   0.373 -34.081  1.00  0.00     0.000 A 
HETATM   27  C   UNL     1     -14.186   1.607 -34.665  1.00  0.00     0.001 A 
HETATM   28  C   UNL     1     -12.880   2.103 -34.714  1.00  0.00     0.009 A 
ENDBRANCH  16  23
ENDBRANCH  12  16
ENDBRANCH   3   9
BRANCH   1  29
HETATM   29  C   UNL     1      -5.698   4.874 -30.399  1.00  0.00     0.240 C 
HETATM   30  N   UNL     1      -6.210   3.637 -30.740  1.00  0.00    -0.326 N 
HETATM   31  H   UNL     1      -7.216   3.531 -30.785  1.00  0.00     0.169 HD
HETATM   32  O   UNL     1      -4.503   5.171 -30.321  1.00  0.00    -0.271 OA
BRANCH  30  33
HETATM   33  C   UNL     1      -5.465   2.466 -31.019  1.00  0.00     0.034 A 
HETATM   34  C   UNL     1      -5.244   1.444 -30.092  1.00  0.00     0.030 A 
HETATM   35  C   UNL     1      -4.517   0.302 -30.447  1.00  0.00     0.020 A 
HETATM   36  C   UNL     1      -3.994   0.161 -31.736  1.00  0.00     0.039 A 
HETATM   37  C   UNL     1      -4.204   1.184 -32.666  1.00  0.00     0.020 A 
HETATM   38  C   UNL     1      -4.936   2.326 -32.308  1.00  0.00     0.030 A 
BRANCH  36  39
HETATM   39  C   UNL     1      -3.245  -1.086 -32.051  1.00  0.00     0.293 C 
HETATM   40  O   UNL     1      -2.043  -1.203 -31.882  1.00  0.00    -0.259 OA
BRANCH  39  41
HETATM   41  O   UNL     1      -4.082  -2.036 -32.537  1.00  0.00    -0.318 OA
BRANCH  41  42
HETATM   42  C   UNL     1      -4.093  -2.174 -33.967  1.00  0.00     0.174 C 
HETATM   43  C   UNL     1      -4.817  -3.444 -34.369  1.00  0.00     0.034 C 
ENDBRANCH  41  42
ENDBRANCH  39  41
ENDBRANCH  36  39
ENDBRANCH  30  33
ENDBRANCH   1  29
TORSDOF 9
ENDMDL
