MODEL 1
REMARK VINA RESULT:      -7.3      0.000      0.000
REMARK  4 active torsions:
REMARK  status: ('A' for Active; 'I' for Inactive)
REMARK    1  A    between atoms: S_2  and  N_3 
REMARK    2  A    between atoms: N_3  and  N_4 
REMARK    3  A    between atoms: C_10  and  C_11 
REMARK    4  A    between atoms: C_14  and  O_15 
ROOT
HETATM    1  N   UNL     1      -6.197   3.279 -32.445  1.00  0.00    -0.241 N 
HETATM    2  C   UNL     1      -6.312   2.001 -32.964  1.00  0.00     0.272 C 
HETATM    3  O   UNL     1      -7.327   1.617 -33.545  1.00  0.00    -0.266 OA
HETATM    4  C   UNL     1      -5.177   1.095 -32.711  1.00  0.00     0.054 A 
HETATM    5  C   UNL     1      -4.281   1.455 -31.694  1.00  0.00     0.026 A 
HETATM    6  N   UNL     1      -4.454   2.657 -30.983  1.00  0.00    -0.265 NA
HETATM    7  C   UNL     1      -4.970   3.765 -31.805  1.00  0.00     0.217 C 
HETATM    8  C   UNL     1      -5.068  -0.127 -33.380  1.00  0.00     0.019 A 
HETATM    9  C   UNL     1      -4.050  -1.010 -33.026  1.00  0.00     0.001 A 
HETATM   10  C   UNL     1      -3.174  -0.682 -31.989  1.00  0.00     0.002 A 
HETATM   11  C   UNL     1      -3.300   0.536 -31.315  1.00  0.00     0.024 A 
HETATM   12  H   UNL     1      -3.645   2.920 -30.434  1.00  0.00     0.130 HD
ENDROOT
BRANCH   7  13
HETATM   13  C   UNL     1      -3.897   4.271 -32.785  1.00  0.00    -0.020 A 
HETATM   14  C   UNL     1      -4.227   4.791 -34.051  1.00  0.00     0.013 A 
HETATM   15  C   UNL     1      -3.243   5.275 -34.921  1.00  0.00     0.037 A 
HETATM   16  C   UNL     1      -1.910   5.242 -34.535  1.00  0.00     0.065 A 
HETATM   17  C   UNL     1      -1.549   4.749 -33.292  1.00  0.00     0.037 A 
HETATM   18  C   UNL     1      -2.534   4.283 -32.416  1.00  0.00     0.013 A 
BRANCH  16  19
HETATM   19  O   UNL     1      -0.920   5.698 -35.353  1.00  0.00    -0.361 OA
HETATM   20  H   UNL     1      -1.274   5.787 -36.252  1.00  0.00     0.217 HD
ENDBRANCH  16  19
ENDBRANCH   7  13
BRANCH   1  21
HETATM   21  N   UNL     1      -7.481   3.908 -32.042  1.00  0.00    -0.123 NA
HETATM   22  H   UNL     1      -7.451   4.935 -32.099  1.00  0.00     0.165 HD
BRANCH  21  23
HETATM   23  S   UNL     1      -8.274   3.382 -30.642  1.00  0.00     0.222 S 
HETATM   24  C   UNL     1      -8.936   4.922 -30.040  1.00  0.00     0.181 C 
HETATM   25  O   UNL     1      -7.291   2.900 -29.698  1.00  0.00    -0.210 OA
HETATM   26  O   UNL     1      -9.383   2.558 -31.067  1.00  0.00    -0.210 OA
ENDBRANCH  21  23
ENDBRANCH   1  21
TORSDOF 4
ENDMDL
MODEL 2
REMARK VINA RESULT:      -7.2      1.897      2.402
REMARK  4 active torsions:
REMARK  status: ('A' for Active; 'I' for Inactive)
REMARK    1  A    between atoms: S_2  and  N_3 
REMARK    2  A    between atoms: N_3  and  N_4 
REMARK    3  A    between atoms: C_10  and  C_11 
REMARK    4  A    between atoms: C_14  and  O_15 
ROOT
HETATM    1  N   UNL     1      -7.834   1.690 -31.844  1.00  0.00    -0.241 N 
HETATM    2  C   UNL     1      -8.146   0.712 -32.772  1.00  0.00     0.272 C 
HETATM    3  O   UNL     1      -9.304   0.488 -33.127  1.00  0.00    -0.266 OA
HETATM    4  C   UNL     1      -7.018  -0.106 -33.256  1.00  0.00     0.054 A 
HETATM    5  C   UNL     1      -5.839  -0.087 -32.497  1.00  0.00     0.026 A 
HETATM    6  N   UNL     1      -5.743   0.718 -31.347  1.00  0.00    -0.265 NA
HETATM    7  C   UNL     1      -6.453   2.004 -31.461  1.00  0.00     0.217 C 
HETATM    8  C   UNL     1      -7.163  -0.952 -34.358  1.00  0.00     0.019 A 
HETATM    9  C   UNL     1      -6.114  -1.800 -34.709  1.00  0.00     0.001 A 
HETATM   10  C   UNL     1      -4.949  -1.820 -33.941  1.00  0.00     0.002 A 
HETATM   11  C   UNL     1      -4.819  -0.981 -32.830  1.00  0.00     0.024 A 
HETATM   12  H   UNL     1      -4.795   0.823 -31.007  1.00  0.00     0.130 HD
ENDROOT
BRANCH   7  13
HETATM   13  C   UNL     1      -5.724   2.955 -32.426  1.00  0.00    -0.020 A 
HETATM   14  C   UNL     1      -6.399   3.636 -33.455  1.00  0.00     0.013 A 
HETATM   15  C   UNL     1      -5.728   4.520 -34.308  1.00  0.00     0.037 A 
HETATM   16  C   UNL     1      -4.367   4.733 -34.142  1.00  0.00     0.065 A 
HETATM   17  C   UNL     1      -3.672   4.090 -33.132  1.00  0.00     0.037 A 
HETATM   18  C   UNL     1      -4.346   3.221 -32.268  1.00  0.00     0.013 A 
BRANCH  16  19
HETATM   19  O   UNL     1      -3.673   5.582 -34.952  1.00  0.00    -0.361 OA
HETATM   20  H   UNL     1      -3.679   5.225 -35.855  1.00  0.00     0.217 HD
ENDBRANCH  16  19
ENDBRANCH   7  13
BRANCH   1  21
HETATM   21  N   UNL     1      -8.907   1.983 -30.860  1.00  0.00    -0.123 NA
HETATM   22  H   UNL     1      -9.663   1.286 -30.883  1.00  0.00     0.165 HD
BRANCH  21  23
HETATM   23  S   UNL     1      -9.513   3.558 -30.720  1.00  0.00     0.222 S 
HETATM   24  C   UNL     1      -9.803   3.953 -32.431  1.00  0.00     0.181 C 
HETATM   25  O   UNL     1      -8.467   4.421 -30.216  1.00  0.00    -0.210 OA
HETATM   26  O   UNL     1     -10.797   3.462 -30.062  1.00  0.00    -0.210 OA
ENDBRANCH  21  23
ENDBRANCH   1  21
TORSDOF 4
ENDMDL
MODEL 3
REMARK VINA RESULT:      -7.1     17.054     18.632
REMARK  4 active torsions:
REMARK  status: ('A' for Active; 'I' for Inactive)
REMARK    1  A    between atoms: S_2  and  N_3 
REMARK    2  A    between atoms: N_3  and  N_4 
REMARK    3  A    between atoms: C_10  and  C_11 
REMARK    4  A    between atoms: C_14  and  O_15 
ROOT
HETATM    1  N   UNL     1      -7.076 -14.620 -37.090  1.00  0.00    -0.241 N 
HETATM    2  C   UNL     1      -6.062 -15.251 -37.791  1.00  0.00     0.272 C 
HETATM    3  O   UNL     1      -5.552 -16.303 -37.404  1.00  0.00    -0.266 OA
HETATM    4  C   UNL     1      -5.568 -14.548 -38.989  1.00  0.00     0.054 A 
HETATM    5  C   UNL     1      -5.881 -13.186 -39.109  1.00  0.00     0.026 A 
HETATM    6  N   UNL     1      -6.670 -12.546 -38.136  1.00  0.00    -0.265 NA
HETATM    7  C   UNL     1      -7.730 -13.400 -37.575  1.00  0.00     0.217 C 
HETATM    8  C   UNL     1      -4.726 -15.187 -39.903  1.00  0.00     0.019 A 
HETATM    9  C   UNL     1      -4.181 -14.454 -40.955  1.00  0.00     0.001 A 
HETATM   10  C   UNL     1      -4.452 -13.089 -41.067  1.00  0.00     0.002 A 
HETATM   11  C   UNL     1      -5.283 -12.455 -40.139  1.00  0.00     0.024 A 
HETATM   12  H   UNL     1      -7.011 -11.638 -38.428  1.00  0.00     0.130 HD
ENDROOT
BRANCH   7  13
HETATM   13  C   UNL     1      -8.848 -13.641 -38.604  1.00  0.00    -0.020 A 
HETATM   14  C   UNL     1      -9.529 -12.579 -39.229  1.00  0.00     0.013 A 
HETATM   15  C   UNL     1     -10.525 -12.812 -40.185  1.00  0.00     0.037 A 
HETATM   16  C   UNL     1     -10.855 -14.115 -40.528  1.00  0.00     0.065 A 
HETATM   17  C   UNL     1     -10.197 -15.185 -39.943  1.00  0.00     0.037 A 
HETATM   18  C   UNL     1      -9.190 -14.951 -39.002  1.00  0.00     0.013 A 
BRANCH  16  19
HETATM   19  O   UNL     1     -11.820 -14.388 -41.450  1.00  0.00    -0.361 OA
HETATM   20  H   UNL     1     -11.414 -14.855 -42.198  1.00  0.00     0.217 HD
ENDBRANCH  16  19
ENDBRANCH   7  13
BRANCH   1  21
HETATM   21  N   UNL     1      -7.072 -14.867 -35.626  1.00  0.00    -0.123 NA
HETATM   22  H   UNL     1      -7.977 -15.213 -35.283  1.00  0.00     0.165 HD
BRANCH  21  23
HETATM   23  S   UNL     1      -6.406 -13.714 -34.580  1.00  0.00     0.222 S 
HETATM   24  C   UNL     1      -5.918 -14.749 -33.216  1.00  0.00     0.181 C 
HETATM   25  O   UNL     1      -7.454 -12.823 -34.134  1.00  0.00    -0.210 OA
HETATM   26  O   UNL     1      -5.204 -13.214 -35.210  1.00  0.00    -0.210 OA
ENDBRANCH  21  23
ENDBRANCH   1  21
TORSDOF 4
ENDMDL
MODEL 4
REMARK VINA RESULT:      -7.0      1.919      2.523
REMARK  4 active torsions:
REMARK  status: ('A' for Active; 'I' for Inactive)
REMARK    1  A    between atoms: S_2  and  N_3 
REMARK    2  A    between atoms: N_3  and  N_4 
REMARK    3  A    between atoms: C_10  and  C_11 
REMARK    4  A    between atoms: C_14  and  O_15 
ROOT
HETATM    1  N   UNL     1      -7.412   1.947 -33.790  1.00  0.00    -0.241 N 
HETATM    2  C   UNL     1      -7.026   0.726 -34.316  1.00  0.00     0.272 C 
HETATM    3  O   UNL     1      -7.618   0.201 -35.260  1.00  0.00    -0.266 OA
HETATM    4  C   UNL     1      -5.911   0.047 -33.630  1.00  0.00     0.054 A 
HETATM    5  C   UNL     1      -5.593   0.484 -32.336  1.00  0.00     0.026 A 
HETATM    6  N   UNL     1      -6.294   1.555 -31.751  1.00  0.00    -0.265 NA
HETATM    7  C   UNL     1      -6.676   2.608 -32.707  1.00  0.00     0.217 C 
HETATM    8  C   UNL     1      -5.280  -1.060 -34.203  1.00  0.00     0.019 A 
HETATM    9  C   UNL     1      -4.316  -1.749 -33.471  1.00  0.00     0.001 A 
HETATM   10  C   UNL     1      -4.015  -1.350 -32.167  1.00  0.00     0.002 A 
HETATM   11  C   UNL     1      -4.663  -0.250 -31.597  1.00  0.00     0.024 A 
HETATM   12  H   UNL     1      -5.846   1.923 -30.920  1.00  0.00     0.130 HD
ENDROOT
BRANCH   7  13
HETATM   13  C   UNL     1      -5.445   3.409 -33.167  1.00  0.00    -0.020 A 
HETATM   14  C   UNL     1      -4.210   3.330 -32.497  1.00  0.00     0.013 A 
HETATM   15  C   UNL     1      -3.090   4.042 -32.944  1.00  0.00     0.037 A 
HETATM   16  C   UNL     1      -3.194   4.848 -34.069  1.00  0.00     0.065 A 
HETATM   17  C   UNL     1      -4.391   4.941 -34.760  1.00  0.00     0.037 A 
HETATM   18  C   UNL     1      -5.503   4.214 -34.325  1.00  0.00     0.013 A 
BRANCH  16  19
HETATM   19  O   UNL     1      -2.131   5.562 -34.535  1.00  0.00    -0.361 OA
HETATM   20  H   UNL     1      -2.455   6.404 -34.896  1.00  0.00     0.217 HD
ENDBRANCH  16  19
ENDBRANCH   7  13
BRANCH   1  21
HETATM   21  N   UNL     1      -8.855   2.265 -33.939  1.00  0.00    -0.123 NA
HETATM   22  H   UNL     1      -9.014   3.226 -34.267  1.00  0.00     0.165 HD
BRANCH  21  23
HETATM   23  S   UNL     1      -9.942   1.833 -32.715  1.00  0.00     0.222 S 
HETATM   24  C   UNL     1     -11.260   1.125 -33.679  1.00  0.00     0.181 C 
HETATM   25  O   UNL     1     -10.430   3.034 -32.074  1.00  0.00    -0.210 OA
HETATM   26  O   UNL     1      -9.325   0.768 -31.956  1.00  0.00    -0.210 OA
ENDBRANCH  21  23
ENDBRANCH   1  21
TORSDOF 4
ENDMDL
MODEL 5
REMARK VINA RESULT:      -6.8      2.967      5.535
REMARK  4 active torsions:
REMARK  status: ('A' for Active; 'I' for Inactive)
REMARK    1  A    between atoms: S_2  and  N_3 
REMARK    2  A    between atoms: N_3  and  N_4 
REMARK    3  A    between atoms: C_10  and  C_11 
REMARK    4  A    between atoms: C_14  and  O_15 
ROOT
HETATM    1  N   UNL     1      -5.947   2.275 -32.153  1.00  0.00    -0.241 N 
HETATM    2  C   UNL     1      -6.913   2.706 -33.047  1.00  0.00     0.272 C 
HETATM    3  O   UNL     1      -6.813   3.770 -33.658  1.00  0.00    -0.266 OA
HETATM    4  C   UNL     1      -8.112   1.856 -33.166  1.00  0.00     0.054 A 
HETATM    5  C   UNL     1      -8.344   0.926 -32.141  1.00  0.00     0.026 A 
HETATM    6  N   UNL     1      -7.436   0.798 -31.074  1.00  0.00    -0.265 NA
HETATM    7  C   UNL     1      -6.028   0.981 -31.467  1.00  0.00     0.217 C 
HETATM    8  C   UNL     1      -9.035   2.053 -34.196  1.00  0.00     0.019 A 
HETATM    9  C   UNL     1     -10.215   1.313 -34.203  1.00  0.00     0.001 A 
HETATM   10  C   UNL     1     -10.479   0.411 -33.171  1.00  0.00     0.002 A 
HETATM   11  C   UNL     1      -9.556   0.232 -32.136  1.00  0.00     0.024 A 
HETATM   12  H   UNL     1      -7.582  -0.037 -30.519  1.00  0.00     0.130 HD
ENDROOT
BRANCH   7  13
HETATM   13  C   UNL     1      -5.525  -0.214 -32.295  1.00  0.00    -0.020 A 
HETATM   14  C   UNL     1      -6.180  -0.638 -33.467  1.00  0.00     0.013 A 
HETATM   15  C   UNL     1      -5.695  -1.710 -34.227  1.00  0.00     0.037 A 
HETATM   16  C   UNL     1      -4.546  -2.374 -33.821  1.00  0.00     0.065 A 
HETATM   17  C   UNL     1      -3.869  -1.977 -32.680  1.00  0.00     0.037 A 
HETATM   18  C   UNL     1      -4.343  -0.895 -31.932  1.00  0.00     0.013 A 
BRANCH  16  19
HETATM   19  O   UNL     1      -4.042  -3.425 -34.528  1.00  0.00    -0.361 OA
HETATM   20  H   UNL     1      -3.106  -3.252 -34.717  1.00  0.00     0.217 HD
ENDBRANCH  16  19
ENDBRANCH   7  13
BRANCH   1  21
HETATM   21  N   UNL     1      -5.174   3.359 -31.495  1.00  0.00    -0.123 NA
HETATM   22  H   UNL     1      -5.696   4.245 -31.456  1.00  0.00     0.165 HD
BRANCH  21  23
HETATM   23  S   UNL     1      -3.551   3.606 -31.907  1.00  0.00     0.222 S 
HETATM   24  C   UNL     1      -3.230   5.144 -31.071  1.00  0.00     0.181 C 
HETATM   25  O   UNL     1      -3.456   3.825 -33.333  1.00  0.00    -0.210 OA
HETATM   26  O   UNL     1      -2.784   2.573 -31.247  1.00  0.00    -0.210 OA
ENDBRANCH  21  23
ENDBRANCH   1  21
TORSDOF 4
ENDMDL
MODEL 6
REMARK VINA RESULT:      -6.8      2.605      5.608
REMARK  4 active torsions:
REMARK  status: ('A' for Active; 'I' for Inactive)
REMARK    1  A    between atoms: S_2  and  N_3 
REMARK    2  A    between atoms: N_3  and  N_4 
REMARK    3  A    between atoms: C_10  and  C_11 
REMARK    4  A    between atoms: C_14  and  O_15 
ROOT
HETATM    1  N   UNL     1      -5.466   2.687 -31.486  1.00  0.00    -0.241 N 
HETATM    2  C   UNL     1      -5.339   1.311 -31.575  1.00  0.00     0.272 C 
HETATM    3  O   UNL     1      -4.656   0.662 -30.783  1.00  0.00    -0.266 OA
HETATM    4  C   UNL     1      -6.005   0.672 -32.725  1.00  0.00     0.054 A 
HETATM    5  C   UNL     1      -6.377   1.500 -33.794  1.00  0.00     0.026 A 
HETATM    6  N   UNL     1      -6.152   2.888 -33.734  1.00  0.00    -0.265 NA
HETATM    7  C   UNL     1      -6.326   3.460 -32.389  1.00  0.00     0.217 C 
HETATM    8  C   UNL     1      -6.152  -0.716 -32.792  1.00  0.00     0.019 A 
HETATM    9  C   UNL     1      -6.674  -1.292 -33.948  1.00  0.00     0.001 A 
HETATM   10  C   UNL     1      -7.013  -0.484 -35.035  1.00  0.00     0.002 A 
HETATM   11  C   UNL     1      -6.849   0.902 -34.965  1.00  0.00     0.024 A 
HETATM   12  H   UNL     1      -6.647   3.407 -34.449  1.00  0.00     0.130 HD
ENDROOT
BRANCH   7  13
HETATM   13  C   UNL     1      -7.812   3.487 -31.988  1.00  0.00    -0.020 A 
HETATM   14  C   UNL     1      -8.237   3.194 -30.679  1.00  0.00     0.013 A 
HETATM   15  C   UNL     1      -9.589   3.250 -30.321  1.00  0.00     0.037 A 
HETATM   16  C   UNL     1     -10.537   3.599 -31.273  1.00  0.00     0.065 A 
HETATM   17  C   UNL     1     -10.154   3.906 -32.568  1.00  0.00     0.037 A 
HETATM   18  C   UNL     1      -8.801   3.868 -32.920  1.00  0.00     0.013 A 
BRANCH  16  19
HETATM   19  O   UNL     1     -11.864   3.662 -30.969  1.00  0.00    -0.361 OA
HETATM   20  H   UNL     1     -12.048   3.040 -30.247  1.00  0.00     0.217 HD
ENDBRANCH  16  19
ENDBRANCH   7  13
BRANCH   1  21
HETATM   21  N   UNL     1      -4.309   3.384 -30.869  1.00  0.00    -0.123 NA
HETATM   22  H   UNL     1      -4.596   4.071 -30.160  1.00  0.00     0.165 HD
BRANCH  21  23
HETATM   23  S   UNL     1      -3.065   3.979 -31.850  1.00  0.00     0.222 S 
HETATM   24  C   UNL     1      -3.427   5.722 -31.819  1.00  0.00     0.181 C 
HETATM   25  O   UNL     1      -3.253   3.490 -33.197  1.00  0.00    -0.210 OA
HETATM   26  O   UNL     1      -1.825   3.771 -31.135  1.00  0.00    -0.210 OA
ENDBRANCH  21  23
ENDBRANCH   1  21
TORSDOF 4
ENDMDL
MODEL 7
REMARK VINA RESULT:      -6.8     16.529     18.007
REMARK  4 active torsions:
REMARK  status: ('A' for Active; 'I' for Inactive)
REMARK    1  A    between atoms: S_2  and  N_3 
REMARK    2  A    between atoms: N_3  and  N_4 
REMARK    3  A    between atoms: C_10  and  C_11 
REMARK    4  A    between atoms: C_14  and  O_15 
ROOT
HETATM    1  N   UNL     1      -4.468 -13.460 -36.245  1.00  0.00    -0.241 N 
HETATM    2  C   UNL     1      -3.378 -14.284 -36.020  1.00  0.00     0.272 C 
HETATM    3  O   UNL     1      -3.295 -15.006 -35.026  1.00  0.00    -0.266 OA
HETATM    4  C   UNL     1      -2.281 -14.190 -37.000  1.00  0.00     0.054 A 
HETATM    5  C   UNL     1      -2.256 -13.059 -37.830  1.00  0.00     0.026 A 
HETATM    6  N   UNL     1      -3.270 -12.087 -37.742  1.00  0.00    -0.265 NA
HETATM    7  C   UNL     1      -4.603 -12.643 -37.456  1.00  0.00     0.217 C 
HETATM    8  C   UNL     1      -1.248 -15.130 -37.018  1.00  0.00     0.019 A 
HETATM    9  C   UNL     1      -0.166 -14.939 -37.875  1.00  0.00     0.001 A 
HETATM   10  C   UNL     1      -0.109 -13.799 -38.679  1.00  0.00     0.002 A 
HETATM   11  C   UNL     1      -1.139 -12.855 -38.644  1.00  0.00     0.024 A 
HETATM   12  H   UNL     1      -3.274 -11.439 -38.521  1.00  0.00     0.130 HD
ENDROOT
BRANCH   7  13
HETATM   13  C   UNL     1      -5.161 -13.396 -38.676  1.00  0.00    -0.020 A 
HETATM   14  C   UNL     1      -5.685 -14.698 -38.573  1.00  0.00     0.013 A 
HETATM   15  C   UNL     1      -6.216 -15.362 -39.686  1.00  0.00     0.037 A 
HETATM   16  C   UNL     1      -6.227 -14.729 -40.921  1.00  0.00     0.065 A 
HETATM   17  C   UNL     1      -5.732 -13.443 -41.057  1.00  0.00     0.037 A 
HETATM   18  C   UNL     1      -5.219 -12.774 -39.941  1.00  0.00     0.013 A 
BRANCH  16  19
HETATM   19  O   UNL     1      -6.731 -15.339 -42.031  1.00  0.00    -0.361 OA
HETATM   20  H   UNL     1      -6.306 -14.957 -42.816  1.00  0.00     0.217 HD
ENDBRANCH  16  19
ENDBRANCH   7  13
BRANCH   1  21
HETATM   21  N   UNL     1      -5.167 -12.999 -35.019  1.00  0.00    -0.123 NA
HETATM   22  H   UNL     1      -4.517 -12.791 -34.250  1.00  0.00     0.165 HD
BRANCH  21  23
HETATM   23  S   UNL     1      -6.540 -13.825 -34.472  1.00  0.00     0.222 S 
HETATM   24  C   UNL     1      -6.008 -14.303 -32.841  1.00  0.00     0.181 C 
HETATM   25  O   UNL     1      -6.720 -15.017 -35.269  1.00  0.00    -0.210 OA
HETATM   26  O   UNL     1      -7.593 -12.846 -34.325  1.00  0.00    -0.210 OA
ENDBRANCH  21  23
ENDBRANCH   1  21
TORSDOF 4
ENDMDL
MODEL 8
REMARK VINA RESULT:      -6.6      2.056      4.780
REMARK  4 active torsions:
REMARK  status: ('A' for Active; 'I' for Inactive)
REMARK    1  A    between atoms: S_2  and  N_3 
REMARK    2  A    between atoms: N_3  and  N_4 
REMARK    3  A    between atoms: C_10  and  C_11 
REMARK    4  A    between atoms: C_14  and  O_15 
ROOT
HETATM    1  N   UNL     1      -6.114   4.573 -31.932  1.00  0.00    -0.241 N 
HETATM    2  C   UNL     1      -4.803   4.917 -31.650  1.00  0.00     0.272 C 
HETATM    3  O   UNL     1      -4.445   5.271 -30.526  1.00  0.00    -0.266 OA
HETATM    4  C   UNL     1      -3.871   4.913 -32.792  1.00  0.00     0.054 A 
HETATM    5  C   UNL     1      -4.431   4.931 -34.078  1.00  0.00     0.026 A 
HETATM    6  N   UNL     1      -5.827   4.912 -34.249  1.00  0.00    -0.265 NA
HETATM    7  C   UNL     1      -6.537   4.092 -33.252  1.00  0.00     0.217 C 
HETATM    8  C   UNL     1      -2.490   5.005 -32.596  1.00  0.00     0.019 A 
HETATM    9  C   UNL     1      -1.651   5.123 -33.701  1.00  0.00     0.001 A 
HETATM   10  C   UNL     1      -2.196   5.180 -34.985  1.00  0.00     0.002 A 
HETATM   11  C   UNL     1      -3.579   5.103 -35.171  1.00  0.00     0.024 A 
HETATM   12  H   UNL     1      -6.114   4.709 -35.199  1.00  0.00     0.130 HD
ENDROOT
BRANCH   7  13
HETATM   13  C   UNL     1      -6.291   2.593 -33.494  1.00  0.00    -0.020 A 
HETATM   14  C   UNL     1      -5.526   1.809 -32.609  1.00  0.00     0.013 A 
HETATM   15  C   UNL     1      -5.334   0.440 -32.826  1.00  0.00     0.037 A 
HETATM   16  C   UNL     1      -5.905  -0.165 -33.937  1.00  0.00     0.065 A 
HETATM   17  C   UNL     1      -6.674   0.572 -34.823  1.00  0.00     0.037 A 
HETATM   18  C   UNL     1      -6.881   1.936 -34.595  1.00  0.00     0.013 A 
BRANCH  16  19
HETATM   19  O   UNL     1      -5.741  -1.495 -34.190  1.00  0.00    -0.361 OA
HETATM   20  H   UNL     1      -5.404  -1.601 -35.094  1.00  0.00     0.217 HD
ENDBRANCH  16  19
ENDBRANCH   7  13
BRANCH   1  21
HETATM   21  N   UNL     1      -7.133   5.238 -31.080  1.00  0.00    -0.123 NA
HETATM   22  H   UNL     1      -6.835   6.171 -30.767  1.00  0.00     0.165 HD
BRANCH  21  23
HETATM   23  S   UNL     1      -7.885   4.370 -29.837  1.00  0.00     0.222 S 
HETATM   24  C   UNL     1      -7.298   5.261 -28.411  1.00  0.00     0.181 C 
HETATM   25  O   UNL     1      -7.342   3.031 -29.802  1.00  0.00    -0.210 OA
HETATM   26  O   UNL     1      -9.306   4.608 -29.953  1.00  0.00    -0.210 OA
ENDBRANCH  21  23
ENDBRANCH   1  21
TORSDOF 4
ENDMDL
MODEL 9
REMARK VINA RESULT:      -6.4      3.293      5.501
REMARK  4 active torsions:
REMARK  status: ('A' for Active; 'I' for Inactive)
REMARK    1  A    between atoms: S_2  and  N_3 
REMARK    2  A    between atoms: N_3  and  N_4 
REMARK    3  A    between atoms: C_10  and  C_11 
REMARK    4  A    between atoms: C_14  and  O_15 
ROOT
HETATM    1  N   UNL     1      -9.064   1.592 -32.466  1.00  0.00    -0.241 N 
HETATM    2  C   UNL     1      -8.796   2.728 -31.721  1.00  0.00     0.272 C 
HETATM    3  O   UNL     1      -9.494   3.065 -30.763  1.00  0.00    -0.266 OA
HETATM    4  C   UNL     1      -7.673   3.560 -32.188  1.00  0.00     0.054 A 
HETATM    5  C   UNL     1      -7.224   3.355 -33.502  1.00  0.00     0.026 A 
HETATM    6  N   UNL     1      -7.809   2.363 -34.309  1.00  0.00    -0.265 NA
HETATM    7  C   UNL     1      -8.203   1.151 -33.569  1.00  0.00     0.217 C 
HETATM    8  C   UNL     1      -7.158   4.588 -31.393  1.00  0.00     0.019 A 
HETATM    9  C   UNL     1      -6.181   5.431 -31.918  1.00  0.00     0.001 A 
HETATM   10  C   UNL     1      -5.751   5.263 -33.236  1.00  0.00     0.002 A 
HETATM   11  C   UNL     1      -6.283   4.242 -34.029  1.00  0.00     0.024 A 
HETATM   12  H   UNL     1      -7.274   2.156 -35.143  1.00  0.00     0.130 HD
ENDROOT
BRANCH   7  13
HETATM   13  C   UNL     1      -6.968   0.344 -33.133  1.00  0.00    -0.020 A 
HETATM   14  C   UNL     1      -6.012  -0.115 -34.058  1.00  0.00     0.013 A 
HETATM   15  C   UNL     1      -4.878  -0.824 -33.644  1.00  0.00     0.037 A 
HETATM   16  C   UNL     1      -4.688  -1.085 -32.294  1.00  0.00     0.065 A 
HETATM   17  C   UNL     1      -5.601  -0.638 -31.354  1.00  0.00     0.037 A 
HETATM   18  C   UNL     1      -6.724   0.086 -31.767  1.00  0.00     0.013 A 
BRANCH  16  19
HETATM   19  O   UNL     1      -3.600  -1.776 -31.847  1.00  0.00    -0.361 OA
HETATM   20  H   UNL     1      -3.297  -2.369 -32.553  1.00  0.00     0.217 HD
ENDBRANCH  16  19
ENDBRANCH   7  13
BRANCH   1  21
HETATM   21  N   UNL     1     -10.493   1.188 -32.500  1.00  0.00    -0.123 NA
HETATM   22  H   UNL     1     -10.611   0.171 -32.594  1.00  0.00     0.165 HD
BRANCH  21  23
HETATM   23  S   UNL     1     -11.584   2.039 -33.474  1.00  0.00     0.222 S 
HETATM   24  C   UNL     1     -12.749   0.750 -33.866  1.00  0.00     0.181 C 
HETATM   25  O   UNL     1     -10.915   2.442 -34.690  1.00  0.00    -0.210 OA
HETATM   26  O   UNL     1     -12.253   2.998 -32.624  1.00  0.00    -0.210 OA
ENDBRANCH  21  23
ENDBRANCH   1  21
TORSDOF 4
ENDMDL
MODEL 10
REMARK VINA RESULT:      -6.4     17.277     18.986
REMARK  4 active torsions:
REMARK  status: ('A' for Active; 'I' for Inactive)
REMARK    1  A    between atoms: S_2  and  N_3 
REMARK    2  A    between atoms: N_3  and  N_4 
REMARK    3  A    between atoms: C_10  and  C_11 
REMARK    4  A    between atoms: C_14  and  O_15 
ROOT
HETATM    1  N   UNL     1      -4.923 -13.439 -39.261  1.00  0.00    -0.241 N 
HETATM    2  C   UNL     1      -4.816 -13.133 -37.915  1.00  0.00     0.272 C 
HETATM    3  O   UNL     1      -4.055 -12.258 -37.499  1.00  0.00    -0.266 OA
HETATM    4  C   UNL     1      -5.608 -13.969 -36.994  1.00  0.00     0.054 A 
HETATM    5  C   UNL     1      -6.088 -15.191 -37.489  1.00  0.00     0.026 A 
HETATM    6  N   UNL     1      -5.847 -15.565 -38.824  1.00  0.00    -0.265 NA
HETATM    7  C   UNL     1      -5.871 -14.436 -39.770  1.00  0.00     0.217 C 
HETATM    8  C   UNL     1      -5.771 -13.610 -35.654  1.00  0.00     0.019 A 
HETATM    9  C   UNL     1      -6.420 -14.487 -34.788  1.00  0.00     0.001 A 
HETATM   10  C   UNL     1      -6.870 -15.723 -35.256  1.00  0.00     0.002 A 
HETATM   11  C   UNL     1      -6.689 -16.080 -36.595  1.00  0.00     0.024 A 
HETATM   12  H   UNL     1      -6.414 -16.346 -39.132  1.00  0.00     0.130 HD
ENDROOT
BRANCH   7  13
HETATM   13  C   UNL     1      -7.304 -13.912 -39.970  1.00  0.00    -0.020 A 
HETATM   14  C   UNL     1      -7.591 -12.536 -40.044  1.00  0.00     0.013 A 
HETATM   15  C   UNL     1      -8.896 -12.074 -40.255  1.00  0.00     0.037 A 
HETATM   16  C   UNL     1      -9.933 -12.986 -40.392  1.00  0.00     0.065 A 
HETATM   17  C   UNL     1      -9.685 -14.347 -40.337  1.00  0.00     0.037 A 
HETATM   18  C   UNL     1      -8.379 -14.809 -40.146  1.00  0.00     0.013 A 
BRANCH  16  19
HETATM   19  O   UNL     1     -11.218 -12.579 -40.594  1.00  0.00    -0.361 OA
HETATM   20  H   UNL     1     -11.453 -11.934 -39.907  1.00  0.00     0.217 HD
ENDBRANCH  16  19
ENDBRANCH   7  13
BRANCH   1  21
HETATM   21  N   UNL     1      -3.701 -13.175 -40.062  1.00  0.00    -0.123 NA
HETATM   22  H   UNL     1      -3.872 -12.522 -40.837  1.00  0.00     0.165 HD
BRANCH  21  23
HETATM   23  S   UNL     1      -2.711 -14.464 -40.536  1.00  0.00     0.222 S 
HETATM   24  C   UNL     1      -1.110 -13.685 -40.485  1.00  0.00     0.181 C 
HETATM   25  O   UNL     1      -3.014 -14.811 -41.906  1.00  0.00    -0.210 OA
HETATM   26  O   UNL     1      -2.759 -15.447 -39.477  1.00  0.00    -0.210 OA
ENDBRANCH  21  23
ENDBRANCH   1  21
TORSDOF 4
ENDMDL
