MODEL 1
REMARK VINA RESULT:      -6.8      0.000      0.000
REMARK  5 active torsions:
REMARK  status: ('A' for Active; 'I' for Inactive)
REMARK    1  A    between atoms: C_2  and  O_3 
REMARK    2  A    between atoms: C_4  and  C_5 
REMARK    3  A    between atoms: C_5  and  O_6 
REMARK    4  A    between atoms: C_9  and  C_10 
REMARK    5  A    between atoms: C_22  and  O_23 
ROOT
HETATM    1  C   UNL     1      -6.466   4.384 -31.123  1.00  0.00     0.047 C 
HETATM    2  C   UNL     1      -6.607   2.946 -30.585  1.00  0.00     0.073 C 
HETATM    3  C   UNL     1      -5.957   1.935 -31.599  1.00  0.00     0.133 C 
HETATM    4  C   UNL     1      -6.795   1.655 -32.893  1.00  0.00     0.074 C 
HETATM    5  C   UNL     1      -8.242   1.994 -32.739  1.00  0.00     0.030 A 
HETATM    6  C   UNL     1      -8.814   2.415 -31.559  1.00  0.00     0.042 A 
HETATM    7  N   UNL     1     -10.132   2.663 -31.816  1.00  0.00    -0.279 N 
HETATM    8  H   UNL     1     -10.855   2.987 -31.181  1.00  0.00     0.189 HD
HETATM    9  N   UNL     1     -10.450   2.477 -33.114  1.00  0.00    -0.149 NA
HETATM   10  C   UNL     1      -9.300   2.087 -33.647  1.00  0.00     0.190 A 
HETATM   11  C   UNL     1      -8.104   2.636 -30.283  1.00  0.00     0.097 C 
ENDROOT
BRANCH   4  12
HETATM   12  C   UNL     1      -6.760   0.226 -33.427  1.00  0.00    -0.048 A 
HETATM   13  C   UNL     1      -7.841  -0.665 -33.272  1.00  0.00     0.009 A 
HETATM   14  C   UNL     1      -7.766  -1.978 -33.742  1.00  0.00     0.019 A 
HETATM   15  C   UNL     1      -6.606  -2.418 -34.372  1.00  0.00     0.011 A 
HETATM   16 BR   UNL     1      -6.500  -4.195 -35.005  1.00  0.00    -0.051 Br
HETATM   17  C   UNL     1      -5.523  -1.558 -34.535  1.00  0.00     0.019 A 
HETATM   18  C   UNL     1      -5.599  -0.245 -34.062  1.00  0.00     0.009 A 
ENDBRANCH   4  12
BRANCH   3  19
HETATM   19  C   UNL     1      -5.541   0.670 -30.876  1.00  0.00     0.266 C 
HETATM   20  O   UNL     1      -6.290  -0.019 -30.193  1.00  0.00    -0.265 OA
BRANCH  19  21
HETATM   21  O   UNL     1      -4.210   0.440 -31.052  1.00  0.00    -0.326 OA
HETATM   22  C   UNL     1      -3.462   1.578 -31.480  1.00  0.00     0.213 C 
ENDBRANCH  19  21
ENDBRANCH   3  19
BRANCH   2  23
HETATM   23  O   UNL     1      -5.880   2.955 -29.343  1.00  0.00    -0.389 OA
HETATM   24  H   UNL     1      -5.842   3.881 -29.027  1.00  0.00     0.210 HD
ENDBRANCH   2  23
BRANCH  10  25
HETATM   25  O   UNL     1      -9.318   1.878 -34.957  1.00  0.00    -0.343 OA
HETATM   26  H   UNL     1      -8.710   1.133 -35.095  1.00  0.00     0.219 HD
ENDBRANCH  10  25
TORSDOF 5
ENDMDL
MODEL 2
REMARK VINA RESULT:      -6.7      3.092      5.419
REMARK  5 active torsions:
REMARK  status: ('A' for Active; 'I' for Inactive)
REMARK    1  A    between atoms: C_2  and  O_3 
REMARK    2  A    between atoms: C_4  and  C_5 
REMARK    3  A    between atoms: C_5  and  O_6 
REMARK    4  A    between atoms: C_9  and  C_10 
REMARK    5  A    between atoms: C_22  and  O_23 
ROOT
HETATM    1  C   UNL     1     -12.670   4.691 -32.483  1.00  0.00     0.047 C 
HETATM    2  C   UNL     1     -12.436   3.771 -33.697  1.00  0.00     0.073 C 
HETATM    3  C   UNL     1     -11.711   2.455 -33.231  1.00  0.00     0.133 C 
HETATM    4  C   UNL     1     -10.185   2.610 -32.909  1.00  0.00     0.074 C 
HETATM    5  C   UNL     1      -9.573   3.817 -33.541  1.00  0.00     0.030 A 
HETATM    6  C   UNL     1     -10.242   4.661 -34.401  1.00  0.00     0.042 A 
HETATM    7  N   UNL     1      -9.376   5.661 -34.738  1.00  0.00    -0.279 N 
HETATM    8  H   UNL     1      -9.529   6.455 -35.351  1.00  0.00     0.189 HD
HETATM    9  N   UNL     1      -8.188   5.553 -34.107  1.00  0.00    -0.149 NA
HETATM   10  C   UNL     1      -8.336   4.447 -33.390  1.00  0.00     0.190 A 
HETATM   11  C   UNL     1     -11.657   4.540 -34.805  1.00  0.00     0.097 C 
ENDROOT
BRANCH   4  12
HETATM   12  C   UNL     1      -9.288   1.439 -33.299  1.00  0.00    -0.048 A 
HETATM   13  C   UNL     1      -8.918   0.433 -32.384  1.00  0.00     0.009 A 
HETATM   14  C   UNL     1      -8.068  -0.609 -32.762  1.00  0.00     0.019 A 
HETATM   15  C   UNL     1      -7.575  -0.656 -34.062  1.00  0.00     0.011 A 
HETATM   16 BR   UNL     1      -6.421  -2.062 -34.575  1.00  0.00    -0.051 Br
HETATM   17  C   UNL     1      -7.922   0.328 -34.985  1.00  0.00     0.019 A 
HETATM   18  C   UNL     1      -8.773   1.370 -34.604  1.00  0.00     0.009 A 
ENDBRANCH   4  12
BRANCH   3  19
HETATM   19  C   UNL     1     -12.000   1.330 -34.205  1.00  0.00     0.266 C 
HETATM   20  O   UNL     1     -12.019   1.454 -35.423  1.00  0.00    -0.265 OA
BRANCH  19  21
HETATM   21  O   UNL     1     -12.286   0.181 -33.530  1.00  0.00    -0.326 OA
HETATM   22  C   UNL     1     -13.638  -0.259 -33.653  1.00  0.00     0.213 C 
ENDBRANCH  19  21
ENDBRANCH   3  19
BRANCH   2  23
HETATM   23  O   UNL     1     -13.757   3.475 -34.184  1.00  0.00    -0.389 OA
HETATM   24  H   UNL     1     -14.254   3.046 -33.457  1.00  0.00     0.210 HD
ENDBRANCH   2  23
BRANCH  10  25
HETATM   25  O   UNL     1      -7.306   4.126 -32.616  1.00  0.00    -0.343 OA
HETATM   26  H   UNL     1      -7.577   3.302 -32.178  1.00  0.00     0.219 HD
ENDBRANCH  10  25
TORSDOF 5
ENDMDL
MODEL 3
REMARK VINA RESULT:      -6.6      3.575      5.239
REMARK  5 active torsions:
REMARK  status: ('A' for Active; 'I' for Inactive)
REMARK    1  A    between atoms: C_2  and  O_3 
REMARK    2  A    between atoms: C_4  and  C_5 
REMARK    3  A    between atoms: C_5  and  O_6 
REMARK    4  A    between atoms: C_9  and  C_10 
REMARK    5  A    between atoms: C_22  and  O_23 
ROOT
HETATM    1  C   UNL     1      -6.377   6.058 -32.386  1.00  0.00     0.047 C 
HETATM    2  C   UNL     1      -6.259   4.883 -33.377  1.00  0.00     0.073 C 
HETATM    3  C   UNL     1      -6.196   3.526 -32.585  1.00  0.00     0.133 C 
HETATM    4  C   UNL     1      -4.827   3.223 -31.886  1.00  0.00     0.074 C 
HETATM    5  C   UNL     1      -3.689   3.998 -32.467  1.00  0.00     0.030 A 
HETATM    6  C   UNL     1      -3.798   4.821 -33.566  1.00  0.00     0.042 A 
HETATM    7  N   UNL     1      -2.569   5.380 -33.774  1.00  0.00    -0.279 N 
HETATM    8  H   UNL     1      -2.281   6.035 -34.493  1.00  0.00     0.189 HD
HETATM    9  N   UNL     1      -1.668   5.011 -32.839  1.00  0.00    -0.149 NA
HETATM   10  C   UNL     1      -2.366   4.192 -32.064  1.00  0.00     0.190 A 
HETATM   11  C   UNL     1      -5.037   5.101 -34.318  1.00  0.00     0.097 C 
ENDROOT
BRANCH   4  12
HETATM   12  C   UNL     1      -4.376   1.765 -31.883  1.00  0.00    -0.048 A 
HETATM   13  C   UNL     1      -3.595   1.214 -32.918  1.00  0.00     0.009 A 
HETATM   14  C   UNL     1      -3.225  -0.133 -32.903  1.00  0.00     0.019 A 
HETATM   15  C   UNL     1      -3.636  -0.947 -31.853  1.00  0.00     0.011 A 
HETATM   16 BR   UNL     1      -3.142  -2.771 -31.832  1.00  0.00    -0.051 Br
HETATM   17  C   UNL     1      -4.411  -0.427 -30.819  1.00  0.00     0.019 A 
HETATM   18  C   UNL     1      -4.781   0.921 -30.836  1.00  0.00     0.009 A 
ENDBRANCH   4  12
BRANCH   3  19
HETATM   19  C   UNL     1      -6.679   2.389 -33.463  1.00  0.00     0.266 C 
HETATM   20  O   UNL     1      -6.329   2.211 -34.623  1.00  0.00    -0.265 OA
BRANCH  19  21
HETATM   21  O   UNL     1      -7.592   1.630 -32.795  1.00  0.00    -0.326 OA
HETATM   22  C   UNL     1      -7.568   0.242 -33.129  1.00  0.00     0.213 C 
ENDBRANCH  19  21
ENDBRANCH   3  19
BRANCH   2  23
HETATM   23  O   UNL     1      -7.463   4.955 -34.163  1.00  0.00    -0.389 OA
HETATM   24  H   UNL     1      -7.377   4.314 -34.899  1.00  0.00     0.210 HD
ENDBRANCH   2  23
BRANCH  10  25
HETATM   25  O   UNL     1      -1.717   3.711 -31.010  1.00  0.00    -0.343 OA
HETATM   26  H   UNL     1      -0.794   3.979 -31.149  1.00  0.00     0.219 HD
ENDBRANCH  10  25
TORSDOF 5
ENDMDL
MODEL 4
REMARK VINA RESULT:      -6.6     15.504     17.705
REMARK  5 active torsions:
REMARK  status: ('A' for Active; 'I' for Inactive)
REMARK    1  A    between atoms: C_2  and  O_3 
REMARK    2  A    between atoms: C_4  and  C_5 
REMARK    3  A    between atoms: C_5  and  O_6 
REMARK    4  A    between atoms: C_9  and  C_10 
REMARK    5  A    between atoms: C_22  and  O_23 
ROOT
HETATM    1  C   UNL     1      -0.773 -13.941 -40.588  1.00  0.00     0.047 C 
HETATM    2  C   UNL     1      -1.970 -14.905 -40.707  1.00  0.00     0.073 C 
HETATM    3  C   UNL     1      -3.270 -14.094 -41.061  1.00  0.00     0.133 C 
HETATM    4  C   UNL     1      -3.895 -13.282 -39.875  1.00  0.00     0.074 C 
HETATM    5  C   UNL     1      -3.462 -13.777 -38.534  1.00  0.00     0.030 A 
HETATM    6  C   UNL     1      -2.675 -14.891 -38.340  1.00  0.00     0.042 A 
HETATM    7  N   UNL     1      -2.460 -15.004 -36.996  1.00  0.00    -0.279 N 
HETATM    8  H   UNL     1      -1.927 -15.705 -36.493  1.00  0.00     0.189 HD
HETATM    9  N   UNL     1      -3.020 -13.994 -36.296  1.00  0.00    -0.149 NA
HETATM   10  C   UNL     1      -3.604 -13.269 -37.241  1.00  0.00     0.190 A 
HETATM   11  C   UNL     1      -2.107 -15.745 -39.402  1.00  0.00     0.097 C 
ENDROOT
BRANCH   4  12
HETATM   12  C   UNL     1      -5.419 -13.225 -39.823  1.00  0.00    -0.048 A 
HETATM   13  C   UNL     1      -6.184 -14.151 -39.087  1.00  0.00     0.009 A 
HETATM   14  C   UNL     1      -7.580 -14.093 -39.085  1.00  0.00     0.019 A 
HETATM   15  C   UNL     1      -8.228 -13.107 -39.822  1.00  0.00     0.011 A 
HETATM   16 BR   UNL     1     -10.116 -13.029 -39.825  1.00  0.00    -0.051 Br
HETATM   17  C   UNL     1      -7.494 -12.182 -40.561  1.00  0.00     0.019 A 
HETATM   18  C   UNL     1      -6.097 -12.242 -40.562  1.00  0.00     0.009 A 
ENDBRANCH   4  12
BRANCH   3  19
HETATM   19  C   UNL     1      -4.271 -14.995 -41.756  1.00  0.00     0.266 C 
HETATM   20  O   UNL     1      -4.586 -16.113 -41.366  1.00  0.00    -0.265 OA
BRANCH  19  21
HETATM   21  O   UNL     1      -4.726 -14.406 -42.897  1.00  0.00    -0.326 OA
HETATM   22  C   UNL     1      -4.175 -14.939 -44.101  1.00  0.00     0.213 C 
ENDBRANCH  19  21
ENDBRANCH   3  19
BRANCH   2  23
HETATM   23  O   UNL     1      -1.614 -15.787 -41.786  1.00  0.00    -0.389 OA
HETATM   24  H   UNL     1      -0.709 -16.119 -41.614  1.00  0.00     0.210 HD
ENDBRANCH   2  23
BRANCH  10  25
HETATM   25  O   UNL     1      -4.202 -12.161 -36.822  1.00  0.00    -0.343 OA
HETATM   26  H   UNL     1      -4.183 -12.224 -35.852  1.00  0.00     0.219 HD
ENDBRANCH  10  25
TORSDOF 5
ENDMDL
MODEL 5
REMARK VINA RESULT:      -6.6      3.397      4.894
REMARK  5 active torsions:
REMARK  status: ('A' for Active; 'I' for Inactive)
REMARK    1  A    between atoms: C_2  and  O_3 
REMARK    2  A    between atoms: C_4  and  C_5 
REMARK    3  A    between atoms: C_5  and  O_6 
REMARK    4  A    between atoms: C_9  and  C_10 
REMARK    5  A    between atoms: C_22  and  O_23 
ROOT
HETATM    1  C   UNL     1      -3.430  -1.080 -31.132  1.00  0.00     0.047 C 
HETATM    2  C   UNL     1      -3.868   0.073 -32.055  1.00  0.00     0.073 C 
HETATM    3  C   UNL     1      -5.391   0.390 -31.822  1.00  0.00     0.133 C 
HETATM    4  C   UNL     1      -6.391  -0.642 -32.446  1.00  0.00     0.074 C 
HETATM    5  C   UNL     1      -5.783  -1.460 -33.539  1.00  0.00     0.030 A 
HETATM    6  C   UNL     1      -4.509  -1.271 -34.026  1.00  0.00     0.042 A 
HETATM    7  N   UNL     1      -4.297  -2.223 -34.982  1.00  0.00    -0.279 N 
HETATM    8  H   UNL     1      -3.471  -2.383 -35.549  1.00  0.00     0.189 HD
HETATM    9  N   UNL     1      -5.345  -3.063 -35.116  1.00  0.00    -0.149 NA
HETATM   10  C   UNL     1      -6.217  -2.591 -34.234  1.00  0.00     0.190 A 
HETATM   11  C   UNL     1      -3.534  -0.275 -33.536  1.00  0.00     0.097 C 
ENDROOT
BRANCH   4  12
HETATM   12  C   UNL     1      -7.681  -0.069 -33.027  1.00  0.00    -0.048 A 
HETATM   13  C   UNL     1      -7.789   0.333 -34.373  1.00  0.00     0.009 A 
HETATM   14  C   UNL     1      -8.973   0.885 -34.868  1.00  0.00     0.019 A 
HETATM   15  C   UNL     1     -10.064   1.045 -34.020  1.00  0.00     0.011 A 
HETATM   16 BR   UNL     1     -11.666   1.796 -34.684  1.00  0.00    -0.051 Br
HETATM   17  C   UNL     1      -9.982   0.659 -32.684  1.00  0.00     0.019 A 
HETATM   18  C   UNL     1      -8.795   0.107 -32.191  1.00  0.00     0.009 A 
ENDBRANCH   4  12
BRANCH   3  19
HETATM   19  C   UNL     1      -5.690   1.822 -32.219  1.00  0.00     0.266 C 
HETATM   20  O   UNL     1      -5.276   2.361 -33.237  1.00  0.00    -0.265 OA
BRANCH  19  21
HETATM   21  O   UNL     1      -6.439   2.432 -31.258  1.00  0.00    -0.326 OA
HETATM   22  C   UNL     1      -6.100   2.068 -29.920  1.00  0.00     0.213 C 
ENDBRANCH  19  21
ENDBRANCH   3  19
BRANCH   2  23
HETATM   23  O   UNL     1      -3.051   1.187 -31.650  1.00  0.00    -0.389 OA
HETATM   24  H   UNL     1      -2.285   0.830 -31.156  1.00  0.00     0.210 HD
ENDBRANCH   2  23
BRANCH  10  25
HETATM   25  O   UNL     1      -7.346  -3.279 -34.123  1.00  0.00    -0.343 OA
HETATM   26  H   UNL     1      -7.386  -3.816 -34.932  1.00  0.00     0.219 HD
ENDBRANCH  10  25
TORSDOF 5
ENDMDL
MODEL 6
REMARK VINA RESULT:      -6.6      1.867      2.180
REMARK  5 active torsions:
REMARK  status: ('A' for Active; 'I' for Inactive)
REMARK    1  A    between atoms: C_2  and  O_3 
REMARK    2  A    between atoms: C_4  and  C_5 
REMARK    3  A    between atoms: C_5  and  O_6 
REMARK    4  A    between atoms: C_9  and  C_10 
REMARK    5  A    between atoms: C_22  and  O_23 
ROOT
HETATM    1  C   UNL     1      -9.046   5.670 -32.799  1.00  0.00     0.047 C 
HETATM    2  C   UNL     1      -8.590   4.464 -31.953  1.00  0.00     0.073 C 
HETATM    3  C   UNL     1      -7.746   3.481 -32.845  1.00  0.00     0.133 C 
HETATM    4  C   UNL     1      -8.576   2.609 -33.848  1.00  0.00     0.074 C 
HETATM    5  C   UNL     1     -10.018   2.495 -33.471  1.00  0.00     0.030 A 
HETATM    6  C   UNL     1     -10.556   3.013 -32.313  1.00  0.00     0.042 A 
HETATM    7  N   UNL     1     -11.895   2.745 -32.337  1.00  0.00    -0.279 N 
HETATM    8  H   UNL     1     -12.603   2.979 -31.649  1.00  0.00     0.189 HD
HETATM    9  N   UNL     1     -12.279   2.124 -33.472  1.00  0.00    -0.149 NA
HETATM   10  C   UNL     1     -11.138   1.995 -34.138  1.00  0.00     0.190 A 
HETATM   11  C   UNL     1      -9.824   3.784 -31.289  1.00  0.00     0.097 C 
ENDROOT
BRANCH   4  12
HETATM   12  C   UNL     1      -8.091   1.179 -34.064  1.00  0.00    -0.048 A 
HETATM   13  C   UNL     1      -8.442   0.123 -33.200  1.00  0.00     0.009 A 
HETATM   14  C   UNL     1      -7.955  -1.170 -33.405  1.00  0.00     0.019 A 
HETATM   15  C   UNL     1      -7.106  -1.423 -34.478  1.00  0.00     0.011 A 
HETATM   16 BR   UNL     1      -6.442  -3.169 -34.757  1.00  0.00    -0.051 Br
HETATM   17  C   UNL     1      -6.741  -0.396 -35.346  1.00  0.00     0.019 A 
HETATM   18  C   UNL     1      -7.230   0.898 -35.137  1.00  0.00     0.009 A 
ENDBRANCH   4  12
BRANCH   3  19
HETATM   19  C   UNL     1      -6.816   2.660 -31.974  1.00  0.00     0.266 C 
HETATM   20  O   UNL     1      -7.128   2.164 -30.898  1.00  0.00    -0.265 OA
BRANCH  19  21
HETATM   21  O   UNL     1      -5.575   2.599 -32.533  1.00  0.00    -0.326 OA
HETATM   22  C   UNL     1      -4.830   1.429 -32.198  1.00  0.00     0.213 C 
ENDBRANCH  19  21
ENDBRANCH   3  19
BRANCH   2  23
HETATM   23  O   UNL     1      -7.771   5.040 -30.920  1.00  0.00    -0.389 OA
HETATM   24  H   UNL     1      -6.885   4.627 -30.976  1.00  0.00     0.210 HD
ENDBRANCH   2  23
BRANCH  10  25
HETATM   25  O   UNL     1     -11.239   1.447 -35.342  1.00  0.00    -0.343 OA
HETATM   26  H   UNL     1     -12.103   1.001 -35.336  1.00  0.00     0.219 HD
ENDBRANCH  10  25
TORSDOF 5
ENDMDL
MODEL 7
REMARK VINA RESULT:      -6.5      3.182      4.656
REMARK  5 active torsions:
REMARK  status: ('A' for Active; 'I' for Inactive)
REMARK    1  A    between atoms: C_2  and  O_3 
REMARK    2  A    between atoms: C_4  and  C_5 
REMARK    3  A    between atoms: C_5  and  O_6 
REMARK    4  A    between atoms: C_9  and  C_10 
REMARK    5  A    between atoms: C_22  and  O_23 
ROOT
HETATM    1  C   UNL     1      -5.544   0.359 -29.399  1.00  0.00     0.047 C 
HETATM    2  C   UNL     1      -5.947   1.578 -30.254  1.00  0.00     0.073 C 
HETATM    3  C   UNL     1      -7.475   1.489 -30.614  1.00  0.00     0.133 C 
HETATM    4  C   UNL     1      -7.840   0.446 -31.724  1.00  0.00     0.074 C 
HETATM    5  C   UNL     1      -6.675   0.067 -32.579  1.00  0.00     0.030 A 
HETATM    6  C   UNL     1      -5.426   0.640 -32.478  1.00  0.00     0.042 A 
HETATM    7  N   UNL     1      -4.622   0.015 -33.387  1.00  0.00    -0.279 N 
HETATM    8  H   UNL     1      -3.641   0.179 -33.589  1.00  0.00     0.189 HD
HETATM    9  N   UNL     1      -5.258  -0.976 -34.047  1.00  0.00    -0.149 NA
HETATM   10  C   UNL     1      -6.482  -0.931 -33.537  1.00  0.00     0.190 A 
HETATM   11  C   UNL     1      -5.025   1.676 -31.506  1.00  0.00     0.097 C 
ENDROOT
BRANCH   4  12
HETATM   12  C   UNL     1      -8.950   0.847 -32.692  1.00  0.00    -0.048 A 
HETATM   13  C   UNL     1      -8.778   1.854 -33.663  1.00  0.00     0.009 A 
HETATM   14  C   UNL     1      -9.823   2.222 -34.513  1.00  0.00     0.019 A 
HETATM   15  C   UNL     1     -11.056   1.588 -34.402  1.00  0.00     0.011 A 
HETATM   16 BR   UNL     1     -12.473   2.087 -35.547  1.00  0.00    -0.051 Br
HETATM   17  C   UNL     1     -11.253   0.591 -33.449  1.00  0.00     0.019 A 
HETATM   18  C   UNL     1     -10.205   0.225 -32.598  1.00  0.00     0.009 A 
ENDBRANCH   4  12
BRANCH   3  19
HETATM   19  C   UNL     1      -8.022   2.874 -30.899  1.00  0.00     0.266 C 
HETATM   20  O   UNL     1      -7.417   3.748 -31.508  1.00  0.00    -0.265 OA
BRANCH  19  21
HETATM   21  O   UNL     1      -9.254   3.021 -30.337  1.00  0.00    -0.326 OA
HETATM   22  C   UNL     1      -9.977   4.168 -30.783  1.00  0.00     0.213 C 
ENDBRANCH  19  21
ENDBRANCH   3  19
BRANCH   2  23
HETATM   23  O   UNL     1      -5.691   2.711 -29.405  1.00  0.00    -0.389 OA
HETATM   24  H   UNL     1      -4.804   2.593 -29.008  1.00  0.00     0.210 HD
ENDBRANCH   2  23
BRANCH  10  25
HETATM   25  O   UNL     1      -7.323  -1.855 -33.987  1.00  0.00    -0.343 OA
HETATM   26  H   UNL     1      -8.153  -1.680 -33.513  1.00  0.00     0.219 HD
ENDBRANCH  10  25
TORSDOF 5
ENDMDL
MODEL 8
REMARK VINA RESULT:      -6.5      2.498      3.699
REMARK  5 active torsions:
REMARK  status: ('A' for Active; 'I' for Inactive)
REMARK    1  A    between atoms: C_2  and  O_3 
REMARK    2  A    between atoms: C_4  and  C_5 
REMARK    3  A    between atoms: C_5  and  O_6 
REMARK    4  A    between atoms: C_9  and  C_10 
REMARK    5  A    between atoms: C_22  and  O_23 
ROOT
HETATM    1  C   UNL     1      -8.706   4.500 -30.182  1.00  0.00     0.047 C 
HETATM    2  C   UNL     1      -9.263   3.588 -31.294  1.00  0.00     0.073 C 
HETATM    3  C   UNL     1      -8.488   2.219 -31.293  1.00  0.00     0.133 C 
HETATM    4  C   UNL     1      -7.044   2.268 -31.898  1.00  0.00     0.074 C 
HETATM    5  C   UNL     1      -6.824   3.444 -32.794  1.00  0.00     0.030 A 
HETATM    6  C   UNL     1      -7.807   4.345 -33.139  1.00  0.00     0.042 A 
HETATM    7  N   UNL     1      -7.224   5.293 -33.931  1.00  0.00    -0.279 N 
HETATM    8  H   UNL     1      -7.646   6.106 -34.367  1.00  0.00     0.189 HD
HETATM    9  N   UNL     1      -5.897   5.094 -34.085  1.00  0.00    -0.149 NA
HETATM   10  C   UNL     1      -5.682   3.988 -33.386  1.00  0.00     0.190 A 
HETATM   11  C   UNL     1      -9.205   4.325 -32.665  1.00  0.00     0.097 C 
ENDROOT
BRANCH   4  12
HETATM   12  C   UNL     1      -6.605   1.048 -32.703  1.00  0.00    -0.048 A 
HETATM   13  C   UNL     1      -6.947   0.875 -34.059  1.00  0.00     0.009 A 
HETATM   14  C   UNL     1      -6.559  -0.269 -34.761  1.00  0.00     0.019 A 
HETATM   15  C   UNL     1      -5.825  -1.257 -34.112  1.00  0.00     0.011 A 
HETATM   16 BR   UNL     1      -5.302  -2.807 -35.057  1.00  0.00    -0.051 Br
HETATM   17  C   UNL     1      -5.477  -1.111 -32.771  1.00  0.00     0.019 A 
HETATM   18  C   UNL     1      -5.867   0.034 -32.071  1.00  0.00     0.009 A 
ENDBRANCH   4  12
BRANCH   3  19
HETATM   19  C   UNL     1      -9.352   1.134 -31.905  1.00  0.00     0.266 C 
HETATM   20  O   UNL     1      -9.393  -0.026 -31.511  1.00  0.00    -0.265 OA
BRANCH  19  21
HETATM   21  O   UNL     1     -10.032   1.620 -32.980  1.00  0.00    -0.326 OA
HETATM   22  C   UNL     1     -11.042   0.748 -33.488  1.00  0.00     0.213 C 
ENDBRANCH  19  21
ENDBRANCH   3  19
BRANCH   2  23
HETATM   23  O   UNL     1     -10.643   3.389 -30.937  1.00  0.00    -0.389 OA
HETATM   24  H   UNL     1     -10.741   3.615 -29.989  1.00  0.00     0.210 HD
ENDBRANCH   2  23
BRANCH  10  25
HETATM   25  O   UNL     1      -4.418   3.586 -33.327  1.00  0.00    -0.343 OA
HETATM   26  H   UNL     1      -4.155   3.472 -34.255  1.00  0.00     0.219 HD
ENDBRANCH  10  25
TORSDOF 5
ENDMDL
MODEL 9
REMARK VINA RESULT:      -6.4     15.525     17.058
REMARK  5 active torsions:
REMARK  status: ('A' for Active; 'I' for Inactive)
REMARK    1  A    between atoms: C_2  and  O_3 
REMARK    2  A    between atoms: C_4  and  C_5 
REMARK    3  A    between atoms: C_5  and  O_6 
REMARK    4  A    between atoms: C_9  and  C_10 
REMARK    5  A    between atoms: C_22  and  O_23 
ROOT
HETATM    1  C   UNL     1      -1.770 -15.769 -37.962  1.00  0.00     0.047 C 
HETATM    2  C   UNL     1      -2.355 -14.343 -37.907  1.00  0.00     0.073 C 
HETATM    3  C   UNL     1      -3.922 -14.419 -37.789  1.00  0.00     0.133 C 
HETATM    4  C   UNL     1      -4.674 -14.800 -39.110  1.00  0.00     0.074 C 
HETATM    5  C   UNL     1      -3.859 -14.558 -40.339  1.00  0.00     0.030 A 
HETATM    6  C   UNL     1      -2.613 -13.970 -40.335  1.00  0.00     0.042 A 
HETATM    7  N   UNL     1      -2.171 -13.955 -41.627  1.00  0.00    -0.279 N 
HETATM    8  H   UNL     1      -1.296 -13.598 -41.996  1.00  0.00     0.189 HD
HETATM    9  N   UNL     1      -3.035 -14.549 -42.477  1.00  0.00    -0.149 NA
HETATM   10  C   UNL     1      -4.032 -14.910 -41.679  1.00  0.00     0.190 A 
HETATM   11  C   UNL     1      -1.871 -13.522 -39.139  1.00  0.00     0.097 C 
ENDROOT
BRANCH   4  12
HETATM   12  C   UNL     1      -6.008 -14.102 -39.355  1.00  0.00    -0.048 A 
HETATM   13  C   UNL     1      -7.230 -14.621 -38.883  1.00  0.00     0.009 A 
HETATM   14  C   UNL     1      -8.440 -13.976 -39.152  1.00  0.00     0.019 A 
HETATM   15  C   UNL     1      -8.443 -12.804 -39.901  1.00  0.00     0.011 A 
HETATM   16 BR   UNL     1     -10.077 -11.932 -40.270  1.00  0.00    -0.051 Br
HETATM   17  C   UNL     1      -7.249 -12.272 -40.382  1.00  0.00     0.019 A 
HETATM   18  C   UNL     1      -6.039 -12.919 -40.112  1.00  0.00     0.009 A 
ENDBRANCH   4  12
BRANCH   3  19
HETATM   19  C   UNL     1      -4.455 -13.154 -37.147  1.00  0.00     0.266 C 
HETATM   20  O   UNL     1      -4.068 -12.022 -37.413  1.00  0.00    -0.265 OA
BRANCH  19  21
HETATM   21  O   UNL     1      -5.385 -13.460 -36.199  1.00  0.00    -0.326 OA
HETATM   22  C   UNL     1      -4.854 -13.669 -34.891  1.00  0.00     0.213 C 
ENDBRANCH  19  21
ENDBRANCH   3  19
BRANCH   2  23
HETATM   23  O   UNL     1      -1.785 -13.767 -36.718  1.00  0.00    -0.389 OA
HETATM   24  H   UNL     1      -2.517 -13.593 -36.091  1.00  0.00     0.210 HD
ENDBRANCH   2  23
BRANCH  10  25
HETATM   25  O   UNL     1      -5.019 -15.576 -42.265  1.00  0.00    -0.343 OA
HETATM   26  H   UNL     1      -5.321 -14.988 -42.978  1.00  0.00     0.219 HD
ENDBRANCH  10  25
TORSDOF 5
ENDMDL
MODEL 10
REMARK VINA RESULT:      -6.3      3.153      4.843
REMARK  5 active torsions:
REMARK  status: ('A' for Active; 'I' for Inactive)
REMARK    1  A    between atoms: C_2  and  O_3 
REMARK    2  A    between atoms: C_4  and  C_5 
REMARK    3  A    between atoms: C_5  and  O_6 
REMARK    4  A    between atoms: C_9  and  C_10 
REMARK    5  A    between atoms: C_22  and  O_23 
ROOT
HETATM    1  C   UNL     1      -5.933   6.588 -30.752  1.00  0.00     0.047 C 
HETATM    2  C   UNL     1      -6.325   6.014 -32.128  1.00  0.00     0.073 C 
HETATM    3  C   UNL     1      -6.948   4.581 -31.946  1.00  0.00     0.133 C 
HETATM    4  C   UNL     1      -5.919   3.440 -31.635  1.00  0.00     0.074 C 
HETATM    5  C   UNL     1      -4.522   3.787 -32.033  1.00  0.00     0.030 A 
HETATM    6  C   UNL     1      -4.173   4.944 -32.695  1.00  0.00     0.042 A 
HETATM    7  N   UNL     1      -2.816   4.926 -32.851  1.00  0.00    -0.279 N 
HETATM    8  H   UNL     1      -2.217   5.615 -33.293  1.00  0.00     0.189 HD
HETATM    9  N   UNL     1      -2.244   3.843 -32.281  1.00  0.00    -0.149 NA
HETATM   10  C   UNL     1      -3.286   3.184 -31.790  1.00  0.00     0.190 A 
HETATM   11  C   UNL     1      -5.094   6.031 -33.082  1.00  0.00     0.097 C 
ENDROOT
BRANCH   4  12
HETATM   12  C   UNL     1      -6.204   2.081 -32.268  1.00  0.00    -0.048 A 
HETATM   13  C   UNL     1      -6.745   1.006 -31.535  1.00  0.00     0.009 A 
HETATM   14  C   UNL     1      -6.964  -0.237 -32.135  1.00  0.00     0.019 A 
HETATM   15  C   UNL     1      -6.641  -0.421 -33.475  1.00  0.00     0.011 A 
HETATM   16 BR   UNL     1      -6.931  -2.101 -34.288  1.00  0.00    -0.051 Br
HETATM   17  C   UNL     1      -6.103   0.626 -34.221  1.00  0.00     0.019 A 
HETATM   18  C   UNL     1      -5.884   1.869 -33.619  1.00  0.00     0.009 A 
ENDBRANCH   4  12
BRANCH   3  19
HETATM   19  C   UNL     1      -7.858   4.258 -33.114  1.00  0.00     0.266 C 
HETATM   20  O   UNL     1      -7.646   4.594 -34.273  1.00  0.00    -0.265 OA
BRANCH  19  21
HETATM   21  O   UNL     1      -8.964   3.590 -32.682  1.00  0.00    -0.326 OA
HETATM   22  C   UNL     1      -9.552   2.725 -33.653  1.00  0.00     0.213 C 
ENDBRANCH  19  21
ENDBRANCH   3  19
BRANCH   2  23
HETATM   23  O   UNL     1      -7.311   6.934 -32.632  1.00  0.00    -0.389 OA
HETATM   24  H   UNL     1      -8.174   6.689 -32.241  1.00  0.00     0.210 HD
ENDBRANCH   2  23
BRANCH  10  25
HETATM   25  O   UNL     1      -2.995   2.077 -31.118  1.00  0.00    -0.343 OA
HETATM   26  H   UNL     1      -3.799   1.534 -31.183  1.00  0.00     0.219 HD
ENDBRANCH  10  25
TORSDOF 5
ENDMDL
