MODEL 1
REMARK VINA RESULT:      -9.2      0.000      0.000
REMARK  7 active torsions:
REMARK  status: ('A' for Active; 'I' for Inactive)
REMARK       I    between atoms: C_2  and  N_3 
REMARK    1  A    between atoms: N_3  and  C_4 
REMARK    2  A    between atoms: C_7  and  N_8 
REMARK       I    between atoms: N_8  and  C_9 
REMARK    3  A    between atoms: C_9  and  C_10 
REMARK       I    between atoms: C_10  and  N_11 
REMARK    4  A    between atoms: N_11  and  C_12 
REMARK    5  A    between atoms: C_12  and  C_13 
REMARK    6  A    between atoms: C_13  and  O_14 
REMARK    7  A    between atoms: C_13  and  C_15 
ROOT
HETATM    1  C   UNL     1      -1.569   4.802 -31.625  1.00  0.00     0.309 C 
HETATM    2  N   UNL     1      -2.656   4.172 -31.065  1.00  0.00    -0.350 N 
HETATM    3  O   UNL     1      -1.421   5.058 -32.813  1.00  0.00    -0.262 OA
HETATM    4  H   UNL     1      -2.621   3.992 -30.063  1.00  0.00     0.163 HD
ENDROOT
BRANCH   1   5
HETATM    5  C   UNL     1      -0.460   5.157 -30.613  1.00  0.00     0.313 C 
HETATM    6  N   UNL     1      -0.898   6.057 -29.667  1.00  0.00    -0.319 N 
HETATM    7  H   UNL     1      -1.878   6.314 -29.753  1.00  0.00     0.169 HD
HETATM    8  O   UNL     1       0.641   4.644 -30.753  1.00  0.00    -0.262 OA
BRANCH   6   9
HETATM    9  C   UNL     1      -0.141   6.687 -28.665  1.00  0.00     0.035 A 
HETATM   10  C   UNL     1      -0.114   6.271 -27.335  1.00  0.00     0.032 A 
HETATM   11  C   UNL     1       0.709   6.917 -26.402  1.00  0.00     0.032 A 
HETATM   12  C   UNL     1       1.509   7.993 -26.781  1.00  0.00     0.034 A 
HETATM   13  C   UNL     1       1.462   8.426 -28.110  1.00  0.00     0.032 A 
HETATM   14  C   UNL     1       0.648   7.776 -29.045  1.00  0.00     0.032 A 
BRANCH  12  15
HETATM   15  N   UNL     1       2.382   8.678 -25.910  1.00  0.00    -0.328 N 
HETATM   16  C   UNL     1       2.040   9.487 -24.842  1.00  0.00     0.218 C 
HETATM   17  C   UNL     1       3.250  10.021 -24.115  1.00  0.00     0.117 C 
HETATM   18  O   UNL     1       0.911   9.752 -24.447  1.00  0.00    -0.274 OA
HETATM   19  H   UNL     1       3.370   8.531 -26.069  1.00  0.00     0.169 HD
ENDBRANCH  12  15
ENDBRANCH   6   9
ENDBRANCH   1   5
BRANCH   2  20
HETATM   20  C   UNL     1      -3.737   3.624 -31.870  1.00  0.00     0.159 C 
BRANCH  20  21
HETATM   21  C   UNL     1      -3.521   2.130 -32.189  1.00  0.00     0.171 C 
BRANCH  21  22
HETATM   22  O   UNL     1      -2.914   1.500 -31.050  1.00  0.00    -0.389 OA
HETATM   23  H   UNL     1      -3.640   1.309 -30.433  1.00  0.00     0.210 HD
ENDBRANCH  21  22
BRANCH  21  24
HETATM   24  C   UNL     1      -4.805   1.450 -32.556  1.00  0.00     0.000 A 
HETATM   25  C   UNL     1      -4.942   0.138 -33.115  1.00  0.00     0.001 A 
HETATM   26  C   UNL     1      -6.308  -0.109 -33.292  1.00  0.00     0.044 A 
HETATM   27  C   UNL     1      -4.018  -0.864 -33.482  1.00  0.00     0.014 A 
HETATM   28  C   UNL     1      -6.778  -1.328 -33.815  1.00  0.00     0.030 A 
HETATM   29  N   UNL     1      -6.975   1.017 -32.864  1.00  0.00    -0.360 N 
HETATM   30  C   UNL     1      -5.841  -2.303 -34.165  1.00  0.00     0.002 A 
HETATM   31  C   UNL     1      -4.479  -2.077 -34.003  1.00  0.00     0.001 A 
HETATM   32  C   UNL     1      -8.408   1.220 -32.850  1.00  0.00     0.155 C 
HETATM   33  C   UNL     1      -6.083   1.959 -32.424  1.00  0.00     0.101 A 
ENDBRANCH  21  24
ENDBRANCH  20  21
ENDBRANCH   2  20
TORSDOF 7
ENDMDL
MODEL 2
REMARK VINA RESULT:      -8.9      1.264      1.943
REMARK  7 active torsions:
REMARK  status: ('A' for Active; 'I' for Inactive)
REMARK       I    between atoms: C_2  and  N_3 
REMARK    1  A    between atoms: N_3  and  C_4 
REMARK    2  A    between atoms: C_7  and  N_8 
REMARK       I    between atoms: N_8  and  C_9 
REMARK    3  A    between atoms: C_9  and  C_10 
REMARK       I    between atoms: C_10  and  N_11 
REMARK    4  A    between atoms: N_11  and  C_12 
REMARK    5  A    between atoms: C_12  and  C_13 
REMARK    6  A    between atoms: C_13  and  O_14 
REMARK    7  A    between atoms: C_13  and  C_15 
ROOT
HETATM    1  C   UNL     1      -1.472   4.718 -31.663  1.00  0.00     0.309 C 
HETATM    2  N   UNL     1      -2.549   4.091 -31.081  1.00  0.00    -0.350 N 
HETATM    3  O   UNL     1      -1.319   4.921 -32.860  1.00  0.00    -0.262 OA
HETATM    4  H   UNL     1      -2.518   3.958 -30.072  1.00  0.00     0.163 HD
ENDROOT
BRANCH   1   5
HETATM    5  C   UNL     1      -0.378   5.143 -30.660  1.00  0.00     0.313 C 
HETATM    6  N   UNL     1      -0.886   5.932 -29.652  1.00  0.00    -0.319 N 
HETATM    7  H   UNL     1      -1.891   6.077 -29.698  1.00  0.00     0.169 HD
HETATM    8  O   UNL     1       0.769   4.770 -30.859  1.00  0.00    -0.262 OA
BRANCH   6   9
HETATM    9  C   UNL     1      -0.175   6.590 -28.635  1.00  0.00     0.035 A 
HETATM   10  C   UNL     1      -0.182   6.191 -27.300  1.00  0.00     0.032 A 
HETATM   11  C   UNL     1       0.597   6.866 -26.349  1.00  0.00     0.032 A 
HETATM   12  C   UNL     1       1.388   7.953 -26.717  1.00  0.00     0.034 A 
HETATM   13  C   UNL     1       1.374   8.369 -28.052  1.00  0.00     0.032 A 
HETATM   14  C   UNL     1       0.604   7.691 -29.004  1.00  0.00     0.032 A 
BRANCH  12  15
HETATM   15  N   UNL     1       2.218   8.666 -25.827  1.00  0.00    -0.328 N 
HETATM   16  C   UNL     1       1.888   9.784 -25.082  1.00  0.00     0.218 C 
HETATM   17  C   UNL     1       3.029  10.250 -24.211  1.00  0.00     0.117 C 
HETATM   18  O   UNL     1       0.806  10.358 -25.050  1.00  0.00    -0.274 OA
HETATM   19  H   UNL     1       3.150   8.294 -25.698  1.00  0.00     0.169 HD
ENDBRANCH  12  15
ENDBRANCH   6   9
ENDBRANCH   1   5
BRANCH   2  20
HETATM   20  C   UNL     1      -3.611   3.483 -31.868  1.00  0.00     0.159 C 
BRANCH  20  21
HETATM   21  C   UNL     1      -4.438   2.476 -31.042  1.00  0.00     0.171 C 
BRANCH  21  22
HETATM   22  O   UNL     1      -5.777   2.978 -30.910  1.00  0.00    -0.389 OA
HETATM   23  H   UNL     1      -5.874   3.661 -31.593  1.00  0.00     0.210 HD
ENDBRANCH  21  22
BRANCH  21  24
HETATM   24  C   UNL     1      -4.437   1.113 -31.668  1.00  0.00     0.000 A 
HETATM   25  C   UNL     1      -5.247   0.683 -32.769  1.00  0.00     0.001 A 
HETATM   26  C   UNL     1      -4.923  -0.651 -33.041  1.00  0.00     0.044 A 
HETATM   27  C   UNL     1      -6.226   1.319 -33.562  1.00  0.00     0.014 A 
HETATM   28  C   UNL     1      -5.540  -1.364 -34.084  1.00  0.00     0.030 A 
HETATM   29  N   UNL     1      -3.957  -1.019 -32.130  1.00  0.00    -0.360 N 
HETATM   30  C   UNL     1      -6.503  -0.708 -34.856  1.00  0.00     0.002 A 
HETATM   31  C   UNL     1      -6.845   0.615 -34.600  1.00  0.00     0.001 A 
HETATM   32  C   UNL     1      -3.311  -2.310 -32.032  1.00  0.00     0.155 C 
HETATM   33  C   UNL     1      -3.661   0.030 -31.301  1.00  0.00     0.101 A 
ENDBRANCH  21  24
ENDBRANCH  20  21
ENDBRANCH   2  20
TORSDOF 7
ENDMDL
MODEL 3
REMARK VINA RESULT:      -8.7      2.322      3.487
REMARK  7 active torsions:
REMARK  status: ('A' for Active; 'I' for Inactive)
REMARK       I    between atoms: C_2  and  N_3 
REMARK    1  A    between atoms: N_3  and  C_4 
REMARK    2  A    between atoms: C_7  and  N_8 
REMARK       I    between atoms: N_8  and  C_9 
REMARK    3  A    between atoms: C_9  and  C_10 
REMARK       I    between atoms: C_10  and  N_11 
REMARK    4  A    between atoms: N_11  and  C_12 
REMARK    5  A    between atoms: C_12  and  C_13 
REMARK    6  A    between atoms: C_13  and  O_14 
REMARK    7  A    between atoms: C_13  and  C_15 
ROOT
HETATM    1  C   UNL     1      -3.999   5.305 -34.526  1.00  0.00     0.309 C 
HETATM    2  N   UNL     1      -4.859   4.662 -33.667  1.00  0.00    -0.350 N 
HETATM    3  O   UNL     1      -4.030   5.250 -35.748  1.00  0.00    -0.262 OA
HETATM    4  H   UNL     1      -4.685   4.771 -32.670  1.00  0.00     0.163 HD
ENDROOT
BRANCH   1   5
HETATM    5  C   UNL     1      -2.898   6.122 -33.816  1.00  0.00     0.313 C 
HETATM    6  N   UNL     1      -2.704   5.700 -32.519  1.00  0.00    -0.319 N 
HETATM    7  H   UNL     1      -3.274   4.904 -32.246  1.00  0.00     0.169 HD
HETATM    8  O   UNL     1      -2.351   7.022 -34.436  1.00  0.00    -0.262 OA
BRANCH   6   9
HETATM    9  C   UNL     1      -1.873   6.276 -31.544  1.00  0.00     0.035 A 
HETATM   10  C   UNL     1      -2.121   7.508 -30.943  1.00  0.00     0.032 A 
HETATM   11  C   UNL     1      -1.273   7.994 -29.936  1.00  0.00     0.032 A 
HETATM   12  C   UNL     1      -0.163   7.260 -29.522  1.00  0.00     0.034 A 
HETATM   13  C   UNL     1       0.098   6.035 -30.145  1.00  0.00     0.032 A 
HETATM   14  C   UNL     1      -0.751   5.545 -31.143  1.00  0.00     0.032 A 
BRANCH  12  15
HETATM   15  N   UNL     1       0.720   7.667 -28.500  1.00  0.00    -0.328 N 
HETATM   16  C   UNL     1       0.722   7.258 -27.179  1.00  0.00     0.218 C 
HETATM   17  C   UNL     1       1.845   7.882 -26.387  1.00  0.00     0.117 C 
HETATM   18  O   UNL     1      -0.039   6.456 -26.652  1.00  0.00    -0.274 OA
HETATM   19  H   UNL     1       1.453   8.307 -28.778  1.00  0.00     0.169 HD
ENDBRANCH  12  15
ENDBRANCH   6   9
ENDBRANCH   1   5
BRANCH   2  20
HETATM   20  C   UNL     1      -5.869   3.725 -34.136  1.00  0.00     0.159 C 
BRANCH  20  21
HETATM   21  C   UNL     1      -6.394   2.824 -32.999  1.00  0.00     0.171 C 
BRANCH  21  22
HETATM   22  O   UNL     1      -7.785   2.553 -33.231  1.00  0.00    -0.389 OA
HETATM   23  H   UNL     1      -8.017   3.033 -34.043  1.00  0.00     0.210 HD
ENDBRANCH  21  22
BRANCH  21  24
HETATM   24  C   UNL     1      -5.611   1.550 -32.896  1.00  0.00     0.000 A 
HETATM   25  C   UNL     1      -5.880   0.328 -33.594  1.00  0.00     0.001 A 
HETATM   26  C   UNL     1      -4.904  -0.602 -33.219  1.00  0.00     0.044 A 
HETATM   27  C   UNL     1      -6.872  -0.065 -34.519  1.00  0.00     0.014 A 
HETATM   28  C   UNL     1      -4.883  -1.906 -33.745  1.00  0.00     0.030 A 
HETATM   29  N   UNL     1      -4.077   0.031 -32.317  1.00  0.00    -0.360 N 
HETATM   30  C   UNL     1      -5.875  -2.266 -34.662  1.00  0.00     0.002 A 
HETATM   31  C   UNL     1      -6.857  -1.361 -35.045  1.00  0.00     0.001 A 
HETATM   32  C   UNL     1      -2.919  -0.536 -31.662  1.00  0.00     0.155 C 
HETATM   33  C   UNL     1      -4.494   1.320 -32.115  1.00  0.00     0.101 A 
ENDBRANCH  21  24
ENDBRANCH  20  21
ENDBRANCH   2  20
TORSDOF 7
ENDMDL
MODEL 4
REMARK VINA RESULT:      -8.5      2.412      4.102
REMARK  7 active torsions:
REMARK  status: ('A' for Active; 'I' for Inactive)
REMARK       I    between atoms: C_2  and  N_3 
REMARK    1  A    between atoms: N_3  and  C_4 
REMARK    2  A    between atoms: C_7  and  N_8 
REMARK       I    between atoms: N_8  and  C_9 
REMARK    3  A    between atoms: C_9  and  C_10 
REMARK       I    between atoms: C_10  and  N_11 
REMARK    4  A    between atoms: N_11  and  C_12 
REMARK    5  A    between atoms: C_12  and  C_13 
REMARK    6  A    between atoms: C_13  and  O_14 
REMARK    7  A    between atoms: C_13  and  C_15 
ROOT
HETATM    1  C   UNL     1      -6.042   4.246 -33.240  1.00  0.00     0.309 C 
HETATM    2  N   UNL     1      -6.220   3.237 -32.322  1.00  0.00    -0.350 N 
HETATM    3  O   UNL     1      -6.753   4.467 -34.211  1.00  0.00    -0.262 OA
HETATM    4  H   UNL     1      -5.521   3.152 -31.586  1.00  0.00     0.163 HD
ENDROOT
BRANCH   1   5
HETATM    5  C   UNL     1      -4.792   5.114 -32.982  1.00  0.00     0.313 C 
HETATM    6  N   UNL     1      -4.188   4.801 -31.784  1.00  0.00    -0.319 N 
HETATM    7  H   UNL     1      -4.625   4.031 -31.282  1.00  0.00     0.169 HD
HETATM    8  O   UNL     1      -4.489   5.958 -33.813  1.00  0.00    -0.262 OA
BRANCH   6   9
HETATM    9  C   UNL     1      -3.105   5.452 -31.171  1.00  0.00     0.035 A 
HETATM   10  C   UNL     1      -1.774   5.084 -31.356  1.00  0.00     0.032 A 
HETATM   11  C   UNL     1      -0.741   5.817 -30.752  1.00  0.00     0.032 A 
HETATM   12  C   UNL     1      -1.025   6.921 -29.950  1.00  0.00     0.034 A 
HETATM   13  C   UNL     1      -2.363   7.273 -29.745  1.00  0.00     0.032 A 
HETATM   14  C   UNL     1      -3.393   6.549 -30.354  1.00  0.00     0.032 A 
BRANCH  12  15
HETATM   15  N   UNL     1      -0.044   7.724 -29.331  1.00  0.00    -0.328 N 
HETATM   16  C   UNL     1       0.569   7.511 -28.110  1.00  0.00     0.218 C 
HETATM   17  C   UNL     1       1.599   8.567 -27.793  1.00  0.00     0.117 C 
HETATM   18  O   UNL     1       0.380   6.576 -27.341  1.00  0.00    -0.274 OA
HETATM   19  H   UNL     1       0.266   8.529 -29.860  1.00  0.00     0.169 HD
ENDBRANCH  12  15
ENDBRANCH   6   9
ENDBRANCH   1   5
BRANCH   2  20
HETATM   20  C   UNL     1      -7.250   2.221 -32.475  1.00  0.00     0.159 C 
BRANCH  20  21
HETATM   21  C   UNL     1      -7.070   1.060 -31.475  1.00  0.00     0.171 C 
BRANCH  21  22
HETATM   22  O   UNL     1      -8.320   0.365 -31.346  1.00  0.00    -0.389 OA
HETATM   23  H   UNL     1      -8.916   0.766 -32.001  1.00  0.00     0.210 HD
ENDBRANCH  21  22
BRANCH  21  24
HETATM   24  C   UNL     1      -5.979   0.125 -31.902  1.00  0.00     0.000 A 
HETATM   25  C   UNL     1      -6.062  -0.860 -32.939  1.00  0.00     0.001 A 
HETATM   26  C   UNL     1      -4.821  -1.502 -33.017  1.00  0.00     0.044 A 
HETATM   27  C   UNL     1      -7.088  -1.256 -33.824  1.00  0.00     0.014 A 
HETATM   28  C   UNL     1      -4.572  -2.520 -33.955  1.00  0.00     0.030 A 
HETATM   29  N   UNL     1      -4.018  -0.934 -32.053  1.00  0.00    -0.360 N 
HETATM   30  C   UNL     1      -5.605  -2.889 -34.821  1.00  0.00     0.002 A 
HETATM   31  C   UNL     1      -6.847  -2.268 -34.759  1.00  0.00     0.001 A 
HETATM   32  C   UNL     1      -2.641  -1.273 -31.767  1.00  0.00     0.155 C 
HETATM   33  C   UNL     1      -4.703   0.040 -31.378  1.00  0.00     0.101 A 
ENDBRANCH  21  24
ENDBRANCH  20  21
ENDBRANCH   2  20
TORSDOF 7
ENDMDL
MODEL 5
REMARK VINA RESULT:      -8.5      3.617      6.272
REMARK  7 active torsions:
REMARK  status: ('A' for Active; 'I' for Inactive)
REMARK       I    between atoms: C_2  and  N_3 
REMARK    1  A    between atoms: N_3  and  C_4 
REMARK    2  A    between atoms: C_7  and  N_8 
REMARK       I    between atoms: N_8  and  C_9 
REMARK    3  A    between atoms: C_9  and  C_10 
REMARK       I    between atoms: C_10  and  N_11 
REMARK    4  A    between atoms: N_11  and  C_12 
REMARK    5  A    between atoms: C_12  and  C_13 
REMARK    6  A    between atoms: C_13  and  O_14 
REMARK    7  A    between atoms: C_13  and  C_15 
ROOT
HETATM    1  C   UNL     1      -8.488   2.622 -33.413  1.00  0.00     0.309 C 
HETATM    2  N   UNL     1      -7.975   1.378 -33.129  1.00  0.00    -0.350 N 
HETATM    3  O   UNL     1      -9.541   2.849 -33.994  1.00  0.00    -0.262 OA
HETATM    4  H   UNL     1      -7.065   1.346 -32.673  1.00  0.00     0.163 HD
ENDROOT
BRANCH   1   5
HETATM    5  C   UNL     1      -7.585   3.790 -32.964  1.00  0.00     0.313 C 
HETATM    6  N   UNL     1      -6.249   3.462 -33.035  1.00  0.00    -0.319 N 
HETATM    7  H   UNL     1      -6.064   2.533 -33.405  1.00  0.00     0.169 HD
HETATM    8  O   UNL     1      -8.117   4.827 -32.595  1.00  0.00    -0.262 OA
BRANCH   6   9
HETATM    9  C   UNL     1      -5.152   4.226 -32.604  1.00  0.00     0.035 A 
HETATM   10  C   UNL     1      -4.961   4.634 -31.286  1.00  0.00     0.032 A 
HETATM   11  C   UNL     1      -3.811   5.351 -30.920  1.00  0.00     0.032 A 
HETATM   12  C   UNL     1      -2.842   5.676 -31.868  1.00  0.00     0.034 A 
HETATM   13  C   UNL     1      -3.049   5.288 -33.195  1.00  0.00     0.032 A 
HETATM   14  C   UNL     1      -4.190   4.565 -33.560  1.00  0.00     0.032 A 
BRANCH  12  15
HETATM   15  N   UNL     1      -1.649   6.369 -31.575  1.00  0.00    -0.328 N 
HETATM   16  C   UNL     1      -0.426   5.827 -31.223  1.00  0.00     0.218 C 
HETATM   17  C   UNL     1       0.633   6.883 -31.022  1.00  0.00     0.117 C 
HETATM   18  O   UNL     1      -0.150   4.639 -31.110  1.00  0.00    -0.274 OA
HETATM   19  H   UNL     1      -1.690   7.376 -31.666  1.00  0.00     0.169 HD
ENDBRANCH  12  15
ENDBRANCH   6   9
ENDBRANCH   1   5
BRANCH   2  20
HETATM   20  C   UNL     1      -8.600   0.153 -33.603  1.00  0.00     0.159 C 
BRANCH  20  21
HETATM   21  C   UNL     1      -7.828  -0.471 -34.784  1.00  0.00     0.171 C 
BRANCH  21  22
HETATM   22  O   UNL     1      -7.654   0.529 -35.800  1.00  0.00    -0.389 OA
HETATM   23  H   UNL     1      -6.834   0.998 -35.574  1.00  0.00     0.210 HD
ENDBRANCH  21  22
BRANCH  21  24
HETATM   24  C   UNL     1      -6.506  -1.027 -34.349  1.00  0.00     0.000 A 
HETATM   25  C   UNL     1      -6.089  -2.396 -34.436  1.00  0.00     0.001 A 
HETATM   26  C   UNL     1      -4.786  -2.478 -33.933  1.00  0.00     0.044 A 
HETATM   27  C   UNL     1      -6.711  -3.573 -34.906  1.00  0.00     0.014 A 
HETATM   28  C   UNL     1      -4.083  -3.696 -33.894  1.00  0.00     0.030 A 
HETATM   29  N   UNL     1      -4.429  -1.205 -33.545  1.00  0.00    -0.360 N 
HETATM   30  C   UNL     1      -4.722  -4.844 -34.370  1.00  0.00     0.002 A 
HETATM   31  C   UNL     1      -6.018  -4.787 -34.869  1.00  0.00     0.001 A 
HETATM   32  C   UNL     1      -3.163  -0.801 -32.973  1.00  0.00     0.155 C 
HETATM   33  C   UNL     1      -5.453  -0.330 -33.788  1.00  0.00     0.101 A 
ENDBRANCH  21  24
ENDBRANCH  20  21
ENDBRANCH   2  20
TORSDOF 7
ENDMDL
MODEL 6
REMARK VINA RESULT:      -8.4      3.511     10.676
REMARK  7 active torsions:
REMARK  status: ('A' for Active; 'I' for Inactive)
REMARK       I    between atoms: C_2  and  N_3 
REMARK    1  A    between atoms: N_3  and  C_4 
REMARK    2  A    between atoms: C_7  and  N_8 
REMARK       I    between atoms: N_8  and  C_9 
REMARK    3  A    between atoms: C_9  and  C_10 
REMARK       I    between atoms: C_10  and  N_11 
REMARK    4  A    between atoms: N_11  and  C_12 
REMARK    5  A    between atoms: C_12  and  C_13 
REMARK    6  A    between atoms: C_13  and  O_14 
REMARK    7  A    between atoms: C_13  and  C_15 
ROOT
HETATM    1  C   UNL     1      -3.457   3.840 -32.475  1.00  0.00     0.309 C 
HETATM    2  N   UNL     1      -3.104   4.759 -33.435  1.00  0.00    -0.350 N 
HETATM    3  O   UNL     1      -2.684   3.167 -31.806  1.00  0.00    -0.262 OA
HETATM    4  H   UNL     1      -3.862   5.216 -33.939  1.00  0.00     0.163 HD
ENDROOT
BRANCH   1   5
HETATM    5  C   UNL     1      -4.981   3.666 -32.303  1.00  0.00     0.313 C 
HETATM    6  N   UNL     1      -5.366   2.351 -32.446  1.00  0.00    -0.319 N 
HETATM    7  H   UNL     1      -4.598   1.703 -32.598  1.00  0.00     0.169 HD
HETATM    8  O   UNL     1      -5.658   4.660 -32.086  1.00  0.00    -0.262 OA
BRANCH   6   9
HETATM    9  C   UNL     1      -6.672   1.836 -32.467  1.00  0.00     0.035 A 
HETATM   10  C   UNL     1      -7.629   2.108 -31.491  1.00  0.00     0.032 A 
HETATM   11  C   UNL     1      -8.932   1.600 -31.608  1.00  0.00     0.032 A 
HETATM   12  C   UNL     1      -9.293   0.808 -32.697  1.00  0.00     0.034 A 
HETATM   13  C   UNL     1      -8.324   0.515 -33.662  1.00  0.00     0.032 A 
HETATM   14  C   UNL     1      -7.027   1.028 -33.551  1.00  0.00     0.032 A 
BRANCH  12  15
HETATM   15  N   UNL     1     -10.587   0.283 -32.900  1.00  0.00    -0.328 N 
HETATM   16  C   UNL     1     -11.658   0.902 -33.517  1.00  0.00     0.218 C 
HETATM   17  C   UNL     1     -12.875   0.012 -33.583  1.00  0.00     0.117 C 
HETATM   18  O   UNL     1     -11.679   2.021 -34.014  1.00  0.00    -0.274 OA
HETATM   19  H   UNL     1     -10.732  -0.667 -32.583  1.00  0.00     0.169 HD
ENDBRANCH  12  15
ENDBRANCH   6   9
ENDBRANCH   1   5
BRANCH   2  20
HETATM   20  C   UNL     1      -1.724   4.958 -33.851  1.00  0.00     0.159 C 
BRANCH  20  21
HETATM   21  C   UNL     1      -1.315   6.444 -33.810  1.00  0.00     0.171 C 
BRANCH  21  22
HETATM   22  O   UNL     1      -2.224   7.195 -34.631  1.00  0.00    -0.389 OA
HETATM   23  H   UNL     1      -2.235   6.747 -35.493  1.00  0.00     0.210 HD
ENDBRANCH  21  22
BRANCH  21  24
HETATM   24  C   UNL     1      -1.298   6.975 -32.408  1.00  0.00     0.000 A 
HETATM   25  C   UNL     1      -0.606   6.404 -31.291  1.00  0.00     0.001 A 
HETATM   26  C   UNL     1      -0.845   7.218 -30.178  1.00  0.00     0.044 A 
HETATM   27  C   UNL     1       0.210   5.262 -31.134  1.00  0.00     0.014 A 
HETATM   28  C   UNL     1      -0.289   6.933 -28.919  1.00  0.00     0.030 A 
HETATM   29  N   UNL     1      -1.662   8.242 -30.604  1.00  0.00    -0.360 N 
HETATM   30  C   UNL     1       0.519   5.799 -28.793  1.00  0.00     0.002 A 
HETATM   31  C   UNL     1       0.766   4.972 -29.884  1.00  0.00     0.001 A 
HETATM   32  C   UNL     1      -2.168   9.334 -29.801  1.00  0.00     0.155 C 
HETATM   33  C   UNL     1      -1.942   8.104 -31.938  1.00  0.00     0.101 A 
ENDBRANCH  21  24
ENDBRANCH  20  21
ENDBRANCH   2  20
TORSDOF 7
ENDMDL
MODEL 7
REMARK VINA RESULT:      -8.4      2.677     10.551
REMARK  7 active torsions:
REMARK  status: ('A' for Active; 'I' for Inactive)
REMARK       I    between atoms: C_2  and  N_3 
REMARK    1  A    between atoms: N_3  and  C_4 
REMARK    2  A    between atoms: C_7  and  N_8 
REMARK       I    between atoms: N_8  and  C_9 
REMARK    3  A    between atoms: C_9  and  C_10 
REMARK       I    between atoms: C_10  and  N_11 
REMARK    4  A    between atoms: N_11  and  C_12 
REMARK    5  A    between atoms: C_12  and  C_13 
REMARK    6  A    between atoms: C_13  and  O_14 
REMARK    7  A    between atoms: C_13  and  C_15 
ROOT
HETATM    1  C   UNL     1      -1.990   4.591 -32.055  1.00  0.00     0.309 C 
HETATM    2  N   UNL     1      -1.749   5.783 -32.699  1.00  0.00    -0.350 N 
HETATM    3  O   UNL     1      -1.381   4.163 -31.084  1.00  0.00    -0.262 OA
HETATM    4  H   UNL     1      -2.314   5.987 -33.521  1.00  0.00     0.163 HD
ENDROOT
BRANCH   1   5
HETATM    5  C   UNL     1      -3.118   3.752 -32.692  1.00  0.00     0.313 C 
HETATM    6  N   UNL     1      -3.224   2.509 -32.109  1.00  0.00    -0.319 N 
HETATM    7  H   UNL     1      -2.583   2.351 -31.336  1.00  0.00     0.169 HD
HETATM    8  O   UNL     1      -3.760   4.243 -33.610  1.00  0.00    -0.262 OA
BRANCH   6   9
HETATM    9  C   UNL     1      -4.054   1.445 -32.499  1.00  0.00     0.035 A 
HETATM   10  C   UNL     1      -5.364   1.607 -32.946  1.00  0.00     0.032 A 
HETATM   11  C   UNL     1      -6.115   0.500 -33.370  1.00  0.00     0.032 A 
HETATM   12  C   UNL     1      -5.571  -0.783 -33.347  1.00  0.00     0.034 A 
HETATM   13  C   UNL     1      -4.265  -0.946 -32.874  1.00  0.00     0.032 A 
HETATM   14  C   UNL     1      -3.511   0.157 -32.459  1.00  0.00     0.032 A 
BRANCH  12  15
HETATM   15  N   UNL     1      -6.250  -1.940 -33.781  1.00  0.00    -0.328 N 
HETATM   16  C   UNL     1      -5.797  -2.897 -34.670  1.00  0.00     0.218 C 
HETATM   17  C   UNL     1      -6.791  -4.016 -34.864  1.00  0.00     0.117 C 
HETATM   18  O   UNL     1      -4.713  -2.923 -35.240  1.00  0.00    -0.274 OA
HETATM   19  H   UNL     1      -7.160  -2.100 -33.366  1.00  0.00     0.169 HD
ENDBRANCH  12  15
ENDBRANCH   6   9
ENDBRANCH   1   5
BRANCH   2  20
HETATM   20  C   UNL     1      -0.630   6.643 -32.346  1.00  0.00     0.159 C 
BRANCH  20  21
HETATM   21  C   UNL     1      -1.094   7.938 -31.648  1.00  0.00     0.171 C 
BRANCH  21  22
HETATM   22  O   UNL     1      -2.148   8.528 -32.425  1.00  0.00    -0.389 OA
HETATM   23  H   UNL     1      -1.921   8.356 -33.354  1.00  0.00     0.210 HD
ENDBRANCH  21  22
BRANCH  21  24
HETATM   24  C   UNL     1      -1.547   7.678 -30.243  1.00  0.00     0.000 A 
HETATM   25  C   UNL     1      -0.709   7.581 -29.084  1.00  0.00     0.001 A 
HETATM   26  C   UNL     1      -1.535   7.344 -27.979  1.00  0.00     0.044 A 
HETATM   27  C   UNL     1       0.685   7.679 -28.882  1.00  0.00     0.014 A 
HETATM   28  C   UNL     1      -1.012   7.212 -26.680  1.00  0.00     0.030 A 
HETATM   29  N   UNL     1      -2.827   7.290 -28.453  1.00  0.00    -0.360 N 
HETATM   30  C   UNL     1       0.370   7.317 -26.509  1.00  0.00     0.002 A 
HETATM   31  C   UNL     1       1.210   7.547 -27.592  1.00  0.00     0.001 A 
HETATM   32  C   UNL     1      -4.024   7.073 -27.672  1.00  0.00     0.155 C 
HETATM   33  C   UNL     1      -2.844   7.486 -29.809  1.00  0.00     0.101 A 
ENDBRANCH  21  24
ENDBRANCH  20  21
ENDBRANCH   2  20
TORSDOF 7
ENDMDL
MODEL 8
REMARK VINA RESULT:      -8.4      2.873     10.545
REMARK  7 active torsions:
REMARK  status: ('A' for Active; 'I' for Inactive)
REMARK       I    between atoms: C_2  and  N_3 
REMARK    1  A    between atoms: N_3  and  C_4 
REMARK    2  A    between atoms: C_7  and  N_8 
REMARK       I    between atoms: N_8  and  C_9 
REMARK    3  A    between atoms: C_9  and  C_10 
REMARK       I    between atoms: C_10  and  N_11 
REMARK    4  A    between atoms: N_11  and  C_12 
REMARK    5  A    between atoms: C_12  and  C_13 
REMARK    6  A    between atoms: C_13  and  O_14 
REMARK    7  A    between atoms: C_13  and  C_15 
ROOT
HETATM    1  C   UNL     1      -4.426   5.049 -31.744  1.00  0.00     0.309 C 
HETATM    2  N   UNL     1      -3.809   6.052 -32.455  1.00  0.00    -0.350 N 
HETATM    3  O   UNL     1      -5.031   5.183 -30.689  1.00  0.00    -0.262 OA
HETATM    4  H   UNL     1      -3.309   5.781 -33.299  1.00  0.00     0.163 HD
ENDROOT
BRANCH   1   5
HETATM    5  C   UNL     1      -4.270   3.648 -32.373  1.00  0.00     0.313 C 
HETATM    6  N   UNL     1      -5.470   2.975 -32.431  1.00  0.00    -0.319 N 
HETATM    7  H   UNL     1      -6.268   3.509 -32.096  1.00  0.00     0.169 HD
HETATM    8  O   UNL     1      -3.155   3.290 -32.724  1.00  0.00    -0.262 OA
BRANCH   6   9
HETATM    9  C   UNL     1      -5.693   1.648 -32.833  1.00  0.00     0.035 A 
HETATM   10  C   UNL     1      -5.308   0.536 -32.086  1.00  0.00     0.032 A 
HETATM   11  C   UNL     1      -5.613  -0.760 -32.527  1.00  0.00     0.032 A 
HETATM   12  C   UNL     1      -6.299  -0.964 -33.723  1.00  0.00     0.034 A 
HETATM   13  C   UNL     1      -6.662   0.152 -34.484  1.00  0.00     0.032 A 
HETATM   14  C   UNL     1      -6.366   1.446 -34.041  1.00  0.00     0.032 A 
BRANCH  12  15
HETATM   15  N   UNL     1      -6.666  -2.232 -34.220  1.00  0.00    -0.328 N 
HETATM   16  C   UNL     1      -5.841  -3.177 -34.802  1.00  0.00     0.218 C 
HETATM   17  C   UNL     1      -6.586  -4.434 -35.179  1.00  0.00     0.117 C 
HETATM   18  O   UNL     1      -4.633  -3.093 -34.984  1.00  0.00    -0.274 OA
HETATM   19  H   UNL     1      -7.639  -2.486 -34.107  1.00  0.00     0.169 HD
ENDBRANCH  12  15
ENDBRANCH   6   9
ENDBRANCH   1   5
BRANCH   2  20
HETATM   20  C   UNL     1      -3.713   7.414 -31.952  1.00  0.00     0.159 C 
BRANCH  20  21
HETATM   21  C   UNL     1      -2.249   7.883 -31.829  1.00  0.00     0.171 C 
BRANCH  21  22
HETATM   22  O   UNL     1      -2.208   9.311 -31.980  1.00  0.00    -0.389 OA
HETATM   23  H   UNL     1      -3.088   9.631 -31.721  1.00  0.00     0.210 HD
ENDBRANCH  21  22
BRANCH  21  24
HETATM   24  C   UNL     1      -1.640   7.466 -30.524  1.00  0.00     0.000 A 
HETATM   25  C   UNL     1      -0.620   6.477 -30.340  1.00  0.00     0.001 A 
HETATM   26  C   UNL     1      -0.335   6.408 -28.971  1.00  0.00     0.044 A 
HETATM   27  C   UNL     1       0.088   5.635 -31.224  1.00  0.00     0.014 A 
HETATM   28  C   UNL     1       0.641   5.533 -28.462  1.00  0.00     0.030 A 
HETATM   29  N   UNL     1      -1.160   7.318 -28.347  1.00  0.00    -0.360 N 
HETATM   30  C   UNL     1       1.330   4.715 -29.360  1.00  0.00     0.002 A 
HETATM   31  C   UNL     1       1.059   4.762 -30.723  1.00  0.00     0.001 A 
HETATM   32  C   UNL     1      -1.215   7.603 -26.930  1.00  0.00     0.155 C 
HETATM   33  C   UNL     1      -1.948   7.955 -29.269  1.00  0.00     0.101 A 
ENDBRANCH  21  24
ENDBRANCH  20  21
ENDBRANCH   2  20
TORSDOF 7
ENDMDL
MODEL 9
REMARK VINA RESULT:      -8.0      2.985     10.637
REMARK  7 active torsions:
REMARK  status: ('A' for Active; 'I' for Inactive)
REMARK       I    between atoms: C_2  and  N_3 
REMARK    1  A    between atoms: N_3  and  C_4 
REMARK    2  A    between atoms: C_7  and  N_8 
REMARK       I    between atoms: N_8  and  C_9 
REMARK    3  A    between atoms: C_9  and  C_10 
REMARK       I    between atoms: C_10  and  N_11 
REMARK    4  A    between atoms: N_11  and  C_12 
REMARK    5  A    between atoms: C_12  and  C_13 
REMARK    6  A    between atoms: C_13  and  O_14 
REMARK    7  A    between atoms: C_13  and  C_15 
ROOT
HETATM    1  C   UNL     1      -4.930   5.300 -30.739  1.00  0.00     0.309 C 
HETATM    2  N   UNL     1      -4.396   5.760 -31.920  1.00  0.00    -0.350 N 
HETATM    3  O   UNL     1      -5.011   5.930 -29.693  1.00  0.00    -0.262 OA
HETATM    4  H   UNL     1      -4.361   5.104 -32.698  1.00  0.00     0.163 HD
ENDROOT
BRANCH   1   5
HETATM    5  C   UNL     1      -5.417   3.836 -30.799  1.00  0.00     0.313 C 
HETATM    6  N   UNL     1      -4.968   3.193 -31.931  1.00  0.00    -0.319 N 
HETATM    7  H   UNL     1      -4.361   3.756 -32.522  1.00  0.00     0.169 HD
HETATM    8  O   UNL     1      -6.126   3.422 -29.894  1.00  0.00    -0.262 OA
BRANCH   6   9
HETATM    9  C   UNL     1      -5.299   1.903 -32.375  1.00  0.00     0.035 A 
HETATM   10  C   UNL     1      -4.927   0.734 -31.712  1.00  0.00     0.032 A 
HETATM   11  C   UNL     1      -5.342  -0.519 -32.186  1.00  0.00     0.032 A 
HETATM   12  C   UNL     1      -6.126  -0.623 -33.334  1.00  0.00     0.034 A 
HETATM   13  C   UNL     1      -6.477   0.549 -34.013  1.00  0.00     0.032 A 
HETATM   14  C   UNL     1      -6.072   1.800 -33.535  1.00  0.00     0.032 A 
BRANCH  12  15
HETATM   15  N   UNL     1      -6.605  -1.841 -33.859  1.00  0.00    -0.328 N 
HETATM   16  C   UNL     1      -5.889  -2.792 -34.565  1.00  0.00     0.218 C 
HETATM   17  C   UNL     1      -6.732  -3.987 -34.934  1.00  0.00     0.117 C 
HETATM   18  O   UNL     1      -4.700  -2.755 -34.856  1.00  0.00    -0.274 OA
HETATM   19  H   UNL     1      -7.575  -2.054 -33.667  1.00  0.00     0.169 HD
ENDBRANCH  12  15
ENDBRANCH   6   9
ENDBRANCH   1   5
BRANCH   2  20
HETATM   20  C   UNL     1      -3.747   7.058 -32.025  1.00  0.00     0.159 C 
BRANCH  20  21
HETATM   21  C   UNL     1      -2.284   6.936 -32.496  1.00  0.00     0.171 C 
BRANCH  21  22
HETATM   22  O   UNL     1      -1.910   8.155 -33.159  1.00  0.00    -0.389 OA
HETATM   23  H   UNL     1      -2.732   8.522 -33.524  1.00  0.00     0.210 HD
ENDBRANCH  21  22
BRANCH  21  24
HETATM   24  C   UNL     1      -1.357   6.642 -31.355  1.00  0.00     0.000 A 
HETATM   25  C   UNL     1      -1.154   7.456 -30.194  1.00  0.00     0.001 A 
HETATM   26  C   UNL     1      -0.218   6.810 -29.378  1.00  0.00     0.044 A 
HETATM   27  C   UNL     1      -1.691   8.690 -29.765  1.00  0.00     0.014 A 
HETATM   28  C   UNL     1       0.189   7.352 -28.146  1.00  0.00     0.030 A 
HETATM   29  N   UNL     1       0.140   5.648 -30.027  1.00  0.00    -0.360 N 
HETATM   30  C   UNL     1      -0.363   8.572 -27.745  1.00  0.00     0.002 A 
HETATM   31  C   UNL     1      -1.289   9.234 -28.542  1.00  0.00     0.001 A 
HETATM   32  C   UNL     1       1.077   4.652 -29.558  1.00  0.00     0.155 C 
HETATM   33  C   UNL     1      -0.535   5.540 -31.214  1.00  0.00     0.101 A 
ENDBRANCH  21  24
ENDBRANCH  20  21
ENDBRANCH   2  20
TORSDOF 7
ENDMDL
MODEL 10
REMARK VINA RESULT:      -7.9      3.165     10.836
REMARK  7 active torsions:
REMARK  status: ('A' for Active; 'I' for Inactive)
REMARK       I    between atoms: C_2  and  N_3 
REMARK    1  A    between atoms: N_3  and  C_4 
REMARK    2  A    between atoms: C_7  and  N_8 
REMARK       I    between atoms: N_8  and  C_9 
REMARK    3  A    between atoms: C_9  and  C_10 
REMARK       I    between atoms: C_10  and  N_11 
REMARK    4  A    between atoms: N_11  and  C_12 
REMARK    5  A    between atoms: C_12  and  C_13 
REMARK    6  A    between atoms: C_13  and  O_14 
REMARK    7  A    between atoms: C_13  and  C_15 
ROOT
HETATM    1  C   UNL     1      -5.615   5.380 -32.576  1.00  0.00     0.309 C 
HETATM    2  N   UNL     1      -5.605   5.716 -31.242  1.00  0.00    -0.350 N 
HETATM    3  O   UNL     1      -5.067   6.001 -33.477  1.00  0.00    -0.262 OA
HETATM    4  H   UNL     1      -6.141   5.123 -30.611  1.00  0.00     0.163 HD
ENDROOT
BRANCH   1   5
HETATM    5  C   UNL     1      -6.439   4.116 -32.897  1.00  0.00     0.313 C 
HETATM    6  N   UNL     1      -5.637   3.008 -33.063  1.00  0.00    -0.319 N 
HETATM    7  H   UNL     1      -4.647   3.180 -32.909  1.00  0.00     0.169 HD
HETATM    8  O   UNL     1      -7.654   4.221 -32.984  1.00  0.00    -0.262 OA
BRANCH   6   9
HETATM    9  C   UNL     1      -6.023   1.721 -33.470  1.00  0.00     0.035 A 
HETATM   10  C   UNL     1      -6.682   1.450 -34.668  1.00  0.00     0.032 A 
HETATM   11  C   UNL     1      -6.987   0.131 -35.032  1.00  0.00     0.032 A 
HETATM   12  C   UNL     1      -6.646  -0.936 -34.202  1.00  0.00     0.034 A 
HETATM   13  C   UNL     1      -6.008  -0.661 -32.988  1.00  0.00     0.032 A 
HETATM   14  C   UNL     1      -5.694   0.654 -32.627  1.00  0.00     0.032 A 
BRANCH  12  15
HETATM   15  N   UNL     1      -6.894  -2.290 -34.509  1.00  0.00    -0.328 N 
HETATM   16  C   UNL     1      -5.981  -3.235 -34.941  1.00  0.00     0.218 C 
HETATM   17  C   UNL     1      -6.609  -4.594 -35.133  1.00  0.00     0.117 C 
HETATM   18  O   UNL     1      -4.781  -3.072 -35.128  1.00  0.00    -0.274 OA
HETATM   19  H   UNL     1      -7.843  -2.609 -34.364  1.00  0.00     0.169 HD
ENDBRANCH  12  15
ENDBRANCH   6   9
ENDBRANCH   1   5
BRANCH   2  20
HETATM   20  C   UNL     1      -5.012   6.953 -30.757  1.00  0.00     0.159 C 
BRANCH  20  21
HETATM   21  C   UNL     1      -4.514   6.824 -29.303  1.00  0.00     0.171 C 
BRANCH  21  22
HETATM   22  O   UNL     1      -4.692   5.465 -28.874  1.00  0.00    -0.389 OA
HETATM   23  H   UNL     1      -4.636   5.483 -27.904  1.00  0.00     0.210 HD
ENDBRANCH  21  22
BRANCH  21  24
HETATM   24  C   UNL     1      -3.082   7.245 -29.169  1.00  0.00     0.000 A 
HETATM   25  C   UNL     1      -1.972   6.732 -29.916  1.00  0.00     0.001 A 
HETATM   26  C   UNL     1      -0.821   7.404 -29.487  1.00  0.00     0.044 A 
HETATM   27  C   UNL     1      -1.849   5.755 -30.927  1.00  0.00     0.014 A 
HETATM   28  C   UNL     1       0.443   7.136 -30.042  1.00  0.00     0.030 A 
HETATM   29  N   UNL     1      -1.219   8.286 -28.507  1.00  0.00    -0.360 N 
HETATM   30  C   UNL     1       0.533   6.166 -31.045  1.00  0.00     0.002 A 
HETATM   31  C   UNL     1      -0.595   5.483 -31.483  1.00  0.00     0.001 A 
HETATM   32  C   UNL     1      -0.372   9.203 -27.775  1.00  0.00     0.155 C 
HETATM   33  C   UNL     1      -2.571   8.196 -28.306  1.00  0.00     0.101 A 
ENDBRANCH  21  24
ENDBRANCH  20  21
ENDBRANCH   2  20
TORSDOF 7
ENDMDL
