MODEL 1
REMARK VINA RESULT:      -8.9      0.000      0.000
REMARK  5 active torsions:
REMARK  status: ('A' for Active; 'I' for Inactive)
REMARK    1  A    between atoms: C_2  and  C_3 
REMARK    2  A    between atoms: C_6  and  C_7 
REMARK    3  A    between atoms: C_7  and  N_8 
REMARK    4  A    between atoms: C_7  and  C_21 
REMARK       I    between atoms: N_8  and  C_9 
REMARK       I    between atoms: C_9  and  N_10 
REMARK    5  A    between atoms: N_10  and  N_11 
ROOT
HETATM    1  N   UNL     1      -4.300   1.179 -31.851  1.00  0.00    -0.333 N 
HETATM    2  C   UNL     1      -3.731   2.407 -31.734  1.00  0.00     0.335 C 
HETATM    3  N   UNL     1      -4.453   3.446 -32.233  1.00  0.00    -0.244 N 
HETATM    4  O   UNL     1      -2.642   2.508 -31.180  1.00  0.00    -0.246 OA
HETATM    5  H   UNL     1      -3.706   0.443 -31.492  1.00  0.00     0.165 HD
HETATM    6  H   UNL     1      -4.966   3.297 -33.089  1.00  0.00     0.192 HD
ENDROOT
BRANCH   1   7
HETATM    7  C   UNL     1      -5.663   0.837 -32.246  1.00  0.00     0.122 C 
BRANCH   7   8
HETATM    8  C   UNL     1      -5.728  -0.428 -33.089  1.00  0.00    -0.035 A 
HETATM    9  C   UNL     1      -4.586  -1.161 -33.441  1.00  0.00     0.010 A 
HETATM   10  C   UNL     1      -4.695  -2.351 -34.167  1.00  0.00     0.007 A 
HETATM   11  C   UNL     1      -5.948  -2.838 -34.558  1.00  0.00    -0.059 A 
HETATM   12  C   UNL     1      -7.091  -2.110 -34.213  1.00  0.00     0.007 A 
HETATM   13  C   UNL     1      -6.983  -0.918 -33.490  1.00  0.00     0.010 A 
BRANCH  11  14
HETATM   14  C   UNL     1      -6.067  -4.147 -35.294  1.00  0.00     0.034 C 
HETATM   15  C   UNL     1      -5.159  -5.213 -34.701  1.00  0.00     0.010 C 
ENDBRANCH  11  14
ENDBRANCH   7   8
BRANCH   7  16
HETATM   16  C   UNL     1      -6.628   0.788 -31.028  1.00  0.00     0.005 C 
HETATM   17  C   UNL     1      -5.925   0.594 -29.680  1.00  0.00     0.012 C 
HETATM   18  C   UNL     1      -7.508   2.042 -30.978  1.00  0.00     0.012 C 
ENDBRANCH   7  16
ENDBRANCH   1   7
BRANCH   3  19
HETATM   19  N   UNL     1      -3.962   4.700 -32.097  1.00  0.00    -0.244 N 
HETATM   20  C   UNL     1      -2.975   5.211 -32.890  1.00  0.00     0.086 A 
HETATM   21  C   UNL     1      -2.687   6.435 -32.284  1.00  0.00     0.086 A 
HETATM   22  C   UNL     1      -2.318   4.752 -34.037  1.00  0.00     0.034 A 
HETATM   23  C   UNL     1      -1.703   7.259 -32.848  1.00  0.00     0.034 A 
HETATM   24  N   UNL     1      -3.458   6.632 -31.157  1.00  0.00    -0.240 NA
HETATM   25  C   UNL     1      -1.033   6.822 -33.999  1.00  0.00     0.002 A 
HETATM   26  C   UNL     1      -1.336   5.588 -34.579  1.00  0.00     0.002 A 
HETATM   27  C   UNL     1      -4.219   5.559 -31.072  1.00  0.00     0.234 A 
ENDBRANCH   3  19
TORSDOF 5
ENDMDL
MODEL 2
REMARK VINA RESULT:      -8.5      1.305      2.183
REMARK  5 active torsions:
REMARK  status: ('A' for Active; 'I' for Inactive)
REMARK    1  A    between atoms: C_2  and  C_3 
REMARK    2  A    between atoms: C_6  and  C_7 
REMARK    3  A    between atoms: C_7  and  N_8 
REMARK    4  A    between atoms: C_7  and  C_21 
REMARK       I    between atoms: N_8  and  C_9 
REMARK       I    between atoms: C_9  and  N_10 
REMARK    5  A    between atoms: N_10  and  N_11 
ROOT
HETATM    1  N   UNL     1      -4.163   1.850 -31.921  1.00  0.00    -0.333 N 
HETATM    2  C   UNL     1      -3.278   2.872 -32.051  1.00  0.00     0.335 C 
HETATM    3  N   UNL     1      -3.516   3.739 -33.073  1.00  0.00    -0.244 N 
HETATM    4  O   UNL     1      -2.355   2.966 -31.249  1.00  0.00    -0.246 OA
HETATM    5  H   UNL     1      -3.919   1.222 -31.167  1.00  0.00     0.165 HD
HETATM    6  H   UNL     1      -3.857   3.359 -33.944  1.00  0.00     0.192 HD
ENDROOT
BRANCH   1   7
HETATM    7  C   UNL     1      -5.449   1.664 -32.588  1.00  0.00     0.122 C 
BRANCH   7   8
HETATM    8  C   UNL     1      -5.568   0.304 -33.260  1.00  0.00    -0.035 A 
HETATM    9  C   UNL     1      -6.611  -0.015 -34.142  1.00  0.00     0.010 A 
HETATM   10  C   UNL     1      -6.650  -1.256 -34.784  1.00  0.00     0.007 A 
HETATM   11  C   UNL     1      -5.649  -2.208 -34.561  1.00  0.00    -0.059 A 
HETATM   12  C   UNL     1      -4.608  -1.898 -33.681  1.00  0.00     0.007 A 
HETATM   13  C   UNL     1      -4.569  -0.659 -33.035  1.00  0.00     0.010 A 
BRANCH  11  14
HETATM   14  C   UNL     1      -5.665  -3.525 -35.294  1.00  0.00     0.034 C 
HETATM   15  C   UNL     1      -6.813  -4.412 -34.837  1.00  0.00     0.010 C 
ENDBRANCH  11  14
ENDBRANCH   7   8
BRANCH   7  16
HETATM   16  C   UNL     1      -6.645   1.964 -31.641  1.00  0.00     0.005 C 
HETATM   17  C   UNL     1      -6.382   1.620 -30.171  1.00  0.00     0.012 C 
HETATM   18  C   UNL     1      -7.081   3.430 -31.760  1.00  0.00     0.012 C 
ENDBRANCH   7  16
ENDBRANCH   1   7
BRANCH   3  19
HETATM   19  N   UNL     1      -2.699   4.807 -33.219  1.00  0.00    -0.244 N 
HETATM   20  C   UNL     1      -2.831   5.959 -32.498  1.00  0.00     0.086 A 
HETATM   21  C   UNL     1      -1.903   6.813 -33.097  1.00  0.00     0.086 A 
HETATM   22  C   UNL     1      -3.637   6.340 -31.419  1.00  0.00     0.034 A 
HETATM   23  C   UNL     1      -1.753   8.114 -32.596  1.00  0.00     0.034 A 
HETATM   24  N   UNL     1      -1.262   6.198 -34.152  1.00  0.00    -0.240 NA
HETATM   25  C   UNL     1      -2.547   8.518 -31.513  1.00  0.00     0.002 A 
HETATM   26  C   UNL     1      -3.473   7.644 -30.939  1.00  0.00     0.002 A 
HETATM   27  C   UNL     1      -1.771   4.984 -34.200  1.00  0.00     0.234 A 
ENDBRANCH   3  19
TORSDOF 5
ENDMDL
MODEL 3
REMARK VINA RESULT:      -8.4      1.717      2.003
REMARK  5 active torsions:
REMARK  status: ('A' for Active; 'I' for Inactive)
REMARK    1  A    between atoms: C_2  and  C_3 
REMARK    2  A    between atoms: C_6  and  C_7 
REMARK    3  A    between atoms: C_7  and  N_8 
REMARK    4  A    between atoms: C_7  and  C_21 
REMARK       I    between atoms: N_8  and  C_9 
REMARK       I    between atoms: C_9  and  N_10 
REMARK    5  A    between atoms: N_10  and  N_11 
ROOT
HETATM    1  N   UNL     1      -6.399   1.247 -32.278  1.00  0.00    -0.333 N 
HETATM    2  C   UNL     1      -5.912   2.501 -32.086  1.00  0.00     0.335 C 
HETATM    3  N   UNL     1      -5.704   3.235 -33.212  1.00  0.00    -0.244 N 
HETATM    4  O   UNL     1      -5.716   2.895 -30.942  1.00  0.00    -0.246 OA
HETATM    5  H   UNL     1      -6.504   0.737 -31.410  1.00  0.00     0.165 HD
HETATM    6  H   UNL     1      -5.343   2.760 -34.026  1.00  0.00     0.192 HD
ENDROOT
BRANCH   1   7
HETATM    7  C   UNL     1      -6.928   0.649 -33.500  1.00  0.00     0.122 C 
BRANCH   7   8
HETATM    8  C   UNL     1      -6.298  -0.701 -33.810  1.00  0.00    -0.035 A 
HETATM    9  C   UNL     1      -4.976  -1.017 -33.462  1.00  0.00     0.010 A 
HETATM   10  C   UNL     1      -4.456  -2.290 -33.712  1.00  0.00     0.007 A 
HETATM   11  C   UNL     1      -5.241  -3.278 -34.316  1.00  0.00    -0.059 A 
HETATM   12  C   UNL     1      -6.558  -2.969 -34.669  1.00  0.00     0.007 A 
HETATM   13  C   UNL     1      -7.080  -1.696 -34.422  1.00  0.00     0.010 A 
BRANCH  11  14
HETATM   14  C   UNL     1      -4.695  -4.665 -34.537  1.00  0.00     0.034 C 
HETATM   15  C   UNL     1      -3.524  -4.965 -33.612  1.00  0.00     0.010 C 
ENDBRANCH  11  14
ENDBRANCH   7   8
BRANCH   7  16
HETATM   16  C   UNL     1      -8.481   0.591 -33.496  1.00  0.00     0.005 C 
HETATM   17  C   UNL     1      -9.100   0.465 -32.100  1.00  0.00     0.012 C 
HETATM   18  C   UNL     1      -9.074   1.807 -34.219  1.00  0.00     0.012 C 
ENDBRANCH   7  16
ENDBRANCH   1   7
BRANCH   3  19
HETATM   19  N   UNL     1      -5.271   4.510 -33.082  1.00  0.00    -0.244 N 
HETATM   20  C   UNL     1      -3.950   4.853 -33.017  1.00  0.00     0.086 A 
HETATM   21  C   UNL     1      -3.993   6.216 -32.719  1.00  0.00     0.086 A 
HETATM   22  C   UNL     1      -2.756   4.142 -33.178  1.00  0.00     0.034 A 
HETATM   23  C   UNL     1      -2.789   6.922 -32.584  1.00  0.00     0.034 A 
HETATM   24  N   UNL     1      -5.292   6.661 -32.587  1.00  0.00    -0.240 NA
HETATM   25  C   UNL     1      -1.579   6.232 -32.745  1.00  0.00     0.002 A 
HETATM   26  C   UNL     1      -1.566   4.866 -33.035  1.00  0.00     0.002 A 
HETATM   27  C   UNL     1      -6.041   5.600 -32.811  1.00  0.00     0.234 A 
ENDBRANCH   3  19
TORSDOF 5
ENDMDL
MODEL 4
REMARK VINA RESULT:      -8.3      4.866      7.530
REMARK  5 active torsions:
REMARK  status: ('A' for Active; 'I' for Inactive)
REMARK    1  A    between atoms: C_2  and  C_3 
REMARK    2  A    between atoms: C_6  and  C_7 
REMARK    3  A    between atoms: C_7  and  N_8 
REMARK    4  A    between atoms: C_7  and  C_21 
REMARK       I    between atoms: N_8  and  C_9 
REMARK       I    between atoms: C_9  and  N_10 
REMARK    5  A    between atoms: N_10  and  N_11 
ROOT
HETATM    1  N   UNL     1      -8.196   2.490 -34.308  1.00  0.00    -0.333 N 
HETATM    2  C   UNL     1      -9.509   2.797 -34.136  1.00  0.00     0.335 C 
HETATM    3  N   UNL     1     -10.080   2.341 -32.988  1.00  0.00    -0.244 N 
HETATM    4  O   UNL     1     -10.081   3.467 -34.989  1.00  0.00    -0.246 OA
HETATM    5  H   UNL     1      -7.834   2.827 -35.190  1.00  0.00     0.165 HD
HETATM    6  H   UNL     1      -9.811   1.425 -32.658  1.00  0.00     0.192 HD
ENDROOT
BRANCH   1   7
HETATM    7  C   UNL     1      -7.257   1.923 -33.345  1.00  0.00     0.122 C 
BRANCH   7   8
HETATM    8  C   UNL     1      -6.723   0.566 -33.778  1.00  0.00    -0.035 A 
HETATM    9  C   UNL     1      -5.476   0.076 -33.364  1.00  0.00     0.010 A 
HETATM   10  C   UNL     1      -5.049  -1.202 -33.737  1.00  0.00     0.007 A 
HETATM   11  C   UNL     1      -5.858  -2.022 -34.533  1.00  0.00    -0.059 A 
HETATM   12  C   UNL     1      -7.101  -1.539 -34.953  1.00  0.00     0.007 A 
HETATM   13  C   UNL     1      -7.527  -0.260 -34.582  1.00  0.00     0.010 A 
BRANCH  11  14
HETATM   14  C   UNL     1      -5.419  -3.418 -34.890  1.00  0.00     0.034 C 
HETATM   15  C   UNL     1      -6.606  -4.348 -35.096  1.00  0.00     0.010 C 
ENDBRANCH  11  14
ENDBRANCH   7   8
BRANCH   7  16
HETATM   16  C   UNL     1      -6.119   2.919 -32.985  1.00  0.00     0.005 C 
HETATM   17  C   UNL     1      -5.778   3.912 -34.102  1.00  0.00     0.012 C 
HETATM   18  C   UNL     1      -6.449   3.682 -31.696  1.00  0.00     0.012 C 
ENDBRANCH   7  16
ENDBRANCH   1   7
BRANCH   3  19
HETATM   19  N   UNL     1     -11.370   2.660 -32.736  1.00  0.00    -0.244 N 
HETATM   20  C   UNL     1     -12.428   1.906 -33.157  1.00  0.00     0.086 A 
HETATM   21  C   UNL     1     -13.530   2.696 -32.823  1.00  0.00     0.086 A 
HETATM   22  C   UNL     1     -12.541   0.657 -33.778  1.00  0.00     0.034 A 
HETATM   23  C   UNL     1     -14.818   2.221 -33.107  1.00  0.00     0.034 A 
HETATM   24  N   UNL     1     -13.139   3.887 -32.248  1.00  0.00    -0.240 NA
HETATM   25  C   UNL     1     -14.957   0.971 -33.725  1.00  0.00     0.002 A 
HETATM   26  C   UNL     1     -13.836   0.206 -34.055  1.00  0.00     0.002 A 
HETATM   27  C   UNL     1     -11.823   3.833 -32.212  1.00  0.00     0.234 A 
ENDBRANCH   3  19
TORSDOF 5
ENDMDL
MODEL 5
REMARK VINA RESULT:      -8.2      5.852      8.630
REMARK  5 active torsions:
REMARK  status: ('A' for Active; 'I' for Inactive)
REMARK    1  A    between atoms: C_2  and  C_3 
REMARK    2  A    between atoms: C_6  and  C_7 
REMARK    3  A    between atoms: C_7  and  N_8 
REMARK    4  A    between atoms: C_7  and  C_21 
REMARK       I    between atoms: N_8  and  C_9 
REMARK       I    between atoms: C_9  and  N_10 
REMARK    5  A    between atoms: N_10  and  N_11 
ROOT
HETATM    1  N   UNL     1      -9.633   2.491 -34.418  1.00  0.00    -0.333 N 
HETATM    2  C   UNL     1     -10.978   2.357 -34.559  1.00  0.00     0.335 C 
HETATM    3  N   UNL     1     -11.591   1.545 -33.655  1.00  0.00    -0.244 N 
HETATM    4  O   UNL     1     -11.548   2.975 -35.451  1.00  0.00    -0.246 OA
HETATM    5  H   UNL     1      -9.227   3.080 -35.134  1.00  0.00     0.165 HD
HETATM    6  H   UNL     1     -11.108   0.705 -33.371  1.00  0.00     0.192 HD
ENDROOT
BRANCH   1   7
HETATM    7  C   UNL     1      -8.782   2.058 -33.314  1.00  0.00     0.122 C 
BRANCH   7   8
HETATM    8  C   UNL     1      -7.989   0.802 -33.645  1.00  0.00    -0.035 A 
HETATM    9  C   UNL     1      -7.969   0.237 -34.929  1.00  0.00     0.010 A 
HETATM   10  C   UNL     1      -7.180  -0.884 -35.205  1.00  0.00     0.007 A 
HETATM   11  C   UNL     1      -6.393  -1.468 -34.206  1.00  0.00    -0.059 A 
HETATM   12  C   UNL     1      -6.411  -0.912 -32.923  1.00  0.00     0.007 A 
HETATM   13  C   UNL     1      -7.201   0.207 -32.645  1.00  0.00     0.010 A 
BRANCH  11  14
HETATM   14  C   UNL     1      -5.503  -2.643 -34.518  1.00  0.00     0.034 C 
HETATM   15  C   UNL     1      -6.305  -3.854 -34.970  1.00  0.00     0.010 C 
ENDBRANCH  11  14
ENDBRANCH   7   8
BRANCH   7  16
HETATM   16  C   UNL     1      -7.877   3.209 -32.790  1.00  0.00     0.005 C 
HETATM   17  C   UNL     1      -7.595   4.305 -33.823  1.00  0.00     0.012 C 
HETATM   18  C   UNL     1      -8.468   3.832 -31.520  1.00  0.00     0.012 C 
ENDBRANCH   7  16
ENDBRANCH   1   7
BRANCH   3  19
HETATM   19  N   UNL     1     -12.936   1.414 -33.712  1.00  0.00    -0.244 N 
HETATM   20  C   UNL     1     -13.799   2.213 -33.017  1.00  0.00     0.086 A 
HETATM   21  C   UNL     1     -15.038   1.611 -33.246  1.00  0.00     0.086 A 
HETATM   22  C   UNL     1     -13.639   3.362 -32.235  1.00  0.00     0.034 A 
HETATM   23  C   UNL     1     -16.187   2.182 -32.679  1.00  0.00     0.034 A 
HETATM   24  N   UNL     1     -14.911   0.481 -34.027  1.00  0.00    -0.240 NA
HETATM   25  C   UNL     1     -16.052   3.335 -31.894  1.00  0.00     0.002 A 
HETATM   26  C   UNL     1     -14.799   3.911 -31.676  1.00  0.00     0.002 A 
HETATM   27  C   UNL     1     -13.623   0.390 -34.289  1.00  0.00     0.234 A 
ENDBRANCH   3  19
TORSDOF 5
ENDMDL
MODEL 6
REMARK VINA RESULT:      -8.1      3.573      7.224
REMARK  5 active torsions:
REMARK  status: ('A' for Active; 'I' for Inactive)
REMARK    1  A    between atoms: C_2  and  C_3 
REMARK    2  A    between atoms: C_6  and  C_7 
REMARK    3  A    between atoms: C_7  and  N_8 
REMARK    4  A    between atoms: C_7  and  C_21 
REMARK       I    between atoms: N_8  and  C_9 
REMARK       I    between atoms: C_9  and  N_10 
REMARK    5  A    between atoms: N_10  and  N_11 
ROOT
HETATM    1  N   UNL     1      -7.538   1.364 -31.537  1.00  0.00    -0.333 N 
HETATM    2  C   UNL     1      -6.664   0.356 -31.797  1.00  0.00     0.335 C 
HETATM    3  N   UNL     1      -6.285   0.220 -33.097  1.00  0.00    -0.244 N 
HETATM    4  O   UNL     1      -6.260  -0.336 -30.870  1.00  0.00    -0.246 OA
HETATM    5  H   UNL     1      -7.808   1.398 -30.563  1.00  0.00     0.165 HD
HETATM    6  H   UNL     1      -6.984   0.370 -33.811  1.00  0.00     0.192 HD
ENDROOT
BRANCH   1   7
HETATM    7  C   UNL     1      -7.968   2.450 -32.413  1.00  0.00     0.122 C 
BRANCH   7   8
HETATM    8  C   UNL     1      -9.283   2.148 -33.116  1.00  0.00    -0.035 A 
HETATM    9  C   UNL     1     -10.009   0.969 -32.889  1.00  0.00     0.010 A 
HETATM   10  C   UNL     1     -11.243   0.758 -33.510  1.00  0.00     0.007 A 
HETATM   11  C   UNL     1     -11.783   1.717 -34.374  1.00  0.00    -0.059 A 
HETATM   12  C   UNL     1     -11.063   2.893 -34.608  1.00  0.00     0.007 A 
HETATM   13  C   UNL     1      -9.827   3.105 -33.989  1.00  0.00     0.010 A 
BRANCH  11  14
HETATM   14  C   UNL     1     -13.137   1.511 -35.002  1.00  0.00     0.034 C 
HETATM   15  C   UNL     1     -13.977   0.514 -34.217  1.00  0.00     0.010 C 
ENDBRANCH  11  14
ENDBRANCH   7   8
BRANCH   7  16
HETATM   16  C   UNL     1      -7.990   3.818 -31.677  1.00  0.00     0.005 C 
HETATM   17  C   UNL     1      -8.487   3.743 -30.229  1.00  0.00     0.012 C 
HETATM   18  C   UNL     1      -6.609   4.482 -31.717  1.00  0.00     0.012 C 
ENDBRANCH   7  16
ENDBRANCH   1   7
BRANCH   3  19
HETATM   19  N   UNL     1      -5.376  -0.731 -33.409  1.00  0.00    -0.244 N 
HETATM   20  C   UNL     1      -5.709  -1.954 -33.920  1.00  0.00     0.086 A 
HETATM   21  C   UNL     1      -4.493  -2.638 -33.920  1.00  0.00     0.086 A 
HETATM   22  C   UNL     1      -6.907  -2.522 -34.367  1.00  0.00     0.034 A 
HETATM   23  C   UNL     1      -4.453  -3.955 -34.399  1.00  0.00     0.034 A 
HETATM   24  N   UNL     1      -3.478  -1.859 -33.404  1.00  0.00    -0.240 NA
HETATM   25  C   UNL     1      -5.639  -4.545 -34.856  1.00  0.00     0.002 A 
HETATM   26  C   UNL     1      -6.844  -3.839 -34.837  1.00  0.00     0.002 A 
HETATM   27  C   UNL     1      -4.049  -0.710 -33.103  1.00  0.00     0.234 A 
ENDBRANCH   3  19
TORSDOF 5
ENDMDL
MODEL 7
REMARK VINA RESULT:      -7.9      2.469      8.313
REMARK  5 active torsions:
REMARK  status: ('A' for Active; 'I' for Inactive)
REMARK    1  A    between atoms: C_2  and  C_3 
REMARK    2  A    between atoms: C_6  and  C_7 
REMARK    3  A    between atoms: C_7  and  N_8 
REMARK    4  A    between atoms: C_7  and  C_21 
REMARK       I    between atoms: N_8  and  C_9 
REMARK       I    between atoms: C_9  and  N_10 
REMARK    5  A    between atoms: N_10  and  N_11 
ROOT
HETATM    1  N   UNL     1      -2.619   3.515 -32.229  1.00  0.00    -0.333 N 
HETATM    2  C   UNL     1      -3.475   2.463 -32.141  1.00  0.00     0.335 C 
HETATM    3  N   UNL     1      -4.766   2.772 -31.839  1.00  0.00    -0.244 N 
HETATM    4  O   UNL     1      -3.054   1.332 -32.356  1.00  0.00    -0.246 OA
HETATM    5  H   UNL     1      -1.670   3.223 -32.424  1.00  0.00     0.165 HD
HETATM    6  H   UNL     1      -4.930   3.510 -31.171  1.00  0.00     0.192 HD
ENDROOT
BRANCH   1   7
HETATM    7  C   UNL     1      -2.923   4.942 -32.252  1.00  0.00     0.122 C 
BRANCH   7   8
HETATM    8  C   UNL     1      -1.973   5.757 -31.387  1.00  0.00    -0.035 A 
HETATM    9  C   UNL     1      -2.390   6.877 -30.653  1.00  0.00     0.010 A 
HETATM   10  C   UNL     1      -1.496   7.562 -29.824  1.00  0.00     0.007 A 
HETATM   11  C   UNL     1      -0.165   7.145 -29.708  1.00  0.00    -0.059 A 
HETATM   12  C   UNL     1       0.258   6.031 -30.439  1.00  0.00     0.007 A 
HETATM   13  C   UNL     1      -0.633   5.347 -31.271  1.00  0.00     0.010 A 
BRANCH  11  14
HETATM   14  C   UNL     1       0.782   7.853 -28.773  1.00  0.00     0.034 C 
HETATM   15  C   UNL     1       0.960   7.092 -27.468  1.00  0.00     0.010 C 
ENDBRANCH  11  14
ENDBRANCH   7   8
BRANCH   7  16
HETATM   16  C   UNL     1      -3.025   5.493 -33.702  1.00  0.00     0.005 C 
HETATM   17  C   UNL     1      -1.950   4.956 -34.653  1.00  0.00     0.012 C 
HETATM   18  C   UNL     1      -4.416   5.228 -34.290  1.00  0.00     0.012 C 
ENDBRANCH   7  16
ENDBRANCH   1   7
BRANCH   3  19
HETATM   19  N   UNL     1      -5.676   1.773 -31.791  1.00  0.00    -0.244 N 
HETATM   20  C   UNL     1      -6.365   1.330 -32.884  1.00  0.00     0.086 A 
HETATM   21  C   UNL     1      -7.285   0.436 -32.335  1.00  0.00     0.086 A 
HETATM   22  C   UNL     1      -6.290   1.605 -34.254  1.00  0.00     0.034 A 
HETATM   23  C   UNL     1      -8.176  -0.234 -33.187  1.00  0.00     0.034 A 
HETATM   24  N   UNL     1      -7.164   0.369 -30.963  1.00  0.00    -0.240 NA
HETATM   25  C   UNL     1      -8.117   0.023 -34.563  1.00  0.00     0.002 A 
HETATM   26  C   UNL     1      -7.191   0.929 -35.084  1.00  0.00     0.002 A 
HETATM   27  C   UNL     1      -6.180   1.194 -30.666  1.00  0.00     0.234 A 
ENDBRANCH   3  19
TORSDOF 5
ENDMDL
MODEL 8
REMARK VINA RESULT:      -7.9      3.738      5.815
REMARK  5 active torsions:
REMARK  status: ('A' for Active; 'I' for Inactive)
REMARK    1  A    between atoms: C_2  and  C_3 
REMARK    2  A    between atoms: C_6  and  C_7 
REMARK    3  A    between atoms: C_7  and  N_8 
REMARK    4  A    between atoms: C_7  and  C_21 
REMARK       I    between atoms: N_8  and  C_9 
REMARK       I    between atoms: C_9  and  N_10 
REMARK    5  A    between atoms: N_10  and  N_11 
ROOT
HETATM    1  N   UNL     1      -5.787   2.289 -33.229  1.00  0.00    -0.333 N 
HETATM    2  C   UNL     1      -6.728   3.129 -33.737  1.00  0.00     0.335 C 
HETATM    3  N   UNL     1      -8.023   2.767 -33.526  1.00  0.00    -0.244 N 
HETATM    4  O   UNL     1      -6.367   4.146 -34.318  1.00  0.00    -0.246 OA
HETATM    5  H   UNL     1      -4.846   2.591 -33.443  1.00  0.00     0.165 HD
HETATM    6  H   UNL     1      -8.254   1.786 -33.583  1.00  0.00     0.192 HD
ENDROOT
BRANCH   1   7
HETATM    7  C   UNL     1      -5.964   1.168 -32.311  1.00  0.00     0.122 C 
BRANCH   7   8
HETATM    8  C   UNL     1      -5.937  -0.178 -33.021  1.00  0.00    -0.035 A 
HETATM    9  C   UNL     1      -7.090  -0.776 -33.551  1.00  0.00     0.010 A 
HETATM   10  C   UNL     1      -7.013  -1.985 -34.248  1.00  0.00     0.007 A 
HETATM   11  C   UNL     1      -5.783  -2.626 -34.433  1.00  0.00    -0.059 A 
HETATM   12  C   UNL     1      -4.630  -2.038 -33.905  1.00  0.00     0.007 A 
HETATM   13  C   UNL     1      -4.706  -0.830 -33.205  1.00  0.00     0.010 A 
BRANCH  11  14
HETATM   14  C   UNL     1      -5.694  -3.902 -35.230  1.00  0.00     0.034 C 
HETATM   15  C   UNL     1      -4.975  -5.000 -34.460  1.00  0.00     0.010 C 
ENDBRANCH  11  14
ENDBRANCH   7   8
BRANCH   7  16
HETATM   16  C   UNL     1      -4.968   1.229 -31.119  1.00  0.00     0.005 C 
HETATM   17  C   UNL     1      -3.952   2.373 -31.208  1.00  0.00     0.012 C 
HETATM   18  C   UNL     1      -5.719   1.305 -29.784  1.00  0.00     0.012 C 
ENDBRANCH   7  16
ENDBRANCH   1   7
BRANCH   3  19
HETATM   19  N   UNL     1      -9.003   3.591 -33.961  1.00  0.00    -0.244 N 
HETATM   20  C   UNL     1     -10.206   3.146 -34.433  1.00  0.00     0.086 A 
HETATM   21  C   UNL     1     -10.806   4.311 -34.912  1.00  0.00     0.086 A 
HETATM   22  C   UNL     1     -10.817   1.889 -34.494  1.00  0.00     0.034 A 
HETATM   23  C   UNL     1     -12.089   4.233 -35.473  1.00  0.00     0.034 A 
HETATM   24  N   UNL     1      -9.981   5.404 -34.754  1.00  0.00    -0.240 NA
HETATM   25  C   UNL     1     -12.723   2.986 -35.542  1.00  0.00     0.002 A 
HETATM   26  C   UNL     1     -12.094   1.835 -35.062  1.00  0.00     0.002 A 
HETATM   27  C   UNL     1      -8.895   4.931 -34.176  1.00  0.00     0.234 A 
ENDBRANCH   3  19
TORSDOF 5
ENDMDL
MODEL 9
REMARK VINA RESULT:      -7.7      1.581      2.126
REMARK  5 active torsions:
REMARK  status: ('A' for Active; 'I' for Inactive)
REMARK    1  A    between atoms: C_2  and  C_3 
REMARK    2  A    between atoms: C_6  and  C_7 
REMARK    3  A    between atoms: C_7  and  N_8 
REMARK    4  A    between atoms: C_7  and  C_21 
REMARK       I    between atoms: N_8  and  C_9 
REMARK       I    between atoms: C_9  and  N_10 
REMARK    5  A    between atoms: N_10  and  N_11 
ROOT
HETATM    1  N   UNL     1      -6.502   1.726 -31.605  1.00  0.00    -0.333 N 
HETATM    2  C   UNL     1      -5.395   2.454 -31.301  1.00  0.00     0.335 C 
HETATM    3  N   UNL     1      -4.579   2.758 -32.347  1.00  0.00    -0.244 N 
HETATM    4  O   UNL     1      -5.213   2.806 -30.141  1.00  0.00    -0.246 OA
HETATM    5  H   UNL     1      -7.053   1.503 -30.786  1.00  0.00     0.165 HD
HETATM    6  H   UNL     1      -4.443   2.056 -33.059  1.00  0.00     0.192 HD
ENDROOT
BRANCH   1   7
HETATM    7  C   UNL     1      -7.050   1.401 -32.918  1.00  0.00     0.122 C 
BRANCH   7   8
HETATM    8  C   UNL     1      -6.648   0.012 -33.392  1.00  0.00    -0.035 A 
HETATM    9  C   UNL     1      -7.476  -0.780 -34.201  1.00  0.00     0.010 A 
HETATM   10  C   UNL     1      -7.043  -2.027 -34.664  1.00  0.00     0.007 A 
HETATM   11  C   UNL     1      -5.774  -2.513 -34.329  1.00  0.00    -0.059 A 
HETATM   12  C   UNL     1      -4.945  -1.730 -33.519  1.00  0.00     0.007 A 
HETATM   13  C   UNL     1      -5.377  -0.485 -33.054  1.00  0.00     0.010 A 
BRANCH  11  14
HETATM   14  C   UNL     1      -5.290  -3.833 -34.871  1.00  0.00     0.034 C 
HETATM   15  C   UNL     1      -6.433  -4.668 -35.429  1.00  0.00     0.010 C 
ENDBRANCH  11  14
ENDBRANCH   7   8
BRANCH   7  16
HETATM   16  C   UNL     1      -8.586   1.626 -32.981  1.00  0.00     0.005 C 
HETATM   17  C   UNL     1      -9.231   1.926 -31.623  1.00  0.00     0.012 C 
HETATM   18  C   UNL     1      -8.934   2.739 -33.977  1.00  0.00     0.012 C 
ENDBRANCH   7  16
ENDBRANCH   1   7
BRANCH   3  19
HETATM   19  N   UNL     1      -3.491   3.527 -32.116  1.00  0.00    -0.244 N 
HETATM   20  C   UNL     1      -3.071   4.512 -32.964  1.00  0.00     0.086 A 
HETATM   21  C   UNL     1      -1.850   4.903 -32.413  1.00  0.00     0.086 A 
HETATM   22  C   UNL     1      -3.607   5.086 -34.122  1.00  0.00     0.034 A 
HETATM   23  C   UNL     1      -1.120   5.928 -33.033  1.00  0.00     0.034 A 
HETATM   24  N   UNL     1      -1.543   4.160 -31.292  1.00  0.00    -0.240 NA
HETATM   25  C   UNL     1      -1.639   6.521 -34.192  1.00  0.00     0.002 A 
HETATM   26  C   UNL     1      -2.860   6.104 -34.726  1.00  0.00     0.002 A 
HETATM   27  C   UNL     1      -2.559   3.334 -31.142  1.00  0.00     0.234 A 
ENDBRANCH   3  19
TORSDOF 5
ENDMDL
MODEL 10
REMARK VINA RESULT:      -7.7      4.424      8.008
REMARK  5 active torsions:
REMARK  status: ('A' for Active; 'I' for Inactive)
REMARK    1  A    between atoms: C_2  and  C_3 
REMARK    2  A    between atoms: C_6  and  C_7 
REMARK    3  A    between atoms: C_7  and  N_8 
REMARK    4  A    between atoms: C_7  and  C_21 
REMARK       I    between atoms: N_8  and  C_9 
REMARK       I    between atoms: C_9  and  N_10 
REMARK    5  A    between atoms: N_10  and  N_11 
ROOT
HETATM    1  N   UNL     1      -9.075   1.204 -34.404  1.00  0.00    -0.333 N 
HETATM    2  C   UNL     1      -7.891   0.566 -34.602  1.00  0.00     0.335 C 
HETATM    3  N   UNL     1      -7.353  -0.040 -33.509  1.00  0.00    -0.244 N 
HETATM    4  O   UNL     1      -7.403   0.554 -35.727  1.00  0.00    -0.246 OA
HETATM    5  H   UNL     1      -9.412   1.661 -35.241  1.00  0.00     0.165 HD
HETATM    6  H   UNL     1      -7.438   0.429 -32.619  1.00  0.00     0.192 HD
ENDROOT
BRANCH   1   7
HETATM    7  C   UNL     1      -9.955   1.156 -33.240  1.00  0.00     0.122 C 
BRANCH   7   8
HETATM    8  C   UNL     1      -9.592   2.196 -32.190  1.00  0.00    -0.035 A 
HETATM    9  C   UNL     1      -8.545   2.013 -31.274  1.00  0.00     0.010 A 
HETATM   10  C   UNL     1      -8.207   3.019 -30.365  1.00  0.00     0.007 A 
HETATM   11  C   UNL     1      -8.905   4.232 -30.347  1.00  0.00    -0.059 A 
HETATM   12  C   UNL     1      -9.952   4.420 -31.254  1.00  0.00     0.007 A 
HETATM   13  C   UNL     1     -10.294   3.413 -32.163  1.00  0.00     0.010 A 
BRANCH  11  14
HETATM   14  C   UNL     1      -8.505   5.335 -29.402  1.00  0.00     0.034 C 
HETATM   15  C   UNL     1      -7.049   5.213 -28.976  1.00  0.00     0.010 C 
ENDBRANCH  11  14
ENDBRANCH   7   8
BRANCH   7  16
HETATM   16  C   UNL     1     -11.456   1.217 -33.641  1.00  0.00     0.005 C 
HETATM   17  C   UNL     1     -11.705   1.741 -35.059  1.00  0.00     0.012 C 
HETATM   18  C   UNL     1     -12.122  -0.154 -33.470  1.00  0.00     0.012 C 
ENDBRANCH   7  16
ENDBRANCH   1   7
BRANCH   3  19
HETATM   19  N   UNL     1      -6.202  -0.736 -33.657  1.00  0.00    -0.244 N 
HETATM   20  C   UNL     1      -6.156  -2.030 -34.091  1.00  0.00     0.086 A 
HETATM   21  C   UNL     1      -4.813  -2.370 -33.923  1.00  0.00     0.086 A 
HETATM   22  C   UNL     1      -7.114  -2.917 -34.595  1.00  0.00     0.034 A 
HETATM   23  C   UNL     1      -4.387  -3.657 -34.284  1.00  0.00     0.034 A 
HETATM   24  N   UNL     1      -4.093  -1.324 -33.385  1.00  0.00    -0.240 NA
HETATM   25  C   UNL     1      -5.327  -4.562 -34.795  1.00  0.00     0.002 A 
HETATM   26  C   UNL     1      -6.667  -4.196 -34.944  1.00  0.00     0.002 A 
HETATM   27  C   UNL     1      -4.967  -0.350 -33.235  1.00  0.00     0.234 A 
ENDBRANCH   3  19
TORSDOF 5
ENDMDL
