MODEL 1
REMARK VINA RESULT:      -8.8      0.000      0.000
REMARK  7 active torsions:
REMARK  status: ('A' for Active; 'I' for Inactive)
REMARK    1  A    between atoms: C_2  and  N_3 
REMARK    2  A    between atoms: C_5  and  C_6 
REMARK    3  A    between atoms: C_6  and  N_7 
REMARK       I    between atoms: N_7  and  C_8 
REMARK    4  A    between atoms: C_8  and  C_9 
REMARK    5  A    between atoms: N_15  and  C_16 
REMARK    6  A    between atoms: C_16  and  C_17 
REMARK       I    between atoms: C_17  and  N_18 
REMARK    7  A    between atoms: N_18  and  C_19 
ROOT
HETATM    1  C   UNL     1      -3.365   6.229 -31.631  1.00  0.00     0.081 C 
HETATM    2  S   UNL     1      -3.363   6.051 -33.337  1.00  0.00    -0.063 SA
HETATM    3  C   UNL     1      -4.770   5.106 -33.320  1.00  0.00     0.116 C 
HETATM    4  C   UNL     1      -5.264   4.938 -32.045  1.00  0.00     0.075 C 
HETATM    5  C   UNL     1      -6.401   4.035 -31.898  1.00  0.00     0.262 C 
HETATM    6  O   UNL     1      -6.958   3.816 -30.823  1.00  0.00    -0.267 OA
HETATM    7  N   UNL     1      -6.778   3.396 -33.074  1.00  0.00    -0.299 N 
HETATM    8  C   UNL     1      -6.231   3.735 -34.295  1.00  0.00     0.214 C 
HETATM    9  N   UNL     1      -5.258   4.570 -34.466  1.00  0.00    -0.235 NA
HETATM   10  C   UNL     1      -4.503   5.668 -31.048  1.00  0.00    -0.021 C 
HETATM   11  C   UNL     1      -4.844   5.708 -29.590  1.00  0.00     0.051 C 
ENDROOT
BRANCH   1  12
HETATM   12  C   UNL     1      -2.183   6.846 -31.046  1.00  0.00     0.259 C 
HETATM   13  N   UNL     1      -1.327   6.031 -30.336  1.00  0.00    -0.354 N 
HETATM   14  H   UNL     1      -1.719   5.167 -29.976  1.00  0.00     0.162 HD
HETATM   15  O   UNL     1      -1.859   8.024 -31.220  1.00  0.00    -0.267 OA
BRANCH  13  16
HETATM   16  C   UNL     1      -0.115   6.541 -29.703  1.00  0.00     0.156 C 
BRANCH  16  17
HETATM   17  C   UNL     1      -0.269   7.049 -28.239  1.00  0.00     0.206 C 
HETATM   18  N   UNL     1      -0.786   8.488 -28.176  1.00  0.00    -0.066 N 
HETATM   19  H   UNL     1      -0.713   8.877 -29.141  1.00  0.00     0.280 HD
HETATM   20  C   UNL     1       0.176   9.287 -27.332  1.00  0.00     0.235 C 
HETATM   21  C   UNL     1       1.479   8.530 -27.455  1.00  0.00     0.030 C 
HETATM   22  C   UNL     1       1.041   7.079 -27.449  1.00  0.00     0.036 C 
BRANCH  18  23
HETATM   23  C   UNL     1      -2.231   8.621 -27.794  1.00  0.00     0.231 C 
HETATM   24  C   UNL     1      -2.696   7.395 -27.029  1.00  0.00     0.034 C 
ENDBRANCH  18  23
ENDBRANCH  16  17
ENDBRANCH  13  16
ENDBRANCH   1  12
BRANCH   7  25
HETATM   25  C   UNL     1      -7.720   2.297 -32.986  1.00  0.00     0.236 C 
BRANCH  25  26
HETATM   26  C   UNL     1      -7.015   1.002 -32.604  1.00  0.00     0.240 C 
HETATM   27  N   UNL     1      -6.290   0.459 -33.648  1.00  0.00    -0.326 N 
HETATM   28  H   UNL     1      -6.045   1.090 -34.411  1.00  0.00     0.169 HD
HETATM   29  O   UNL     1      -7.082   0.570 -31.458  1.00  0.00    -0.271 OA
BRANCH  27  30
HETATM   30  C   UNL     1      -5.798  -0.858 -33.739  1.00  0.00     0.036 A 
HETATM   31  C   UNL     1      -6.458  -1.881 -34.422  1.00  0.00     0.053 A 
HETATM   32  C   UNL     1      -5.867  -3.144 -34.549  1.00  0.00     0.042 A 
HETATM   33 CL   UNL     1      -6.728  -4.352 -35.438  1.00  0.00    -0.084 Cl
HETATM   34  C   UNL     1      -4.609  -3.411 -33.989  1.00  0.00    -0.040 A 
HETATM   35  C   UNL     1      -3.942  -4.749 -34.133  1.00  0.00     0.050 C 
HETATM   36  C   UNL     1      -3.960  -2.384 -33.291  1.00  0.00     0.011 A 
HETATM   37  C   UNL     1      -4.548  -1.120 -33.171  1.00  0.00     0.030 A 
ENDBRANCH  27  30
ENDBRANCH  25  26
ENDBRANCH   7  25
TORSDOF 7
ENDMDL
MODEL 2
REMARK VINA RESULT:      -8.8      4.657      8.614
REMARK  7 active torsions:
REMARK  status: ('A' for Active; 'I' for Inactive)
REMARK    1  A    between atoms: C_2  and  N_3 
REMARK    2  A    between atoms: C_5  and  C_6 
REMARK    3  A    between atoms: C_6  and  N_7 
REMARK       I    between atoms: N_7  and  C_8 
REMARK    4  A    between atoms: C_8  and  C_9 
REMARK    5  A    between atoms: N_15  and  C_16 
REMARK    6  A    between atoms: C_16  and  C_17 
REMARK       I    between atoms: C_17  and  N_18 
REMARK    7  A    between atoms: N_18  and  C_19 
ROOT
HETATM    1  C   UNL     1      -9.187   4.285 -32.114  1.00  0.00     0.081 C 
HETATM    2  S   UNL     1      -9.230   3.382 -30.656  1.00  0.00    -0.063 SA
HETATM    3  C   UNL     1      -7.562   3.085 -30.697  1.00  0.00     0.116 C 
HETATM    4  C   UNL     1      -6.958   3.679 -31.784  1.00  0.00     0.075 C 
HETATM    5  C   UNL     1      -5.544   3.383 -31.990  1.00  0.00     0.262 C 
HETATM    6  O   UNL     1      -4.876   3.866 -32.903  1.00  0.00    -0.267 OA
HETATM    7  N   UNL     1      -5.017   2.461 -31.092  1.00  0.00    -0.299 N 
HETATM    8  C   UNL     1      -5.735   2.015 -30.001  1.00  0.00     0.214 C 
HETATM    9  N   UNL     1      -6.974   2.301 -29.761  1.00  0.00    -0.235 NA
HETATM   10  C   UNL     1      -7.883   4.466 -32.579  1.00  0.00    -0.021 C 
HETATM   11  C   UNL     1      -7.492   5.261 -33.787  1.00  0.00     0.051 C 
ENDROOT
BRANCH   1  12
HETATM   12  C   UNL     1     -10.476   4.653 -32.682  1.00  0.00     0.259 C 
HETATM   13  N   UNL     1     -11.562   3.870 -32.352  1.00  0.00    -0.354 N 
HETATM   14  H   UNL     1     -11.361   2.926 -32.036  1.00  0.00     0.162 HD
HETATM   15  O   UNL     1     -10.670   5.664 -33.362  1.00  0.00    -0.267 OA
BRANCH  13  16
HETATM   16  C   UNL     1     -12.901   4.141 -32.866  1.00  0.00     0.156 C 
BRANCH  16  17
HETATM   17  C   UNL     1     -13.433   3.153 -33.945  1.00  0.00     0.206 C 
HETATM   18  N   UNL     1     -13.661   1.748 -33.384  1.00  0.00    -0.066 N 
HETATM   19  H   UNL     1     -13.202   1.720 -32.448  1.00  0.00     0.280 HD
HETATM   20  C   UNL     1     -12.901   0.776 -34.252  1.00  0.00     0.235 C 
HETATM   21  C   UNL     1     -11.798   1.615 -34.854  1.00  0.00     0.030 C 
HETATM   22  C   UNL     1     -12.477   2.944 -35.122  1.00  0.00     0.036 C 
BRANCH  18  23
HETATM   23  C   UNL     1     -15.100   1.396 -33.140  1.00  0.00     0.231 C 
HETATM   24  C   UNL     1     -15.657   2.201 -31.981  1.00  0.00     0.034 C 
ENDBRANCH  18  23
ENDBRANCH  16  17
ENDBRANCH  13  16
ENDBRANCH   1  12
BRANCH   7  25
HETATM   25  C   UNL     1      -3.705   1.910 -31.365  1.00  0.00     0.236 C 
BRANCH  25  26
HETATM   26  C   UNL     1      -3.800   0.445 -31.771  1.00  0.00     0.240 C 
HETATM   27  N   UNL     1      -4.242   0.277 -33.071  1.00  0.00    -0.326 N 
HETATM   28  H   UNL     1      -4.155   1.083 -33.690  1.00  0.00     0.169 HD
HETATM   29  O   UNL     1      -3.454  -0.441 -30.997  1.00  0.00    -0.271 OA
BRANCH  27  30
HETATM   30  C   UNL     1      -4.741  -0.908 -33.646  1.00  0.00     0.036 A 
HETATM   31  C   UNL     1      -4.054  -2.123 -33.626  1.00  0.00     0.053 A 
HETATM   32  C   UNL     1      -4.650  -3.282 -34.137  1.00  0.00     0.042 A 
HETATM   33 CL   UNL     1      -3.753  -4.757 -34.047  1.00  0.00    -0.084 Cl
HETATM   34  C   UNL     1      -5.941  -3.247 -34.684  1.00  0.00    -0.040 A 
HETATM   35  C   UNL     1      -6.614  -4.481 -35.216  1.00  0.00     0.050 C 
HETATM   36  C   UNL     1      -6.618  -2.021 -34.716  1.00  0.00     0.011 A 
HETATM   37  C   UNL     1      -6.025  -0.865 -34.198  1.00  0.00     0.030 A 
ENDBRANCH  27  30
ENDBRANCH  25  26
ENDBRANCH   7  25
TORSDOF 7
ENDMDL
MODEL 3
REMARK VINA RESULT:      -8.7      1.427      2.214
REMARK  7 active torsions:
REMARK  status: ('A' for Active; 'I' for Inactive)
REMARK    1  A    between atoms: C_2  and  N_3 
REMARK    2  A    between atoms: C_5  and  C_6 
REMARK    3  A    between atoms: C_6  and  N_7 
REMARK       I    between atoms: N_7  and  C_8 
REMARK    4  A    between atoms: C_8  and  C_9 
REMARK    5  A    between atoms: N_15  and  C_16 
REMARK    6  A    between atoms: C_16  and  C_17 
REMARK       I    between atoms: C_17  and  N_18 
REMARK    7  A    between atoms: N_18  and  C_19 
ROOT
HETATM    1  C   UNL     1      -5.020   6.349 -30.969  1.00  0.00     0.081 C 
HETATM    2  S   UNL     1      -4.941   6.311 -32.682  1.00  0.00    -0.063 SA
HETATM    3  C   UNL     1      -6.137   5.115 -32.791  1.00  0.00     0.116 C 
HETATM    4  C   UNL     1      -6.621   4.754 -31.552  1.00  0.00     0.075 C 
HETATM    5  C   UNL     1      -7.563   3.640 -31.517  1.00  0.00     0.262 C 
HETATM    6  O   UNL     1      -8.093   3.233 -30.484  1.00  0.00    -0.267 OA
HETATM    7  N   UNL     1      -7.778   3.036 -32.750  1.00  0.00    -0.299 N 
HETATM    8  C   UNL     1      -7.278   3.570 -33.921  1.00  0.00     0.214 C 
HETATM    9  N   UNL     1      -6.483   4.587 -33.991  1.00  0.00    -0.235 NA
HETATM   10  C   UNL     1      -6.042   5.535 -30.475  1.00  0.00    -0.021 C 
HETATM   11  C   UNL     1      -6.420   5.393 -29.032  1.00  0.00     0.051 C 
ENDROOT
BRANCH   1  12
HETATM   12  C   UNL     1      -3.997   7.133 -30.294  1.00  0.00     0.259 C 
HETATM   13  N   UNL     1      -3.057   6.448 -29.554  1.00  0.00    -0.354 N 
HETATM   14  H   UNL     1      -3.316   5.517 -29.243  1.00  0.00     0.162 HD
HETATM   15  O   UNL     1      -3.868   8.355 -30.415  1.00  0.00    -0.267 OA
BRANCH  13  16
HETATM   16  C   UNL     1      -1.988   7.130 -28.831  1.00  0.00     0.156 C 
BRANCH  16  17
HETATM   17  C   UNL     1      -0.596   7.153 -29.529  1.00  0.00     0.206 C 
HETATM   18  N   UNL     1      -0.586   6.345 -30.829  1.00  0.00    -0.066 N 
HETATM   19  H   UNL     1      -1.464   5.783 -30.841  1.00  0.00     0.280 HD
HETATM   20  C   UNL     1       0.546   5.350 -30.745  1.00  0.00     0.235 C 
HETATM   21  C   UNL     1       0.744   5.154 -29.259  1.00  0.00     0.030 C 
HETATM   22  C   UNL     1       0.530   6.543 -28.691  1.00  0.00     0.036 C 
BRANCH  18  23
HETATM   23  C   UNL     1      -0.616   7.171 -32.082  1.00  0.00     0.231 C 
HETATM   24  C   UNL     1      -1.167   6.362 -33.241  1.00  0.00     0.034 C 
ENDBRANCH  18  23
ENDBRANCH  16  17
ENDBRANCH  13  16
ENDBRANCH   1  12
BRANCH   7  25
HETATM   25  C   UNL     1      -8.490   1.773 -32.781  1.00  0.00     0.236 C 
BRANCH  25  26
HETATM   26  C   UNL     1      -7.555   0.611 -32.472  1.00  0.00     0.240 C 
HETATM   27  N   UNL     1      -6.854   0.178 -33.582  1.00  0.00    -0.326 N 
HETATM   28  H   UNL     1      -6.787   0.829 -34.363  1.00  0.00     0.169 HD
HETATM   29  O   UNL     1      -7.444   0.188 -31.326  1.00  0.00    -0.271 OA
BRANCH  27  30
HETATM   30  C   UNL     1      -6.170  -1.046 -33.723  1.00  0.00     0.036 A 
HETATM   31  C   UNL     1      -6.683  -2.139 -34.424  1.00  0.00     0.053 A 
HETATM   32  C   UNL     1      -5.910  -3.293 -34.601  1.00  0.00     0.042 A 
HETATM   33 CL   UNL     1      -6.597  -4.593 -35.510  1.00  0.00    -0.084 Cl
HETATM   34  C   UNL     1      -4.613  -3.379 -34.074  1.00  0.00    -0.040 A 
HETATM   35  C   UNL     1      -3.753  -4.595 -34.272  1.00  0.00     0.050 C 
HETATM   36  C   UNL     1      -4.111  -2.284 -33.358  1.00  0.00     0.011 A 
HETATM   37  C   UNL     1      -4.881  -1.129 -33.188  1.00  0.00     0.030 A 
ENDBRANCH  27  30
ENDBRANCH  25  26
ENDBRANCH   7  25
TORSDOF 7
ENDMDL
MODEL 4
REMARK VINA RESULT:      -8.7      4.743      8.962
REMARK  7 active torsions:
REMARK  status: ('A' for Active; 'I' for Inactive)
REMARK    1  A    between atoms: C_2  and  N_3 
REMARK    2  A    between atoms: C_5  and  C_6 
REMARK    3  A    between atoms: C_6  and  N_7 
REMARK       I    between atoms: N_7  and  C_8 
REMARK    4  A    between atoms: C_8  and  C_9 
REMARK    5  A    between atoms: N_15  and  C_16 
REMARK    6  A    between atoms: C_16  and  C_17 
REMARK       I    between atoms: C_17  and  N_18 
REMARK    7  A    between atoms: N_18  and  C_19 
ROOT
HETATM    1  C   UNL     1      -9.755   3.855 -32.165  1.00  0.00     0.081 C 
HETATM    2  S   UNL     1      -9.552   3.595 -30.481  1.00  0.00    -0.063 SA
HETATM    3  C   UNL     1      -7.883   3.348 -30.639  1.00  0.00     0.116 C 
HETATM    4  C   UNL     1      -7.461   3.483 -31.944  1.00  0.00     0.075 C 
HETATM    5  C   UNL     1      -6.064   3.166 -32.216  1.00  0.00     0.262 C 
HETATM    6  O   UNL     1      -5.549   3.269 -33.328  1.00  0.00    -0.267 OA
HETATM    7  N   UNL     1      -5.363   2.683 -31.116  1.00  0.00    -0.299 N 
HETATM    8  C   UNL     1      -5.909   2.684 -29.848  1.00  0.00     0.214 C 
HETATM    9  N   UNL     1      -7.128   3.009 -29.565  1.00  0.00    -0.235 NA
HETATM   10  C   UNL     1      -8.533   3.872 -32.842  1.00  0.00    -0.021 C 
HETATM   11  C   UNL     1      -8.353   4.138 -34.305  1.00  0.00     0.051 C 
ENDROOT
BRANCH   1  12
HETATM   12  C   UNL     1     -11.127   3.938 -32.644  1.00  0.00     0.259 C 
HETATM   13  N   UNL     1     -11.952   2.861 -32.396  1.00  0.00    -0.354 N 
HETATM   14  H   UNL     1     -11.495   1.972 -32.219  1.00  0.00     0.162 HD
HETATM   15  O   UNL     1     -11.616   4.940 -33.173  1.00  0.00    -0.267 OA
BRANCH  13  16
HETATM   16  C   UNL     1     -13.344   2.832 -32.833  1.00  0.00     0.156 C 
BRANCH  16  17
HETATM   17  C   UNL     1     -14.409   3.164 -31.747  1.00  0.00     0.206 C 
HETATM   18  N   UNL     1     -15.727   3.649 -32.356  1.00  0.00    -0.066 N 
HETATM   19  H   UNL     1     -15.537   3.852 -33.361  1.00  0.00     0.280 HD
HETATM   20  C   UNL     1     -16.067   4.975 -31.720  1.00  0.00     0.235 C 
HETATM   21  C   UNL     1     -14.728   5.518 -31.278  1.00  0.00     0.030 C 
HETATM   22  C   UNL     1     -13.994   4.284 -30.791  1.00  0.00     0.036 C 
BRANCH  18  23
HETATM   23  C   UNL     1     -16.833   2.635 -32.349  1.00  0.00     0.231 C 
HETATM   24  C   UNL     1     -18.066   3.195 -31.663  1.00  0.00     0.034 C 
ENDBRANCH  18  23
ENDBRANCH  16  17
ENDBRANCH  13  16
ENDBRANCH   1  12
BRANCH   7  25
HETATM   25  C   UNL     1      -4.054   2.102 -31.337  1.00  0.00     0.236 C 
BRANCH  25  26
HETATM   26  C   UNL     1      -4.161   0.617 -31.656  1.00  0.00     0.240 C 
HETATM   27  N   UNL     1      -4.331   0.371 -33.006  1.00  0.00    -0.326 N 
HETATM   28  H   UNL     1      -4.063   1.119 -33.645  1.00  0.00     0.169 HD
HETATM   29  O   UNL     1      -4.046  -0.222 -30.769  1.00  0.00    -0.271 OA
BRANCH  27  30
HETATM   30  C   UNL     1      -4.778  -0.829 -33.595  1.00  0.00     0.036 A 
HETATM   31  C   UNL     1      -4.039  -2.012 -33.589  1.00  0.00     0.053 A 
HETATM   32  C   UNL     1      -4.584  -3.191 -34.114  1.00  0.00     0.042 A 
HETATM   33 CL   UNL     1      -3.623  -4.626 -34.041  1.00  0.00    -0.084 Cl
HETATM   34  C   UNL     1      -5.875  -3.206 -34.661  1.00  0.00    -0.040 A 
HETATM   35  C   UNL     1      -6.493  -4.463 -35.206  1.00  0.00     0.050 C 
HETATM   36  C   UNL     1      -6.605  -2.010 -34.678  1.00  0.00     0.011 A 
HETATM   37  C   UNL     1      -6.063  -0.836 -34.147  1.00  0.00     0.030 A 
ENDBRANCH  27  30
ENDBRANCH  25  26
ENDBRANCH   7  25
TORSDOF 7
ENDMDL
MODEL 5
REMARK VINA RESULT:      -8.6      1.855      2.605
REMARK  7 active torsions:
REMARK  status: ('A' for Active; 'I' for Inactive)
REMARK    1  A    between atoms: C_2  and  N_3 
REMARK    2  A    between atoms: C_5  and  C_6 
REMARK    3  A    between atoms: C_6  and  N_7 
REMARK       I    between atoms: N_7  and  C_8 
REMARK    4  A    between atoms: C_8  and  C_9 
REMARK    5  A    between atoms: N_15  and  C_16 
REMARK    6  A    between atoms: C_16  and  C_17 
REMARK       I    between atoms: C_17  and  N_18 
REMARK    7  A    between atoms: N_18  and  C_19 
ROOT
HETATM    1  C   UNL     1      -4.836   5.582 -30.672  1.00  0.00     0.081 C 
HETATM    2  S   UNL     1      -5.913   4.781 -29.603  1.00  0.00    -0.063 SA
HETATM    3  C   UNL     1      -6.500   3.766 -30.826  1.00  0.00     0.116 C 
HETATM    4  C   UNL     1      -5.880   4.000 -32.034  1.00  0.00     0.075 C 
HETATM    5  C   UNL     1      -6.396   3.271 -33.188  1.00  0.00     0.262 C 
HETATM    6  O   UNL     1      -5.920   3.363 -34.317  1.00  0.00    -0.267 OA
HETATM    7  N   UNL     1      -7.516   2.493 -32.915  1.00  0.00    -0.299 N 
HETATM    8  C   UNL     1      -7.972   2.298 -31.627  1.00  0.00     0.214 C 
HETATM    9  N   UNL     1      -7.502   2.888 -30.577  1.00  0.00    -0.235 NA
HETATM   10  C   UNL     1      -4.833   5.001 -31.942  1.00  0.00    -0.021 C 
HETATM   11  C   UNL     1      -3.961   5.418 -33.087  1.00  0.00     0.051 C 
ENDROOT
BRANCH   1  12
HETATM   12  C   UNL     1      -4.163   6.761 -30.146  1.00  0.00     0.259 C 
HETATM   13  N   UNL     1      -3.046   6.557 -29.364  1.00  0.00    -0.354 N 
HETATM   14  H   UNL     1      -2.960   5.646 -28.925  1.00  0.00     0.162 HD
HETATM   15  O   UNL     1      -4.476   7.921 -30.428  1.00  0.00    -0.267 OA
BRANCH  13  16
HETATM   16  C   UNL     1      -2.294   7.663 -28.780  1.00  0.00     0.156 C 
BRANCH  16  17
HETATM   17  C   UNL     1      -0.744   7.567 -28.883  1.00  0.00     0.206 C 
HETATM   18  N   UNL     1      -0.253   6.118 -28.912  1.00  0.00    -0.066 N 
HETATM   19  H   UNL     1      -1.062   5.521 -28.637  1.00  0.00     0.280 HD
HETATM   20  C   UNL     1       0.774   5.957 -27.817  1.00  0.00     0.235 C 
HETATM   21  C   UNL     1       0.413   7.037 -26.823  1.00  0.00     0.030 C 
HETATM   22  C   UNL     1      -0.001   8.199 -27.704  1.00  0.00     0.036 C 
BRANCH  18  23
HETATM   23  C   UNL     1       0.174   5.626 -30.263  1.00  0.00     0.231 C 
HETATM   24  C   UNL     1       0.371   6.789 -31.218  1.00  0.00     0.034 C 
ENDBRANCH  18  23
ENDBRANCH  16  17
ENDBRANCH  13  16
ENDBRANCH   1  12
BRANCH   7  25
HETATM   25  C   UNL     1      -8.254   1.937 -34.032  1.00  0.00     0.236 C 
BRANCH  25  26
HETATM   26  C   UNL     1      -7.534   0.728 -34.615  1.00  0.00     0.240 C 
HETATM   27  N   UNL     1      -7.379  -0.297 -33.699  1.00  0.00    -0.326 N 
HETATM   28  H   UNL     1      -7.996  -0.281 -32.888  1.00  0.00     0.169 HD
HETATM   29  O   UNL     1      -7.201   0.708 -35.796  1.00  0.00    -0.271 OA
BRANCH  27  30
HETATM   30  C   UNL     1      -6.501  -1.394 -33.801  1.00  0.00     0.036 A 
HETATM   31  C   UNL     1      -6.794  -2.552 -34.521  1.00  0.00     0.053 A 
HETATM   32  C   UNL     1      -5.838  -3.565 -34.655  1.00  0.00     0.042 A 
HETATM   33 CL   UNL     1      -6.260  -4.956 -35.591  1.00  0.00    -0.084 Cl
HETATM   34  C   UNL     1      -4.572  -3.443 -34.063  1.00  0.00    -0.040 A 
HETATM   35  C   UNL     1      -3.518  -4.504 -34.212  1.00  0.00     0.050 C 
HETATM   36  C   UNL     1      -4.290  -2.285 -33.327  1.00  0.00     0.011 A 
HETATM   37  C   UNL     1      -5.244  -1.269 -33.201  1.00  0.00     0.030 A 
ENDBRANCH  27  30
ENDBRANCH  25  26
ENDBRANCH   7  25
TORSDOF 7
ENDMDL
MODEL 6
REMARK VINA RESULT:      -8.6      2.642      3.724
REMARK  7 active torsions:
REMARK  status: ('A' for Active; 'I' for Inactive)
REMARK    1  A    between atoms: C_2  and  N_3 
REMARK    2  A    between atoms: C_5  and  C_6 
REMARK    3  A    between atoms: C_6  and  N_7 
REMARK       I    between atoms: N_7  and  C_8 
REMARK    4  A    between atoms: C_8  and  C_9 
REMARK    5  A    between atoms: N_15  and  C_16 
REMARK    6  A    between atoms: C_16  and  C_17 
REMARK       I    between atoms: C_17  and  N_18 
REMARK    7  A    between atoms: N_18  and  C_19 
ROOT
HETATM    1  C   UNL     1      -6.155   5.288 -31.371  1.00  0.00     0.081 C 
HETATM    2  S   UNL     1      -7.096   6.066 -32.576  1.00  0.00    -0.063 SA
HETATM    3  C   UNL     1      -7.907   4.635 -32.982  1.00  0.00     0.116 C 
HETATM    4  C   UNL     1      -7.500   3.572 -32.205  1.00  0.00     0.075 C 
HETATM    5  C   UNL     1      -8.039   2.262 -32.553  1.00  0.00     0.262 C 
HETATM    6  O   UNL     1      -7.782   1.235 -31.928  1.00  0.00    -0.267 OA
HETATM    7  N   UNL     1      -8.837   2.258 -33.693  1.00  0.00    -0.299 N 
HETATM    8  C   UNL     1      -9.219   3.428 -34.318  1.00  0.00     0.214 C 
HETATM    9  N   UNL     1      -8.800   4.609 -34.001  1.00  0.00    -0.235 NA
HETATM   10  C   UNL     1      -6.537   3.957 -31.190  1.00  0.00    -0.021 C 
HETATM   11  C   UNL     1      -5.961   3.018 -30.174  1.00  0.00     0.051 C 
ENDROOT
BRANCH   1  12
HETATM   12  C   UNL     1      -5.078   6.073 -30.787  1.00  0.00     0.259 C 
HETATM   13  N   UNL     1      -4.362   6.896 -31.631  1.00  0.00    -0.354 N 
HETATM   14  H   UNL     1      -4.385   6.662 -32.618  1.00  0.00     0.162 HD
HETATM   15  O   UNL     1      -4.827   6.114 -29.579  1.00  0.00    -0.267 OA
BRANCH  13  16
HETATM   16  C   UNL     1      -3.259   7.725 -31.157  1.00  0.00     0.156 C 
BRANCH  16  17
HETATM   17  C   UNL     1      -1.864   7.434 -31.786  1.00  0.00     0.206 C 
HETATM   18  N   UNL     1      -1.879   6.192 -32.680  1.00  0.00    -0.066 N 
HETATM   19  H   UNL     1      -2.778   5.697 -32.492  1.00  0.00     0.280 HD
HETATM   20  C   UNL     1      -0.786   5.268 -32.203  1.00  0.00     0.235 C 
HETATM   21  C   UNL     1      -0.602   5.645 -30.751  1.00  0.00     0.030 C 
HETATM   22  C   UNL     1      -0.766   7.152 -30.759  1.00  0.00     0.036 C 
BRANCH  18  23
HETATM   23  C   UNL     1      -1.874   6.479 -34.153  1.00  0.00     0.231 C 
HETATM   24  C   UNL     1      -1.164   5.372 -34.910  1.00  0.00     0.034 C 
ENDBRANCH  18  23
ENDBRANCH  16  17
ENDBRANCH  13  16
ENDBRANCH   1  12
BRANCH   7  25
HETATM   25  C   UNL     1      -9.208   0.979 -34.266  1.00  0.00     0.236 C 
BRANCH  25  26
HETATM   26  C   UNL     1      -7.980   0.220 -34.750  1.00  0.00     0.240 C 
HETATM   27  N   UNL     1      -7.838  -1.013 -34.140  1.00  0.00    -0.326 N 
HETATM   28  H   UNL     1      -8.672  -1.407 -33.706  1.00  0.00     0.169 HD
HETATM   29  O   UNL     1      -7.264   0.686 -35.630  1.00  0.00    -0.271 OA
BRANCH  27  30
HETATM   30  C   UNL     1      -6.677  -1.811 -34.111  1.00  0.00     0.036 A 
HETATM   31  C   UNL     1      -5.550  -1.505 -33.348  1.00  0.00     0.053 A 
HETATM   32  C   UNL     1      -4.467  -2.390 -33.296  1.00  0.00     0.042 A 
HETATM   33 CL   UNL     1      -3.120  -1.960 -32.302  1.00  0.00    -0.084 Cl
HETATM   34  C   UNL     1      -4.488  -3.596 -34.012  1.00  0.00    -0.040 A 
HETATM   35  C   UNL     1      -3.350  -4.576 -33.953  1.00  0.00     0.050 C 
HETATM   36  C   UNL     1      -5.616  -3.890 -34.789  1.00  0.00     0.011 A 
HETATM   37  C   UNL     1      -6.700  -3.008 -34.834  1.00  0.00     0.030 A 
ENDBRANCH  27  30
ENDBRANCH  25  26
ENDBRANCH   7  25
TORSDOF 7
ENDMDL
MODEL 7
REMARK VINA RESULT:      -8.5      4.537     10.392
REMARK  7 active torsions:
REMARK  status: ('A' for Active; 'I' for Inactive)
REMARK    1  A    between atoms: C_2  and  N_3 
REMARK    2  A    between atoms: C_5  and  C_6 
REMARK    3  A    between atoms: C_6  and  N_7 
REMARK       I    between atoms: N_7  and  C_8 
REMARK    4  A    between atoms: C_8  and  C_9 
REMARK    5  A    between atoms: N_15  and  C_16 
REMARK    6  A    between atoms: C_16  and  C_17 
REMARK       I    between atoms: C_17  and  N_18 
REMARK    7  A    between atoms: N_18  and  C_19 
ROOT
HETATM    1  C   UNL     1      -6.642   3.632 -32.418  1.00  0.00     0.081 C 
HETATM    2  S   UNL     1      -6.712   4.421 -33.940  1.00  0.00    -0.063 SA
HETATM    3  C   UNL     1      -5.027   4.567 -34.032  1.00  0.00     0.116 C 
HETATM    4  C   UNL     1      -4.399   4.006 -32.941  1.00  0.00     0.075 C 
HETATM    5  C   UNL     1      -2.954   4.188 -32.853  1.00  0.00     0.262 C 
HETATM    6  O   UNL     1      -2.265   3.717 -31.949  1.00  0.00    -0.267 OA
HETATM    7  N   UNL     1      -2.417   4.987 -33.856  1.00  0.00    -0.299 N 
HETATM    8  C   UNL     1      -3.171   5.411 -34.932  1.00  0.00     0.214 C 
HETATM    9  N   UNL     1      -4.443   5.221 -35.066  1.00  0.00    -0.235 NA
HETATM   10  C   UNL     1      -5.328   3.369 -32.026  1.00  0.00    -0.021 C 
HETATM   11  C   UNL     1      -4.920   2.637 -30.784  1.00  0.00     0.051 C 
ENDROOT
BRANCH   1  12
HETATM   12  C   UNL     1      -7.913   3.426 -31.740  1.00  0.00     0.259 C 
HETATM   13  N   UNL     1      -9.021   3.187 -32.525  1.00  0.00    -0.354 N 
HETATM   14  H   UNL     1      -8.968   3.500 -33.489  1.00  0.00     0.162 HD
HETATM   15  O   UNL     1      -8.042   3.366 -30.514  1.00  0.00    -0.267 OA
BRANCH  13  16
HETATM   16  C   UNL     1     -10.347   2.972 -31.954  1.00  0.00     0.156 C 
BRANCH  16  17
HETATM   17  C   UNL     1     -11.549   3.158 -32.927  1.00  0.00     0.206 C 
HETATM   18  N   UNL     1     -12.823   2.488 -32.408  1.00  0.00    -0.066 N 
HETATM   19  H   UNL     1     -12.538   1.871 -31.616  1.00  0.00     0.280 HD
HETATM   20  C   UNL     1     -13.333   1.567 -33.490  1.00  0.00     0.235 C 
HETATM   21  C   UNL     1     -12.097   1.236 -34.294  1.00  0.00     0.030 C 
HETATM   22  C   UNL     1     -11.330   2.543 -34.311  1.00  0.00     0.036 C 
BRANCH  18  23
HETATM   23  C   UNL     1     -13.843   3.431 -31.841  1.00  0.00     0.231 C 
HETATM   24  C   UNL     1     -15.242   2.870 -32.010  1.00  0.00     0.034 C 
ENDBRANCH  18  23
ENDBRANCH  16  17
ENDBRANCH  13  16
ENDBRANCH   1  12
BRANCH   7  25
HETATM   25  C   UNL     1      -1.046   5.436 -33.716  1.00  0.00     0.236 C 
BRANCH  25  26
HETATM   26  C   UNL     1      -0.945   6.579 -32.715  1.00  0.00     0.240 C 
HETATM   27  N   UNL     1      -0.496   6.167 -31.474  1.00  0.00    -0.326 N 
HETATM   28  H   UNL     1      -0.004   5.275 -31.439  1.00  0.00     0.169 HD
HETATM   29  O   UNL     1      -1.198   7.730 -33.055  1.00  0.00    -0.271 OA
BRANCH  27  30
HETATM   30  C   UNL     1      -0.593   6.880 -30.262  1.00  0.00     0.036 A 
HETATM   31  C   UNL     1       0.512   7.375 -29.568  1.00  0.00     0.053 A 
HETATM   32  C   UNL     1       0.336   8.152 -28.418  1.00  0.00     0.042 A 
HETATM   33 CL   UNL     1       1.750   8.760 -27.631  1.00  0.00    -0.084 Cl
HETATM   34  C   UNL     1      -0.948   8.443 -27.934  1.00  0.00    -0.040 A 
HETATM   35  C   UNL     1      -1.165   9.297 -26.716  1.00  0.00     0.050 C 
HETATM   36  C   UNL     1      -2.052   7.929 -28.626  1.00  0.00     0.011 A 
HETATM   37  C   UNL     1      -1.876   7.159 -29.780  1.00  0.00     0.030 A 
ENDBRANCH  27  30
ENDBRANCH  25  26
ENDBRANCH   7  25
TORSDOF 7
ENDMDL
MODEL 8
REMARK VINA RESULT:      -8.4      1.708      2.426
REMARK  7 active torsions:
REMARK  status: ('A' for Active; 'I' for Inactive)
REMARK    1  A    between atoms: C_2  and  N_3 
REMARK    2  A    between atoms: C_5  and  C_6 
REMARK    3  A    between atoms: C_6  and  N_7 
REMARK       I    between atoms: N_7  and  C_8 
REMARK    4  A    between atoms: C_8  and  C_9 
REMARK    5  A    between atoms: N_15  and  C_16 
REMARK    6  A    between atoms: C_16  and  C_17 
REMARK       I    between atoms: C_17  and  N_18 
REMARK    7  A    between atoms: N_18  and  C_19 
ROOT
HETATM    1  C   UNL     1      -3.306   6.762 -29.608  1.00  0.00     0.081 C 
HETATM    2  S   UNL     1      -2.254   5.927 -30.677  1.00  0.00    -0.063 SA
HETATM    3  C   UNL     1      -3.542   5.191 -31.496  1.00  0.00     0.116 C 
HETATM    4  C   UNL     1      -4.765   5.582 -30.996  1.00  0.00     0.075 C 
HETATM    5  C   UNL     1      -5.940   4.912 -31.542  1.00  0.00     0.262 C 
HETATM    6  O   UNL     1      -7.092   5.183 -31.207  1.00  0.00    -0.267 OA
HETATM    7  N   UNL     1      -5.649   3.896 -32.446  1.00  0.00    -0.299 N 
HETATM    8  C   UNL     1      -4.367   3.679 -32.910  1.00  0.00     0.214 C 
HETATM    9  N   UNL     1      -3.311   4.292 -32.484  1.00  0.00    -0.235 NA
HETATM   10  C   UNL     1      -4.648   6.577 -29.946  1.00  0.00    -0.021 C 
HETATM   11  C   UNL     1      -5.815   7.217 -29.257  1.00  0.00     0.051 C 
ENDROOT
BRANCH   1  12
HETATM   12  C   UNL     1      -2.675   7.455 -28.494  1.00  0.00     0.259 C 
HETATM   13  N   UNL     1      -2.066   6.682 -27.529  1.00  0.00    -0.354 N 
HETATM   14  H   UNL     1      -2.375   5.717 -27.459  1.00  0.00     0.162 HD
HETATM   15  O   UNL     1      -2.576   8.682 -28.409  1.00  0.00    -0.267 OA
BRANCH  13  16
HETATM   16  C   UNL     1      -1.407   7.267 -26.366  1.00  0.00     0.156 C 
BRANCH  16  17
HETATM   17  C   UNL     1       0.147   7.345 -26.427  1.00  0.00     0.206 C 
HETATM   18  N   UNL     1       0.657   8.788 -26.411  1.00  0.00    -0.066 N 
HETATM   19  H   UNL     1      -0.170   9.401 -26.580  1.00  0.00     0.280 HD
HETATM   20  C   UNL     1       1.562   8.971 -27.605  1.00  0.00     0.235 C 
HETATM   21  C   UNL     1       1.083   7.924 -28.585  1.00  0.00     0.030 C 
HETATM   22  C   UNL     1       0.751   6.741 -27.697  1.00  0.00     0.036 C 
BRANCH  18  23
HETATM   23  C   UNL     1       1.233   9.236 -25.100  1.00  0.00     0.231 C 
HETATM   24  C   UNL     1       2.620   8.653 -24.899  1.00  0.00     0.034 C 
ENDBRANCH  18  23
ENDBRANCH  16  17
ENDBRANCH  13  16
ENDBRANCH   1  12
BRANCH   7  25
HETATM   25  C   UNL     1      -6.721   3.007 -32.848  1.00  0.00     0.236 C 
BRANCH  25  26
HETATM   26  C   UNL     1      -6.312   1.550 -32.687  1.00  0.00     0.240 C 
HETATM   27  N   UNL     1      -5.968   0.954 -33.886  1.00  0.00    -0.326 N 
HETATM   28  H   UNL     1      -5.723   1.579 -34.653  1.00  0.00     0.169 HD
HETATM   29  O   UNL     1      -6.262   1.034 -31.574  1.00  0.00    -0.271 OA
BRANCH  27  30
HETATM   30  C   UNL     1      -5.858  -0.428 -34.141  1.00  0.00     0.036 A 
HETATM   31  C   UNL     1      -4.822  -1.223 -33.649  1.00  0.00     0.053 A 
HETATM   32  C   UNL     1      -4.826  -2.606 -33.867  1.00  0.00     0.042 A 
HETATM   33 CL   UNL     1      -3.528  -3.531 -33.197  1.00  0.00    -0.084 Cl
HETATM   34  C   UNL     1      -5.861  -3.219 -34.587  1.00  0.00    -0.040 A 
HETATM   35  C   UNL     1      -5.902  -4.704 -34.813  1.00  0.00     0.050 C 
HETATM   36  C   UNL     1      -6.889  -2.412 -35.093  1.00  0.00     0.011 A 
HETATM   37  C   UNL     1      -6.889  -1.032 -34.868  1.00  0.00     0.030 A 
ENDBRANCH  27  30
ENDBRANCH  25  26
ENDBRANCH   7  25
TORSDOF 7
ENDMDL
MODEL 9
REMARK VINA RESULT:      -8.2      2.330      3.629
REMARK  7 active torsions:
REMARK  status: ('A' for Active; 'I' for Inactive)
REMARK    1  A    between atoms: C_2  and  N_3 
REMARK    2  A    between atoms: C_5  and  C_6 
REMARK    3  A    between atoms: C_6  and  N_7 
REMARK       I    between atoms: N_7  and  C_8 
REMARK    4  A    between atoms: C_8  and  C_9 
REMARK    5  A    between atoms: N_15  and  C_16 
REMARK    6  A    between atoms: C_16  and  C_17 
REMARK       I    between atoms: C_17  and  N_18 
REMARK    7  A    between atoms: N_18  and  C_19 
ROOT
HETATM    1  C   UNL     1      -0.728   6.488 -29.571  1.00  0.00     0.081 C 
HETATM    2  S   UNL     1      -0.267   5.156 -30.549  1.00  0.00    -0.063 SA
HETATM    3  C   UNL     1      -1.790   5.068 -31.287  1.00  0.00     0.116 C 
HETATM    4  C   UNL     1      -2.645   6.046 -30.828  1.00  0.00     0.075 C 
HETATM    5  C   UNL     1      -4.024   5.985 -31.300  1.00  0.00     0.262 C 
HETATM    6  O   UNL     1      -4.883   6.810 -30.992  1.00  0.00    -0.267 OA
HETATM    7  N   UNL     1      -4.306   4.880 -32.095  1.00  0.00    -0.299 N 
HETATM    8  C   UNL     1      -3.314   4.027 -32.536  1.00  0.00     0.214 C 
HETATM    9  N   UNL     1      -2.073   4.085 -32.177  1.00  0.00    -0.235 NA
HETATM   10  C   UNL     1      -2.009   6.949 -29.886  1.00  0.00    -0.021 C 
HETATM   11  C   UNL     1      -2.684   8.133 -29.265  1.00  0.00     0.051 C 
ENDROOT
BRANCH   1  12
HETATM   12  C   UNL     1       0.215   6.884 -28.536  1.00  0.00     0.259 C 
HETATM   13  N   UNL     1       0.694   8.176 -28.575  1.00  0.00    -0.354 N 
HETATM   14  H   UNL     1       0.647   8.650 -29.471  1.00  0.00     0.162 HD
HETATM   15  O   UNL     1       0.539   6.169 -27.584  1.00  0.00    -0.267 OA
BRANCH  13  16
HETATM   16  C   UNL     1       1.647   8.682 -27.591  1.00  0.00     0.156 C 
BRANCH  16  17
HETATM   17  C   UNL     1       1.150   9.857 -26.698  1.00  0.00     0.206 C 
HETATM   18  N   UNL     1       1.261   9.539 -25.206  1.00  0.00    -0.066 N 
HETATM   19  H   UNL     1       1.447   8.515 -25.130  1.00  0.00     0.280 HD
HETATM   20  C   UNL     1      -0.096   9.764 -24.584  1.00  0.00     0.235 C 
HETATM   21  C   UNL     1      -1.056   9.582 -25.737  1.00  0.00     0.030 C 
HETATM   22  C   UNL     1      -0.324  10.214 -26.904  1.00  0.00     0.036 C 
BRANCH  18  23
HETATM   23  C   UNL     1       2.403  10.212 -24.504  1.00  0.00     0.231 C 
HETATM   24  C   UNL     1       3.537   9.231 -24.267  1.00  0.00     0.034 C 
ENDBRANCH  18  23
ENDBRANCH  16  17
ENDBRANCH  13  16
ENDBRANCH   1  12
BRANCH   7  25
HETATM   25  C   UNL     1      -5.693   4.591 -32.401  1.00  0.00     0.236 C 
BRANCH  25  26
HETATM   26  C   UNL     1      -5.806   3.451 -33.404  1.00  0.00     0.240 C 
HETATM   27  N   UNL     1      -6.157   2.251 -32.813  1.00  0.00    -0.326 N 
HETATM   28  H   UNL     1      -6.592   2.305 -31.893  1.00  0.00     0.169 HD
HETATM   29  O   UNL     1      -5.643   3.655 -34.602  1.00  0.00    -0.271 OA
BRANCH  27  30
HETATM   30  C   UNL     1      -6.034   0.965 -33.377  1.00  0.00     0.036 A 
HETATM   31  C   UNL     1      -5.054   0.048 -32.997  1.00  0.00     0.053 A 
HETATM   32  C   UNL     1      -5.047  -1.245 -33.534  1.00  0.00     0.042 A 
HETATM   33 CL   UNL     1      -3.822  -2.338 -32.991  1.00  0.00    -0.084 Cl
HETATM   34  C   UNL     1      -6.016  -1.643 -34.467  1.00  0.00    -0.040 A 
HETATM   35  C   UNL     1      -6.047  -3.032 -35.039  1.00  0.00     0.050 C 
HETATM   36  C   UNL     1      -6.988  -0.711 -34.856  1.00  0.00     0.011 A 
HETATM   37  C   UNL     1      -6.998   0.578 -34.313  1.00  0.00     0.030 A 
ENDBRANCH  27  30
ENDBRANCH  25  26
ENDBRANCH   7  25
TORSDOF 7
ENDMDL
MODEL 10
REMARK VINA RESULT:      -8.1      1.878      2.338
REMARK  7 active torsions:
REMARK  status: ('A' for Active; 'I' for Inactive)
REMARK    1  A    between atoms: C_2  and  N_3 
REMARK    2  A    between atoms: C_5  and  C_6 
REMARK    3  A    between atoms: C_6  and  N_7 
REMARK       I    between atoms: N_7  and  C_8 
REMARK    4  A    between atoms: C_8  and  C_9 
REMARK    5  A    between atoms: N_15  and  C_16 
REMARK    6  A    between atoms: C_16  and  C_17 
REMARK       I    between atoms: C_17  and  N_18 
REMARK    7  A    between atoms: N_18  and  C_19 
ROOT
HETATM    1  C   UNL     1      -4.960   5.457 -31.712  1.00  0.00     0.081 C 
HETATM    2  S   UNL     1      -6.008   6.336 -32.748  1.00  0.00    -0.063 SA
HETATM    3  C   UNL     1      -6.999   4.989 -33.021  1.00  0.00     0.116 C 
HETATM    4  C   UNL     1      -6.571   3.882 -32.322  1.00  0.00     0.075 C 
HETATM    5  C   UNL     1      -7.275   2.630 -32.582  1.00  0.00     0.262 C 
HETATM    6  O   UNL     1      -7.015   1.574 -32.008  1.00  0.00    -0.267 OA
HETATM    7  N   UNL     1      -8.242   2.716 -33.577  1.00  0.00    -0.299 N 
HETATM    8  C   UNL     1      -8.613   3.926 -34.131  1.00  0.00     0.214 C 
HETATM    9  N   UNL     1      -8.043   5.060 -33.883  1.00  0.00    -0.235 NA
HETATM   10  C   UNL     1      -5.426   4.162 -31.474  1.00  0.00    -0.021 C 
HETATM   11  C   UNL     1      -4.783   3.159 -30.566  1.00  0.00     0.051 C 
ENDROOT
BRANCH   1  12
HETATM   12  C   UNL     1      -3.737   6.134 -31.307  1.00  0.00     0.259 C 
HETATM   13  N   UNL     1      -3.781   6.887 -30.153  1.00  0.00    -0.354 N 
HETATM   14  H   UNL     1      -4.698   7.204 -29.853  1.00  0.00     0.162 HD
HETATM   15  O   UNL     1      -2.651   6.004 -31.879  1.00  0.00    -0.267 OA
BRANCH  13  16
HETATM   16  C   UNL     1      -2.617   7.613 -29.654  1.00  0.00     0.156 C 
BRANCH  16  17
HETATM   17  C   UNL     1      -1.727   6.854 -28.625  1.00  0.00     0.206 C 
HETATM   18  N   UNL     1      -1.374   7.720 -27.414  1.00  0.00    -0.066 N 
HETATM   19  H   UNL     1      -1.636   8.699 -27.658  1.00  0.00     0.280 HD
HETATM   20  C   UNL     1       0.128   7.714 -27.265  1.00  0.00     0.235 C 
HETATM   21  C   UNL     1       0.627   7.419 -28.661  1.00  0.00     0.030 C 
HETATM   22  C   UNL     1      -0.374   6.408 -29.184  1.00  0.00     0.036 C 
BRANCH  18  23
HETATM   23  C   UNL     1      -2.140   7.394 -26.165  1.00  0.00     0.231 C 
HETATM   24  C   UNL     1      -2.001   8.511 -25.147  1.00  0.00     0.034 C 
ENDBRANCH  18  23
ENDBRANCH  16  17
ENDBRANCH  13  16
ENDBRANCH   1  12
BRANCH   7  25
HETATM   25  C   UNL     1      -8.814   1.486 -34.086  1.00  0.00     0.236 C 
BRANCH  25  26
HETATM   26  C   UNL     1      -7.732   0.564 -34.632  1.00  0.00     0.240 C 
HETATM   27  N   UNL     1      -7.603  -0.603 -33.902  1.00  0.00    -0.326 N 
HETATM   28  H   UNL     1      -8.395  -0.865 -33.317  1.00  0.00     0.169 HD
HETATM   29  O   UNL     1      -7.113   0.862 -35.649  1.00  0.00    -0.271 OA
BRANCH  27  30
HETATM   30  C   UNL     1      -6.517  -1.500 -33.930  1.00  0.00     0.036 A 
HETATM   31  C   UNL     1      -5.391  -1.374 -33.115  1.00  0.00     0.053 A 
HETATM   32  C   UNL     1      -4.391  -2.353 -33.131  1.00  0.00     0.042 A 
HETATM   33 CL   UNL     1      -3.042  -2.146 -32.070  1.00  0.00    -0.084 Cl
HETATM   34  C   UNL     1      -4.493  -3.474 -33.968  1.00  0.00    -0.040 A 
HETATM   35  C   UNL     1      -3.447  -4.552 -33.986  1.00  0.00     0.050 C 
HETATM   36  C   UNL     1      -5.618  -3.586 -34.795  1.00  0.00     0.011 A 
HETATM   37  C   UNL     1      -6.621  -2.611 -34.773  1.00  0.00     0.030 A 
ENDBRANCH  27  30
ENDBRANCH  25  26
ENDBRANCH   7  25
TORSDOF 7
ENDMDL
