MODEL 1
REMARK VINA RESULT:      -9.1      0.000      0.000
REMARK  3 active torsions:
REMARK  status: ('A' for Active; 'I' for Inactive)
REMARK    1  A    between atoms: O_2  and  C_3 
REMARK    2  A    between atoms: C_7  and  C_8 
REMARK       I    between atoms: C_8  and  N_9 
REMARK    3  A    between atoms: C_15  and  C_16 
ROOT
HETATM    1  C   UNL     1      -4.529   4.982 -30.761  1.00  0.00     0.254 C 
HETATM    2  N   UNL     1      -5.076   3.735 -31.077  1.00  0.00    -0.342 N 
HETATM    3  C   UNL     1      -4.842   3.086 -32.395  1.00  0.00     0.187 C 
HETATM    4  C   UNL     1      -5.313   1.673 -32.356  1.00  0.00     0.077 A 
HETATM    5  C   UNL     1      -6.063   1.135 -31.342  1.00  0.00     0.039 A 
HETATM    6  N   UNL     1      -6.299  -0.157 -31.694  1.00  0.00    -0.342 N 
HETATM    7  H   UNL     1      -6.824  -0.851 -31.176  1.00  0.00     0.167 HD
HETATM    8  C   UNL     1      -5.670  -0.380 -32.906  1.00  0.00     0.141 A 
HETATM    9  N   UNL     1      -5.069   0.728 -33.318  1.00  0.00    -0.231 NA
HETATM   10  C   UNL     1      -6.477   1.851 -30.119  1.00  0.00     0.079 C 
HETATM   11  C   UNL     1      -6.324   3.369 -30.364  1.00  0.00     0.132 C 
HETATM   12  O   UNL     1      -4.978   5.717 -29.884  1.00  0.00    -0.267 OA
ENDROOT
BRANCH   1  13
HETATM   13  C   UNL     1      -3.354   5.476 -31.504  1.00  0.00     0.037 A 
HETATM   14  C   UNL     1      -3.499   6.341 -32.586  1.00  0.00     0.036 A 
HETATM   15  C   UNL     1      -2.350   6.716 -33.256  1.00  0.00     0.120 A 
HETATM   16  N   UNL     1      -1.114   6.278 -32.933  1.00  0.00    -0.237 NA
HETATM   17  C   UNL     1      -1.019   5.409 -31.902  1.00  0.00     0.164 A 
HETATM   18  C   UNL     1      -2.102   4.979 -31.161  1.00  0.00     0.075 A 
BRANCH  17  19
HETATM   19  O   UNL     1       0.211   4.902 -31.534  1.00  0.00    -0.339 OA
HETATM   20  C   UNL     1       0.533   5.148 -30.170  1.00  0.00     0.211 C 
ENDBRANCH  17  19
ENDBRANCH   1  13
BRANCH   8  21
HETATM   21  C   UNL     1      -5.672  -1.672 -33.601  1.00  0.00     0.049 A 
HETATM   22  C   UNL     1      -4.528  -2.478 -33.691  1.00  0.00     0.133 A 
HETATM   23  F   UNL     1      -3.373  -2.083 -33.131  1.00  0.00    -0.205 F 
HETATM   24  C   UNL     1      -4.547  -3.701 -34.357  1.00  0.00     0.085 A 
HETATM   25  C   UNL     1      -5.727  -4.127 -34.947  1.00  0.00     0.119 A 
HETATM   26  F   UNL     1      -5.754  -5.299 -35.593  1.00  0.00    -0.206 F 
HETATM   27  C   UNL     1      -6.881  -3.355 -34.880  1.00  0.00     0.043 A 
HETATM   28  C   UNL     1      -6.854  -2.131 -34.204  1.00  0.00     0.021 A 
ENDBRANCH   8  21
TORSDOF 3
ENDMDL
MODEL 2
REMARK VINA RESULT:      -8.9      5.604      8.222
REMARK  3 active torsions:
REMARK  status: ('A' for Active; 'I' for Inactive)
REMARK    1  A    between atoms: O_2  and  C_3 
REMARK    2  A    between atoms: C_7  and  C_8 
REMARK       I    between atoms: C_8  and  N_9 
REMARK    3  A    between atoms: C_15  and  C_16 
ROOT
HETATM    1  C   UNL     1     -11.560   3.339 -33.363  1.00  0.00     0.254 C 
HETATM    2  N   UNL     1     -10.292   2.751 -33.352  1.00  0.00    -0.342 N 
HETATM    3  C   UNL     1     -10.092   1.320 -33.001  1.00  0.00     0.187 C 
HETATM    4  C   UNL     1      -8.698   0.906 -33.327  1.00  0.00     0.077 A 
HETATM    5  C   UNL     1      -7.693   1.774 -33.669  1.00  0.00     0.039 A 
HETATM    6  N   UNL     1      -6.587   1.008 -33.864  1.00  0.00    -0.342 N 
HETATM    7  H   UNL     1      -5.660   1.321 -34.126  1.00  0.00     0.167 HD
HETATM    8  C   UNL     1      -6.950  -0.310 -33.655  1.00  0.00     0.141 A 
HETATM    9  N   UNL     1      -8.232  -0.382 -33.326  1.00  0.00    -0.231 NA
HETATM   10  C   UNL     1      -7.845   3.235 -33.812  1.00  0.00     0.079 C 
HETATM   11  C   UNL     1      -9.150   3.666 -33.104  1.00  0.00     0.132 C 
HETATM   12  O   UNL     1     -11.747   4.550 -33.268  1.00  0.00    -0.267 OA
ENDROOT
BRANCH   1  13
HETATM   13  C   UNL     1     -12.760   2.490 -33.488  1.00  0.00     0.037 A 
HETATM   14  C   UNL     1     -12.955   1.679 -34.603  1.00  0.00     0.036 A 
HETATM   15  C   UNL     1     -14.130   0.953 -34.661  1.00  0.00     0.120 A 
HETATM   16  N   UNL     1     -15.093   1.004 -33.715  1.00  0.00    -0.237 NA
HETATM   17  C   UNL     1     -14.884   1.832 -32.667  1.00  0.00     0.164 A 
HETATM   18  C   UNL     1     -13.742   2.592 -32.509  1.00  0.00     0.075 A 
BRANCH  17  19
HETATM   19  O   UNL     1     -15.838   1.953 -31.678  1.00  0.00    -0.339 OA
HETATM   20  C   UNL     1     -17.023   2.606 -32.119  1.00  0.00     0.211 C 
ENDBRANCH  17  19
ENDBRANCH   1  13
BRANCH   8  21
HETATM   21  C   UNL     1      -6.029  -1.442 -33.801  1.00  0.00     0.049 A 
HETATM   22  C   UNL     1      -4.825  -1.528 -33.086  1.00  0.00     0.133 A 
HETATM   23  F   UNL     1      -4.474  -0.557 -32.227  1.00  0.00    -0.205 F 
HETATM   24  C   UNL     1      -3.961  -2.608 -33.239  1.00  0.00     0.085 A 
HETATM   25  C   UNL     1      -4.299  -3.621 -34.123  1.00  0.00     0.119 A 
HETATM   26  F   UNL     1      -3.473  -4.662 -34.281  1.00  0.00    -0.206 F 
HETATM   27  C   UNL     1      -5.483  -3.571 -34.850  1.00  0.00     0.043 A 
HETATM   28  C   UNL     1      -6.348  -2.485 -34.686  1.00  0.00     0.021 A 
ENDBRANCH   8  21
TORSDOF 3
ENDMDL
MODEL 3
REMARK VINA RESULT:      -8.7      5.333      7.736
REMARK  3 active torsions:
REMARK  status: ('A' for Active; 'I' for Inactive)
REMARK    1  A    between atoms: O_2  and  C_3 
REMARK    2  A    between atoms: C_7  and  C_8 
REMARK       I    between atoms: C_8  and  N_9 
REMARK    3  A    between atoms: C_15  and  C_16 
ROOT
HETATM    1  C   UNL     1      -4.546  -0.380 -31.895  1.00  0.00     0.254 C 
HETATM    2  N   UNL     1      -5.802   0.211 -32.056  1.00  0.00    -0.342 N 
HETATM    3  C   UNL     1      -6.724  -0.187 -33.154  1.00  0.00     0.187 C 
HETATM    4  C   UNL     1      -8.072   0.406 -32.925  1.00  0.00     0.077 A 
HETATM    5  C   UNL     1      -8.348   1.362 -31.982  1.00  0.00     0.039 A 
HETATM    6  N   UNL     1      -9.671   1.646 -32.111  1.00  0.00    -0.342 N 
HETATM    7  H   UNL     1     -10.214   2.310 -31.574  1.00  0.00     0.167 HD
HETATM    8  C   UNL     1     -10.174   0.840 -33.118  1.00  0.00     0.141 A 
HETATM    9  N   UNL     1      -9.208   0.083 -33.620  1.00  0.00    -0.231 NA
HETATM   10  C   UNL     1      -7.372   1.915 -31.023  1.00  0.00     0.079 C 
HETATM   11  C   UNL     1      -5.947   1.591 -31.529  1.00  0.00     0.132 C 
HETATM   12  O   UNL     1      -3.622   0.147 -31.279  1.00  0.00    -0.267 OA
ENDROOT
BRANCH   1  13
HETATM   13  C   UNL     1      -4.278  -1.703 -32.490  1.00  0.00     0.037 A 
HETATM   14  C   UNL     1      -3.363  -2.580 -31.914  1.00  0.00     0.036 A 
HETATM   15  C   UNL     1      -3.136  -3.778 -32.563  1.00  0.00     0.120 A 
HETATM   16  N   UNL     1      -3.733  -4.130 -33.723  1.00  0.00    -0.237 NA
HETATM   17  C   UNL     1      -4.586  -3.236 -34.272  1.00  0.00     0.164 A 
HETATM   18  C   UNL     1      -4.889  -2.017 -33.700  1.00  0.00     0.075 A 
BRANCH  17  19
HETATM   19  O   UNL     1      -5.211  -3.519 -35.469  1.00  0.00    -0.339 OA
HETATM   20  C   UNL     1      -6.267  -4.464 -35.340  1.00  0.00     0.211 C 
ENDBRANCH  17  19
ENDBRANCH   1  13
BRANCH   8  21
HETATM   21  C   UNL     1     -11.581   0.837 -33.533  1.00  0.00     0.049 A 
HETATM   22  C   UNL     1     -12.190   1.950 -34.130  1.00  0.00     0.133 A 
HETATM   23  F   UNL     1     -11.488   3.075 -34.346  1.00  0.00    -0.205 F 
HETATM   24  C   UNL     1     -13.528   1.931 -34.515  1.00  0.00     0.085 A 
HETATM   25  C   UNL     1     -14.274   0.783 -34.298  1.00  0.00     0.119 A 
HETATM   26  F   UNL     1     -15.562   0.755 -34.661  1.00  0.00    -0.206 F 
HETATM   27  C   UNL     1     -13.705  -0.341 -33.708  1.00  0.00     0.043 A 
HETATM   28  C   UNL     1     -12.360  -0.314 -33.329  1.00  0.00     0.021 A 
ENDBRANCH   8  21
TORSDOF 3
ENDMDL
MODEL 4
REMARK VINA RESULT:      -8.7      1.146      1.581
REMARK  3 active torsions:
REMARK  status: ('A' for Active; 'I' for Inactive)
REMARK    1  A    between atoms: O_2  and  C_3 
REMARK    2  A    between atoms: C_7  and  C_8 
REMARK       I    between atoms: C_8  and  N_9 
REMARK    3  A    between atoms: C_15  and  C_16 
ROOT
HETATM    1  C   UNL     1      -4.460   5.003 -30.581  1.00  0.00     0.254 C 
HETATM    2  N   UNL     1      -5.019   3.770 -30.925  1.00  0.00    -0.342 N 
HETATM    3  C   UNL     1      -4.782   3.143 -32.253  1.00  0.00     0.187 C 
HETATM    4  C   UNL     1      -5.271   1.735 -32.245  1.00  0.00     0.077 A 
HETATM    5  C   UNL     1      -6.037   1.187 -31.247  1.00  0.00     0.039 A 
HETATM    6  N   UNL     1      -6.285  -0.094 -31.626  1.00  0.00    -0.342 N 
HETATM    7  H   UNL     1      -6.823  -0.791 -31.126  1.00  0.00     0.167 HD
HETATM    8  C   UNL     1      -5.648  -0.303 -32.837  1.00  0.00     0.141 A 
HETATM    9  N   UNL     1      -5.030   0.806 -33.222  1.00  0.00    -0.231 NA
HETATM   10  C   UNL     1      -6.452   1.886 -30.015  1.00  0.00     0.079 C 
HETATM   11  C   UNL     1      -6.278   3.407 -30.229  1.00  0.00     0.132 C 
HETATM   12  O   UNL     1      -4.907   5.728 -29.694  1.00  0.00    -0.267 OA
ENDROOT
BRANCH   1  13
HETATM   13  C   UNL     1      -3.272   5.497 -31.304  1.00  0.00     0.037 A 
HETATM   14  C   UNL     1      -2.234   4.637 -31.654  1.00  0.00     0.036 A 
HETATM   15  C   UNL     1      -1.138   5.192 -32.287  1.00  0.00     0.120 A 
HETATM   16  N   UNL     1      -1.014   6.509 -32.563  1.00  0.00    -0.237 NA
HETATM   17  C   UNL     1      -2.025   7.316 -32.172  1.00  0.00     0.164 A 
HETATM   18  C   UNL     1      -3.168   6.863 -31.543  1.00  0.00     0.075 A 
BRANCH  17  19
HETATM   19  O   UNL     1      -1.954   8.676 -32.398  1.00  0.00    -0.339 OA
HETATM   20  C   UNL     1      -2.276   9.452 -31.250  1.00  0.00     0.211 C 
ENDBRANCH  17  19
ENDBRANCH   1  13
BRANCH   8  21
HETATM   21  C   UNL     1      -5.661  -1.581 -33.555  1.00  0.00     0.049 A 
HETATM   22  C   UNL     1      -4.521  -2.390 -33.669  1.00  0.00     0.133 A 
HETATM   23  F   UNL     1      -3.360  -2.010 -33.110  1.00  0.00    -0.205 F 
HETATM   24  C   UNL     1      -4.549  -3.599 -34.358  1.00  0.00     0.085 A 
HETATM   25  C   UNL     1      -5.735  -4.010 -34.947  1.00  0.00     0.119 A 
HETATM   26  F   UNL     1      -5.772  -5.169 -35.615  1.00  0.00    -0.206 F 
HETATM   27  C   UNL     1      -6.886  -3.235 -34.856  1.00  0.00     0.043 A 
HETATM   28  C   UNL     1      -6.849  -2.025 -34.158  1.00  0.00     0.021 A 
ENDBRANCH   8  21
TORSDOF 3
ENDMDL
MODEL 5
REMARK VINA RESULT:      -8.6      1.682      2.340
REMARK  3 active torsions:
REMARK  status: ('A' for Active; 'I' for Inactive)
REMARK    1  A    between atoms: O_2  and  C_3 
REMARK    2  A    between atoms: C_7  and  C_8 
REMARK       I    between atoms: C_8  and  N_9 
REMARK    3  A    between atoms: C_15  and  C_16 
ROOT
HETATM    1  C   UNL     1      -4.041   5.588 -30.688  1.00  0.00     0.254 C 
HETATM    2  N   UNL     1      -4.431   4.271 -30.941  1.00  0.00    -0.342 N 
HETATM    3  C   UNL     1      -3.775   3.445 -31.990  1.00  0.00     0.187 C 
HETATM    4  C   UNL     1      -4.203   2.023 -31.859  1.00  0.00     0.077 A 
HETATM    5  C   UNL     1      -5.225   1.593 -31.052  1.00  0.00     0.039 A 
HETATM    6  N   UNL     1      -5.306   0.249 -31.234  1.00  0.00    -0.342 N 
HETATM    7  H   UNL     1      -5.954  -0.394 -30.795  1.00  0.00     0.167 HD
HETATM    8  C   UNL     1      -4.319  -0.111 -32.134  1.00  0.00     0.141 A 
HETATM    9  N   UNL     1      -3.643   0.962 -32.522  1.00  0.00    -0.231 NA
HETATM   10  C   UNL     1      -6.022   2.457 -30.159  1.00  0.00     0.079 C 
HETATM   11  C   UNL     1      -5.833   3.927 -30.599  1.00  0.00     0.132 C 
HETATM   12  O   UNL     1      -4.763   6.415 -30.133  1.00  0.00    -0.267 OA
ENDROOT
BRANCH   1  13
HETATM   13  C   UNL     1      -2.702   6.049 -31.103  1.00  0.00     0.037 A 
HETATM   14  C   UNL     1      -1.760   6.460 -30.164  1.00  0.00     0.036 A 
HETATM   15  C   UNL     1      -0.548   6.922 -30.641  1.00  0.00     0.120 A 
HETATM   16  N   UNL     1      -0.243   7.013 -31.954  1.00  0.00    -0.237 NA
HETATM   17  C   UNL     1      -1.198   6.642 -32.836  1.00  0.00     0.164 A 
HETATM   18  C   UNL     1      -2.436   6.158 -32.463  1.00  0.00     0.075 A 
BRANCH  17  19
HETATM   19  O   UNL     1      -0.963   6.734 -34.192  1.00  0.00    -0.339 OA
HETATM   20  C   UNL     1      -1.254   5.531 -34.894  1.00  0.00     0.211 C 
ENDBRANCH  17  19
ENDBRANCH   1  13
BRANCH   8  21
HETATM   21  C   UNL     1      -4.072  -1.491 -32.564  1.00  0.00     0.049 A 
HETATM   22  C   UNL     1      -4.624  -2.023 -33.739  1.00  0.00     0.133 A 
HETATM   23  F   UNL     1      -5.413  -1.267 -34.521  1.00  0.00    -0.205 F 
HETATM   24  C   UNL     1      -4.382  -3.336 -34.131  1.00  0.00     0.085 A 
HETATM   25  C   UNL     1      -3.576  -4.137 -33.337  1.00  0.00     0.119 A 
HETATM   26  F   UNL     1      -3.339  -5.403 -33.702  1.00  0.00    -0.206 F 
HETATM   27  C   UNL     1      -3.010  -3.646 -32.165  1.00  0.00     0.043 A 
HETATM   28  C   UNL     1      -3.256  -2.324 -31.782  1.00  0.00     0.021 A 
ENDBRANCH   8  21
TORSDOF 3
ENDMDL
MODEL 6
REMARK VINA RESULT:      -8.3      4.736      7.155
REMARK  3 active torsions:
REMARK  status: ('A' for Active; 'I' for Inactive)
REMARK    1  A    between atoms: O_2  and  C_3 
REMARK    2  A    between atoms: C_7  and  C_8 
REMARK       I    between atoms: C_8  and  N_9 
REMARK    3  A    between atoms: C_15  and  C_16 
ROOT
HETATM    1  C   UNL     1      -9.785   4.061 -33.145  1.00  0.00     0.254 C 
HETATM    2  N   UNL     1      -8.657   3.252 -32.988  1.00  0.00    -0.342 N 
HETATM    3  C   UNL     1      -8.762   1.776 -32.833  1.00  0.00     0.187 C 
HETATM    4  C   UNL     1      -7.413   1.155 -32.952  1.00  0.00     0.077 A 
HETATM    5  C   UNL     1      -6.235   1.857 -32.960  1.00  0.00     0.039 A 
HETATM    6  N   UNL     1      -5.246   0.929 -33.061  1.00  0.00    -0.342 N 
HETATM    7  H   UNL     1      -4.248   1.095 -33.093  1.00  0.00     0.167 HD
HETATM    8  C   UNL     1      -5.847  -0.315 -33.132  1.00  0.00     0.141 A 
HETATM    9  N   UNL     1      -7.165  -0.188 -33.065  1.00  0.00    -0.231 NA
HETATM   10  C   UNL     1      -6.123   3.328 -32.899  1.00  0.00     0.079 C 
HETATM   11  C   UNL     1      -7.464   3.903 -32.390  1.00  0.00     0.132 C 
HETATM   12  O   UNL     1      -9.797   5.265 -32.898  1.00  0.00    -0.267 OA
ENDROOT
BRANCH   1  13
HETATM   13  C   UNL     1     -11.049   3.469 -33.623  1.00  0.00     0.037 A 
HETATM   14  C   UNL     1     -11.244   3.180 -34.972  1.00  0.00     0.036 A 
HETATM   15  C   UNL     1     -12.475   2.673 -35.340  1.00  0.00     0.120 A 
HETATM   16  N   UNL     1     -13.492   2.465 -34.476  1.00  0.00    -0.237 NA
HETATM   17  C   UNL     1     -13.279   2.795 -33.182  1.00  0.00     0.164 A 
HETATM   18  C   UNL     1     -12.083   3.298 -32.709  1.00  0.00     0.075 A 
BRANCH  17  19
HETATM   19  O   UNL     1     -14.283   2.633 -32.250  1.00  0.00    -0.339 OA
HETATM   20  C   UNL     1     -15.360   1.831 -32.721  1.00  0.00     0.211 C 
ENDBRANCH  17  19
ENDBRANCH   1  13
BRANCH   8  21
HETATM   21  C   UNL     1      -5.104  -1.571 -33.278  1.00  0.00     0.049 A 
HETATM   22  C   UNL     1      -5.371  -2.486 -34.307  1.00  0.00     0.133 A 
HETATM   23  F   UNL     1      -6.333  -2.232 -35.209  1.00  0.00    -0.205 F 
HETATM   24  C   UNL     1      -4.659  -3.676 -34.429  1.00  0.00     0.085 A 
HETATM   25  C   UNL     1      -3.664  -3.963 -33.506  1.00  0.00     0.119 A 
HETATM   26  F   UNL     1      -2.976  -5.106 -33.612  1.00  0.00    -0.206 F 
HETATM   27  C   UNL     1      -3.372  -3.080 -32.472  1.00  0.00     0.043 A 
HETATM   28  C   UNL     1      -4.089  -1.886 -32.361  1.00  0.00     0.021 A 
ENDBRANCH   8  21
TORSDOF 3
ENDMDL
MODEL 7
REMARK VINA RESULT:      -8.3      5.204      8.912
REMARK  3 active torsions:
REMARK  status: ('A' for Active; 'I' for Inactive)
REMARK    1  A    between atoms: O_2  and  C_3 
REMARK    2  A    between atoms: C_7  and  C_8 
REMARK       I    between atoms: C_8  and  N_9 
REMARK    3  A    between atoms: C_15  and  C_16 
ROOT
HETATM    1  C   UNL     1      -9.794   0.537 -32.899  1.00  0.00     0.254 C 
HETATM    2  N   UNL     1      -8.449   0.915 -32.925  1.00  0.00    -0.342 N 
HETATM    3  C   UNL     1      -7.975   2.083 -33.713  1.00  0.00     0.187 C 
HETATM    4  C   UNL     1      -6.566   2.406 -33.347  1.00  0.00     0.077 A 
HETATM    5  C   UNL     1      -5.761   1.601 -32.583  1.00  0.00     0.039 A 
HETATM    6  N   UNL     1      -4.563   2.238 -32.501  1.00  0.00    -0.342 N 
HETATM    7  H   UNL     1      -3.732   1.927 -32.013  1.00  0.00     0.167 HD
HETATM    8  C   UNL     1      -4.673   3.425 -33.203  1.00  0.00     0.141 A 
HETATM    9  N   UNL     1      -5.888   3.536 -33.723  1.00  0.00    -0.231 NA
HETATM   10  C   UNL     1      -6.175   0.324 -31.969  1.00  0.00     0.079 C 
HETATM   11  C   UNL     1      -7.463  -0.164 -32.671  1.00  0.00     0.132 C 
HETATM   12  O   UNL     1     -10.177  -0.591 -32.599  1.00  0.00    -0.267 OA
ENDROOT
BRANCH   1  13
HETATM   13  C   UNL     1     -10.837   1.519 -33.254  1.00  0.00     0.037 A 
HETATM   14  C   UNL     1     -10.799   2.820 -32.758  1.00  0.00     0.036 A 
HETATM   15  C   UNL     1     -11.842   3.660 -33.101  1.00  0.00     0.120 A 
HETATM   16  N   UNL     1     -12.890   3.284 -33.866  1.00  0.00    -0.237 NA
HETATM   17  C   UNL     1     -12.910   2.003 -34.296  1.00  0.00     0.164 A 
HETATM   18  C   UNL     1     -11.915   1.087 -34.018  1.00  0.00     0.075 A 
BRANCH  17  19
HETATM   19  O   UNL     1     -13.965   1.544 -35.059  1.00  0.00    -0.339 OA
HETATM   20  C   UNL     1     -14.916   0.796 -34.309  1.00  0.00     0.211 C 
ENDBRANCH  17  19
ENDBRANCH   1  13
BRANCH   8  21
HETATM   21  C   UNL     1      -3.589   4.406 -33.320  1.00  0.00     0.049 A 
HETATM   22  C   UNL     1      -3.405   5.187 -34.471  1.00  0.00     0.133 A 
HETATM   23  F   UNL     1      -4.234   5.057 -35.520  1.00  0.00    -0.205 F 
HETATM   24  C   UNL     1      -2.368   6.111 -34.568  1.00  0.00     0.085 A 
HETATM   25  C   UNL     1      -1.497   6.259 -33.500  1.00  0.00     0.119 A 
HETATM   26  F   UNL     1      -0.494   7.142 -33.584  1.00  0.00    -0.206 F 
HETATM   27  C   UNL     1      -1.647   5.502 -32.342  1.00  0.00     0.043 A 
HETATM   28  C   UNL     1      -2.694   4.580 -32.253  1.00  0.00     0.021 A 
ENDBRANCH   8  21
TORSDOF 3
ENDMDL
MODEL 8
REMARK VINA RESULT:      -8.2      2.952      4.603
REMARK  3 active torsions:
REMARK  status: ('A' for Active; 'I' for Inactive)
REMARK    1  A    between atoms: O_2  and  C_3 
REMARK    2  A    between atoms: C_7  and  C_8 
REMARK       I    between atoms: C_8  and  N_9 
REMARK    3  A    between atoms: C_15  and  C_16 
ROOT
HETATM    1  C   UNL     1      -1.064   6.262 -32.594  1.00  0.00     0.254 C 
HETATM    2  N   UNL     1      -2.156   5.517 -33.045  1.00  0.00    -0.342 N 
HETATM    3  C   UNL     1      -2.600   4.276 -32.356  1.00  0.00     0.187 C 
HETATM    4  C   UNL     1      -3.926   3.846 -32.885  1.00  0.00     0.077 A 
HETATM    5  C   UNL     1      -4.523   4.377 -33.999  1.00  0.00     0.039 A 
HETATM    6  N   UNL     1      -5.695   3.705 -34.152  1.00  0.00    -0.342 N 
HETATM    7  H   UNL     1      -6.391   3.838 -34.876  1.00  0.00     0.167 HD
HETATM    8  C   UNL     1      -5.792   2.794 -33.116  1.00  0.00     0.141 A 
HETATM    9  N   UNL     1      -4.719   2.871 -32.340  1.00  0.00    -0.231 NA
HETATM   10  C   UNL     1      -3.974   5.480 -34.814  1.00  0.00     0.079 C 
HETATM   11  C   UNL     1      -2.469   5.627 -34.491  1.00  0.00     0.132 C 
HETATM   12  O   UNL     1      -0.434   7.042 -33.305  1.00  0.00    -0.267 OA
ENDROOT
BRANCH   1  13
HETATM   13  C   UNL     1      -0.610   6.124 -31.196  1.00  0.00     0.037 A 
HETATM   14  C   UNL     1       0.385   5.215 -30.849  1.00  0.00     0.036 A 
HETATM   15  C   UNL     1       0.715   5.116 -29.511  1.00  0.00     0.120 A 
HETATM   16  N   UNL     1       0.116   5.831 -28.534  1.00  0.00    -0.237 NA
HETATM   17  C   UNL     1      -0.873   6.674 -28.906  1.00  0.00     0.164 A 
HETATM   18  C   UNL     1      -1.272   6.855 -30.215  1.00  0.00     0.075 A 
BRANCH  17  19
HETATM   19  O   UNL     1      -1.545   7.417 -27.956  1.00  0.00    -0.339 OA
HETATM   20  C   UNL     1      -1.468   6.857 -26.650  1.00  0.00     0.211 C 
ENDBRANCH  17  19
ENDBRANCH   1  13
BRANCH   8  21
HETATM   21  C   UNL     1      -6.937   1.898 -32.923  1.00  0.00     0.049 A 
HETATM   22  C   UNL     1      -7.077   0.695 -33.629  1.00  0.00     0.133 A 
HETATM   23  F   UNL     1      -6.146   0.319 -34.522  1.00  0.00    -0.205 F 
HETATM   24  C   UNL     1      -8.172  -0.142 -33.436  1.00  0.00     0.085 A 
HETATM   25  C   UNL     1      -9.149   0.227 -32.524  1.00  0.00     0.119 A 
HETATM   26  F   UNL     1     -10.208  -0.569 -32.333  1.00  0.00    -0.206 F 
HETATM   27  C   UNL     1      -9.045   1.413 -31.804  1.00  0.00     0.043 A 
HETATM   28  C   UNL     1      -7.939   2.245 -32.002  1.00  0.00     0.021 A 
ENDBRANCH   8  21
TORSDOF 3
ENDMDL
MODEL 9
REMARK VINA RESULT:      -8.2      4.575      5.396
REMARK  3 active torsions:
REMARK  status: ('A' for Active; 'I' for Inactive)
REMARK    1  A    between atoms: O_2  and  C_3 
REMARK    2  A    between atoms: C_7  and  C_8 
REMARK       I    between atoms: C_8  and  N_9 
REMARK    3  A    between atoms: C_15  and  C_16 
ROOT
HETATM    1  C   UNL     1      -4.021   2.061 -31.778  1.00  0.00     0.254 C 
HETATM    2  N   UNL     1      -5.266   1.471 -32.011  1.00  0.00    -0.342 N 
HETATM    3  C   UNL     1      -6.530   2.254 -31.957  1.00  0.00     0.187 C 
HETATM    4  C   UNL     1      -7.655   1.441 -32.500  1.00  0.00     0.077 A 
HETATM    5  C   UNL     1      -7.577   0.101 -32.778  1.00  0.00     0.039 A 
HETATM    6  N   UNL     1      -8.808  -0.260 -33.229  1.00  0.00    -0.342 N 
HETATM    7  H   UNL     1      -9.110  -1.180 -33.526  1.00  0.00     0.167 HD
HETATM    8  C   UNL     1      -9.600   0.874 -33.234  1.00  0.00     0.141 A 
HETATM    9  N   UNL     1      -8.907   1.914 -32.790  1.00  0.00    -0.231 NA
HETATM   10  C   UNL     1      -6.366  -0.729 -32.629  1.00  0.00     0.079 C 
HETATM   11  C   UNL     1      -5.366   0.020 -31.719  1.00  0.00     0.132 C 
HETATM   12  O   UNL     1      -3.023   1.429 -31.438  1.00  0.00    -0.267 OA
ENDROOT
BRANCH   1  13
HETATM   13  C   UNL     1      -3.862   3.520 -31.931  1.00  0.00     0.037 A 
HETATM   14  C   UNL     1      -4.264   4.398 -30.927  1.00  0.00     0.036 A 
HETATM   15  C   UNL     1      -4.124   5.750 -31.173  1.00  0.00     0.120 A 
HETATM   16  N   UNL     1      -3.643   6.259 -32.328  1.00  0.00    -0.237 NA
HETATM   17  C   UNL     1      -3.301   5.377 -33.294  1.00  0.00     0.164 A 
HETATM   18  C   UNL     1      -3.392   4.007 -33.146  1.00  0.00     0.075 A 
BRANCH  17  19
HETATM   19  O   UNL     1      -2.827   5.828 -34.509  1.00  0.00    -0.339 OA
HETATM   20  C   UNL     1      -1.408   5.775 -34.611  1.00  0.00     0.211 C 
ENDBRANCH  17  19
ENDBRANCH   1  13
BRANCH   8  21
HETATM   21  C   UNL     1     -10.995   0.893 -33.685  1.00  0.00     0.049 A 
HETATM   22  C   UNL     1     -11.492   1.881 -34.548  1.00  0.00     0.133 A 
HETATM   23  F   UNL     1     -10.687   2.859 -34.995  1.00  0.00    -0.205 F 
HETATM   24  C   UNL     1     -12.820   1.886 -34.964  1.00  0.00     0.085 A 
HETATM   25  C   UNL     1     -13.671   0.889 -34.512  1.00  0.00     0.119 A 
HETATM   26  F   UNL     1     -14.951   0.887 -34.903  1.00  0.00    -0.206 F 
HETATM   27  C   UNL     1     -13.215  -0.107 -33.655  1.00  0.00     0.043 A 
HETATM   28  C   UNL     1     -11.879  -0.107 -33.246  1.00  0.00     0.021 A 
ENDBRANCH   8  21
TORSDOF 3
ENDMDL
MODEL 10
REMARK VINA RESULT:      -7.7      2.406      3.184
REMARK  3 active torsions:
REMARK  status: ('A' for Active; 'I' for Inactive)
REMARK    1  A    between atoms: O_2  and  C_3 
REMARK    2  A    between atoms: C_7  and  C_8 
REMARK       I    between atoms: C_8  and  N_9 
REMARK    3  A    between atoms: C_15  and  C_16 
ROOT
HETATM    1  C   UNL     1      -3.525   7.604 -31.171  1.00  0.00     0.254 C 
HETATM    2  N   UNL     1      -4.359   6.618 -31.705  1.00  0.00    -0.342 N 
HETATM    3  C   UNL     1      -3.815   5.424 -32.406  1.00  0.00     0.187 C 
HETATM    4  C   UNL     1      -4.901   4.428 -32.629  1.00  0.00     0.077 A 
HETATM    5  C   UNL     1      -6.235   4.680 -32.435  1.00  0.00     0.039 A 
HETATM    6  N   UNL     1      -6.885   3.533 -32.766  1.00  0.00    -0.342 N 
HETATM    7  H   UNL     1      -7.883   3.362 -32.743  1.00  0.00     0.167 HD
HETATM    8  C   UNL     1      -5.930   2.604 -33.137  1.00  0.00     0.141 A 
HETATM    9  N   UNL     1      -4.719   3.140 -33.058  1.00  0.00    -0.231 NA
HETATM   10  C   UNL     1      -6.795   5.950 -31.933  1.00  0.00     0.079 C 
HETATM   11  C   UNL     1      -5.724   7.054 -32.088  1.00  0.00     0.132 C 
HETATM   12  O   UNL     1      -3.896   8.752 -30.935  1.00  0.00    -0.267 OA
ENDROOT
BRANCH   1  13
HETATM   13  C   UNL     1      -2.116   7.287 -30.870  1.00  0.00     0.037 A 
HETATM   14  C   UNL     1      -1.141   7.324 -31.864  1.00  0.00     0.036 A 
HETATM   15  C   UNL     1       0.144   6.966 -31.506  1.00  0.00     0.120 A 
HETATM   16  N   UNL     1       0.495   6.568 -30.263  1.00  0.00    -0.237 NA
HETATM   17  C   UNL     1      -0.486   6.508 -29.336  1.00  0.00     0.164 A 
HETATM   18  C   UNL     1      -1.799   6.853 -29.587  1.00  0.00     0.075 A 
BRANCH  17  19
HETATM   19  O   UNL     1      -0.203   6.085 -28.053  1.00  0.00    -0.339 OA
HETATM   20  C   UNL     1       0.683   6.956 -27.359  1.00  0.00     0.211 C 
ENDBRANCH  17  19
ENDBRANCH   1  13
BRANCH   8  21
HETATM   21  C   UNL     1      -6.243   1.228 -33.537  1.00  0.00     0.049 A 
HETATM   22  C   UNL     1      -5.910   0.121 -32.743  1.00  0.00     0.133 A 
HETATM   23  F   UNL     1      -5.282   0.292 -31.567  1.00  0.00    -0.205 F 
HETATM   24  C   UNL     1      -6.211  -1.179 -33.139  1.00  0.00     0.085 A 
HETATM   25  C   UNL     1      -6.854  -1.382 -34.350  1.00  0.00     0.119 A 
HETATM   26  F   UNL     1      -7.145  -2.628 -34.743  1.00  0.00    -0.206 F 
HETATM   27  C   UNL     1      -7.200  -0.309 -35.165  1.00  0.00     0.043 A 
HETATM   28  C   UNL     1      -6.898   0.993 -34.757  1.00  0.00     0.021 A 
ENDBRANCH   8  21
TORSDOF 3
ENDMDL
