MODEL 1
REMARK VINA RESULT:      -8.7      0.000      0.000
REMARK  10 active torsions:
REMARK  status: ('A' for Active; 'I' for Inactive)
REMARK    1  A    between atoms: C_3  and  C_4 
REMARK    2  A    between atoms: C_4  and  C_5 
REMARK       I    between atoms: C_5  and  N_6 
REMARK    3  A    between atoms: N_6  and  C_7 
REMARK    4  A    between atoms: C_7  and  C_8 
REMARK    5  A    between atoms: C_18  and  N_19 
REMARK       I    between atoms: N_19  and  C_20 
REMARK    6  A    between atoms: C_20  and  C_21 
REMARK    7  A    between atoms: C_21  and  O_22 
REMARK    8  A    between atoms: C_28  and  C_29 
REMARK    9  A    between atoms: C_29  and  O_30 
REMARK   10  A    between atoms: C_32  and  O_33 
ROOT
HETATM    1  C   UNL     1      -6.753   1.439 -34.865  1.00  0.00     0.016 C 
HETATM    2  C   UNL     1      -6.900   1.831 -33.352  1.00  0.00    -0.030 C 
HETATM    3  C   UNL     1      -5.388   1.902 -32.799  1.00  0.00     0.056 C 
HETATM    4  C   UNL     1      -4.843   3.316 -32.863  1.00  0.00     0.056 A 
HETATM    5  C   UNL     1      -5.533   4.392 -33.375  1.00  0.00     0.012 A 
HETATM    6  S   UNL     1      -4.579   5.797 -33.315  1.00  0.00    -0.055 SA
HETATM    7  C   UNL     1      -3.326   4.906 -32.583  1.00  0.00     0.174 A 
HETATM    8  N   UNL     1      -3.573   3.626 -32.395  1.00  0.00    -0.227 NA
HETATM    9  C   UNL     1      -6.914   4.378 -33.912  1.00  0.00     0.055 C 
HETATM   10  C   UNL     1      -7.722   3.199 -33.310  1.00  0.00     0.012 C 
HETATM   11  C   UNL     1      -8.469   3.542 -31.954  1.00  0.00     0.008 C 
HETATM   12  C   UNL     1      -9.520   4.663 -32.212  1.00  0.00     0.020 C 
HETATM   13  C   UNL     1      -9.267   2.286 -31.492  1.00  0.00     0.128 C 
HETATM   14  C   UNL     1      -8.405   1.034 -31.398  1.00  0.00     0.033 C 
HETATM   15  C   UNL     1      -7.764   0.699 -32.737  1.00  0.00     0.013 C 
ENDROOT
BRANCH   3  16
HETATM   16  C   UNL     1      -5.099   1.239 -31.439  1.00  0.00     0.114 C 
BRANCH  16  17
HETATM   17  C   UNL     1      -4.243  -0.006 -31.586  1.00  0.00     0.218 C 
HETATM   18  N   UNL     1      -4.417  -0.666 -32.773  1.00  0.00    -0.357 N 
HETATM   19  H   UNL     1      -5.332  -0.548 -33.204  1.00  0.00     0.162 HD
HETATM   20  O   UNL     1      -3.456  -0.361 -30.714  1.00  0.00    -0.274 OA
BRANCH  18  21
HETATM   21  C   UNL     1      -3.710  -1.887 -33.067  1.00  0.00     0.161 C 
BRANCH  21  22
HETATM   22  C   UNL     1      -4.609  -2.835 -33.813  1.00  0.00    -0.041 A 
HETATM   23  C   UNL     1      -5.866  -2.401 -34.261  1.00  0.00     0.009 A 
HETATM   24  C   UNL     1      -6.727  -3.277 -34.924  1.00  0.00     0.001 A 
HETATM   25  C   UNL     1      -6.340  -4.597 -35.143  1.00  0.00     0.000 A 
HETATM   26  C   UNL     1      -5.094  -5.039 -34.703  1.00  0.00     0.001 A 
HETATM   27  C   UNL     1      -4.231  -4.164 -34.040  1.00  0.00     0.009 A 
ENDBRANCH  21  22
ENDBRANCH  18  21
ENDBRANCH  16  17
ENDBRANCH   3  16
BRANCH  11  28
HETATM   28  C   UNL     1      -7.526   4.061 -30.836  1.00  0.00     0.176 C 
BRANCH  28  29
HETATM   29  O   UNL     1      -8.206   4.823 -29.843  1.00  0.00    -0.400 OA
HETATM   30  H   UNL     1      -9.161   4.616 -29.939  1.00  0.00     0.209 HD
ENDBRANCH  28  29
ENDBRANCH  11  28
BRANCH   7  31
HETATM   31  N   UNL     1      -2.140   5.474 -32.200  1.00  0.00    -0.304 N 
HETATM   32  C   UNL     1      -1.902   6.236 -31.076  1.00  0.00     0.247 C 
HETATM   33  O   UNL     1      -2.701   6.558 -30.203  1.00  0.00    -0.271 OA
HETATM   34  H   UNL     1      -1.365   5.320 -32.835  1.00  0.00     0.171 HD
BRANCH  32  35
HETATM   35  C   UNL     1      -0.430   6.646 -30.975  1.00  0.00     0.270 C 
BRANCH  35  36
HETATM   36  O   UNL     1       0.467   5.541 -31.044  1.00  0.00    -0.387 OA
HETATM   37  C   UNL     1       0.648   4.922 -29.775  1.00  0.00     0.202 C 
ENDBRANCH  35  36
ENDBRANCH  32  35
ENDBRANCH   7  31
BRANCH  13  38
HETATM   38  O   UNL     1      -9.869   2.505 -30.213  1.00  0.00    -0.395 OA
HETATM   39  H   UNL     1     -10.671   3.041 -30.356  1.00  0.00     0.210 HD
ENDBRANCH  13  38
TORSDOF 10
ENDMDL
MODEL 2
REMARK VINA RESULT:      -8.6      3.196      6.512
REMARK  10 active torsions:
REMARK  status: ('A' for Active; 'I' for Inactive)
REMARK    1  A    between atoms: C_3  and  C_4 
REMARK    2  A    between atoms: C_4  and  C_5 
REMARK       I    between atoms: C_5  and  N_6 
REMARK    3  A    between atoms: N_6  and  C_7 
REMARK    4  A    between atoms: C_7  and  C_8 
REMARK    5  A    between atoms: C_18  and  N_19 
REMARK       I    between atoms: N_19  and  C_20 
REMARK    6  A    between atoms: C_20  and  C_21 
REMARK    7  A    between atoms: C_21  and  O_22 
REMARK    8  A    between atoms: C_28  and  C_29 
REMARK    9  A    between atoms: C_29  and  O_30 
REMARK   10  A    between atoms: C_32  and  O_33 
ROOT
HETATM    1  C   UNL     1      -5.388   0.615 -30.268  1.00  0.00     0.016 C 
HETATM    2  C   UNL     1      -5.399   1.842 -31.248  1.00  0.00    -0.030 C 
HETATM    3  C   UNL     1      -6.567   1.508 -32.307  1.00  0.00     0.056 C 
HETATM    4  C   UNL     1      -7.884   2.134 -31.891  1.00  0.00     0.056 A 
HETATM    5  C   UNL     1      -8.071   2.853 -30.732  1.00  0.00     0.012 A 
HETATM    6  S   UNL     1      -9.689   3.356 -30.594  1.00  0.00    -0.055 SA
HETATM    7  C   UNL     1     -10.035   2.624 -32.092  1.00  0.00     0.174 A 
HETATM    8  N   UNL     1      -9.023   2.018 -32.677  1.00  0.00    -0.227 NA
HETATM    9  C   UNL     1      -7.040   3.173 -29.718  1.00  0.00     0.055 C 
HETATM   10  C   UNL     1      -5.624   3.144 -30.351  1.00  0.00     0.012 C 
HETATM   11  C   UNL     1      -5.155   4.526 -30.970  1.00  0.00     0.008 C 
HETATM   12  C   UNL     1      -5.070   5.595 -29.839  1.00  0.00     0.020 C 
HETATM   13  C   UNL     1      -3.709   4.359 -31.528  1.00  0.00     0.128 C 
HETATM   14  C   UNL     1      -3.578   3.195 -32.501  1.00  0.00     0.033 C 
HETATM   15  C   UNL     1      -3.969   1.877 -31.848  1.00  0.00     0.013 C 
ENDROOT
BRANCH   3  16
HETATM   16  C   UNL     1      -6.264   1.752 -33.797  1.00  0.00     0.114 C 
BRANCH  16  17
HETATM   17  C   UNL     1      -6.650   0.561 -34.657  1.00  0.00     0.218 C 
HETATM   18  N   UNL     1      -6.617  -0.638 -33.995  1.00  0.00    -0.357 N 
HETATM   19  H   UNL     1      -5.965  -0.685 -33.215  1.00  0.00     0.162 HD
HETATM   20  O   UNL     1      -6.978   0.687 -35.832  1.00  0.00    -0.274 OA
BRANCH  18  21
HETATM   21  C   UNL     1      -6.921  -1.877 -34.666  1.00  0.00     0.161 C 
BRANCH  21  22
HETATM   22  C   UNL     1      -5.835  -2.884 -34.403  1.00  0.00    -0.041 A 
HETATM   23  C   UNL     1      -6.008  -4.219 -34.800  1.00  0.00     0.009 A 
HETATM   24  C   UNL     1      -5.027  -5.174 -34.532  1.00  0.00     0.001 A 
HETATM   25  C   UNL     1      -3.861  -4.803 -33.865  1.00  0.00     0.000 A 
HETATM   26  C   UNL     1      -3.678  -3.480 -33.467  1.00  0.00     0.001 A 
HETATM   27  C   UNL     1      -4.660  -2.524 -33.734  1.00  0.00     0.009 A 
ENDBRANCH  21  22
ENDBRANCH  18  21
ENDBRANCH  16  17
ENDBRANCH   3  16
BRANCH  11  28
HETATM   28  C   UNL     1      -6.120   5.088 -32.046  1.00  0.00     0.176 C 
BRANCH  28  29
HETATM   29  O   UNL     1      -5.944   6.482 -32.280  1.00  0.00    -0.400 OA
HETATM   30  H   UNL     1      -5.419   6.561 -33.106  1.00  0.00     0.209 HD
ENDBRANCH  28  29
ENDBRANCH  11  28
BRANCH   7  31
HETATM   31  N   UNL     1     -11.279   2.665 -32.666  1.00  0.00    -0.304 N 
HETATM   32  C   UNL     1     -11.592   3.029 -33.958  1.00  0.00     0.247 C 
HETATM   33  O   UNL     1     -10.824   3.392 -34.844  1.00  0.00    -0.271 OA
HETATM   34  H   UNL     1     -12.045   2.411 -32.052  1.00  0.00     0.171 HD
BRANCH  32  35
HETATM   35  C   UNL     1     -13.092   2.895 -34.234  1.00  0.00     0.270 C 
BRANCH  35  36
HETATM   36  O   UNL     1     -13.412   1.786 -35.069  1.00  0.00    -0.387 OA
HETATM   37  C   UNL     1     -14.071   0.749 -34.349  1.00  0.00     0.202 C 
ENDBRANCH  35  36
ENDBRANCH  32  35
ENDBRANCH   7  31
BRANCH  13  38
HETATM   38  O   UNL     1      -3.280   5.546 -32.198  1.00  0.00    -0.395 OA
HETATM   39  H   UNL     1      -3.591   5.490 -33.121  1.00  0.00     0.210 HD
ENDBRANCH  13  38
TORSDOF 10
ENDMDL
MODEL 3
REMARK VINA RESULT:      -8.1      3.185      6.654
REMARK  10 active torsions:
REMARK  status: ('A' for Active; 'I' for Inactive)
REMARK    1  A    between atoms: C_3  and  C_4 
REMARK    2  A    between atoms: C_4  and  C_5 
REMARK       I    between atoms: C_5  and  N_6 
REMARK    3  A    between atoms: N_6  and  C_7 
REMARK    4  A    between atoms: C_7  and  C_8 
REMARK    5  A    between atoms: C_18  and  N_19 
REMARK       I    between atoms: N_19  and  C_20 
REMARK    6  A    between atoms: C_20  and  C_21 
REMARK    7  A    between atoms: C_21  and  O_22 
REMARK    8  A    between atoms: C_28  and  C_29 
REMARK    9  A    between atoms: C_29  and  O_30 
REMARK   10  A    between atoms: C_32  and  O_33 
ROOT
HETATM    1  C   UNL     1      -6.127   3.008 -29.487  1.00  0.00     0.016 C 
HETATM    2  C   UNL     1      -6.105   3.296 -31.030  1.00  0.00    -0.030 C 
HETATM    3  C   UNL     1      -6.977   2.106 -31.680  1.00  0.00     0.056 C 
HETATM    4  C   UNL     1      -8.424   2.521 -31.866  1.00  0.00     0.056 A 
HETATM    5  C   UNL     1      -8.938   3.740 -31.483  1.00  0.00     0.012 A 
HETATM    6  S   UNL     1     -10.604   3.817 -31.815  1.00  0.00    -0.055 SA
HETATM    7  C   UNL     1     -10.535   2.250 -32.479  1.00  0.00     0.174 A 
HETATM    8  N   UNL     1      -9.352   1.672 -32.453  1.00  0.00    -0.227 NA
HETATM    9  C   UNL     1      -8.188   4.858 -30.866  1.00  0.00     0.055 C 
HETATM   10  C   UNL     1      -6.683   4.771 -31.230  1.00  0.00     0.012 C 
HETATM   11  C   UNL     1      -6.290   5.516 -32.574  1.00  0.00     0.008 C 
HETATM   12  C   UNL     1      -6.583   7.039 -32.425  1.00  0.00     0.020 C 
HETATM   13  C   UNL     1      -4.752   5.381 -32.788  1.00  0.00     0.128 C 
HETATM   14  C   UNL     1      -4.269   3.938 -32.743  1.00  0.00     0.033 C 
HETATM   15  C   UNL     1      -4.602   3.282 -31.411  1.00  0.00     0.013 C 
ENDROOT
BRANCH   3  16
HETATM   16  C   UNL     1      -6.413   1.420 -32.938  1.00  0.00     0.114 C 
BRANCH  16  17
HETATM   17  C   UNL     1      -5.603   0.182 -32.594  1.00  0.00     0.218 C 
HETATM   18  N   UNL     1      -4.832  -0.285 -33.625  1.00  0.00    -0.357 N 
HETATM   19  H   UNL     1      -5.182  -0.073 -34.557  1.00  0.00     0.162 HD
HETATM   20  O   UNL     1      -5.635  -0.325 -31.477  1.00  0.00    -0.274 OA
BRANCH  18  21
HETATM   21  C   UNL     1      -4.025  -1.470 -33.485  1.00  0.00     0.161 C 
BRANCH  21  22
HETATM   22  C   UNL     1      -4.771  -2.666 -34.013  1.00  0.00    -0.041 A 
HETATM   23  C   UNL     1      -4.173  -3.935 -33.977  1.00  0.00     0.009 A 
HETATM   24  C   UNL     1      -4.836  -5.048 -34.495  1.00  0.00     0.001 A 
HETATM   25  C   UNL     1      -6.103  -4.903 -35.056  1.00  0.00     0.000 A 
HETATM   26  C   UNL     1      -6.707  -3.647 -35.096  1.00  0.00     0.001 A 
HETATM   27  C   UNL     1      -6.045  -2.532 -34.578  1.00  0.00     0.009 A 
ENDBRANCH  21  22
ENDBRANCH  18  21
ENDBRANCH  16  17
ENDBRANCH   3  16
BRANCH  11  28
HETATM   28  C   UNL     1      -7.083   5.026 -33.813  1.00  0.00     0.176 C 
BRANCH  28  29
HETATM   29  O   UNL     1      -8.150   5.898 -34.173  1.00  0.00    -0.400 OA
HETATM   30  H   UNL     1      -8.535   6.228 -33.332  1.00  0.00     0.209 HD
ENDBRANCH  28  29
ENDBRANCH  11  28
BRANCH   7  31
HETATM   31  N   UNL     1     -11.630   1.626 -33.017  1.00  0.00    -0.304 N 
HETATM   32  C   UNL     1     -12.126   1.762 -34.296  1.00  0.00     0.247 C 
HETATM   33  O   UNL     1     -11.690   2.467 -35.201  1.00  0.00    -0.271 OA
HETATM   34  H   UNL     1     -12.129   1.012 -32.384  1.00  0.00     0.171 HD
BRANCH  32  35
HETATM   35  C   UNL     1     -13.338   0.855 -34.530  1.00  0.00     0.270 C 
BRANCH  35  36
HETATM   36  O   UNL     1     -14.088   0.606 -33.345  1.00  0.00    -0.387 OA
HETATM   37  C   UNL     1     -15.235   1.446 -33.254  1.00  0.00     0.202 C 
ENDBRANCH  35  36
ENDBRANCH  32  35
ENDBRANCH   7  31
BRANCH  13  38
HETATM   38  O   UNL     1      -4.361   5.939 -34.045  1.00  0.00    -0.395 OA
HETATM   39  H   UNL     1      -4.719   6.845 -34.087  1.00  0.00     0.210 HD
ENDBRANCH  13  38
TORSDOF 10
ENDMDL
MODEL 4
REMARK VINA RESULT:      -7.9      2.540      7.340
REMARK  10 active torsions:
REMARK  status: ('A' for Active; 'I' for Inactive)
REMARK    1  A    between atoms: C_3  and  C_4 
REMARK    2  A    between atoms: C_4  and  C_5 
REMARK       I    between atoms: C_5  and  N_6 
REMARK    3  A    between atoms: N_6  and  C_7 
REMARK    4  A    between atoms: C_7  and  C_8 
REMARK    5  A    between atoms: C_18  and  N_19 
REMARK       I    between atoms: N_19  and  C_20 
REMARK    6  A    between atoms: C_20  and  C_21 
REMARK    7  A    between atoms: C_21  and  O_22 
REMARK    8  A    between atoms: C_28  and  C_29 
REMARK    9  A    between atoms: C_29  and  O_30 
REMARK   10  A    between atoms: C_32  and  O_33 
ROOT
HETATM    1  C   UNL     1      -5.162   4.859 -30.176  1.00  0.00     0.016 C 
HETATM    2  C   UNL     1      -6.197   4.593 -31.326  1.00  0.00    -0.030 C 
HETATM    3  C   UNL     1      -5.397   3.691 -32.396  1.00  0.00     0.056 C 
HETATM    4  C   UNL     1      -5.640   2.213 -32.161  1.00  0.00     0.056 A 
HETATM    5  C   UNL     1      -6.406   1.705 -31.136  1.00  0.00     0.012 A 
HETATM    6  S   UNL     1      -6.406   0.005 -31.176  1.00  0.00    -0.055 SA
HETATM    7  C   UNL     1      -5.426   0.046 -32.568  1.00  0.00     0.174 A 
HETATM    8  N   UNL     1      -5.089   1.246 -32.992  1.00  0.00    -0.227 NA
HETATM    9  C   UNL     1      -7.145   2.486 -30.118  1.00  0.00     0.055 C 
HETATM   10  C   UNL     1      -7.469   3.906 -30.649  1.00  0.00     0.012 C 
HETATM   11  C   UNL     1      -8.842   4.014 -31.435  1.00  0.00     0.008 C 
HETATM   12  C   UNL     1     -10.016   3.665 -30.473  1.00  0.00     0.020 C 
HETATM   13  C   UNL     1      -9.053   5.496 -31.870  1.00  0.00     0.128 C 
HETATM   14  C   UNL     1      -7.874   6.062 -32.648  1.00  0.00     0.033 C 
HETATM   15  C   UNL     1      -6.590   6.006 -31.833  1.00  0.00     0.013 C 
ENDROOT
BRANCH   3  16
HETATM   16  C   UNL     1      -5.536   4.065 -33.883  1.00  0.00     0.114 C 
BRANCH  16  17
HETATM   17  C   UNL     1      -4.348   4.869 -34.380  1.00  0.00     0.218 C 
HETATM   18  N   UNL     1      -3.394   5.101 -33.425  1.00  0.00    -0.357 N 
HETATM   19  H   UNL     1      -3.736   5.121 -32.467  1.00  0.00     0.162 HD
HETATM   20  O   UNL     1      -4.261   5.249 -35.543  1.00  0.00    -0.274 OA
BRANCH  18  21
HETATM   21  C   UNL     1      -2.214   5.877 -33.713  1.00  0.00     0.161 C 
BRANCH  21  22
HETATM   22  C   UNL     1      -1.314   5.911 -32.507  1.00  0.00    -0.041 A 
HETATM   23  C   UNL     1      -0.439   6.991 -32.318  1.00  0.00     0.009 A 
HETATM   24  C   UNL     1       0.427   7.022 -31.225  1.00  0.00     0.001 A 
HETATM   25  C   UNL     1       0.427   5.972 -30.309  1.00  0.00     0.000 A 
HETATM   26  C   UNL     1      -0.439   4.894 -30.487  1.00  0.00     0.001 A 
HETATM   27  C   UNL     1      -1.306   4.862 -31.580  1.00  0.00     0.009 A 
ENDBRANCH  21  22
ENDBRANCH  18  21
ENDBRANCH  16  17
ENDBRANCH   3  16
BRANCH  11  28
HETATM   28  C   UNL     1      -8.948   3.045 -32.641  1.00  0.00     0.176 C 
BRANCH  28  29
HETATM   29  O   UNL     1     -10.289   2.677 -32.944  1.00  0.00    -0.400 OA
HETATM   30  H   UNL     1     -10.323   2.517 -33.912  1.00  0.00     0.209 HD
ENDBRANCH  28  29
ENDBRANCH  11  28
BRANCH   7  31
HETATM   31  N   UNL     1      -5.017  -1.089 -33.219  1.00  0.00    -0.304 N 
HETATM   32  C   UNL     1      -5.676  -1.756 -34.230  1.00  0.00     0.247 C 
HETATM   33  O   UNL     1      -6.754  -1.471 -34.742  1.00  0.00    -0.271 OA
HETATM   34  H   UNL     1      -4.138  -1.476 -32.896  1.00  0.00     0.171 HD
BRANCH  32  35
HETATM   35  C   UNL     1      -4.868  -2.956 -34.733  1.00  0.00     0.270 C 
BRANCH  35  36
HETATM   36  O   UNL     1      -3.904  -3.418 -33.790  1.00  0.00    -0.387 OA
HETATM   37  C   UNL     1      -3.850  -4.840 -33.738  1.00  0.00     0.202 C 
ENDBRANCH  35  36
ENDBRANCH  32  35
ENDBRANCH   7  31
BRANCH  13  38
HETATM   38  O   UNL     1     -10.223   5.628 -32.681  1.00  0.00    -0.395 OA
HETATM   39  H   UNL     1     -10.471   4.734 -32.983  1.00  0.00     0.210 HD
ENDBRANCH  13  38
TORSDOF 10
ENDMDL
MODEL 5
REMARK VINA RESULT:      -7.9      1.590      1.678
REMARK  10 active torsions:
REMARK  status: ('A' for Active; 'I' for Inactive)
REMARK    1  A    between atoms: C_3  and  C_4 
REMARK    2  A    between atoms: C_4  and  C_5 
REMARK       I    between atoms: C_5  and  N_6 
REMARK    3  A    between atoms: N_6  and  C_7 
REMARK    4  A    between atoms: C_7  and  C_8 
REMARK    5  A    between atoms: C_18  and  N_19 
REMARK       I    between atoms: N_19  and  C_20 
REMARK    6  A    between atoms: C_20  and  C_21 
REMARK    7  A    between atoms: C_21  and  O_22 
REMARK    8  A    between atoms: C_28  and  C_29 
REMARK    9  A    between atoms: C_29  and  O_30 
REMARK   10  A    between atoms: C_32  and  O_33 
ROOT
HETATM    1  C   UNL     1      -6.127   2.999 -34.494  1.00  0.00     0.016 C 
HETATM    2  C   UNL     1      -6.472   2.876 -32.967  1.00  0.00    -0.030 C 
HETATM    3  C   UNL     1      -5.042   2.873 -32.224  1.00  0.00     0.056 C 
HETATM    4  C   UNL     1      -4.651   4.268 -31.776  1.00  0.00     0.056 A 
HETATM    5  C   UNL     1      -5.398   5.400 -32.018  1.00  0.00     0.012 A 
HETATM    6  S   UNL     1      -4.613   6.777 -31.402  1.00  0.00    -0.055 SA
HETATM    7  C   UNL     1      -3.354   5.789 -30.821  1.00  0.00     0.174 A 
HETATM    8  N   UNL     1      -3.478   4.502 -31.071  1.00  0.00    -0.227 NA
HETATM    9  C   UNL     1      -6.705   5.461 -32.711  1.00  0.00     0.055 C 
HETATM   10  C   UNL     1      -7.438   4.097 -32.615  1.00  0.00     0.012 C 
HETATM   11  C   UNL     1      -8.354   3.935 -31.331  1.00  0.00     0.008 C 
HETATM   12  C   UNL     1      -9.489   5.002 -31.368  1.00  0.00     0.020 C 
HETATM   13  C   UNL     1      -9.054   2.543 -31.389  1.00  0.00     0.128 C 
HETATM   14  C   UNL     1      -8.075   1.392 -31.573  1.00  0.00     0.033 C 
HETATM   15  C   UNL     1      -7.266   1.548 -32.852  1.00  0.00     0.013 C 
ENDROOT
BRANCH   3  16
HETATM   16  C   UNL     1      -4.825   1.833 -31.109  1.00  0.00     0.114 C 
BRANCH  16  17
HETATM   17  C   UNL     1      -3.897   0.715 -31.550  1.00  0.00     0.218 C 
HETATM   18  N   UNL     1      -4.415  -0.085 -32.533  1.00  0.00    -0.357 N 
HETATM   19  H   UNL     1      -5.431  -0.146 -32.550  1.00  0.00     0.162 HD
HETATM   20  O   UNL     1      -2.777   0.572 -31.068  1.00  0.00    -0.274 OA
BRANCH  18  21
HETATM   21  C   UNL     1      -3.684  -1.216 -33.047  1.00  0.00     0.161 C 
BRANCH  21  22
HETATM   22  C   UNL     1      -4.627  -2.172 -33.727  1.00  0.00    -0.041 A 
HETATM   23  C   UNL     1      -5.931  -1.761 -34.044  1.00  0.00     0.009 A 
HETATM   24  C   UNL     1      -6.829  -2.645 -34.642  1.00  0.00     0.001 A 
HETATM   25  C   UNL     1      -6.433  -3.950 -34.929  1.00  0.00     0.000 A 
HETATM   26  C   UNL     1      -5.140  -4.368 -34.618  1.00  0.00     0.001 A 
HETATM   27  C   UNL     1      -4.240  -3.485 -34.019  1.00  0.00     0.009 A 
ENDBRANCH  21  22
ENDBRANCH  18  21
ENDBRANCH  16  17
ENDBRANCH   3  16
BRANCH  11  28
HETATM   28  C   UNL     1      -7.595   4.135 -29.993  1.00  0.00     0.176 C 
BRANCH  28  29
HETATM   29  O   UNL     1      -7.370   2.917 -29.292  1.00  0.00    -0.400 OA
HETATM   30  H   UNL     1      -6.910   3.156 -28.458  1.00  0.00     0.209 HD
ENDBRANCH  28  29
ENDBRANCH  11  28
BRANCH   7  31
HETATM   31  N   UNL     1      -2.283   6.287 -30.127  1.00  0.00    -0.304 N 
HETATM   32  C   UNL     1      -2.311   7.054 -28.982  1.00  0.00     0.247 C 
HETATM   33  O   UNL     1      -3.296   7.444 -28.362  1.00  0.00    -0.271 OA
HETATM   34  H   UNL     1      -1.376   6.073 -30.525  1.00  0.00     0.171 HD
BRANCH  32  35
HETATM   35  C   UNL     1      -0.900   7.372 -28.481  1.00  0.00     0.270 C 
BRANCH  35  36
HETATM   36  O   UNL     1      -0.831   7.542 -27.068  1.00  0.00    -0.387 OA
HETATM   37  C   UNL     1       0.382   7.027 -26.527  1.00  0.00     0.202 C 
ENDBRANCH  35  36
ENDBRANCH  32  35
ENDBRANCH   7  31
BRANCH  13  38
HETATM   38  O   UNL     1      -9.806   2.300 -30.198  1.00  0.00    -0.395 OA
HETATM   39  H   UNL     1      -9.257   1.741 -29.615  1.00  0.00     0.210 HD
ENDBRANCH  13  38
TORSDOF 10
ENDMDL
MODEL 6
REMARK VINA RESULT:      -7.7      1.701      2.055
REMARK  10 active torsions:
REMARK  status: ('A' for Active; 'I' for Inactive)
REMARK    1  A    between atoms: C_3  and  C_4 
REMARK    2  A    between atoms: C_4  and  C_5 
REMARK       I    between atoms: C_5  and  N_6 
REMARK    3  A    between atoms: N_6  and  C_7 
REMARK    4  A    between atoms: C_7  and  C_8 
REMARK    5  A    between atoms: C_18  and  N_19 
REMARK       I    between atoms: N_19  and  C_20 
REMARK    6  A    between atoms: C_20  and  C_21 
REMARK    7  A    between atoms: C_21  and  O_22 
REMARK    8  A    between atoms: C_28  and  C_29 
REMARK    9  A    between atoms: C_29  and  O_30 
REMARK   10  A    between atoms: C_32  and  O_33 
ROOT
HETATM    1  C   UNL     1      -6.661   2.562 -34.076  1.00  0.00     0.016 C 
HETATM    2  C   UNL     1      -7.252   2.873 -32.655  1.00  0.00    -0.030 C 
HETATM    3  C   UNL     1      -5.971   2.898 -31.677  1.00  0.00     0.056 C 
HETATM    4  C   UNL     1      -5.440   4.307 -31.500  1.00  0.00     0.056 A 
HETATM    5  C   UNL     1      -5.954   5.416 -32.134  1.00  0.00     0.012 A 
HETATM    6  S   UNL     1      -5.068   6.807 -31.718  1.00  0.00    -0.055 SA
HETATM    7  C   UNL     1      -4.083   5.864 -30.698  1.00  0.00     0.174 A 
HETATM    8  N   UNL     1      -4.367   4.578 -30.662  1.00  0.00    -0.227 NA
HETATM    9  C   UNL     1      -7.114   5.446 -33.054  1.00  0.00     0.055 C 
HETATM   10  C   UNL     1      -8.057   4.245 -32.783  1.00  0.00     0.012 C 
HETATM   11  C   UNL     1      -9.174   4.522 -31.691  1.00  0.00     0.008 C 
HETATM   12  C   UNL     1     -10.108   5.666 -32.187  1.00  0.00     0.020 C 
HETATM   13  C   UNL     1     -10.065   3.251 -31.555  1.00  0.00     0.128 C 
HETATM   14  C   UNL     1      -9.262   1.988 -31.280  1.00  0.00     0.033 C 
HETATM   15  C   UNL     1      -8.252   1.718 -32.386  1.00  0.00     0.013 C 
ENDROOT
BRANCH   3  16
HETATM   16  C   UNL     1      -6.093   2.160 -30.331  1.00  0.00     0.114 C 
BRANCH  16  17
HETATM   17  C   UNL     1      -5.353   0.833 -30.342  1.00  0.00     0.218 C 
HETATM   18  N   UNL     1      -4.802   0.513 -31.554  1.00  0.00    -0.357 N 
HETATM   19  H   UNL     1      -5.274   0.910 -32.363  1.00  0.00     0.162 HD
HETATM   20  O   UNL     1      -5.254   0.136 -29.338  1.00  0.00    -0.274 OA
BRANCH  18  21
HETATM   21  C   UNL     1      -4.093  -0.725 -31.755  1.00  0.00     0.161 C 
BRANCH  21  22
HETATM   22  C   UNL     1      -4.727  -1.505 -32.875  1.00  0.00    -0.041 A 
HETATM   23  C   UNL     1      -4.069  -2.623 -33.409  1.00  0.00     0.009 A 
HETATM   24  C   UNL     1      -4.626  -3.337 -34.470  1.00  0.00     0.001 A 
HETATM   25  C   UNL     1      -5.847  -2.938 -35.010  1.00  0.00     0.000 A 
HETATM   26  C   UNL     1      -6.510  -1.829 -34.487  1.00  0.00     0.001 A 
HETATM   27  C   UNL     1      -5.954  -1.114 -33.425  1.00  0.00     0.009 A 
ENDBRANCH  21  22
ENDBRANCH  18  21
ENDBRANCH  16  17
ENDBRANCH   3  16
BRANCH  11  28
HETATM   28  C   UNL     1      -8.607   4.970 -30.319  1.00  0.00     0.176 C 
BRANCH  28  29
HETATM   29  O   UNL     1      -9.579   5.604 -29.494  1.00  0.00    -0.400 OA
HETATM   30  H   UNL     1     -10.304   5.893 -30.090  1.00  0.00     0.209 HD
ENDBRANCH  28  29
ENDBRANCH  11  28
BRANCH   7  31
HETATM   31  N   UNL     1      -3.066   6.398 -29.951  1.00  0.00    -0.304 N 
HETATM   32  C   UNL     1      -3.180   7.193 -28.831  1.00  0.00     0.247 C 
HETATM   33  O   UNL     1      -4.208   7.581 -28.285  1.00  0.00    -0.271 OA
HETATM   34  H   UNL     1      -2.132   6.188 -30.284  1.00  0.00     0.171 HD
BRANCH  32  35
HETATM   35  C   UNL     1      -1.808   7.547 -28.249  1.00  0.00     0.270 C 
BRANCH  35  36
HETATM   36  O   UNL     1      -0.760   6.715 -28.738  1.00  0.00    -0.387 OA
HETATM   37  C   UNL     1       0.428   7.454 -29.001  1.00  0.00     0.202 C 
ENDBRANCH  35  36
ENDBRANCH  32  35
ENDBRANCH   7  31
BRANCH  13  38
HETATM   38  O   UNL     1     -11.019   3.408 -30.502  1.00  0.00    -0.395 OA
HETATM   39  H   UNL     1     -11.908   3.364 -30.903  1.00  0.00     0.210 HD
ENDBRANCH  13  38
TORSDOF 10
ENDMDL
MODEL 7
REMARK VINA RESULT:      -7.7      3.218      6.108
REMARK  10 active torsions:
REMARK  status: ('A' for Active; 'I' for Inactive)
REMARK    1  A    between atoms: C_3  and  C_4 
REMARK    2  A    between atoms: C_4  and  C_5 
REMARK       I    between atoms: C_5  and  N_6 
REMARK    3  A    between atoms: N_6  and  C_7 
REMARK    4  A    between atoms: C_7  and  C_8 
REMARK    5  A    between atoms: C_18  and  N_19 
REMARK       I    between atoms: N_19  and  C_20 
REMARK    6  A    between atoms: C_20  and  C_21 
REMARK    7  A    between atoms: C_21  and  O_22 
REMARK    8  A    between atoms: C_28  and  C_29 
REMARK    9  A    between atoms: C_29  and  O_30 
REMARK   10  A    between atoms: C_32  and  O_33 
ROOT
HETATM    1  C   UNL     1      -6.645   2.203 -30.246  1.00  0.00     0.016 C 
HETATM    2  C   UNL     1      -5.769   2.859 -31.372  1.00  0.00    -0.030 C 
HETATM    3  C   UNL     1      -6.741   2.933 -32.655  1.00  0.00     0.056 C 
HETATM    4  C   UNL     1      -7.434   4.279 -32.745  1.00  0.00     0.056 A 
HETATM    5  C   UNL     1      -7.290   5.290 -31.821  1.00  0.00     0.012 A 
HETATM    6  S   UNL     1      -8.256   6.624 -32.240  1.00  0.00    -0.055 SA
HETATM    7  C   UNL     1      -8.776   5.799 -33.635  1.00  0.00     0.174 A 
HETATM    8  N   UNL     1      -8.285   4.588 -33.797  1.00  0.00    -0.227 NA
HETATM    9  C   UNL     1      -6.427   5.267 -30.618  1.00  0.00     0.055 C 
HETATM   10  C   UNL     1      -5.261   4.260 -30.801  1.00  0.00     0.012 C 
HETATM   11  C   UNL     1      -3.963   4.877 -31.472  1.00  0.00     0.008 C 
HETATM   12  C   UNL     1      -3.390   5.997 -30.554  1.00  0.00     0.020 C 
HETATM   13  C   UNL     1      -2.869   3.769 -31.553  1.00  0.00     0.128 C 
HETATM   14  C   UNL     1      -3.355   2.503 -32.245  1.00  0.00     0.033 C 
HETATM   15  C   UNL     1      -4.556   1.904 -31.529  1.00  0.00     0.013 C 
ENDROOT
BRANCH   3  16
HETATM   16  C   UNL     1      -6.157   2.498 -34.013  1.00  0.00     0.114 C 
BRANCH  16  17
HETATM   17  C   UNL     1      -6.802   1.223 -34.525  1.00  0.00     0.218 C 
HETATM   18  N   UNL     1      -7.080   0.307 -33.546  1.00  0.00    -0.357 N 
HETATM   19  H   UNL     1      -6.479   0.353 -32.726  1.00  0.00     0.162 HD
HETATM   20  O   UNL     1      -7.060   1.056 -35.713  1.00  0.00    -0.274 OA
BRANCH  18  21
HETATM   21  C   UNL     1      -7.662  -0.975 -33.857  1.00  0.00     0.161 C 
BRANCH  21  22
HETATM   22  C   UNL     1      -6.578  -2.004 -34.030  1.00  0.00    -0.041 A 
HETATM   23  C   UNL     1      -5.276  -1.730 -33.581  1.00  0.00     0.009 A 
HETATM   24  C   UNL     1      -4.251  -2.659 -33.765  1.00  0.00     0.001 A 
HETATM   25  C   UNL     1      -4.516  -3.870 -34.401  1.00  0.00     0.000 A 
HETATM   26  C   UNL     1      -5.805  -4.151 -34.850  1.00  0.00     0.001 A 
HETATM   27  C   UNL     1      -6.832  -3.224 -34.667  1.00  0.00     0.009 A 
ENDBRANCH  21  22
ENDBRANCH  18  21
ENDBRANCH  16  17
ENDBRANCH   3  16
BRANCH  11  28
HETATM   28  C   UNL     1      -4.224   5.523 -32.857  1.00  0.00     0.176 C 
BRANCH  28  29
HETATM   29  O   UNL     1      -3.232   6.477 -33.224  1.00  0.00    -0.400 OA
HETATM   30  H   UNL     1      -2.574   6.487 -32.495  1.00  0.00     0.209 HD
ENDBRANCH  28  29
ENDBRANCH  11  28
BRANCH   7  31
HETATM   31  N   UNL     1      -9.641   6.352 -34.543  1.00  0.00    -0.304 N 
HETATM   32  C   UNL     1     -11.019   6.315 -34.515  1.00  0.00     0.247 C 
HETATM   33  O   UNL     1     -11.740   5.780 -33.679  1.00  0.00    -0.271 OA
HETATM   34  H   UNL     1      -9.201   6.822 -35.326  1.00  0.00     0.171 HD
BRANCH  32  35
HETATM   35  C   UNL     1     -11.628   7.095 -35.684  1.00  0.00     0.270 C 
BRANCH  35  36
HETATM   36  O   UNL     1     -10.661   7.824 -36.436  1.00  0.00    -0.387 OA
HETATM   37  C   UNL     1     -11.171   9.074 -36.889  1.00  0.00     0.202 C 
ENDBRANCH  35  36
ENDBRANCH  32  35
ENDBRANCH   7  31
BRANCH  13  38
HETATM   38  O   UNL     1      -1.716   4.242 -32.254  1.00  0.00    -0.395 OA
HETATM   39  H   UNL     1      -1.962   4.335 -33.193  1.00  0.00     0.210 HD
ENDBRANCH  13  38
TORSDOF 10
ENDMDL
MODEL 8
REMARK VINA RESULT:      -7.5      3.644      5.355
REMARK  10 active torsions:
REMARK  status: ('A' for Active; 'I' for Inactive)
REMARK    1  A    between atoms: C_3  and  C_4 
REMARK    2  A    between atoms: C_4  and  C_5 
REMARK       I    between atoms: C_5  and  N_6 
REMARK    3  A    between atoms: N_6  and  C_7 
REMARK    4  A    between atoms: C_7  and  C_8 
REMARK    5  A    between atoms: C_18  and  N_19 
REMARK       I    between atoms: N_19  and  C_20 
REMARK    6  A    between atoms: C_20  and  C_21 
REMARK    7  A    between atoms: C_21  and  O_22 
REMARK    8  A    between atoms: C_28  and  C_29 
REMARK    9  A    between atoms: C_29  and  O_30 
REMARK   10  A    between atoms: C_32  and  O_33 
ROOT
HETATM    1  C   UNL     1     -12.258   2.855 -36.306  1.00  0.00     0.016 C 
HETATM    2  C   UNL     1     -12.352   2.573 -34.765  1.00  0.00    -0.030 C 
HETATM    3  C   UNL     1     -10.824   2.372 -34.293  1.00  0.00     0.056 C 
HETATM    4  C   UNL     1     -10.232   3.668 -33.775  1.00  0.00     0.056 A 
HETATM    5  C   UNL     1     -10.897   4.874 -33.758  1.00  0.00     0.012 A 
HETATM    6  S   UNL     1      -9.892   6.102 -33.148  1.00  0.00    -0.055 SA
HETATM    7  C   UNL     1      -8.653   4.959 -32.909  1.00  0.00     0.174 A 
HETATM    8  N   UNL     1      -8.940   3.725 -33.270  1.00  0.00    -0.227 NA
HETATM    9  C   UNL     1     -12.291   5.117 -34.196  1.00  0.00     0.055 C 
HETATM   10  C   UNL     1     -13.123   3.811 -34.117  1.00  0.00     0.012 C 
HETATM   11  C   UNL     1     -13.822   3.564 -32.716  1.00  0.00     0.008 C 
HETATM   12  C   UNL     1     -14.840   4.710 -32.436  1.00  0.00     0.020 C 
HETATM   13  C   UNL     1     -14.652   2.247 -32.797  1.00  0.00     0.128 C 
HETATM   14  C   UNL     1     -13.832   1.056 -33.274  1.00  0.00     0.033 C 
HETATM   15  C   UNL     1     -13.239   1.305 -34.652  1.00  0.00     0.013 C 
ENDROOT
BRANCH   3  16
HETATM   16  C   UNL     1     -10.523   1.190 -33.352  1.00  0.00     0.114 C 
BRANCH  16  17
HETATM   17  C   UNL     1      -9.276   0.433 -33.774  1.00  0.00     0.218 C 
HETATM   18  N   UNL     1      -8.552   1.055 -34.756  1.00  0.00    -0.357 N 
HETATM   19  H   UNL     1      -9.089   1.659 -35.374  1.00  0.00     0.162 HD
HETATM   20  O   UNL     1      -8.955  -0.631 -33.255  1.00  0.00    -0.274 OA
BRANCH  18  21
HETATM   21  C   UNL     1      -7.357   0.461 -35.301  1.00  0.00     0.161 C 
BRANCH  21  22
HETATM   22  C   UNL     1      -6.245   0.522 -34.290  1.00  0.00    -0.041 A 
HETATM   23  C   UNL     1      -5.486  -0.627 -34.015  1.00  0.00     0.009 A 
HETATM   24  C   UNL     1      -4.475  -0.597 -33.055  1.00  0.00     0.001 A 
HETATM   25  C   UNL     1      -4.212   0.580 -32.358  1.00  0.00     0.000 A 
HETATM   26  C   UNL     1      -4.959   1.727 -32.624  1.00  0.00     0.001 A 
HETATM   27  C   UNL     1      -5.971   1.699 -33.585  1.00  0.00     0.009 A 
ENDBRANCH  21  22
ENDBRANCH  18  21
ENDBRANCH  16  17
ENDBRANCH   3  16
BRANCH  11  28
HETATM   28  C   UNL     1     -12.833   3.542 -31.521  1.00  0.00     0.176 C 
BRANCH  28  29
HETATM   29  O   UNL     1     -13.472   3.744 -30.264  1.00  0.00    -0.400 OA
HETATM   30  H   UNL     1     -14.089   4.497 -30.384  1.00  0.00     0.209 HD
ENDBRANCH  28  29
ENDBRANCH  11  28
BRANCH   7  31
HETATM   31  N   UNL     1      -7.438   5.287 -32.369  1.00  0.00    -0.304 N 
HETATM   32  C   UNL     1      -6.232   5.394 -33.028  1.00  0.00     0.247 C 
HETATM   33  O   UNL     1      -6.007   5.214 -34.221  1.00  0.00    -0.271 OA
HETATM   34  H   UNL     1      -7.441   5.449 -31.368  1.00  0.00     0.171 HD
BRANCH  32  35
HETATM   35  C   UNL     1      -5.109   5.832 -32.082  1.00  0.00     0.270 C 
BRANCH  35  36
HETATM   36  O   UNL     1      -3.863   6.027 -32.743  1.00  0.00    -0.387 OA
HETATM   37  C   UNL     1      -2.988   6.866 -31.995  1.00  0.00     0.202 C 
ENDBRANCH  35  36
ENDBRANCH  32  35
ENDBRANCH   7  31
BRANCH  13  38
HETATM   38  O   UNL     1     -15.211   1.917 -31.523  1.00  0.00    -0.395 OA
HETATM   39  H   UNL     1     -16.106   1.561 -31.680  1.00  0.00     0.210 HD
ENDBRANCH  13  38
TORSDOF 10
ENDMDL
MODEL 9
REMARK VINA RESULT:      -7.3      3.284      6.057
REMARK  10 active torsions:
REMARK  status: ('A' for Active; 'I' for Inactive)
REMARK    1  A    between atoms: C_3  and  C_4 
REMARK    2  A    between atoms: C_4  and  C_5 
REMARK       I    between atoms: C_5  and  N_6 
REMARK    3  A    between atoms: N_6  and  C_7 
REMARK    4  A    between atoms: C_7  and  C_8 
REMARK    5  A    between atoms: C_18  and  N_19 
REMARK       I    between atoms: N_19  and  C_20 
REMARK    6  A    between atoms: C_20  and  C_21 
REMARK    7  A    between atoms: C_21  and  O_22 
REMARK    8  A    between atoms: C_28  and  C_29 
REMARK    9  A    between atoms: C_29  and  O_30 
REMARK   10  A    between atoms: C_32  and  O_33 
ROOT
HETATM    1  C   UNL     1      -9.152   3.041 -30.364  1.00  0.00     0.016 C 
HETATM    2  C   UNL     1      -8.476   2.455 -31.654  1.00  0.00    -0.030 C 
HETATM    3  C   UNL     1      -8.004   3.749 -32.492  1.00  0.00     0.056 C 
HETATM    4  C   UNL     1      -6.561   4.105 -32.189  1.00  0.00     0.056 A 
HETATM    5  C   UNL     1      -5.772   3.439 -31.278  1.00  0.00     0.012 A 
HETATM    6  S   UNL     1      -4.233   4.157 -31.185  1.00  0.00    -0.055 SA
HETATM    7  C   UNL     1      -4.692   5.278 -32.380  1.00  0.00     0.174 A 
HETATM    8  N   UNL     1      -5.924   5.158 -32.831  1.00  0.00    -0.227 NA
HETATM    9  C   UNL     1      -6.160   2.261 -30.470  1.00  0.00     0.055 C 
HETATM   10  C   UNL     1      -7.311   1.482 -31.160  1.00  0.00     0.012 C 
HETATM   11  C   UNL     1      -6.829   0.370 -32.182  1.00  0.00     0.008 C 
HETATM   12  C   UNL     1      -6.009  -0.713 -31.418  1.00  0.00     0.020 C 
HETATM   13  C   UNL     1      -8.082  -0.353 -32.762  1.00  0.00     0.128 C 
HETATM   14  C   UNL     1      -9.098   0.608 -33.362  1.00  0.00     0.033 C 
HETATM   15  C   UNL     1      -9.589   1.614 -32.331  1.00  0.00     0.013 C 
ENDROOT
BRANCH   3  16
HETATM   16  C   UNL     1      -8.289   3.756 -34.005  1.00  0.00     0.114 C 
BRANCH  16  17
HETATM   17  C   UNL     1      -9.716   4.176 -34.311  1.00  0.00     0.218 C 
HETATM   18  N   UNL     1     -10.390   3.308 -35.129  1.00  0.00    -0.357 N 
HETATM   19  H   UNL     1      -9.805   2.769 -35.764  1.00  0.00     0.162 HD
HETATM   20  O   UNL     1     -10.208   5.197 -33.840  1.00  0.00    -0.274 OA
BRANCH  18  21
HETATM   21  C   UNL     1     -11.743   3.568 -35.549  1.00  0.00     0.161 C 
BRANCH  21  22
HETATM   22  C   UNL     1     -12.705   2.783 -34.699  1.00  0.00    -0.041 A 
HETATM   23  C   UNL     1     -13.003   1.451 -35.026  1.00  0.00     0.009 A 
HETATM   24  C   UNL     1     -13.919   0.721 -34.269  1.00  0.00     0.001 A 
HETATM   25  C   UNL     1     -14.549   1.315 -33.178  1.00  0.00     0.000 A 
HETATM   26  C   UNL     1     -14.261   2.637 -32.844  1.00  0.00     0.001 A 
HETATM   27  C   UNL     1     -13.344   3.370 -33.600  1.00  0.00     0.009 A 
ENDBRANCH  21  22
ENDBRANCH  18  21
ENDBRANCH  16  17
ENDBRANCH   3  16
BRANCH  11  28
HETATM   28  C   UNL     1      -5.911   0.913 -33.309  1.00  0.00     0.176 C 
BRANCH  28  29
HETATM   29  O   UNL     1      -4.984  -0.055 -33.789  1.00  0.00    -0.400 OA
HETATM   30  H   UNL     1      -4.420  -0.303 -33.024  1.00  0.00     0.209 HD
ENDBRANCH  28  29
ENDBRANCH  11  28
BRANCH   7  31
HETATM   31  N   UNL     1      -3.842   6.241 -32.858  1.00  0.00    -0.304 N 
HETATM   32  C   UNL     1      -2.619   6.050 -33.464  1.00  0.00     0.247 C 
HETATM   33  O   UNL     1      -2.050   4.987 -33.692  1.00  0.00    -0.271 OA
HETATM   34  H   UNL     1      -4.156   7.196 -32.727  1.00  0.00     0.171 HD
BRANCH  32  35
HETATM   35  C   UNL     1      -1.994   7.377 -33.905  1.00  0.00     0.270 C 
BRANCH  35  36
HETATM   36  O   UNL     1      -1.823   8.299 -32.832  1.00  0.00    -0.387 OA
HETATM   37  C   UNL     1      -1.087   7.731 -31.754  1.00  0.00     0.202 C 
ENDBRANCH  35  36
ENDBRANCH  32  35
ENDBRANCH   7  31
BRANCH  13  38
HETATM   38  O   UNL     1      -7.707  -1.290 -33.775  1.00  0.00    -0.395 OA
HETATM   39  H   UNL     1      -8.497  -1.821 -33.988  1.00  0.00     0.210 HD
ENDBRANCH  13  38
TORSDOF 10
ENDMDL
MODEL 10
REMARK VINA RESULT:      -7.3      2.423      7.822
REMARK  10 active torsions:
REMARK  status: ('A' for Active; 'I' for Inactive)
REMARK    1  A    between atoms: C_3  and  C_4 
REMARK    2  A    between atoms: C_4  and  C_5 
REMARK       I    between atoms: C_5  and  N_6 
REMARK    3  A    between atoms: N_6  and  C_7 
REMARK    4  A    between atoms: C_7  and  C_8 
REMARK    5  A    between atoms: C_18  and  N_19 
REMARK       I    between atoms: N_19  and  C_20 
REMARK    6  A    between atoms: C_20  and  C_21 
REMARK    7  A    between atoms: C_21  and  O_22 
REMARK    8  A    between atoms: C_28  and  C_29 
REMARK    9  A    between atoms: C_29  and  O_30 
REMARK   10  A    between atoms: C_32  and  O_33 
ROOT
HETATM    1  C   UNL     1      -5.688   4.434 -29.308  1.00  0.00     0.016 C 
HETATM    2  C   UNL     1      -6.099   4.755 -30.789  1.00  0.00    -0.030 C 
HETATM    3  C   UNL     1      -5.158   3.805 -31.689  1.00  0.00     0.056 C 
HETATM    4  C   UNL     1      -5.857   2.503 -32.031  1.00  0.00     0.056 A 
HETATM    5  C   UNL     1      -7.114   2.156 -31.587  1.00  0.00     0.012 A 
HETATM    6  S   UNL     1      -7.536   0.606 -32.144  1.00  0.00    -0.055 SA
HETATM    7  C   UNL     1      -6.049   0.504 -32.966  1.00  0.00     0.174 A 
HETATM    8  N   UNL     1      -5.255   1.547 -32.839  1.00  0.00    -0.227 NA
HETATM    9  C   UNL     1      -8.010   2.981 -30.746  1.00  0.00     0.055 C 
HETATM   10  C   UNL     1      -7.668   4.486 -30.898  1.00  0.00     0.012 C 
HETATM   11  C   UNL     1      -8.438   5.216 -32.077  1.00  0.00     0.008 C 
HETATM   12  C   UNL     1      -9.970   5.175 -31.798  1.00  0.00     0.020 C 
HETATM   13  C   UNL     1      -8.030   6.721 -32.084  1.00  0.00     0.128 C 
HETATM   14  C   UNL     1      -6.523   6.928 -32.136  1.00  0.00     0.033 C 
HETATM   15  C   UNL     1      -5.830   6.275 -30.949  1.00  0.00     0.013 C 
ENDROOT
BRANCH   3  16
HETATM   16  C   UNL     1      -4.488   4.436 -32.924  1.00  0.00     0.114 C 
BRANCH  16  17
HETATM   17  C   UNL     1      -2.996   4.630 -32.722  1.00  0.00     0.218 C 
HETATM   18  N   UNL     1      -2.564   5.909 -32.953  1.00  0.00    -0.357 N 
HETATM   19  H   UNL     1      -3.125   6.443 -33.614  1.00  0.00     0.162 HD
HETATM   20  O   UNL     1      -2.264   3.714 -32.362  1.00  0.00    -0.274 OA
BRANCH  18  21
HETATM   21  C   UNL     1      -1.172   6.266 -32.841  1.00  0.00     0.161 C 
BRANCH  21  22
HETATM   22  C   UNL     1      -0.902   6.866 -31.488  1.00  0.00    -0.041 A 
HETATM   23  C   UNL     1      -1.850   7.717 -30.899  1.00  0.00     0.009 A 
HETATM   24  C   UNL     1      -1.600   8.311 -29.661  1.00  0.00     0.001 A 
HETATM   25  C   UNL     1      -0.400   8.060 -29.000  1.00  0.00     0.000 A 
HETATM   26  C   UNL     1       0.548   7.216 -29.576  1.00  0.00     0.001 A 
HETATM   27  C   UNL     1       0.300   6.621 -30.814  1.00  0.00     0.009 A 
ENDBRANCH  21  22
ENDBRANCH  18  21
ENDBRANCH  16  17
ENDBRANCH   3  16
BRANCH  11  28
HETATM   28  C   UNL     1      -8.218   4.560 -33.465  1.00  0.00     0.176 C 
BRANCH  28  29
HETATM   29  O   UNL     1      -7.331   5.301 -34.298  1.00  0.00    -0.400 OA
HETATM   30  H   UNL     1      -7.730   6.191 -34.406  1.00  0.00     0.209 HD
ENDBRANCH  28  29
ENDBRANCH  11  28
BRANCH   7  31
HETATM   31  N   UNL     1      -5.695  -0.582 -33.723  1.00  0.00    -0.304 N 
HETATM   32  C   UNL     1      -4.817  -1.588 -33.382  1.00  0.00     0.247 C 
HETATM   33  O   UNL     1      -4.179  -1.709 -32.340  1.00  0.00    -0.271 OA
HETATM   34  H   UNL     1      -6.123  -0.625 -34.641  1.00  0.00     0.171 HD
BRANCH  32  35
HETATM   35  C   UNL     1      -4.725  -2.653 -34.479  1.00  0.00     0.270 C 
BRANCH  35  36
HETATM   36  O   UNL     1      -5.999  -3.090 -34.944  1.00  0.00    -0.387 OA
HETATM   37  C   UNL     1      -6.086  -4.511 -34.999  1.00  0.00     0.202 C 
ENDBRANCH  35  36
ENDBRANCH  32  35
ENDBRANCH   7  31
BRANCH  13  38
HETATM   38  O   UNL     1      -8.610   7.401 -33.199  1.00  0.00    -0.395 OA
HETATM   39  H   UNL     1      -9.478   7.744 -32.914  1.00  0.00     0.210 HD
ENDBRANCH  13  38
TORSDOF 10
ENDMDL
