MODEL 1
REMARK VINA RESULT:      -9.2      0.000      0.000
REMARK  3 active torsions:
REMARK  status: ('A' for Active; 'I' for Inactive)
REMARK    1  A    between atoms: C_6  and  C_7 
REMARK       I    between atoms: C_7  and  N_8 
REMARK    2  A    between atoms: N_8  and  C_9 
REMARK    3  A    between atoms: C_14  and  C_15 
ROOT
HETATM    1  C   UNL     1      -3.748   2.880 -31.858  1.00  0.00     0.037 A 
HETATM    2  C   UNL     1      -3.350   1.550 -32.042  1.00  0.00     0.061 A 
HETATM    3  C   UNL     1      -4.256   0.693 -32.676  1.00  0.00     0.065 A 
HETATM    4  C   UNL     1      -5.512   1.090 -33.116  1.00  0.00     0.086 A 
HETATM    5  N   UNL     1      -6.187   0.045 -33.696  1.00  0.00    -0.226 NA
HETATM    6  C   UNL     1      -5.363  -0.981 -33.625  1.00  0.00     0.163 A 
HETATM    7  N   UNL     1      -4.186  -0.633 -33.016  1.00  0.00    -0.337 N 
HETATM    8  H   UNL     1      -3.410  -1.259 -32.855  1.00  0.00     0.167 HD
HETATM    9  C   UNL     1      -5.906   2.421 -32.925  1.00  0.00     0.036 A 
HETATM   10  C   UNL     1      -5.013   3.304 -32.297  1.00  0.00     0.032 A 
ENDROOT
BRANCH   1  11
HETATM   11  N   UNL     1      -2.934   3.844 -31.233  1.00  0.00    -0.321 N 
HETATM   12  C   UNL     1      -1.980   4.650 -31.825  1.00  0.00     0.280 C 
HETATM   13  O   UNL     1      -1.683   4.744 -33.005  1.00  0.00    -0.265 OA
HETATM   14  H   UNL     1      -3.094   4.022 -30.246  1.00  0.00     0.169 HD
BRANCH  12  15
HETATM   15  C   UNL     1      -1.278   5.544 -30.820  1.00  0.00     0.193 A 
HETATM   16  C   UNL     1       0.186   5.340 -30.472  1.00  0.00     0.280 A 
HETATM   17  N   UNL     1       0.697   6.274 -29.605  1.00  0.00    -0.324 N 
HETATM   18  O   UNL     1       0.832   4.396 -30.896  1.00  0.00    -0.265 OA
HETATM   19  C   UNL     1      -0.072   7.272 -29.057  1.00  0.00     0.033 A 
HETATM   20  H   UNL     1       1.674   6.169 -29.362  1.00  0.00     0.169 HD
HETATM   21  C   UNL     1       0.632   8.207 -28.115  1.00  0.00     0.070 C 
HETATM   22  C   UNL     1      -1.384   7.345 -29.378  1.00  0.00     0.054 A 
HETATM   23  N   UNL     1      -2.005   6.477 -30.255  1.00  0.00    -0.241 NA
HETATM   24  C   UNL     1      -2.306   8.409 -28.837  1.00  0.00     0.072 C 
ENDBRANCH  12  15
ENDBRANCH   1  11
BRANCH   6  25
HETATM   25  C   UNL     1      -5.617  -2.300 -34.107  1.00  0.00     0.120 A 
HETATM   26  O   UNL     1      -4.655  -3.280 -34.135  1.00  0.00    -0.319 OA
HETATM   27  C   UNL     1      -5.223  -4.399 -34.651  1.00  0.00     0.142 A 
HETATM   28  C   UNL     1      -6.541  -4.171 -34.959  1.00  0.00     0.027 A 
HETATM   29  C   UNL     1      -6.795  -2.823 -34.612  1.00  0.00     0.043 A 
ENDBRANCH   6  25
TORSDOF 3
ENDMDL
MODEL 2
REMARK VINA RESULT:      -8.8      1.370      1.892
REMARK  3 active torsions:
REMARK  status: ('A' for Active; 'I' for Inactive)
REMARK    1  A    between atoms: C_6  and  C_7 
REMARK       I    between atoms: C_7  and  N_8 
REMARK    2  A    between atoms: N_8  and  C_9 
REMARK    3  A    between atoms: C_14  and  C_15 
ROOT
HETATM    1  C   UNL     1      -3.889   2.403 -32.165  1.00  0.00     0.037 A 
HETATM    2  C   UNL     1      -3.398   1.143 -32.530  1.00  0.00     0.061 A 
HETATM    3  C   UNL     1      -4.321   0.213 -33.019  1.00  0.00     0.065 A 
HETATM    4  C   UNL     1      -5.680   0.473 -33.148  1.00  0.00     0.086 A 
HETATM    5  N   UNL     1      -6.348  -0.618 -33.648  1.00  0.00    -0.226 NA
HETATM    6  C   UNL     1      -5.421  -1.536 -33.833  1.00  0.00     0.163 A 
HETATM    7  N   UNL     1      -4.184  -1.076 -33.466  1.00  0.00    -0.337 N 
HETATM    8  H   UNL     1      -3.327  -1.607 -33.522  1.00  0.00     0.167 HD
HETATM    9  C   UNL     1      -6.166   1.734 -32.778  1.00  0.00     0.036 A 
HETATM   10  C   UNL     1      -5.258   2.688 -32.290  1.00  0.00     0.032 A 
ENDROOT
BRANCH   1  11
HETATM   11  N   UNL     1      -3.068   3.427 -31.657  1.00  0.00    -0.321 N 
HETATM   12  C   UNL     1      -2.279   4.307 -32.376  1.00  0.00     0.280 C 
HETATM   13  O   UNL     1      -2.172   4.424 -33.586  1.00  0.00    -0.265 OA
HETATM   14  H   UNL     1      -3.091   3.591 -30.655  1.00  0.00     0.169 HD
BRANCH  12  15
HETATM   15  C   UNL     1      -1.506   5.253 -31.476  1.00  0.00     0.193 A 
HETATM   16  C   UNL     1      -1.812   6.740 -31.448  1.00  0.00     0.280 A 
HETATM   17  N   UNL     1      -1.079   7.450 -30.529  1.00  0.00    -0.324 N 
HETATM   18  O   UNL     1      -2.608   7.256 -32.214  1.00  0.00    -0.265 OA
HETATM   19  C   UNL     1      -0.112   6.868 -29.746  1.00  0.00     0.033 A 
HETATM   20  H   UNL     1      -1.268   8.444 -30.482  1.00  0.00     0.169 HD
HETATM   21  C   UNL     1       0.610   7.784 -28.799  1.00  0.00     0.070 C 
HETATM   22  C   UNL     1       0.134   5.545 -29.877  1.00  0.00     0.054 A 
HETATM   23  N   UNL     1      -0.551   4.723 -30.751  1.00  0.00    -0.241 NA
HETATM   24  C   UNL     1       1.168   4.814 -29.055  1.00  0.00     0.072 C 
ENDBRANCH  12  15
ENDBRANCH   1  11
BRANCH   6  25
HETATM   25  C   UNL     1      -5.629  -2.850 -34.349  1.00  0.00     0.120 A 
HETATM   26  O   UNL     1      -6.810  -3.243 -34.930  1.00  0.00    -0.319 OA
HETATM   27  C   UNL     1      -6.673  -4.540 -35.302  1.00  0.00     0.142 A 
HETATM   28  C   UNL     1      -5.422  -5.004 -34.979  1.00  0.00     0.027 A 
HETATM   29  C   UNL     1      -4.751  -3.920 -34.365  1.00  0.00     0.043 A 
ENDBRANCH   6  25
TORSDOF 3
ENDMDL
MODEL 3
REMARK VINA RESULT:      -8.5      2.020      9.726
REMARK  3 active torsions:
REMARK  status: ('A' for Active; 'I' for Inactive)
REMARK    1  A    between atoms: C_6  and  C_7 
REMARK       I    between atoms: C_7  and  N_8 
REMARK    2  A    between atoms: N_8  and  C_9 
REMARK    3  A    between atoms: C_14  and  C_15 
ROOT
HETATM    1  C   UNL     1      -2.621   3.869 -32.437  1.00  0.00     0.037 A 
HETATM    2  C   UNL     1      -2.422   4.193 -31.089  1.00  0.00     0.061 A 
HETATM    3  C   UNL     1      -1.701   5.359 -30.811  1.00  0.00     0.065 A 
HETATM    4  C   UNL     1      -1.175   6.190 -31.792  1.00  0.00     0.086 A 
HETATM    5  N   UNL     1      -0.512   7.256 -31.235  1.00  0.00    -0.226 NA
HETATM    6  C   UNL     1      -0.631   7.095 -29.932  1.00  0.00     0.163 A 
HETATM    7  N   UNL     1      -1.341   5.962 -29.634  1.00  0.00    -0.337 N 
HETATM    8  H   UNL     1      -1.555   5.641 -28.700  1.00  0.00     0.167 HD
HETATM    9  C   UNL     1      -1.374   5.858 -33.138  1.00  0.00     0.036 A 
HETATM   10  C   UNL     1      -2.101   4.696 -33.445  1.00  0.00     0.032 A 
ENDROOT
BRANCH   1  11
HETATM   11  N   UNL     1      -3.327   2.724 -32.853  1.00  0.00    -0.321 N 
HETATM   12  C   UNL     1      -4.602   2.340 -32.479  1.00  0.00     0.280 C 
HETATM   13  O   UNL     1      -5.401   2.929 -31.770  1.00  0.00    -0.265 OA
HETATM   14  H   UNL     1      -2.888   2.133 -33.552  1.00  0.00     0.169 HD
BRANCH  12  15
HETATM   15  C   UNL     1      -5.014   1.022 -33.110  1.00  0.00     0.193 A 
HETATM   16  C   UNL     1      -4.190  -0.237 -32.910  1.00  0.00     0.280 A 
HETATM   17  N   UNL     1      -4.732  -1.363 -33.479  1.00  0.00    -0.324 N 
HETATM   18  O   UNL     1      -3.116  -0.230 -32.332  1.00  0.00    -0.265 OA
HETATM   19  C   UNL     1      -5.892  -1.334 -34.215  1.00  0.00     0.033 A 
HETATM   20  H   UNL     1      -4.209  -2.221 -33.355  1.00  0.00     0.169 HD
HETATM   21  C   UNL     1      -6.347  -2.648 -34.783  1.00  0.00     0.070 C 
HETATM   22  C   UNL     1      -6.532  -0.156 -34.390  1.00  0.00     0.054 A 
HETATM   23  N   UNL     1      -6.096   1.039 -33.849  1.00  0.00    -0.241 NA
HETATM   24  C   UNL     1      -7.816  -0.024 -35.172  1.00  0.00     0.072 C 
ENDBRANCH  12  15
ENDBRANCH   1  11
BRANCH   6  25
HETATM   25  C   UNL     1      -0.109   7.961 -28.926  1.00  0.00     0.120 A 
HETATM   26  O   UNL     1      -0.862   8.936 -28.319  1.00  0.00    -0.319 OA
HETATM   27  C   UNL     1      -0.067   9.573 -27.424  1.00  0.00     0.142 A 
HETATM   28  C   UNL     1       1.195   9.031 -27.430  1.00  0.00     0.027 A 
HETATM   29  C   UNL     1       1.169   7.996 -28.395  1.00  0.00     0.043 A 
ENDBRANCH   6  25
TORSDOF 3
ENDMDL
MODEL 4
REMARK VINA RESULT:      -8.2      2.787      9.494
REMARK  3 active torsions:
REMARK  status: ('A' for Active; 'I' for Inactive)
REMARK    1  A    between atoms: C_6  and  C_7 
REMARK       I    between atoms: C_7  and  N_8 
REMARK    2  A    between atoms: N_8  and  C_9 
REMARK    3  A    between atoms: C_14  and  C_15 
ROOT
HETATM    1  C   UNL     1      -2.911   3.941 -32.474  1.00  0.00     0.037 A 
HETATM    2  C   UNL     1      -3.520   4.742 -31.500  1.00  0.00     0.061 A 
HETATM    3  C   UNL     1      -3.307   6.122 -31.582  1.00  0.00     0.065 A 
HETATM    4  C   UNL     1      -2.527   6.723 -32.562  1.00  0.00     0.086 A 
HETATM    5  N   UNL     1      -2.489   8.086 -32.398  1.00  0.00    -0.226 NA
HETATM    6  C   UNL     1      -3.238   8.328 -31.341  1.00  0.00     0.163 A 
HETATM    7  N   UNL     1      -3.751   7.171 -30.818  1.00  0.00    -0.337 N 
HETATM    8  H   UNL     1      -4.352   7.117 -30.009  1.00  0.00     0.167 HD
HETATM    9  C   UNL     1      -1.917   5.916 -33.531  1.00  0.00     0.036 A 
HETATM   10  C   UNL     1      -2.120   4.527 -33.474  1.00  0.00     0.032 A 
ENDROOT
BRANCH   1  11
HETATM   11  N   UNL     1      -3.042   2.540 -32.504  1.00  0.00    -0.321 N 
HETATM   12  C   UNL     1      -4.213   1.804 -32.491  1.00  0.00     0.280 C 
HETATM   13  O   UNL     1      -5.367   2.202 -32.512  1.00  0.00    -0.265 OA
HETATM   14  H   UNL     1      -2.193   1.992 -32.607  1.00  0.00     0.169 HD
BRANCH  12  15
HETATM   15  C   UNL     1      -3.954   0.309 -32.499  1.00  0.00     0.193 A 
HETATM   16  C   UNL     1      -2.970  -0.324 -31.531  1.00  0.00     0.280 A 
HETATM   17  N   UNL     1      -2.902  -1.693 -31.609  1.00  0.00    -0.324 N 
HETATM   18  O   UNL     1      -2.270   0.340 -30.784  1.00  0.00    -0.265 OA
HETATM   19  C   UNL     1      -3.622  -2.418 -32.527  1.00  0.00     0.033 A 
HETATM   20  H   UNL     1      -2.260  -2.144 -30.969  1.00  0.00     0.169 HD
HETATM   21  C   UNL     1      -3.427  -3.907 -32.495  1.00  0.00     0.070 C 
HETATM   22  C   UNL     1      -4.433  -1.766 -33.391  1.00  0.00     0.054 A 
HETATM   23  N   UNL     1      -4.602  -0.394 -33.395  1.00  0.00    -0.241 NA
HETATM   24  C   UNL     1      -5.272  -2.473 -34.428  1.00  0.00     0.072 C 
ENDBRANCH  12  15
ENDBRANCH   1  11
BRANCH   6  25
HETATM   25  C   UNL     1      -3.512   9.611 -30.780  1.00  0.00     0.120 A 
HETATM   26  O   UNL     1      -4.644  10.329 -31.080  1.00  0.00    -0.319 OA
HETATM   27  C   UNL     1      -4.588  11.494 -30.386  1.00  0.00     0.142 A 
HETATM   28  C   UNL     1      -3.441  11.551 -29.633  1.00  0.00     0.027 A 
HETATM   29  C   UNL     1      -2.749  10.343 -29.886  1.00  0.00     0.043 A 
ENDBRANCH   6  25
TORSDOF 3
ENDMDL
MODEL 5
REMARK VINA RESULT:      -8.1      4.434      5.389
REMARK  3 active torsions:
REMARK  status: ('A' for Active; 'I' for Inactive)
REMARK    1  A    between atoms: C_6  and  C_7 
REMARK       I    between atoms: C_7  and  N_8 
REMARK    2  A    between atoms: N_8  and  C_9 
REMARK    3  A    between atoms: C_14  and  C_15 
ROOT
HETATM    1  C   UNL     1      -6.630   2.921 -33.226  1.00  0.00     0.037 A 
HETATM    2  C   UNL     1      -7.893   3.263 -32.726  1.00  0.00     0.061 A 
HETATM    3  C   UNL     1      -8.985   2.518 -33.181  1.00  0.00     0.065 A 
HETATM    4  C   UNL     1      -8.878   1.478 -34.096  1.00  0.00     0.086 A 
HETATM    5  N   UNL     1     -10.108   0.928 -34.366  1.00  0.00    -0.226 NA
HETATM    6  C   UNL     1     -10.960   1.608 -33.627  1.00  0.00     0.163 A 
HETATM    7  N   UNL     1     -10.325   2.577 -32.897  1.00  0.00    -0.337 N 
HETATM    8  H   UNL     1     -10.780   3.216 -32.261  1.00  0.00     0.167 HD
HETATM    9  C   UNL     1      -7.613   1.143 -34.596  1.00  0.00     0.036 A 
HETATM   10  C   UNL     1      -6.499   1.872 -34.149  1.00  0.00     0.032 A 
ENDROOT
BRANCH   1  11
HETATM   11  N   UNL     1      -5.450   3.592 -32.851  1.00  0.00    -0.321 N 
HETATM   12  C   UNL     1      -4.765   4.553 -33.571  1.00  0.00     0.280 C 
HETATM   13  O   UNL     1      -5.058   5.062 -34.640  1.00  0.00    -0.265 OA
HETATM   14  H   UNL     1      -5.081   3.405 -31.923  1.00  0.00     0.169 HD
BRANCH  12  15
HETATM   15  C   UNL     1      -3.512   5.023 -32.855  1.00  0.00     0.193 A 
HETATM   16  C   UNL     1      -2.556   4.035 -32.210  1.00  0.00     0.280 A 
HETATM   17  N   UNL     1      -1.432   4.608 -31.669  1.00  0.00    -0.324 N 
HETATM   18  O   UNL     1      -2.798   2.841 -32.142  1.00  0.00    -0.265 OA
HETATM   19  C   UNL     1      -1.223   5.966 -31.663  1.00  0.00     0.033 A 
HETATM   20  H   UNL     1      -0.771   3.972 -31.239  1.00  0.00     0.169 HD
HETATM   21  C   UNL     1       0.050   6.436 -31.019  1.00  0.00     0.070 C 
HETATM   22  C   UNL     1      -2.156   6.778 -32.210  1.00  0.00     0.054 A 
HETATM   23  N   UNL     1      -3.316   6.317 -32.803  1.00  0.00    -0.241 NA
HETATM   24  C   UNL     1      -2.014   8.279 -32.261  1.00  0.00     0.072 C 
ENDBRANCH  12  15
ENDBRANCH   1  11
BRANCH   6  25
HETATM   25  C   UNL     1     -12.370   1.397 -33.560  1.00  0.00     0.120 A 
HETATM   26  O   UNL     1     -13.248   2.366 -33.135  1.00  0.00    -0.319 OA
HETATM   27  C   UNL     1     -14.497   1.840 -33.188  1.00  0.00     0.142 A 
HETATM   28  C   UNL     1     -14.456   0.545 -33.644  1.00  0.00     0.027 A 
HETATM   29  C   UNL     1     -13.090   0.259 -33.881  1.00  0.00     0.043 A 
ENDBRANCH   6  25
TORSDOF 3
ENDMDL
MODEL 6
REMARK VINA RESULT:      -7.9      5.799      9.644
REMARK  3 active torsions:
REMARK  status: ('A' for Active; 'I' for Inactive)
REMARK    1  A    between atoms: C_6  and  C_7 
REMARK       I    between atoms: C_7  and  N_8 
REMARK    2  A    between atoms: N_8  and  C_9 
REMARK    3  A    between atoms: C_14  and  C_15 
ROOT
HETATM    1  C   UNL     1      -8.137   1.201 -32.500  1.00  0.00     0.037 A 
HETATM    2  C   UNL     1      -9.496   1.194 -32.842  1.00  0.00     0.061 A 
HETATM    3  C   UNL     1     -10.264   2.288 -32.431  1.00  0.00     0.065 A 
HETATM    4  C   UNL     1      -9.754   3.357 -31.707  1.00  0.00     0.086 A 
HETATM    5  N   UNL     1     -10.731   4.285 -31.437  1.00  0.00    -0.226 NA
HETATM    6  C   UNL     1     -11.825   3.804 -31.991  1.00  0.00     0.163 A 
HETATM    7  N   UNL     1     -11.588   2.600 -32.601  1.00  0.00    -0.337 N 
HETATM    8  H   UNL     1     -12.281   2.051 -33.089  1.00  0.00     0.167 HD
HETATM    9  C   UNL     1      -8.395   3.356 -31.365  1.00  0.00     0.036 A 
HETATM   10  C   UNL     1      -7.600   2.272 -31.771  1.00  0.00     0.032 A 
ENDROOT
BRANCH   1  11
HETATM   11  N   UNL     1      -7.255   0.161 -32.850  1.00  0.00    -0.321 N 
HETATM   12  C   UNL     1      -6.767  -0.142 -34.108  1.00  0.00     0.280 C 
HETATM   13  O   UNL     1      -6.944   0.451 -35.159  1.00  0.00    -0.265 OA
HETATM   14  H   UNL     1      -6.877  -0.405 -32.095  1.00  0.00     0.169 HD
BRANCH  12  15
HETATM   15  C   UNL     1      -5.863  -1.360 -34.097  1.00  0.00     0.193 A 
HETATM   16  C   UNL     1      -4.521  -1.339 -33.386  1.00  0.00     0.280 A 
HETATM   17  N   UNL     1      -3.855  -2.539 -33.401  1.00  0.00    -0.324 N 
HETATM   18  O   UNL     1      -4.063  -0.324 -32.889  1.00  0.00    -0.265 OA
HETATM   19  C   UNL     1      -4.339  -3.646 -34.055  1.00  0.00     0.033 A 
HETATM   20  H   UNL     1      -2.960  -2.557 -32.927  1.00  0.00     0.169 HD
HETATM   21  C   UNL     1      -3.484  -4.879 -33.989  1.00  0.00     0.070 C 
HETATM   22  C   UNL     1      -5.518  -3.559 -34.712  1.00  0.00     0.054 A 
HETATM   23  N   UNL     1      -6.289  -2.413 -34.750  1.00  0.00    -0.241 NA
HETATM   24  C   UNL     1      -6.137  -4.721 -35.450  1.00  0.00     0.072 C 
ENDBRANCH  12  15
ENDBRANCH   1  11
BRANCH   6  25
HETATM   25  C   UNL     1     -13.112   4.420 -31.984  1.00  0.00     0.120 A 
HETATM   26  O   UNL     1     -13.307   5.740 -32.313  1.00  0.00    -0.319 OA
HETATM   27  C   UNL     1     -14.633   6.000 -32.200  1.00  0.00     0.142 A 
HETATM   28  C   UNL     1     -15.313   4.874 -31.807  1.00  0.00     0.027 A 
HETATM   29  C   UNL     1     -14.337   3.859 -31.667  1.00  0.00     0.043 A 
ENDBRANCH   6  25
TORSDOF 3
ENDMDL
MODEL 7
REMARK VINA RESULT:      -7.9      2.369      3.440
REMARK  3 active torsions:
REMARK  status: ('A' for Active; 'I' for Inactive)
REMARK    1  A    between atoms: C_6  and  C_7 
REMARK       I    between atoms: C_7  and  N_8 
REMARK    2  A    between atoms: N_8  and  C_9 
REMARK    3  A    between atoms: C_14  and  C_15 
ROOT
HETATM    1  C   UNL     1      -4.496   2.702 -32.103  1.00  0.00     0.037 A 
HETATM    2  C   UNL     1      -5.310   1.993 -32.995  1.00  0.00     0.061 A 
HETATM    3  C   UNL     1      -5.095   0.614 -33.100  1.00  0.00     0.065 A 
HETATM    4  C   UNL     1      -4.124  -0.069 -32.379  1.00  0.00     0.086 A 
HETATM    5  N   UNL     1      -4.133  -1.409 -32.683  1.00  0.00    -0.226 NA
HETATM    6  C   UNL     1      -5.097  -1.556 -33.569  1.00  0.00     0.163 A 
HETATM    7  N   UNL     1      -5.703  -0.359 -33.849  1.00  0.00    -0.337 N 
HETATM    8  H   UNL     1      -6.467  -0.234 -34.498  1.00  0.00     0.167 HD
HETATM    9  C   UNL     1      -3.311   0.647 -31.491  1.00  0.00     0.036 A 
HETATM   10  C   UNL     1      -3.510   2.031 -31.363  1.00  0.00     0.032 A 
ENDROOT
BRANCH   1  11
HETATM   11  N   UNL     1      -4.608   4.092 -31.905  1.00  0.00    -0.321 N 
HETATM   12  C   UNL     1      -4.008   5.097 -32.641  1.00  0.00     0.280 C 
HETATM   13  O   UNL     1      -3.313   5.003 -33.640  1.00  0.00    -0.265 OA
HETATM   14  H   UNL     1      -5.244   4.411 -31.181  1.00  0.00     0.169 HD
BRANCH  12  15
HETATM   15  C   UNL     1      -4.336   6.478 -32.104  1.00  0.00     0.193 A 
HETATM   16  C   UNL     1      -5.775   6.932 -31.928  1.00  0.00     0.280 A 
HETATM   17  N   UNL     1      -5.909   8.175 -31.361  1.00  0.00    -0.324 N 
HETATM   18  O   UNL     1      -6.721   6.261 -32.304  1.00  0.00    -0.265 OA
HETATM   19  C   UNL     1      -4.829   8.961 -31.038  1.00  0.00     0.033 A 
HETATM   20  H   UNL     1      -6.857   8.502 -31.223  1.00  0.00     0.169 HD
HETATM   21  C   UNL     1      -5.144  10.302 -30.439  1.00  0.00     0.070 C 
HETATM   22  C   UNL     1      -3.582   8.499 -31.282  1.00  0.00     0.054 A 
HETATM   23  N   UNL     1      -3.320   7.257 -31.828  1.00  0.00    -0.241 NA
HETATM   24  C   UNL     1      -2.334   9.282 -30.953  1.00  0.00     0.072 C 
ENDBRANCH  12  15
ENDBRANCH   1  11
BRANCH   6  25
HETATM   25  C   UNL     1      -5.497  -2.780 -34.183  1.00  0.00     0.120 A 
HETATM   26  O   UNL     1      -4.662  -3.866 -34.288  1.00  0.00    -0.319 OA
HETATM   27  C   UNL     1      -5.347  -4.851 -34.922  1.00  0.00     0.142 A 
HETATM   28  C   UNL     1      -6.618  -4.432 -35.230  1.00  0.00     0.027 A 
HETATM   29  C   UNL     1      -6.714  -3.101 -34.758  1.00  0.00     0.043 A 
ENDBRANCH   6  25
TORSDOF 3
ENDMDL
MODEL 8
REMARK VINA RESULT:      -7.8      5.864      8.600
REMARK  3 active torsions:
REMARK  status: ('A' for Active; 'I' for Inactive)
REMARK    1  A    between atoms: C_6  and  C_7 
REMARK       I    between atoms: C_7  and  N_8 
REMARK    2  A    between atoms: N_8  and  C_9 
REMARK    3  A    between atoms: C_14  and  C_15 
ROOT
HETATM    1  C   UNL     1      -8.254   1.854 -34.355  1.00  0.00     0.037 A 
HETATM    2  C   UNL     1      -8.307   0.495 -34.689  1.00  0.00     0.061 A 
HETATM    3  C   UNL     1      -7.181  -0.281 -34.393  1.00  0.00     0.065 A 
HETATM    4  C   UNL     1      -6.031   0.227 -33.802  1.00  0.00     0.086 A 
HETATM    5  N   UNL     1      -5.086  -0.755 -33.633  1.00  0.00    -0.226 NA
HETATM    6  C   UNL     1      -5.641  -1.854 -34.103  1.00  0.00     0.163 A 
HETATM    7  N   UNL     1      -6.905  -1.612 -34.572  1.00  0.00    -0.337 N 
HETATM    8  H   UNL     1      -7.517  -2.307 -34.976  1.00  0.00     0.167 HD
HETATM    9  C   UNL     1      -5.983   1.588 -33.474  1.00  0.00     0.036 A 
HETATM   10  C   UNL     1      -7.103   2.387 -33.754  1.00  0.00     0.032 A 
ENDROOT
BRANCH   1  11
HETATM   11  N   UNL     1      -9.317   2.744 -34.600  1.00  0.00    -0.321 N 
HETATM   12  C   UNL     1     -10.267   3.187 -33.699  1.00  0.00     0.280 C 
HETATM   13  O   UNL     1     -10.356   2.956 -32.504  1.00  0.00    -0.265 OA
HETATM   14  H   UNL     1      -9.371   3.164 -35.523  1.00  0.00     0.169 HD
BRANCH  12  15
HETATM   15  C   UNL     1     -11.279   4.118 -34.342  1.00  0.00     0.193 A 
HETATM   16  C   UNL     1     -12.748   3.742 -34.434  1.00  0.00     0.280 A 
HETATM   17  N   UNL     1     -13.548   4.719 -34.973  1.00  0.00    -0.324 N 
HETATM   18  O   UNL     1     -13.162   2.645 -34.099  1.00  0.00    -0.265 OA
HETATM   19  C   UNL     1     -13.048   5.910 -35.441  1.00  0.00     0.033 A 
HETATM   20  H   UNL     1     -14.535   4.500 -35.039  1.00  0.00     0.169 HD
HETATM   21  C   UNL     1     -14.053   6.869 -36.014  1.00  0.00     0.070 C 
HETATM   22  C   UNL     1     -11.717   6.138 -35.371  1.00  0.00     0.054 A 
HETATM   23  N   UNL     1     -10.815   5.242 -34.831  1.00  0.00    -0.241 NA
HETATM   24  C   UNL     1     -11.075   7.418 -35.848  1.00  0.00     0.072 C 
ENDBRANCH  12  15
ENDBRANCH   1  11
BRANCH   6  25
HETATM   25  C   UNL     1      -5.045  -3.150 -34.138  1.00  0.00     0.120 A 
HETATM   26  O   UNL     1      -3.830  -3.426 -33.559  1.00  0.00    -0.319 OA
HETATM   27  C   UNL     1      -3.558  -4.736 -33.779  1.00  0.00     0.142 A 
HETATM   28  C   UNL     1      -4.575  -5.327 -34.488  1.00  0.00     0.027 A 
HETATM   29  C   UNL     1      -5.529  -4.308 -34.721  1.00  0.00     0.043 A 
ENDBRANCH   6  25
TORSDOF 3
ENDMDL
MODEL 9
REMARK VINA RESULT:      -7.8      6.349      9.311
REMARK  3 active torsions:
REMARK  status: ('A' for Active; 'I' for Inactive)
REMARK    1  A    between atoms: C_6  and  C_7 
REMARK       I    between atoms: C_7  and  N_8 
REMARK    2  A    between atoms: N_8  and  C_9 
REMARK    3  A    between atoms: C_14  and  C_15 
ROOT
HETATM    1  C   UNL     1      -9.379   1.426 -33.282  1.00  0.00     0.037 A 
HETATM    2  C   UNL     1      -9.245   0.032 -33.238  1.00  0.00     0.061 A 
HETATM    3  C   UNL     1      -7.998  -0.502 -33.578  1.00  0.00     0.065 A 
HETATM    4  C   UNL     1      -6.909   0.270 -33.959  1.00  0.00     0.086 A 
HETATM    5  N   UNL     1      -5.818  -0.516 -34.241  1.00  0.00    -0.226 NA
HETATM    6  C   UNL     1      -6.221  -1.753 -34.031  1.00  0.00     0.163 A 
HETATM    7  N   UNL     1      -7.530  -1.789 -33.630  1.00  0.00    -0.337 N 
HETATM    8  H   UNL     1      -8.047  -2.630 -33.413  1.00  0.00     0.167 HD
HETATM    9  C   UNL     1      -7.050   1.663 -34.005  1.00  0.00     0.036 A 
HETATM   10  C   UNL     1      -8.290   2.226 -33.662  1.00  0.00     0.032 A 
ENDROOT
BRANCH   1  11
HETATM   11  N   UNL     1     -10.579   2.090 -32.966  1.00  0.00    -0.321 N 
HETATM   12  C   UNL     1     -11.729   2.159 -33.730  1.00  0.00     0.280 C 
HETATM   13  O   UNL     1     -11.971   1.620 -34.798  1.00  0.00    -0.265 OA
HETATM   14  H   UNL     1     -10.646   2.524 -32.049  1.00  0.00     0.169 HD
BRANCH  12  15
HETATM   15  C   UNL     1     -12.808   2.999 -33.072  1.00  0.00     0.193 A 
HETATM   16  C   UNL     1     -12.566   4.455 -32.717  1.00  0.00     0.280 A 
HETATM   17  N   UNL     1     -13.662   5.099 -32.198  1.00  0.00    -0.324 N 
HETATM   18  O   UNL     1     -11.475   4.984 -32.842  1.00  0.00    -0.265 OA
HETATM   19  C   UNL     1     -14.856   4.460 -31.967  1.00  0.00     0.033 A 
HETATM   20  H   UNL     1     -13.533   6.075 -31.959  1.00  0.00     0.169 HD
HETATM   21  C   UNL     1     -15.954   5.301 -31.382  1.00  0.00     0.070 C 
HETATM   22  C   UNL     1     -14.965   3.144 -32.261  1.00  0.00     0.054 A 
HETATM   23  N   UNL     1     -13.941   2.395 -32.807  1.00  0.00    -0.241 NA
HETATM   24  C   UNL     1     -16.236   2.357 -32.054  1.00  0.00     0.072 C 
ENDBRANCH  12  15
ENDBRANCH   1  11
BRANCH   6  25
HETATM   25  C   UNL     1      -5.432  -2.932 -34.184  1.00  0.00     0.120 A 
HETATM   26  O   UNL     1      -4.132  -3.020 -33.747  1.00  0.00    -0.319 OA
HETATM   27  C   UNL     1      -3.680  -4.262 -34.051  1.00  0.00     0.142 A 
HETATM   28  C   UNL     1      -4.660  -4.992 -34.677  1.00  0.00     0.027 A 
HETATM   29  C   UNL     1      -5.785  -4.138 -34.764  1.00  0.00     0.043 A 
ENDBRANCH   6  25
TORSDOF 3
ENDMDL
MODEL 10
REMARK VINA RESULT:      -7.7      2.746      3.238
REMARK  3 active torsions:
REMARK  status: ('A' for Active; 'I' for Inactive)
REMARK    1  A    between atoms: C_6  and  C_7 
REMARK       I    between atoms: C_7  and  N_8 
REMARK    2  A    between atoms: N_8  and  C_9 
REMARK    3  A    between atoms: C_14  and  C_15 
ROOT
HETATM    1  C   UNL     1      -5.543   3.445 -30.069  1.00  0.00     0.037 A 
HETATM    2  C   UNL     1      -4.747   2.560 -30.807  1.00  0.00     0.061 A 
HETATM    3  C   UNL     1      -5.399   1.521 -31.480  1.00  0.00     0.065 A 
HETATM    4  C   UNL     1      -6.774   1.326 -31.444  1.00  0.00     0.086 A 
HETATM    5  N   UNL     1      -7.139   0.232 -32.189  1.00  0.00    -0.226 NA
HETATM    6  C   UNL     1      -6.012  -0.240 -32.685  1.00  0.00     0.163 A 
HETATM    7  N   UNL     1      -4.939   0.509 -32.281  1.00  0.00    -0.337 N 
HETATM    8  H   UNL     1      -3.978   0.333 -32.540  1.00  0.00     0.167 HD
HETATM    9  C   UNL     1      -7.564   2.213 -30.701  1.00  0.00     0.036 A 
HETATM   10  C   UNL     1      -6.935   3.268 -30.021  1.00  0.00     0.032 A 
ENDROOT
BRANCH   1  11
HETATM   11  N   UNL     1      -5.013   4.530 -29.345  1.00  0.00    -0.321 N 
HETATM   12  C   UNL     1      -4.920   5.848 -29.752  1.00  0.00     0.280 C 
HETATM   13  O   UNL     1      -5.324   6.360 -30.783  1.00  0.00    -0.265 OA
HETATM   14  H   UNL     1      -4.715   4.353 -28.390  1.00  0.00     0.169 HD
BRANCH  12  15
HETATM   15  C   UNL     1      -4.255   6.727 -28.709  1.00  0.00     0.193 A 
HETATM   16  C   UNL     1      -4.608   6.605 -27.237  1.00  0.00     0.280 A 
HETATM   17  N   UNL     1      -3.868   7.414 -26.410  1.00  0.00    -0.324 N 
HETATM   18  O   UNL     1      -5.506   5.882 -26.838  1.00  0.00    -0.265 OA
HETATM   19  C   UNL     1      -2.930   8.298 -26.886  1.00  0.00     0.033 A 
HETATM   20  H   UNL     1      -4.075   7.348 -25.421  1.00  0.00     0.169 HD
HETATM   21  C   UNL     1      -2.215   9.123 -25.854  1.00  0.00     0.070 C 
HETATM   22  C   UNL     1      -2.721   8.382 -28.220  1.00  0.00     0.054 A 
HETATM   23  N   UNL     1      -3.388   7.605 -29.148  1.00  0.00    -0.241 NA
HETATM   24  C   UNL     1      -1.707   9.314 -28.837  1.00  0.00     0.072 C 
ENDBRANCH  12  15
ENDBRANCH   1  11
BRANCH   6  25
HETATM   25  C   UNL     1      -5.878  -1.376 -33.537  1.00  0.00     0.120 A 
HETATM   26  O   UNL     1      -4.664  -1.949 -33.828  1.00  0.00    -0.319 OA
HETATM   27  C   UNL     1      -4.892  -2.995 -34.661  1.00  0.00     0.142 A 
HETATM   28  C   UNL     1      -6.234  -3.120 -34.920  1.00  0.00     0.027 A 
HETATM   29  C   UNL     1      -6.868  -2.080 -34.200  1.00  0.00     0.043 A 
ENDBRANCH   6  25
TORSDOF 3
ENDMDL
