MODEL 1
REMARK VINA RESULT:      -8.3      0.000      0.000
REMARK  5 active torsions:
REMARK  status: ('A' for Active; 'I' for Inactive)
REMARK    1  A    between atoms: C_3  and  O_4 
REMARK    2  A    between atoms: C_5  and  C_6 
REMARK       I    between atoms: C_6  and  N_7 
REMARK    3  A    between atoms: N_7  and  C_8 
REMARK    4  A    between atoms: C_8  and  C_9 
REMARK    5  A    between atoms: C_9  and  C_10 
ROOT
HETATM    1  C   UNL     1      -9.602   0.361 -32.842  1.00  0.00     0.254 C 
HETATM    2  N   UNL     1      -8.625  -0.250 -33.590  1.00  0.00    -0.356 N 
HETATM    3  O   UNL     1      -9.456   0.608 -31.648  1.00  0.00    -0.268 OA
HETATM    4  H   UNL     1      -8.887  -0.547 -34.529  1.00  0.00     0.162 HD
ENDROOT
BRANCH   2   5
HETATM    5  C   UNL     1      -7.392  -0.733 -33.005  1.00  0.00     0.136 C 
BRANCH   5   6
HETATM    6  C   UNL     1      -6.229  -0.867 -34.033  1.00  0.00    -0.004 C 
HETATM    7  C   UNL     1      -6.637  -0.111 -35.321  1.00  0.00     0.021 C 
HETATM    8  C   UNL     1      -4.988  -0.144 -33.462  1.00  0.00     0.021 C 
BRANCH   6   9
HETATM    9  C   UNL     1      -5.871  -2.347 -34.272  1.00  0.00    -0.046 A 
HETATM   10  C   UNL     1      -4.594  -2.869 -34.025  1.00  0.00     0.027 A 
HETATM   11  C   UNL     1      -4.345  -4.213 -34.279  1.00  0.00     0.116 A 
HETATM   12  N   UNL     1      -5.263  -5.073 -34.761  1.00  0.00    -0.273 NA
HETATM   13  C   UNL     1      -6.492  -4.569 -34.986  1.00  0.00     0.116 A 
HETATM   14  C   UNL     1      -6.835  -3.243 -34.760  1.00  0.00     0.027 A 
ENDBRANCH   6   9
ENDBRANCH   5   6
ENDBRANCH   2   5
BRANCH   1  15
HETATM   15  C   UNL     1     -10.873   0.730 -33.549  1.00  0.00     0.065 A 
HETATM   16  C   UNL     1     -11.000   1.793 -34.466  1.00  0.00     0.087 A 
HETATM   17  C   UNL     1     -12.248   2.108 -35.036  1.00  0.00    -0.028 A 
HETATM   18  C   UNL     1     -12.440   3.265 -35.978  1.00  0.00     0.051 C 
HETATM   19  C   UNL     1     -13.354   1.301 -34.731  1.00  0.00     0.009 A 
HETATM   20  C   UNL     1     -13.232   0.226 -33.854  1.00  0.00     0.002 A 
HETATM   21  C   UNL     1     -12.002  -0.051 -33.260  1.00  0.00     0.020 A 
BRANCH  16  22
HETATM   22  O   UNL     1      -9.891   2.528 -34.809  1.00  0.00    -0.359 OA
HETATM   23  H   UNL     1      -9.139   2.231 -34.268  1.00  0.00     0.218 HD
ENDBRANCH  16  22
ENDBRANCH   1  15
TORSDOF 5
ENDMDL
MODEL 2
REMARK VINA RESULT:      -8.3      1.195      2.115
REMARK  5 active torsions:
REMARK  status: ('A' for Active; 'I' for Inactive)
REMARK    1  A    between atoms: C_3  and  O_4 
REMARK    2  A    between atoms: C_5  and  C_6 
REMARK       I    between atoms: C_6  and  N_7 
REMARK    3  A    between atoms: N_7  and  C_8 
REMARK    4  A    between atoms: C_8  and  C_9 
REMARK    5  A    between atoms: C_9  and  C_10 
ROOT
HETATM    1  C   UNL     1     -10.076   0.075 -33.100  1.00  0.00     0.254 C 
HETATM    2  N   UNL     1      -8.801   0.492 -33.399  1.00  0.00    -0.356 N 
HETATM    3  O   UNL     1     -10.297  -0.881 -32.362  1.00  0.00    -0.268 OA
HETATM    4  H   UNL     1      -8.710   1.195 -34.130  1.00  0.00     0.162 HD
ENDROOT
BRANCH   2   5
HETATM    5  C   UNL     1      -7.627  -0.223 -32.943  1.00  0.00     0.136 C 
BRANCH   5   6
HETATM    6  C   UNL     1      -6.506  -0.324 -34.020  1.00  0.00    -0.004 C 
HETATM    7  C   UNL     1      -7.004   0.389 -35.300  1.00  0.00     0.021 C 
HETATM    8  C   UNL     1      -5.275   0.464 -33.517  1.00  0.00     0.021 C 
BRANCH   6   9
HETATM    9  C   UNL     1      -6.093  -1.791 -34.250  1.00  0.00    -0.046 A 
HETATM   10  C   UNL     1      -7.005  -2.789 -34.616  1.00  0.00     0.027 A 
HETATM   11  C   UNL     1      -6.557  -4.093 -34.792  1.00  0.00     0.116 A 
HETATM   12  N   UNL     1      -5.276  -4.480 -34.629  1.00  0.00    -0.273 NA
HETATM   13  C   UNL     1      -4.401  -3.514 -34.289  1.00  0.00     0.116 A 
HETATM   14  C   UNL     1      -4.754  -2.186 -34.094  1.00  0.00     0.027 A 
ENDBRANCH   6   9
ENDBRANCH   5   6
ENDBRANCH   2   5
BRANCH   1  15
HETATM   15  C   UNL     1     -11.207   0.849 -33.710  1.00  0.00     0.065 A 
HETATM   16  C   UNL     1     -12.557   0.445 -33.690  1.00  0.00     0.087 A 
HETATM   17  C   UNL     1     -13.547   1.203 -34.345  1.00  0.00    -0.028 A 
HETATM   18  C   UNL     1     -14.991   0.783 -34.394  1.00  0.00     0.051 C 
HETATM   19  C   UNL     1     -13.178   2.409 -34.960  1.00  0.00     0.009 A 
HETATM   20  C   UNL     1     -11.852   2.836 -34.955  1.00  0.00     0.002 A 
HETATM   21  C   UNL     1     -10.873   2.056 -34.343  1.00  0.00     0.020 A 
BRANCH  16  22
HETATM   22  O   UNL     1     -12.912  -0.701 -33.022  1.00  0.00    -0.359 OA
HETATM   23  H   UNL     1     -12.126  -1.268 -32.932  1.00  0.00     0.218 HD
ENDBRANCH  16  22
ENDBRANCH   1  15
TORSDOF 5
ENDMDL
MODEL 3
REMARK VINA RESULT:      -7.9      5.033      7.733
REMARK  5 active torsions:
REMARK  status: ('A' for Active; 'I' for Inactive)
REMARK    1  A    between atoms: C_3  and  O_4 
REMARK    2  A    between atoms: C_5  and  C_6 
REMARK       I    between atoms: C_6  and  N_7 
REMARK    3  A    between atoms: N_7  and  C_8 
REMARK    4  A    between atoms: C_8  and  C_9 
REMARK    5  A    between atoms: C_9  and  C_10 
ROOT
HETATM    1  C   UNL     1      -3.288   3.014 -32.031  1.00  0.00     0.254 C 
HETATM    2  N   UNL     1      -4.594   2.892 -32.441  1.00  0.00    -0.356 N 
HETATM    3  O   UNL     1      -2.761   2.205 -31.272  1.00  0.00    -0.268 OA
HETATM    4  H   UNL     1      -4.989   3.682 -32.949  1.00  0.00     0.162 HD
ENDROOT
BRANCH   2   5
HETATM    5  C   UNL     1      -5.470   1.857 -31.934  1.00  0.00     0.136 C 
BRANCH   5   6
HETATM    6  C   UNL     1      -6.397   1.241 -33.023  1.00  0.00    -0.004 C 
HETATM    7  C   UNL     1      -7.835   1.181 -32.452  1.00  0.00     0.021 C 
HETATM    8  C   UNL     1      -6.433   2.202 -34.233  1.00  0.00     0.021 C 
BRANCH   6   9
HETATM    9  C   UNL     1      -5.862  -0.126 -33.494  1.00  0.00    -0.046 A 
HETATM   10  C   UNL     1      -4.625  -0.640 -33.085  1.00  0.00     0.027 A 
HETATM   11  C   UNL     1      -4.206  -1.875 -33.566  1.00  0.00     0.116 A 
HETATM   12  N   UNL     1      -4.918  -2.634 -34.422  1.00  0.00    -0.273 NA
HETATM   13  C   UNL     1      -6.112  -2.140 -34.803  1.00  0.00     0.116 A 
HETATM   14  C   UNL     1      -6.616  -0.920 -34.374  1.00  0.00     0.027 A 
ENDBRANCH   6   9
ENDBRANCH   5   6
ENDBRANCH   2   5
BRANCH   1  15
HETATM   15  C   UNL     1      -2.513   4.184 -32.561  1.00  0.00     0.065 A 
HETATM   16  C   UNL     1      -1.512   4.872 -31.846  1.00  0.00     0.087 A 
HETATM   17  C   UNL     1      -0.878   6.002 -32.398  1.00  0.00    -0.028 A 
HETATM   18  C   UNL     1       0.157   6.798 -31.652  1.00  0.00     0.051 C 
HETATM   19  C   UNL     1      -1.211   6.393 -33.705  1.00  0.00     0.009 A 
HETATM   20  C   UNL     1      -2.174   5.699 -34.433  1.00  0.00     0.002 A 
HETATM   21  C   UNL     1      -2.826   4.608 -33.861  1.00  0.00     0.020 A 
BRANCH  16  22
HETATM   22  O   UNL     1      -1.147   4.433 -30.597  1.00  0.00    -0.359 OA
HETATM   23  H   UNL     1      -1.849   3.854 -30.252  1.00  0.00     0.218 HD
ENDBRANCH  16  22
ENDBRANCH   1  15
TORSDOF 5
ENDMDL
MODEL 4
REMARK VINA RESULT:      -7.7      2.341      7.538
REMARK  5 active torsions:
REMARK  status: ('A' for Active; 'I' for Inactive)
REMARK    1  A    between atoms: C_3  and  O_4 
REMARK    2  A    between atoms: C_5  and  C_6 
REMARK       I    between atoms: C_6  and  N_7 
REMARK    3  A    between atoms: N_7  and  C_8 
REMARK    4  A    between atoms: C_8  and  C_9 
REMARK    5  A    between atoms: C_9  and  C_10 
ROOT
HETATM    1  C   UNL     1      -6.363  -0.681 -34.194  1.00  0.00     0.254 C 
HETATM    2  N   UNL     1      -7.665  -0.325 -34.454  1.00  0.00    -0.356 N 
HETATM    3  O   UNL     1      -5.515   0.139 -33.851  1.00  0.00    -0.268 OA
HETATM    4  H   UNL     1      -8.259  -1.039 -34.871  1.00  0.00     0.162 HD
ENDROOT
BRANCH   2   5
HETATM    5  C   UNL     1      -8.109   1.053 -34.435  1.00  0.00     0.136 C 
BRANCH   5   6
HETATM    6  C   UNL     1      -9.318   1.302 -33.487  1.00  0.00    -0.004 C 
HETATM    7  C   UNL     1      -9.741  -0.057 -32.879  1.00  0.00     0.021 C 
HETATM    8  C   UNL     1      -8.843   2.190 -32.314  1.00  0.00     0.021 C 
BRANCH   6   9
HETATM    9  C   UNL     1     -10.459   2.030 -34.225  1.00  0.00    -0.046 A 
HETATM   10  C   UNL     1     -11.707   1.440 -34.466  1.00  0.00     0.027 A 
HETATM   11  C   UNL     1     -12.680   2.157 -35.152  1.00  0.00     0.116 A 
HETATM   12  N   UNL     1     -12.508   3.410 -35.617  1.00  0.00    -0.273 NA
HETATM   13  C   UNL     1     -11.311   3.977 -35.372  1.00  0.00     0.116 A 
HETATM   14  C   UNL     1     -10.280   3.342 -34.695  1.00  0.00     0.027 A 
ENDBRANCH   6   9
ENDBRANCH   5   6
ENDBRANCH   2   5
BRANCH   1  15
HETATM   15  C   UNL     1      -6.011  -2.132 -34.337  1.00  0.00     0.065 A 
HETATM   16  C   UNL     1      -4.794  -2.706 -33.919  1.00  0.00     0.087 A 
HETATM   17  C   UNL     1      -4.521  -4.068 -34.151  1.00  0.00    -0.028 A 
HETATM   18  C   UNL     1      -3.216  -4.711 -33.770  1.00  0.00     0.051 C 
HETATM   19  C   UNL     1      -5.513  -4.864 -34.744  1.00  0.00     0.009 A 
HETATM   20  C   UNL     1      -6.734  -4.315 -35.129  1.00  0.00     0.002 A 
HETATM   21  C   UNL     1      -6.976  -2.956 -34.935  1.00  0.00     0.020 A 
BRANCH  16  22
HETATM   22  O   UNL     1      -3.863  -1.928 -33.276  1.00  0.00    -0.359 OA
HETATM   23  H   UNL     1      -4.265  -1.563 -32.468  1.00  0.00     0.218 HD
ENDBRANCH  16  22
ENDBRANCH   1  15
TORSDOF 5
ENDMDL
MODEL 5
REMARK VINA RESULT:      -7.7      5.018      7.943
REMARK  5 active torsions:
REMARK  status: ('A' for Active; 'I' for Inactive)
REMARK    1  A    between atoms: C_3  and  O_4 
REMARK    2  A    between atoms: C_5  and  C_6 
REMARK       I    between atoms: C_6  and  N_7 
REMARK    3  A    between atoms: N_7  and  C_8 
REMARK    4  A    between atoms: C_8  and  C_9 
REMARK    5  A    between atoms: C_9  and  C_10 
ROOT
HETATM    1  C   UNL     1      -4.039   0.055 -31.774  1.00  0.00     0.254 C 
HETATM    2  N   UNL     1      -4.641   1.263 -32.035  1.00  0.00    -0.356 N 
HETATM    3  O   UNL     1      -3.264  -0.102 -30.834  1.00  0.00    -0.268 OA
HETATM    4  H   UNL     1      -5.150   1.340 -32.913  1.00  0.00     0.162 HD
ENDROOT
BRANCH   2   5
HETATM    5  C   UNL     1      -4.331   2.460 -31.281  1.00  0.00     0.136 C 
BRANCH   5   6
HETATM    6  C   UNL     1      -4.916   3.758 -31.911  1.00  0.00    -0.004 C 
HETATM    7  C   UNL     1      -6.366   3.461 -32.364  1.00  0.00     0.021 C 
HETATM    8  C   UNL     1      -5.003   4.839 -30.808  1.00  0.00     0.021 C 
BRANCH   6   9
HETATM    9  C   UNL     1      -4.010   4.280 -33.043  1.00  0.00    -0.046 A 
HETATM   10  C   UNL     1      -2.611   4.269 -32.963  1.00  0.00     0.027 A 
HETATM   11  C   UNL     1      -1.862   4.771 -34.021  1.00  0.00     0.116 A 
HETATM   12  N   UNL     1      -2.396   5.285 -35.146  1.00  0.00    -0.273 NA
HETATM   13  C   UNL     1      -3.741   5.282 -35.223  1.00  0.00     0.116 A 
HETATM   14  C   UNL     1      -4.571   4.801 -34.221  1.00  0.00     0.027 A 
ENDBRANCH   6   9
ENDBRANCH   5   6
ENDBRANCH   2   5
BRANCH   1  15
HETATM   15  C   UNL     1      -4.376  -1.086 -32.687  1.00  0.00     0.065 A 
HETATM   16  C   UNL     1      -3.752  -2.349 -32.656  1.00  0.00     0.087 A 
HETATM   17  C   UNL     1      -4.089  -3.344 -33.594  1.00  0.00    -0.028 A 
HETATM   18  C   UNL     1      -3.412  -4.687 -33.631  1.00  0.00     0.051 C 
HETATM   19  C   UNL     1      -5.110  -3.081 -34.520  1.00  0.00     0.009 A 
HETATM   20  C   UNL     1      -5.758  -1.849 -34.537  1.00  0.00     0.002 A 
HETATM   21  C   UNL     1      -5.387  -0.856 -33.633  1.00  0.00     0.020 A 
BRANCH  16  22
HETATM   22  O   UNL     1      -2.806  -2.614 -31.696  1.00  0.00    -0.359 OA
HETATM   23  H   UNL     1      -3.237  -2.620 -30.824  1.00  0.00     0.218 HD
ENDBRANCH  16  22
ENDBRANCH   1  15
TORSDOF 5
ENDMDL
MODEL 6
REMARK VINA RESULT:      -7.7      4.642      7.523
REMARK  5 active torsions:
REMARK  status: ('A' for Active; 'I' for Inactive)
REMARK    1  A    between atoms: C_3  and  O_4 
REMARK    2  A    between atoms: C_5  and  C_6 
REMARK       I    between atoms: C_6  and  N_7 
REMARK    3  A    between atoms: N_7  and  C_8 
REMARK    4  A    between atoms: C_8  and  C_9 
REMARK    5  A    between atoms: C_9  and  C_10 
ROOT
HETATM    1  C   UNL     1      -4.541   3.736 -32.999  1.00  0.00     0.254 C 
HETATM    2  N   UNL     1      -4.426   2.410 -32.656  1.00  0.00    -0.356 N 
HETATM    3  O   UNL     1      -5.628   4.265 -33.217  1.00  0.00    -0.268 OA
HETATM    4  H   UNL     1      -3.484   2.022 -32.638  1.00  0.00     0.162 HD
ENDROOT
BRANCH   2   5
HETATM    5  C   UNL     1      -5.567   1.518 -32.621  1.00  0.00     0.136 C 
BRANCH   5   6
HETATM    6  C   UNL     1      -5.247   0.126 -32.002  1.00  0.00    -0.004 C 
HETATM    7  C   UNL     1      -3.835   0.194 -31.371  1.00  0.00     0.021 C 
HETATM    8  C   UNL     1      -6.242  -0.136 -30.848  1.00  0.00     0.021 C 
BRANCH   6   9
HETATM    9  C   UNL     1      -5.402  -0.994 -33.050  1.00  0.00    -0.046 A 
HETATM   10  C   UNL     1      -6.620  -1.281 -33.680  1.00  0.00     0.027 A 
HETATM   11  C   UNL     1      -6.683  -2.317 -34.605  1.00  0.00     0.116 A 
HETATM   12  N   UNL     1      -5.632  -3.088 -34.948  1.00  0.00    -0.273 NA
HETATM   13  C   UNL     1      -4.461  -2.800 -34.348  1.00  0.00     0.116 A 
HETATM   14  C   UNL     1      -4.300  -1.785 -33.415  1.00  0.00     0.027 A 
ENDBRANCH   6   9
ENDBRANCH   5   6
ENDBRANCH   2   5
BRANCH   1  15
HETATM   15  C   UNL     1      -3.272   4.530 -33.089  1.00  0.00     0.065 A 
HETATM   16  C   UNL     1      -2.211   4.454 -32.164  1.00  0.00     0.087 A 
HETATM   17  C   UNL     1      -1.081   5.284 -32.293  1.00  0.00    -0.028 A 
HETATM   18  C   UNL     1       0.050   5.274 -31.301  1.00  0.00     0.051 C 
HETATM   19  C   UNL     1      -0.995   6.142 -33.400  1.00  0.00     0.009 A 
HETATM   20  C   UNL     1      -2.021   6.199 -34.339  1.00  0.00     0.002 A 
HETATM   21  C   UNL     1      -3.155   5.405 -34.179  1.00  0.00     0.020 A 
BRANCH  16  22
HETATM   22  O   UNL     1      -2.280   3.556 -31.127  1.00  0.00    -0.359 OA
HETATM   23  H   UNL     1      -3.155   3.628 -30.708  1.00  0.00     0.218 HD
ENDBRANCH  16  22
ENDBRANCH   1  15
TORSDOF 5
ENDMDL
MODEL 7
REMARK VINA RESULT:      -7.6      2.975      7.032
REMARK  5 active torsions:
REMARK  status: ('A' for Active; 'I' for Inactive)
REMARK    1  A    between atoms: C_3  and  O_4 
REMARK    2  A    between atoms: C_5  and  C_6 
REMARK       I    between atoms: C_6  and  N_7 
REMARK    3  A    between atoms: N_7  and  C_8 
REMARK    4  A    between atoms: C_8  and  C_9 
REMARK    5  A    between atoms: C_9  and  C_10 
ROOT
HETATM    1  C   UNL     1      -4.094  -0.927 -33.030  1.00  0.00     0.254 C 
HETATM    2  N   UNL     1      -5.214  -0.165 -32.799  1.00  0.00    -0.356 N 
HETATM    3  O   UNL     1      -2.958  -0.489 -32.871  1.00  0.00    -0.268 OA
HETATM    4  H   UNL     1      -6.105  -0.560 -33.096  1.00  0.00     0.162 HD
ENDROOT
BRANCH   2   5
HETATM    5  C   UNL     1      -5.135   1.236 -32.442  1.00  0.00     0.136 C 
BRANCH   5   6
HETATM    6  C   UNL     1      -6.359   1.736 -31.619  1.00  0.00    -0.004 C 
HETATM    7  C   UNL     1      -6.273   1.113 -30.204  1.00  0.00     0.021 C 
HETATM    8  C   UNL     1      -6.236   3.267 -31.443  1.00  0.00     0.021 C 
BRANCH   6   9
HETATM    9  C   UNL     1      -7.680   1.428 -32.350  1.00  0.00    -0.046 A 
HETATM   10  C   UNL     1      -8.611   0.493 -31.878  1.00  0.00     0.027 A 
HETATM   11  C   UNL     1      -9.774   0.261 -32.603  1.00  0.00     0.116 A 
HETATM   12  N   UNL     1     -10.081   0.883 -33.758  1.00  0.00    -0.273 NA
HETATM   13  C   UNL     1      -9.189   1.790 -34.201  1.00  0.00     0.116 A 
HETATM   14  C   UNL     1      -8.003   2.090 -33.546  1.00  0.00     0.027 A 
ENDBRANCH   6   9
ENDBRANCH   5   6
ENDBRANCH   2   5
BRANCH   1  15
HETATM   15  C   UNL     1      -4.313  -2.341 -33.484  1.00  0.00     0.065 A 
HETATM   16  C   UNL     1      -5.311  -2.746 -34.393  1.00  0.00     0.087 A 
HETATM   17  C   UNL     1      -5.485  -4.106 -34.714  1.00  0.00    -0.028 A 
HETATM   18  C   UNL     1      -6.569  -4.588 -35.638  1.00  0.00     0.051 C 
HETATM   19  C   UNL     1      -4.600  -5.048 -34.168  1.00  0.00     0.009 A 
HETATM   20  C   UNL     1      -3.588  -4.654 -33.296  1.00  0.00     0.002 A 
HETATM   21  C   UNL     1      -3.451  -3.311 -32.950  1.00  0.00     0.020 A 
BRANCH  16  22
HETATM   22  O   UNL     1      -6.121  -1.802 -34.974  1.00  0.00    -0.359 OA
HETATM   23  H   UNL     1      -5.755  -0.919 -34.791  1.00  0.00     0.218 HD
ENDBRANCH  16  22
ENDBRANCH   1  15
TORSDOF 5
ENDMDL
MODEL 8
REMARK VINA RESULT:      -7.5      4.081      6.737
REMARK  5 active torsions:
REMARK  status: ('A' for Active; 'I' for Inactive)
REMARK    1  A    between atoms: C_3  and  O_4 
REMARK    2  A    between atoms: C_5  and  C_6 
REMARK       I    between atoms: C_6  and  N_7 
REMARK    3  A    between atoms: N_7  and  C_8 
REMARK    4  A    between atoms: C_8  and  C_9 
REMARK    5  A    between atoms: C_9  and  C_10 
ROOT
HETATM    1  C   UNL     1      -5.438   3.631 -33.740  1.00  0.00     0.254 C 
HETATM    2  N   UNL     1      -5.746   2.344 -33.371  1.00  0.00    -0.356 N 
HETATM    3  O   UNL     1      -6.206   4.327 -34.400  1.00  0.00    -0.268 OA
HETATM    4  H   UNL     1      -4.996   1.796 -32.954  1.00  0.00     0.162 HD
ENDROOT
BRANCH   2   5
HETATM    5  C   UNL     1      -6.956   1.681 -33.813  1.00  0.00     0.136 C 
BRANCH   5   6
HETATM    6  C   UNL     1      -7.264   0.368 -33.034  1.00  0.00    -0.004 C 
HETATM    7  C   UNL     1      -7.165   0.674 -31.520  1.00  0.00     0.021 C 
HETATM    8  C   UNL     1      -8.730  -0.034 -33.317  1.00  0.00     0.021 C 
BRANCH   6   9
HETATM    9  C   UNL     1      -6.341  -0.777 -33.495  1.00  0.00    -0.046 A 
HETATM   10  C   UNL     1      -5.080  -1.011 -32.930  1.00  0.00     0.027 A 
HETATM   11  C   UNL     1      -4.300  -2.056 -33.410  1.00  0.00     0.116 A 
HETATM   12  N   UNL     1      -4.674  -2.881 -34.407  1.00  0.00    -0.273 NA
HETATM   13  C   UNL     1      -5.892  -2.660 -34.939  1.00  0.00     0.116 A 
HETATM   14  C   UNL     1      -6.742  -1.644 -34.524  1.00  0.00     0.027 A 
ENDBRANCH   6   9
ENDBRANCH   5   6
ENDBRANCH   2   5
BRANCH   1  15
HETATM   15  C   UNL     1      -4.111   4.170 -33.293  1.00  0.00     0.065 A 
HETATM   16  C   UNL     1      -3.315   5.061 -34.039  1.00  0.00     0.087 A 
HETATM   17  C   UNL     1      -2.051   5.467 -33.569  1.00  0.00    -0.028 A 
HETATM   18  C   UNL     1      -1.146   6.374 -34.356  1.00  0.00     0.051 C 
HETATM   19  C   UNL     1      -1.625   5.023 -32.308  1.00  0.00     0.009 A 
HETATM   20  C   UNL     1      -2.420   4.171 -31.545  1.00  0.00     0.002 A 
HETATM   21  C   UNL     1      -3.650   3.740 -32.039  1.00  0.00     0.020 A 
BRANCH  16  22
HETATM   22  O   UNL     1      -3.779   5.542 -35.239  1.00  0.00    -0.359 OA
HETATM   23  H   UNL     1      -3.553   6.486 -35.306  1.00  0.00     0.218 HD
ENDBRANCH  16  22
ENDBRANCH   1  15
TORSDOF 5
ENDMDL
MODEL 9
REMARK VINA RESULT:      -7.5      2.814      7.028
REMARK  5 active torsions:
REMARK  status: ('A' for Active; 'I' for Inactive)
REMARK    1  A    between atoms: C_3  and  O_4 
REMARK    2  A    between atoms: C_5  and  C_6 
REMARK       I    between atoms: C_6  and  N_7 
REMARK    3  A    between atoms: N_7  and  C_8 
REMARK    4  A    between atoms: C_8  and  C_9 
REMARK    5  A    between atoms: C_9  and  C_10 
ROOT
HETATM    1  C   UNL     1      -6.244  -0.774 -34.300  1.00  0.00     0.254 C 
HETATM    2  N   UNL     1      -7.548  -0.415 -34.546  1.00  0.00    -0.356 N 
HETATM    3  O   UNL     1      -5.382   0.049 -34.003  1.00  0.00    -0.268 OA
HETATM    4  H   UNL     1      -8.157  -1.138 -34.925  1.00  0.00     0.162 HD
ENDROOT
BRANCH   2   5
HETATM    5  C   UNL     1      -7.979   0.967 -34.567  1.00  0.00     0.136 C 
BRANCH   5   6
HETATM    6  C   UNL     1      -8.739   1.400 -33.279  1.00  0.00    -0.004 C 
HETATM    7  C   UNL     1      -9.793   2.462 -33.677  1.00  0.00     0.021 C 
HETATM    8  C   UNL     1      -9.516   0.177 -32.738  1.00  0.00     0.021 C 
BRANCH   6   9
HETATM    9  C   UNL     1      -7.757   1.880 -32.193  1.00  0.00    -0.046 A 
HETATM   10  C   UNL     1      -7.267   3.192 -32.137  1.00  0.00     0.027 A 
HETATM   11  C   UNL     1      -6.373   3.545 -31.133  1.00  0.00     0.116 A 
HETATM   12  N   UNL     1      -5.927   2.697 -30.187  1.00  0.00    -0.273 NA
HETATM   13  C   UNL     1      -6.410   1.440 -30.237  1.00  0.00     0.116 A 
HETATM   14  C   UNL     1      -7.307   0.996 -31.199  1.00  0.00     0.027 A 
ENDBRANCH   6   9
ENDBRANCH   5   6
ENDBRANCH   2   5
BRANCH   1  15
HETATM   15  C   UNL     1      -5.908  -2.232 -34.399  1.00  0.00     0.065 A 
HETATM   16  C   UNL     1      -4.717  -2.815 -33.920  1.00  0.00     0.087 A 
HETATM   17  C   UNL     1      -4.456  -4.185 -34.112  1.00  0.00    -0.028 A 
HETATM   18  C   UNL     1      -3.177  -4.838 -33.664  1.00  0.00     0.051 C 
HETATM   19  C   UNL     1      -5.435  -4.980 -34.728  1.00  0.00     0.009 A 
HETATM   20  C   UNL     1      -6.630  -4.421 -35.174  1.00  0.00     0.002 A 
HETATM   21  C   UNL     1      -6.860  -3.056 -35.018  1.00  0.00     0.020 A 
BRANCH  16  22
HETATM   22  O   UNL     1      -3.802  -2.036 -33.254  1.00  0.00    -0.359 OA
HETATM   23  H   UNL     1      -3.035  -2.587 -33.019  1.00  0.00     0.218 HD
ENDBRANCH  16  22
ENDBRANCH   1  15
TORSDOF 5
ENDMDL
MODEL 10
REMARK VINA RESULT:      -7.4      5.576      8.686
REMARK  5 active torsions:
REMARK  status: ('A' for Active; 'I' for Inactive)
REMARK    1  A    between atoms: C_3  and  O_4 
REMARK    2  A    between atoms: C_5  and  C_6 
REMARK       I    between atoms: C_6  and  N_7 
REMARK    3  A    between atoms: N_7  and  C_8 
REMARK    4  A    between atoms: C_8  and  C_9 
REMARK    5  A    between atoms: C_9  and  C_10 
ROOT
HETATM    1  C   UNL     1      -3.829   2.352 -31.761  1.00  0.00     0.254 C 
HETATM    2  N   UNL     1      -4.872   3.242 -31.669  1.00  0.00    -0.356 N 
HETATM    3  O   UNL     1      -2.672   2.668 -31.495  1.00  0.00    -0.268 OA
HETATM    4  H   UNL     1      -5.767   2.937 -32.047  1.00  0.00     0.162 HD
ENDROOT
BRANCH   2   5
HETATM    5  C   UNL     1      -4.671   4.639 -31.346  1.00  0.00     0.136 C 
BRANCH   5   6
HETATM    6  C   UNL     1      -4.835   5.589 -32.569  1.00  0.00    -0.004 C 
HETATM    7  C   UNL     1      -5.796   4.913 -33.577  1.00  0.00     0.021 C 
HETATM    8  C   UNL     1      -5.525   6.886 -32.090  1.00  0.00     0.021 C 
BRANCH   6   9
HETATM    9  C   UNL     1      -3.464   5.953 -33.172  1.00  0.00    -0.046 A 
HETATM   10  C   UNL     1      -2.740   7.089 -32.784  1.00  0.00     0.027 A 
HETATM   11  C   UNL     1      -1.517   7.358 -33.385  1.00  0.00     0.116 A 
HETATM   12  N   UNL     1      -0.960   6.589 -34.341  1.00  0.00    -0.273 NA
HETATM   13  C   UNL     1      -1.654   5.492 -34.703  1.00  0.00     0.116 A 
HETATM   14  C   UNL     1      -2.881   5.141 -34.158  1.00  0.00     0.027 A 
ENDBRANCH   6   9
ENDBRANCH   5   6
ENDBRANCH   2   5
BRANCH   1  15
HETATM   15  C   UNL     1      -4.159   0.955 -32.195  1.00  0.00     0.065 A 
HETATM   16  C   UNL     1      -3.454  -0.197 -31.795  1.00  0.00     0.087 A 
HETATM   17  C   UNL     1      -3.795  -1.465 -32.303  1.00  0.00    -0.028 A 
HETATM   18  C   UNL     1      -3.038  -2.714 -31.944  1.00  0.00     0.051 C 
HETATM   19  C   UNL     1      -4.898  -1.574 -33.164  1.00  0.00     0.009 A 
HETATM   20  C   UNL     1      -5.625  -0.446 -33.539  1.00  0.00     0.002 A 
HETATM   21  C   UNL     1      -5.252   0.810 -33.065  1.00  0.00     0.020 A 
BRANCH  16  22
HETATM   22  O   UNL     1      -2.423  -0.082 -30.895  1.00  0.00    -0.359 OA
HETATM   23  H   UNL     1      -1.723  -0.713 -31.139  1.00  0.00     0.218 HD
ENDBRANCH  16  22
ENDBRANCH   1  15
TORSDOF 5
ENDMDL
