MODEL 1
REMARK VINA RESULT:      -9.0      0.000      0.000
REMARK  7 active torsions:
REMARK  status: ('A' for Active; 'I' for Inactive)
REMARK    1  A    between atoms: O_2  and  C_3 
REMARK    2  A    between atoms: C_4  and  O_5 
REMARK    3  A    between atoms: C_7  and  C_8 
REMARK       I    between atoms: C_8  and  N_9 
REMARK    4  A    between atoms: N_9  and  C_10 
REMARK    5  A    between atoms: C_10  and  C_11 
REMARK    6  A    between atoms: C_11  and  N_12 
REMARK    7  A    between atoms: C_11  and  C_18 
ROOT
HETATM    1  C   UNL     1      -7.911   0.924 -33.452  1.00  0.00     0.239 C 
ENDROOT
BRANCH   1   2
HETATM    2  C   UNL     1      -7.558   2.310 -34.085  1.00  0.00     0.161 C 
BRANCH   2   3
HETATM    3  N   UNL     1      -6.186   2.753 -33.868  1.00  0.00    -0.354 N 
HETATM    4  C   UNL     1      -5.786   4.061 -33.985  1.00  0.00     0.254 C 
HETATM    5  O   UNL     1      -6.610   4.955 -34.153  1.00  0.00    -0.268 OA
HETATM    6  H   UNL     1      -5.463   2.051 -33.716  1.00  0.00     0.162 HD
BRANCH   4   7
HETATM    7  C   UNL     1      -4.330   4.376 -33.862  1.00  0.00     0.068 A 
HETATM    8  C   UNL     1      -3.558   4.143 -32.704  1.00  0.00     0.117 A 
HETATM    9  C   UNL     1      -2.214   4.584 -32.662  1.00  0.00     0.102 A 
HETATM   10  C   UNL     1      -1.642   5.161 -33.802  1.00  0.00     0.040 A 
HETATM   11  C   UNL     1      -2.393   5.345 -34.961  1.00  0.00     0.004 A 
HETATM   12  C   UNL     1      -3.733   4.970 -34.985  1.00  0.00     0.020 A 
BRANCH   8  13
HETATM   13  O   UNL     1      -4.193   3.565 -31.625  1.00  0.00    -0.352 OA
HETATM   14  C   UNL     1      -4.778   4.490 -30.703  1.00  0.00     0.210 C 
ENDBRANCH   8  13
BRANCH   9  15
HETATM   15  O   UNL     1      -1.548   4.446 -31.472  1.00  0.00    -0.353 OA
HETATM   16  C   UNL     1      -0.378   5.231 -31.265  1.00  0.00     0.210 C 
ENDBRANCH   9  15
ENDBRANCH   4   7
ENDBRANCH   2   3
ENDBRANCH   1   2
BRANCH   1  17
HETATM   17  N   UNL     1      -9.115   1.034 -32.499  1.00  0.00    -0.061 N 
HETATM   18  H   UNL     1      -8.735   0.880 -31.556  1.00  0.00     0.280 HD
HETATM   19  C   UNL     1     -10.243   0.062 -32.771  1.00  0.00     0.236 C 
HETATM   20  C   UNL     1     -11.184   0.849 -33.654  1.00  0.00     0.029 C 
HETATM   21  C   UNL     1     -11.189   2.211 -32.997  1.00  0.00     0.029 C 
HETATM   22  C   UNL     1      -9.768   2.416 -32.491  1.00  0.00     0.236 C 
ENDBRANCH   1  17
BRANCH   1  23
HETATM   23  C   UNL     1      -6.654   0.326 -32.814  1.00  0.00    -0.015 A 
HETATM   24  C   UNL     1      -5.960  -0.780 -33.406  1.00  0.00    -0.018 A 
HETATM   25  C   UNL     1      -4.811  -1.288 -32.743  1.00  0.00    -0.025 A 
HETATM   26  C   UNL     1      -6.329  -1.419 -34.619  1.00  0.00     0.013 A 
HETATM   27  C   UNL     1      -4.104  -2.380 -33.273  1.00  0.00     0.012 A 
HETATM   28  C   UNL     1      -4.363  -0.703 -31.553  1.00  0.00     0.012 A 
HETATM   29  C   UNL     1      -4.504  -2.989 -34.459  1.00  0.00     0.001 A 
HETATM   30  C   UNL     1      -5.614  -2.505 -35.134  1.00  0.00     0.001 A 
HETATM   31  C   UNL     1      -5.025   0.384 -30.996  1.00  0.00     0.002 A 
HETATM   32  C   UNL     1      -6.157   0.893 -31.619  1.00  0.00     0.010 A 
ENDBRANCH   1  23
TORSDOF 7
ENDMDL
MODEL 2
REMARK VINA RESULT:      -8.8      2.522      6.924
REMARK  7 active torsions:
REMARK  status: ('A' for Active; 'I' for Inactive)
REMARK    1  A    between atoms: O_2  and  C_3 
REMARK    2  A    between atoms: C_4  and  O_5 
REMARK    3  A    between atoms: C_7  and  C_8 
REMARK       I    between atoms: C_8  and  N_9 
REMARK    4  A    between atoms: N_9  and  C_10 
REMARK    5  A    between atoms: C_10  and  C_11 
REMARK    6  A    between atoms: C_11  and  N_12 
REMARK    7  A    between atoms: C_11  and  C_18 
ROOT
HETATM    1  C   UNL     1      -4.483   3.196 -32.624  1.00  0.00     0.239 C 
ENDROOT
BRANCH   1   2
HETATM    2  C   UNL     1      -3.475   2.167 -32.016  1.00  0.00     0.161 C 
BRANCH   2   3
HETATM    3  N   UNL     1      -3.539   0.830 -32.595  1.00  0.00    -0.354 N 
HETATM    4  C   UNL     1      -4.136  -0.237 -31.970  1.00  0.00     0.254 C 
HETATM    5  O   UNL     1      -4.773  -0.079 -30.933  1.00  0.00    -0.268 OA
HETATM    6  H   UNL     1      -3.034   0.646 -33.460  1.00  0.00     0.162 HD
BRANCH   4   7
HETATM    7  C   UNL     1      -4.030  -1.587 -32.604  1.00  0.00     0.068 A 
HETATM    8  C   UNL     1      -4.715  -1.975 -33.775  1.00  0.00     0.117 A 
HETATM    9  C   UNL     1      -4.627  -3.314 -34.222  1.00  0.00     0.102 A 
HETATM   10  C   UNL     1      -3.786  -4.211 -33.552  1.00  0.00     0.040 A 
HETATM   11  C   UNL     1      -3.072  -3.810 -32.425  1.00  0.00     0.004 A 
HETATM   12  C   UNL     1      -3.206  -2.511 -31.944  1.00  0.00     0.020 A 
BRANCH   8  13
HETATM   13  O   UNL     1      -5.520  -1.032 -34.380  1.00  0.00    -0.352 OA
HETATM   14  C   UNL     1      -6.889  -1.050 -33.964  1.00  0.00     0.210 C 
ENDBRANCH   8  13
BRANCH   9  15
HETATM   15  O   UNL     1      -5.410  -3.669 -35.290  1.00  0.00    -0.353 OA
HETATM   16  C   UNL     1      -6.521  -4.527 -35.049  1.00  0.00     0.210 C 
ENDBRANCH   9  15
ENDBRANCH   4   7
ENDBRANCH   2   3
ENDBRANCH   1   2
BRANCH   1  17
HETATM   17  N   UNL     1      -3.815   4.565 -32.854  1.00  0.00    -0.061 N 
HETATM   18  H   UNL     1      -3.791   5.018 -31.931  1.00  0.00     0.280 HD
HETATM   19  C   UNL     1      -4.509   5.460 -33.858  1.00  0.00     0.236 C 
HETATM   20  C   UNL     1      -3.788   5.167 -35.153  1.00  0.00     0.029 C 
HETATM   21  C   UNL     1      -2.341   5.105 -34.717  1.00  0.00     0.029 C 
HETATM   22  C   UNL     1      -2.367   4.469 -33.335  1.00  0.00     0.236 C 
ENDBRANCH   1  17
BRANCH   1  23
HETATM   23  C   UNL     1      -5.741   3.247 -31.753  1.00  0.00    -0.015 A 
HETATM   24  C   UNL     1      -7.037   2.934 -32.279  1.00  0.00    -0.018 A 
HETATM   25  C   UNL     1      -8.157   3.022 -31.409  1.00  0.00    -0.025 A 
HETATM   26  C   UNL     1      -7.299   2.537 -33.616  1.00  0.00     0.013 A 
HETATM   27  C   UNL     1      -9.450   2.740 -31.879  1.00  0.00     0.012 A 
HETATM   28  C   UNL     1      -7.986   3.384 -30.068  1.00  0.00     0.012 A 
HETATM   29  C   UNL     1      -9.670   2.365 -33.201  1.00  0.00     0.001 A 
HETATM   30  C   UNL     1      -8.594   2.259 -34.068  1.00  0.00     0.001 A 
HETATM   31  C   UNL     1      -6.725   3.663 -29.557  1.00  0.00     0.002 A 
HETATM   32  C   UNL     1      -5.615   3.596 -30.389  1.00  0.00     0.010 A 
ENDBRANCH   1  23
TORSDOF 7
ENDMDL
MODEL 3
REMARK VINA RESULT:      -8.6      1.880      2.686
REMARK  7 active torsions:
REMARK  status: ('A' for Active; 'I' for Inactive)
REMARK    1  A    between atoms: O_2  and  C_3 
REMARK    2  A    between atoms: C_4  and  O_5 
REMARK    3  A    between atoms: C_7  and  C_8 
REMARK       I    between atoms: C_8  and  N_9 
REMARK    4  A    between atoms: N_9  and  C_10 
REMARK    5  A    between atoms: C_10  and  C_11 
REMARK    6  A    between atoms: C_11  and  N_12 
REMARK    7  A    between atoms: C_11  and  C_18 
ROOT
HETATM    1  C   UNL     1      -5.587   0.353 -33.109  1.00  0.00     0.239 C 
ENDROOT
BRANCH   1   2
HETATM    2  C   UNL     1      -5.064   1.378 -32.049  1.00  0.00     0.161 C 
BRANCH   2   3
HETATM    3  N   UNL     1      -4.460   2.582 -32.606  1.00  0.00    -0.354 N 
HETATM    4  C   UNL     1      -3.321   3.160 -32.100  1.00  0.00     0.254 C 
HETATM    5  O   UNL     1      -2.674   2.601 -31.219  1.00  0.00    -0.268 OA
HETATM    6  H   UNL     1      -4.952   3.081 -33.344  1.00  0.00     0.162 HD
BRANCH   4   7
HETATM    7  C   UNL     1      -2.865   4.462 -32.675  1.00  0.00     0.068 A 
HETATM    8  C   UNL     1      -3.094   5.721 -32.081  1.00  0.00     0.117 A 
HETATM    9  C   UNL     1      -2.715   6.897 -32.771  1.00  0.00     0.102 A 
HETATM   10  C   UNL     1      -2.031   6.791 -33.989  1.00  0.00     0.040 A 
HETATM   11  C   UNL     1      -1.762   5.544 -34.549  1.00  0.00     0.004 A 
HETATM   12  C   UNL     1      -2.191   4.387 -33.904  1.00  0.00     0.020 A 
BRANCH   8  13
HETATM   13  O   UNL     1      -3.769   5.741 -30.878  1.00  0.00    -0.352 OA
HETATM   14  C   UNL     1      -5.186   5.913 -30.983  1.00  0.00     0.210 C 
ENDBRANCH   8  13
BRANCH   9  15
HETATM   15  O   UNL     1      -3.073   8.095 -32.210  1.00  0.00    -0.353 OA
HETATM   16  C   UNL     1      -2.124   8.755 -31.379  1.00  0.00     0.210 C 
ENDBRANCH   9  15
ENDBRANCH   4   7
ENDBRANCH   2   3
ENDBRANCH   1   2
BRANCH   1  17
HETATM   17  N   UNL     1      -7.117   0.198 -33.030  1.00  0.00    -0.061 N 
HETATM   18  H   UNL     1      -7.300  -0.805 -33.167  1.00  0.00     0.280 HD
HETATM   19  C   UNL     1      -7.899   1.013 -34.038  1.00  0.00     0.236 C 
HETATM   20  C   UNL     1      -8.236   2.279 -33.285  1.00  0.00     0.029 C 
HETATM   21  C   UNL     1      -8.624   1.756 -31.920  1.00  0.00     0.029 C 
HETATM   22  C   UNL     1      -7.703   0.571 -31.669  1.00  0.00     0.236 C 
ENDBRANCH   1  17
BRANCH   1  23
HETATM   23  C   UNL     1      -4.812  -0.960 -32.967  1.00  0.00    -0.015 A 
HETATM   24  C   UNL     1      -5.172  -2.133 -33.709  1.00  0.00    -0.018 A 
HETATM   25  C   UNL     1      -4.413  -3.317 -33.509  1.00  0.00    -0.025 A 
HETATM   26  C   UNL     1      -6.239  -2.210 -34.643  1.00  0.00     0.013 A 
HETATM   27  C   UNL     1      -4.735  -4.497 -34.199  1.00  0.00     0.012 A 
HETATM   28  C   UNL     1      -3.329  -3.322 -32.623  1.00  0.00     0.012 A 
HETATM   29  C   UNL     1      -5.796  -4.538 -35.099  1.00  0.00     0.001 A 
HETATM   30  C   UNL     1      -6.545  -3.394 -35.323  1.00  0.00     0.001 A 
HETATM   31  C   UNL     1      -2.969  -2.176 -31.925  1.00  0.00     0.002 A 
HETATM   32  C   UNL     1      -3.702  -1.009 -32.095  1.00  0.00     0.010 A 
ENDBRANCH   1  23
TORSDOF 7
ENDMDL
MODEL 4
REMARK VINA RESULT:      -8.6      2.729      4.607
REMARK  7 active torsions:
REMARK  status: ('A' for Active; 'I' for Inactive)
REMARK    1  A    between atoms: O_2  and  C_3 
REMARK    2  A    between atoms: C_4  and  O_5 
REMARK    3  A    between atoms: C_7  and  C_8 
REMARK       I    between atoms: C_8  and  N_9 
REMARK    4  A    between atoms: N_9  and  C_10 
REMARK    5  A    between atoms: C_10  and  C_11 
REMARK    6  A    between atoms: C_11  and  N_12 
REMARK    7  A    between atoms: C_11  and  C_18 
ROOT
HETATM    1  C   UNL     1      -4.372   2.596 -32.039  1.00  0.00     0.239 C 
ENDROOT
BRANCH   1   2
HETATM    2  C   UNL     1      -2.972   3.219 -32.351  1.00  0.00     0.161 C 
BRANCH   2   3
HETATM    3  N   UNL     1      -2.496   4.182 -31.366  1.00  0.00    -0.354 N 
HETATM    4  C   UNL     1      -1.331   4.896 -31.507  1.00  0.00     0.254 C 
HETATM    5  O   UNL     1      -0.692   4.850 -32.554  1.00  0.00    -0.268 OA
HETATM    6  H   UNL     1      -2.994   4.266 -30.481  1.00  0.00     0.162 HD
BRANCH   4   7
HETATM    7  C   UNL     1      -0.882   5.762 -30.375  1.00  0.00     0.068 A 
HETATM    8  C   UNL     1      -1.427   7.028 -30.073  1.00  0.00     0.117 A 
HETATM    9  C   UNL     1      -0.848   7.810 -29.046  1.00  0.00     0.102 A 
HETATM   10  C   UNL     1       0.196   7.277 -28.280  1.00  0.00     0.040 A 
HETATM   11  C   UNL     1       0.700   6.005 -28.548  1.00  0.00     0.004 A 
HETATM   12  C   UNL     1       0.175   5.260 -29.600  1.00  0.00     0.020 A 
BRANCH   8  13
HETATM   13  O   UNL     1      -2.457   7.480 -30.870  1.00  0.00    -0.352 OA
HETATM   14  C   UNL     1      -2.049   8.246 -32.008  1.00  0.00     0.210 C 
ENDBRANCH   8  13
BRANCH   9  15
HETATM   15  O   UNL     1      -1.333   9.080 -28.878  1.00  0.00    -0.353 OA
HETATM   16  C   UNL     1      -2.234   9.316 -27.801  1.00  0.00     0.210 C 
ENDBRANCH   9  15
ENDBRANCH   4   7
ENDBRANCH   2   3
ENDBRANCH   1   2
BRANCH   1  17
HETATM   17  N   UNL     1      -4.849   2.972 -30.623  1.00  0.00    -0.061 N 
HETATM   18  H   UNL     1      -3.992   3.108 -30.071  1.00  0.00     0.280 HD
HETATM   19  C   UNL     1      -5.745   1.953 -29.954  1.00  0.00     0.236 C 
HETATM   20  C   UNL     1      -7.139   2.435 -30.285  1.00  0.00     0.029 C 
HETATM   21  C   UNL     1      -7.024   3.930 -30.090  1.00  0.00     0.029 C 
HETATM   22  C   UNL     1      -5.624   4.288 -30.566  1.00  0.00     0.236 C 
ENDBRANCH   1  17
BRANCH   1  23
HETATM   23  C   UNL     1      -4.326   1.089 -32.308  1.00  0.00    -0.015 A 
HETATM   24  C   UNL     1      -5.266   0.450 -33.183  1.00  0.00    -0.018 A 
HETATM   25  C   UNL     1      -5.167  -0.955 -33.368  1.00  0.00    -0.025 A 
HETATM   26  C   UNL     1      -6.301   1.114 -33.892  1.00  0.00     0.013 A 
HETATM   27  C   UNL     1      -6.072  -1.631 -34.202  1.00  0.00     0.012 A 
HETATM   28  C   UNL     1      -4.160  -1.685 -32.725  1.00  0.00     0.012 A 
HETATM   29  C   UNL     1      -7.082  -0.947 -34.872  1.00  0.00     0.001 A 
HETATM   30  C   UNL     1      -7.194   0.425 -34.719  1.00  0.00     0.001 A 
HETATM   31  C   UNL     1      -3.237  -1.057 -31.898  1.00  0.00     0.002 A 
HETATM   32  C   UNL     1      -3.319   0.314 -31.691  1.00  0.00     0.010 A 
ENDBRANCH   1  23
TORSDOF 7
ENDMDL
MODEL 5
REMARK VINA RESULT:      -8.4      1.540      2.118
REMARK  7 active torsions:
REMARK  status: ('A' for Active; 'I' for Inactive)
REMARK    1  A    between atoms: O_2  and  C_3 
REMARK    2  A    between atoms: C_4  and  O_5 
REMARK    3  A    between atoms: C_7  and  C_8 
REMARK       I    between atoms: C_8  and  N_9 
REMARK    4  A    between atoms: N_9  and  C_10 
REMARK    5  A    between atoms: C_10  and  C_11 
REMARK    6  A    between atoms: C_11  and  N_12 
REMARK    7  A    between atoms: C_11  and  C_18 
ROOT
HETATM    1  C   UNL     1      -8.829   3.315 -34.006  1.00  0.00     0.239 C 
ENDROOT
BRANCH   1   2
HETATM    2  C   UNL     1      -8.014   4.644 -33.888  1.00  0.00     0.161 C 
BRANCH   2   3
HETATM    3  N   UNL     1      -6.568   4.472 -33.812  1.00  0.00    -0.354 N 
HETATM    4  C   UNL     1      -5.712   5.453 -33.374  1.00  0.00     0.254 C 
HETATM    5  O   UNL     1      -6.147   6.494 -32.892  1.00  0.00    -0.268 OA
HETATM    6  H   UNL     1      -6.155   3.622 -34.190  1.00  0.00     0.162 HD
BRANCH   4   7
HETATM    7  C   UNL     1      -4.240   5.205 -33.457  1.00  0.00     0.068 A 
HETATM    8  C   UNL     1      -3.444   4.757 -32.382  1.00  0.00     0.117 A 
HETATM    9  C   UNL     1      -2.042   4.665 -32.544  1.00  0.00     0.102 A 
HETATM   10  C   UNL     1      -1.474   4.927 -33.798  1.00  0.00     0.040 A 
HETATM   11  C   UNL     1      -2.270   5.321 -34.872  1.00  0.00     0.004 A 
HETATM   12  C   UNL     1      -3.642   5.475 -34.698  1.00  0.00     0.020 A 
BRANCH   8  13
HETATM   13  O   UNL     1      -4.078   4.515 -31.182  1.00  0.00    -0.352 OA
HETATM   14  C   UNL     1      -4.455   3.152 -30.963  1.00  0.00     0.210 C 
ENDBRANCH   8  13
BRANCH   9  15
HETATM   15  O   UNL     1      -1.303   4.347 -31.435  1.00  0.00    -0.353 OA
HETATM   16  C   UNL     1      -0.579   5.390 -30.791  1.00  0.00     0.210 C 
ENDBRANCH   9  15
ENDBRANCH   4   7
ENDBRANCH   2   3
ENDBRANCH   1   2
BRANCH   1  17
HETATM   17  N   UNL     1     -10.335   3.562 -33.797  1.00  0.00    -0.061 N 
HETATM   18  H   UNL     1     -10.397   4.287 -33.070  1.00  0.00     0.280 HD
HETATM   19  C   UNL     1     -11.137   2.345 -33.389  1.00  0.00     0.236 C 
HETATM   20  C   UNL     1     -11.658   1.807 -34.701  1.00  0.00     0.029 C 
HETATM   21  C   UNL     1     -12.073   3.065 -35.430  1.00  0.00     0.029 C 
HETATM   22  C   UNL     1     -11.044   4.115 -35.033  1.00  0.00     0.236 C 
ENDBRANCH   1  17
BRANCH   1  23
HETATM   23  C   UNL     1      -8.226   2.267 -33.066  1.00  0.00    -0.015 A 
HETATM   24  C   UNL     1      -7.633   1.060 -33.562  1.00  0.00    -0.018 A 
HETATM   25  C   UNL     1      -7.111   0.130 -32.624  1.00  0.00    -0.025 A 
HETATM   26  C   UNL     1      -7.522   0.711 -34.934  1.00  0.00     0.013 A 
HETATM   27  C   UNL     1      -6.533  -1.075 -33.058  1.00  0.00     0.012 A 
HETATM   28  C   UNL     1      -7.158   0.405 -31.252  1.00  0.00     0.012 A 
HETATM   29  C   UNL     1      -6.452  -1.388 -34.412  1.00  0.00     0.001 A 
HETATM   30  C   UNL     1      -6.943  -0.493 -35.349  1.00  0.00     0.001 A 
HETATM   31  C   UNL     1      -7.712   1.587 -30.778  1.00  0.00     0.002 A 
HETATM   32  C   UNL     1      -8.240   2.508 -31.674  1.00  0.00     0.010 A 
ENDBRANCH   1  23
TORSDOF 7
ENDMDL
MODEL 6
REMARK VINA RESULT:      -8.4      1.308      2.034
REMARK  7 active torsions:
REMARK  status: ('A' for Active; 'I' for Inactive)
REMARK    1  A    between atoms: O_2  and  C_3 
REMARK    2  A    between atoms: C_4  and  O_5 
REMARK    3  A    between atoms: C_7  and  C_8 
REMARK       I    between atoms: C_8  and  N_9 
REMARK    4  A    between atoms: N_9  and  C_10 
REMARK    5  A    between atoms: C_10  and  C_11 
REMARK    6  A    between atoms: C_11  and  N_12 
REMARK    7  A    between atoms: C_11  and  C_18 
ROOT
HETATM    1  C   UNL     1      -6.808   1.199 -33.595  1.00  0.00     0.239 C 
ENDROOT
BRANCH   1   2
HETATM    2  C   UNL     1      -6.228   2.502 -34.236  1.00  0.00     0.161 C 
BRANCH   2   3
HETATM    3  N   UNL     1      -5.480   3.355 -33.321  1.00  0.00    -0.354 N 
HETATM    4  C   UNL     1      -4.831   4.500 -33.714  1.00  0.00     0.254 C 
HETATM    5  O   UNL     1      -4.964   4.935 -34.854  1.00  0.00    -0.268 OA
HETATM    6  H   UNL     1      -5.345   3.045 -32.360  1.00  0.00     0.162 HD
BRANCH   4   7
HETATM    7  C   UNL     1      -3.993   5.226 -32.712  1.00  0.00     0.068 A 
HETATM    8  C   UNL     1      -2.583   5.210 -32.688  1.00  0.00     0.117 A 
HETATM    9  C   UNL     1      -1.896   5.843 -31.625  1.00  0.00     0.102 A 
HETATM   10  C   UNL     1      -2.622   6.558 -30.664  1.00  0.00     0.040 A 
HETATM   11  C   UNL     1      -4.013   6.614 -30.719  1.00  0.00     0.004 A 
HETATM   12  C   UNL     1      -4.695   5.938 -31.727  1.00  0.00     0.020 A 
BRANCH   8  13
HETATM   13  O   UNL     1      -1.940   4.489 -33.672  1.00  0.00    -0.352 OA
HETATM   14  C   UNL     1      -1.463   5.265 -34.775  1.00  0.00     0.210 C 
ENDBRANCH   8  13
BRANCH   9  15
HETATM   15  O   UNL     1      -0.535   5.691 -31.581  1.00  0.00    -0.353 OA
HETATM   16  C   UNL     1       0.042   5.165 -30.390  1.00  0.00     0.210 C 
ENDBRANCH   9  15
ENDBRANCH   4   7
ENDBRANCH   2   3
ENDBRANCH   1   2
BRANCH   1  17
HETATM   17  N   UNL     1      -7.886   1.525 -32.544  1.00  0.00    -0.061 N 
HETATM   18  H   UNL     1      -7.409   2.082 -31.823  1.00  0.00     0.280 HD
HETATM   19  C   UNL     1      -8.556   0.322 -31.914  1.00  0.00     0.236 C 
HETATM   20  C   UNL     1      -9.792   0.122 -32.761  1.00  0.00     0.029 C 
HETATM   21  C   UNL     1     -10.286   1.537 -32.961  1.00  0.00     0.029 C 
HETATM   22  C   UNL     1      -9.028   2.386 -33.082  1.00  0.00     0.236 C 
ENDBRANCH   1  17
BRANCH   1  23
HETATM   23  C   UNL     1      -5.656   0.338 -33.070  1.00  0.00    -0.015 A 
HETATM   24  C   UNL     1      -5.404  -0.978 -33.580  1.00  0.00    -0.018 A 
HETATM   25  C   UNL     1      -4.325  -1.720 -33.028  1.00  0.00    -0.025 A 
HETATM   26  C   UNL     1      -6.152  -1.611 -34.607  1.00  0.00     0.013 A 
HETATM   27  C   UNL     1      -4.046  -3.019 -33.483  1.00  0.00     0.012 A 
HETATM   28  C   UNL     1      -3.521  -1.163 -32.027  1.00  0.00     0.012 A 
HETATM   29  C   UNL     1      -4.810  -3.612 -34.484  1.00  0.00     0.001 A 
HETATM   30  C   UNL     1      -5.860  -2.906 -35.049  1.00  0.00     0.001 A 
HETATM   31  C   UNL     1      -3.755   0.122 -31.553  1.00  0.00     0.002 A 
HETATM   32  C   UNL     1      -4.810   0.864 -32.068  1.00  0.00     0.010 A 
ENDBRANCH   1  23
TORSDOF 7
ENDMDL
MODEL 7
REMARK VINA RESULT:      -8.3      2.357      3.764
REMARK  7 active torsions:
REMARK  status: ('A' for Active; 'I' for Inactive)
REMARK    1  A    between atoms: O_2  and  C_3 
REMARK    2  A    between atoms: C_4  and  O_5 
REMARK    3  A    between atoms: C_7  and  C_8 
REMARK       I    between atoms: C_8  and  N_9 
REMARK    4  A    between atoms: N_9  and  C_10 
REMARK    5  A    between atoms: C_10  and  C_11 
REMARK    6  A    between atoms: C_11  and  N_12 
REMARK    7  A    between atoms: C_11  and  C_18 
ROOT
HETATM    1  C   UNL     1      -5.207   2.238 -32.312  1.00  0.00     0.239 C 
ENDROOT
BRANCH   1   2
HETATM    2  C   UNL     1      -3.644   2.227 -32.369  1.00  0.00     0.161 C 
BRANCH   2   3
HETATM    3  N   UNL     1      -2.997   3.334 -31.675  1.00  0.00    -0.354 N 
HETATM    4  C   UNL     1      -2.230   4.280 -32.310  1.00  0.00     0.254 C 
HETATM    5  O   UNL     1      -2.161   4.311 -33.534  1.00  0.00    -0.268 OA
HETATM    6  H   UNL     1      -3.029   3.361 -30.657  1.00  0.00     0.162 HD
BRANCH   4   7
HETATM    7  C   UNL     1      -1.515   5.296 -31.478  1.00  0.00     0.068 A 
HETATM    8  C   UNL     1      -2.147   6.176 -30.575  1.00  0.00     0.117 A 
HETATM    9  C   UNL     1      -1.384   7.173 -29.923  1.00  0.00     0.102 A 
HETATM   10  C   UNL     1       0.004   7.210 -30.110  1.00  0.00     0.040 A 
HETATM   11  C   UNL     1       0.633   6.307 -30.964  1.00  0.00     0.004 A 
HETATM   12  C   UNL     1      -0.124   5.366 -31.657  1.00  0.00     0.020 A 
BRANCH   8  13
HETATM   13  O   UNL     1      -3.516   6.072 -30.442  1.00  0.00    -0.352 OA
HETATM   14  C   UNL     1      -4.273   6.909 -31.322  1.00  0.00     0.210 C 
ENDBRANCH   8  13
BRANCH   9  15
HETATM   15  O   UNL     1      -2.065   8.081 -29.155  1.00  0.00    -0.353 OA
HETATM   16  C   UNL     1      -2.175   7.828 -27.758  1.00  0.00     0.210 C 
ENDBRANCH   9  15
ENDBRANCH   4   7
ENDBRANCH   2   3
ENDBRANCH   1   2
BRANCH   1  17
HETATM   17  N   UNL     1      -5.714   2.072 -30.867  1.00  0.00    -0.061 N 
HETATM   18  H   UNL     1      -4.977   1.553 -30.374  1.00  0.00     0.280 HD
HETATM   19  C   UNL     1      -7.039   1.353 -30.729  1.00  0.00     0.236 C 
HETATM   20  C   UNL     1      -8.050   2.475 -30.694  1.00  0.00     0.029 C 
HETATM   21  C   UNL     1      -7.379   3.493 -29.799  1.00  0.00     0.029 C 
HETATM   22  C   UNL     1      -5.896   3.395 -30.124  1.00  0.00     0.236 C 
ENDBRANCH   1  17
BRANCH   1  23
HETATM   23  C   UNL     1      -5.755   1.201 -33.296  1.00  0.00    -0.015 A 
HETATM   24  C   UNL     1      -5.245  -0.138 -33.343  1.00  0.00    -0.018 A 
HETATM   25  C   UNL     1      -5.796  -1.036 -34.296  1.00  0.00    -0.025 A 
HETATM   26  C   UNL     1      -4.221  -0.651 -32.503  1.00  0.00     0.013 A 
HETATM   27  C   UNL     1      -5.321  -2.355 -34.393  1.00  0.00     0.012 A 
HETATM   28  C   UNL     1      -6.826  -0.621 -35.149  1.00  0.00     0.012 A 
HETATM   29  C   UNL     1      -4.307  -2.818 -33.560  1.00  0.00     0.001 A 
HETATM   30  C   UNL     1      -3.760  -1.967 -32.612  1.00  0.00     0.001 A 
HETATM   31  C   UNL     1      -7.332   0.671 -35.082  1.00  0.00     0.002 A 
HETATM   32  C   UNL     1      -6.804   1.572 -34.167  1.00  0.00     0.010 A 
ENDBRANCH   1  23
TORSDOF 7
ENDMDL
MODEL 8
REMARK VINA RESULT:      -8.3      2.106      2.462
REMARK  7 active torsions:
REMARK  status: ('A' for Active; 'I' for Inactive)
REMARK    1  A    between atoms: O_2  and  C_3 
REMARK    2  A    between atoms: C_4  and  O_5 
REMARK    3  A    between atoms: C_7  and  C_8 
REMARK       I    between atoms: C_8  and  N_9 
REMARK    4  A    between atoms: N_9  and  C_10 
REMARK    5  A    between atoms: C_10  and  C_11 
REMARK    6  A    between atoms: C_11  and  N_12 
REMARK    7  A    between atoms: C_11  and  C_18 
ROOT
HETATM    1  C   UNL     1      -6.415   2.221 -33.150  1.00  0.00     0.239 C 
ENDROOT
BRANCH   1   2
HETATM    2  C   UNL     1      -5.830   3.300 -34.118  1.00  0.00     0.161 C 
BRANCH   2   3
HETATM    3  N   UNL     1      -4.977   4.297 -33.483  1.00  0.00    -0.354 N 
HETATM    4  C   UNL     1      -4.219   5.202 -34.185  1.00  0.00     0.254 C 
HETATM    5  O   UNL     1      -4.330   5.300 -35.403  1.00  0.00    -0.268 OA
HETATM    6  H   UNL     1      -4.856   4.266 -32.472  1.00  0.00     0.162 HD
BRANCH   4   7
HETATM    7  C   UNL     1      -3.289   6.094 -33.427  1.00  0.00     0.068 A 
HETATM    8  C   UNL     1      -3.583   6.677 -32.177  1.00  0.00     0.117 A 
HETATM    9  C   UNL     1      -2.672   7.595 -31.604  1.00  0.00     0.102 A 
HETATM   10  C   UNL     1      -1.448   7.840 -32.240  1.00  0.00     0.040 A 
HETATM   11  C   UNL     1      -1.139   7.224 -33.452  1.00  0.00     0.004 A 
HETATM   12  C   UNL     1      -2.061   6.370 -34.050  1.00  0.00     0.020 A 
BRANCH   8  13
HETATM   13  O   UNL     1      -4.806   6.383 -31.612  1.00  0.00    -0.352 OA
HETATM   14  C   UNL     1      -5.834   7.346 -31.863  1.00  0.00     0.210 C 
ENDBRANCH   8  13
BRANCH   9  15
HETATM   15  O   UNL     1      -3.061   8.228 -30.452  1.00  0.00    -0.353 OA
HETATM   16  C   UNL     1      -2.324   7.966 -29.263  1.00  0.00     0.210 C 
ENDBRANCH   9  15
ENDBRANCH   4   7
ENDBRANCH   2   3
ENDBRANCH   1   2
BRANCH   1  17
HETATM   17  N   UNL     1      -6.963   2.864 -31.862  1.00  0.00    -0.061 N 
HETATM   18  H   UNL     1      -6.154   3.310 -31.410  1.00  0.00     0.280 HD
HETATM   19  C   UNL     1      -7.635   1.907 -30.900  1.00  0.00     0.236 C 
HETATM   20  C   UNL     1      -9.097   1.997 -31.274  1.00  0.00     0.029 C 
HETATM   21  C   UNL     1      -9.290   3.481 -31.489  1.00  0.00     0.029 C 
HETATM   22  C   UNL     1      -7.990   3.967 -32.115  1.00  0.00     0.236 C 
ENDBRANCH   1  17
BRANCH   1  23
HETATM   23  C   UNL     1      -5.365   1.132 -32.913  1.00  0.00    -0.015 A 
HETATM   24  C   UNL     1      -5.467  -0.160 -33.526  1.00  0.00    -0.018 A 
HETATM   25  C   UNL     1      -4.460  -1.122 -33.243  1.00  0.00    -0.025 A 
HETATM   26  C   UNL     1      -6.504  -0.565 -34.407  1.00  0.00     0.013 A 
HETATM   27  C   UNL     1      -4.521  -2.407 -33.805  1.00  0.00     0.012 A 
HETATM   28  C   UNL     1      -3.388  -0.799 -32.402  1.00  0.00     0.012 A 
HETATM   29  C   UNL     1      -5.561  -2.772 -34.656  1.00  0.00     0.001 A 
HETATM   30  C   UNL     1      -6.549  -1.849 -34.960  1.00  0.00     0.001 A 
HETATM   31  C   UNL     1      -3.282   0.462 -31.830  1.00  0.00     0.002 A 
HETATM   32  C   UNL     1      -4.259   1.417 -32.082  1.00  0.00     0.010 A 
ENDBRANCH   1  23
TORSDOF 7
ENDMDL
MODEL 9
REMARK VINA RESULT:      -8.2      2.823      6.003
REMARK  7 active torsions:
REMARK  status: ('A' for Active; 'I' for Inactive)
REMARK    1  A    between atoms: O_2  and  C_3 
REMARK    2  A    between atoms: C_4  and  O_5 
REMARK    3  A    between atoms: C_7  and  C_8 
REMARK       I    between atoms: C_8  and  N_9 
REMARK    4  A    between atoms: N_9  and  C_10 
REMARK    5  A    between atoms: C_10  and  C_11 
REMARK    6  A    between atoms: C_11  and  N_12 
REMARK    7  A    between atoms: C_11  and  C_18 
ROOT
HETATM    1  C   UNL     1      -6.397   1.709 -32.025  1.00  0.00     0.239 C 
ENDROOT
BRANCH   1   2
HETATM    2  C   UNL     1      -6.569   2.476 -33.377  1.00  0.00     0.161 C 
BRANCH   2   3
HETATM    3  N   UNL     1      -7.944   2.582 -33.851  1.00  0.00    -0.354 N 
HETATM    4  C   UNL     1      -8.552   3.777 -34.145  1.00  0.00     0.254 C 
HETATM    5  O   UNL     1      -7.910   4.823 -34.147  1.00  0.00    -0.268 OA
HETATM    6  H   UNL     1      -8.520   1.742 -33.877  1.00  0.00     0.162 HD
BRANCH   4   7
HETATM    7  C   UNL     1     -10.004   3.771 -34.504  1.00  0.00     0.068 A 
HETATM    8  C   UNL     1     -10.782   2.605 -34.662  1.00  0.00     0.117 A 
HETATM    9  C   UNL     1     -12.118   2.714 -35.112  1.00  0.00     0.102 A 
HETATM   10  C   UNL     1     -12.680   3.983 -35.304  1.00  0.00     0.040 A 
HETATM   11  C   UNL     1     -11.923   5.135 -35.099  1.00  0.00     0.004 A 
HETATM   12  C   UNL     1     -10.588   5.029 -34.717  1.00  0.00     0.020 A 
BRANCH   8  13
HETATM   13  O   UNL     1     -10.158   1.393 -34.449  1.00  0.00    -0.352 OA
HETATM   14  C   UNL     1     -10.505   0.743 -33.222  1.00  0.00     0.210 C 
ENDBRANCH   8  13
BRANCH   9  15
HETATM   15  O   UNL     1     -12.789   1.547 -35.370  1.00  0.00    -0.353 OA
HETATM   16  C   UNL     1     -13.906   1.222 -34.549  1.00  0.00     0.210 C 
ENDBRANCH   9  15
ENDBRANCH   4   7
ENDBRANCH   2   3
ENDBRANCH   1   2
BRANCH   1  17
HETATM   17  N   UNL     1      -6.161   2.684 -30.856  1.00  0.00    -0.061 N 
HETATM   18  H   UNL     1      -5.323   2.336 -30.372  1.00  0.00     0.280 HD
HETATM   19  C   UNL     1      -7.311   2.809 -29.880  1.00  0.00     0.236 C 
HETATM   20  C   UNL     1      -8.084   4.001 -30.395  1.00  0.00     0.029 C 
HETATM   21  C   UNL     1      -6.984   4.974 -30.757  1.00  0.00     0.029 C 
HETATM   22  C   UNL     1      -5.852   4.113 -31.300  1.00  0.00     0.236 C 
ENDBRANCH   1  17
BRANCH   1  23
HETATM   23  C   UNL     1      -5.311   0.642 -32.184  1.00  0.00    -0.015 A 
HETATM   24  C   UNL     1      -5.494  -0.500 -33.032  1.00  0.00    -0.018 A 
HETATM   25  C   UNL     1      -4.445  -1.454 -33.113  1.00  0.00    -0.025 A 
HETATM   26  C   UNL     1      -6.653  -0.760 -33.810  1.00  0.00     0.013 A 
HETATM   27  C   UNL     1      -4.580  -2.598 -33.917  1.00  0.00     0.012 A 
HETATM   28  C   UNL     1      -3.257  -1.265 -32.397  1.00  0.00     0.012 A 
HETATM   29  C   UNL     1      -5.737  -2.825 -34.657  1.00  0.00     0.001 A 
HETATM   30  C   UNL     1      -6.771  -1.904 -34.606  1.00  0.00     0.001 A 
HETATM   31  C   UNL     1      -3.075  -0.145 -31.596  1.00  0.00     0.002 A 
HETATM   32  C   UNL     1      -4.090   0.798 -31.490  1.00  0.00     0.010 A 
ENDBRANCH   1  23
TORSDOF 7
ENDMDL
MODEL 10
REMARK VINA RESULT:      -8.2      3.107      6.947
REMARK  7 active torsions:
REMARK  status: ('A' for Active; 'I' for Inactive)
REMARK    1  A    between atoms: O_2  and  C_3 
REMARK    2  A    between atoms: C_4  and  O_5 
REMARK    3  A    between atoms: C_7  and  C_8 
REMARK       I    between atoms: C_8  and  N_9 
REMARK    4  A    between atoms: N_9  and  C_10 
REMARK    5  A    between atoms: C_10  and  C_11 
REMARK    6  A    between atoms: C_11  and  N_12 
REMARK    7  A    between atoms: C_11  and  C_18 
ROOT
HETATM    1  C   UNL     1      -7.253   1.139 -32.055  1.00  0.00     0.239 C 
ENDROOT
BRANCH   1   2
HETATM    2  C   UNL     1      -8.557   0.607 -31.375  1.00  0.00     0.161 C 
BRANCH   2   3
HETATM    3  N   UNL     1      -9.799   1.048 -31.999  1.00  0.00    -0.354 N 
HETATM    4  C   UNL     1     -10.613   0.220 -32.732  1.00  0.00     0.254 C 
HETATM    5  O   UNL     1     -10.394  -0.987 -32.784  1.00  0.00    -0.268 OA
HETATM    6  H   UNL     1     -10.033   2.039 -31.978  1.00  0.00     0.162 HD
BRANCH   4   7
HETATM    7  C   UNL     1     -11.795   0.813 -33.428  1.00  0.00     0.068 A 
HETATM    8  C   UNL     1     -11.875   2.153 -33.864  1.00  0.00     0.117 A 
HETATM    9  C   UNL     1     -13.087   2.636 -34.411  1.00  0.00     0.102 A 
HETATM   10  C   UNL     1     -14.158   1.753 -34.602  1.00  0.00     0.040 A 
HETATM   11  C   UNL     1     -14.058   0.418 -34.216  1.00  0.00     0.004 A 
HETATM   12  C   UNL     1     -12.889  -0.045 -33.618  1.00  0.00     0.020 A 
BRANCH   8  13
HETATM   13  O   UNL     1     -10.777   2.957 -33.646  1.00  0.00    -0.352 OA
HETATM   14  C   UNL     1     -10.159   3.469 -34.831  1.00  0.00     0.210 C 
ENDBRANCH   8  13
BRANCH   9  15
HETATM   15  O   UNL     1     -13.153   3.974 -34.701  1.00  0.00    -0.353 OA
HETATM   16  C   UNL     1     -13.490   4.871 -33.649  1.00  0.00     0.210 C 
ENDBRANCH   9  15
ENDBRANCH   4   7
ENDBRANCH   2   3
ENDBRANCH   1   2
BRANCH   1  17
HETATM   17  N   UNL     1      -7.551   2.338 -32.975  1.00  0.00    -0.061 N 
HETATM   18  H   UNL     1      -8.495   2.171 -33.347  1.00  0.00     0.280 HD
HETATM   19  C   UNL     1      -6.570   2.537 -34.110  1.00  0.00     0.236 C 
HETATM   20  C   UNL     1      -5.577   3.528 -33.550  1.00  0.00     0.029 C 
HETATM   21  C   UNL     1      -6.468   4.514 -32.828  1.00  0.00     0.029 C 
HETATM   22  C   UNL     1      -7.596   3.678 -32.242  1.00  0.00     0.236 C 
ENDBRANCH   1  17
BRANCH   1  23
HETATM   23  C   UNL     1      -6.534  -0.023 -32.746  1.00  0.00    -0.015 A 
HETATM   24  C   UNL     1      -5.192  -0.392 -32.403  1.00  0.00    -0.018 A 
HETATM   25  C   UNL     1      -4.589  -1.471 -33.103  1.00  0.00    -0.025 A 
HETATM   26  C   UNL     1      -4.403   0.241 -31.406  1.00  0.00     0.013 A 
HETATM   27  C   UNL     1      -3.271  -1.861 -32.815  1.00  0.00     0.012 A 
HETATM   28  C   UNL     1      -5.304  -2.165 -34.086  1.00  0.00     0.012 A 
HETATM   29  C   UNL     1      -2.524  -1.209 -31.838  1.00  0.00     0.001 A 
HETATM   30  C   UNL     1      -3.092  -0.162 -31.131  1.00  0.00     0.001 A 
HETATM   31  C   UNL     1      -6.612  -1.819 -34.398  1.00  0.00     0.002 A 
HETATM   32  C   UNL     1      -7.221  -0.761 -33.736  1.00  0.00     0.010 A 
ENDBRANCH   1  23
TORSDOF 7
ENDMDL
