MODEL 1
REMARK VINA RESULT:      -8.7      0.000      0.000
REMARK  4 active torsions:
REMARK  status: ('A' for Active; 'I' for Inactive)
REMARK    1  A    between atoms: C_2  and  C_3 
REMARK    2  A    between atoms: C_4  and  N_5 
REMARK       I    between atoms: N_5  and  C_6 
REMARK    3  A    between atoms: C_6  and  C_7 
REMARK    4  A    between atoms: C_19  and  C_20 
ROOT
HETATM    1  N   UNL     1      -8.277   0.067 -33.828  1.00  0.00    -0.321 N 
HETATM    2  C   UNL     1      -9.198   0.303 -32.816  1.00  0.00     0.277 C 
HETATM    3  O   UNL     1      -8.975   0.335 -31.615  1.00  0.00    -0.266 OA
HETATM    4  H   UNL     1      -8.573   0.466 -34.710  1.00  0.00     0.169 HD
ENDROOT
BRANCH   2   5
HETATM    5  C   UNL     1     -10.594   0.634 -33.361  1.00  0.00     0.156 A 
HETATM    6  N   UNL     1     -11.504  -0.278 -33.145  1.00  0.00    -0.166 NA
HETATM    7  N   UNL     1     -12.755  -0.071 -33.637  1.00  0.00    -0.242 N 
HETATM    8  C   UNL     1     -13.160   1.005 -34.389  1.00  0.00     0.272 A 
HETATM    9  H   UNL     1     -13.440  -0.805 -33.480  1.00  0.00     0.192 HD
HETATM   10  O   UNL     1     -14.296   1.098 -34.837  1.00  0.00    -0.266 OA
HETATM   11  C   UNL     1     -12.151   2.054 -34.613  1.00  0.00     0.046 A 
HETATM   12  C   UNL     1     -10.869   1.898 -34.084  1.00  0.00     0.016 A 
HETATM   13  C   UNL     1     -12.496   3.204 -35.336  1.00  0.00     0.018 A 
HETATM   14  C   UNL     1      -9.935   2.926 -34.259  1.00  0.00     0.015 A 
HETATM   15  C   UNL     1     -10.278   4.075 -34.980  1.00  0.00     0.001 A 
HETATM   16  C   UNL     1     -11.554   4.213 -35.522  1.00  0.00     0.001 A 
ENDBRANCH   2   5
BRANCH   1  17
HETATM   17  C   UNL     1      -6.901  -0.075 -33.558  1.00  0.00     0.049 A 
HETATM   18  C   UNL     1      -6.323  -1.367 -33.721  1.00  0.00    -0.031 A 
HETATM   19  C   UNL     1      -4.968  -1.565 -33.421  1.00  0.00     0.011 A 
HETATM   20  C   UNL     1      -4.184  -0.510 -32.988  1.00  0.00     0.025 A 
HETATM   21  C   UNL     1      -4.735   0.766 -32.879  1.00  0.00     0.042 A 
HETATM   22  C   UNL     1      -6.100   1.033 -33.178  1.00  0.00    -0.009 A 
HETATM   23 CL   UNL     1      -3.644   2.006 -32.332  1.00  0.00    -0.084 Cl
BRANCH  18  24
HETATM   24  C   UNL     1      -7.056  -2.539 -34.349  1.00  0.00     0.036 C 
HETATM   25  C   UNL     1      -6.081  -3.579 -34.889  1.00  0.00     0.010 C 
ENDBRANCH  18  24
BRANCH  22  26
HETATM   26  C   UNL     1      -6.557   2.472 -32.967  1.00  0.00     0.038 C 
HETATM   27  C   UNL     1      -6.352   3.575 -33.991  1.00  0.00     0.010 C 
ENDBRANCH  22  26
ENDBRANCH   1  17
TORSDOF 4
ENDMDL
MODEL 2
REMARK VINA RESULT:      -8.4      2.947      6.949
REMARK  4 active torsions:
REMARK  status: ('A' for Active; 'I' for Inactive)
REMARK    1  A    between atoms: C_2  and  C_3 
REMARK    2  A    between atoms: C_4  and  N_5 
REMARK       I    between atoms: N_5  and  C_6 
REMARK    3  A    between atoms: C_6  and  C_7 
REMARK    4  A    between atoms: C_19  and  C_20 
ROOT
HETATM    1  N   UNL     1      -7.585  -0.297 -32.721  1.00  0.00    -0.321 N 
HETATM    2  C   UNL     1      -6.709  -0.326 -33.798  1.00  0.00     0.277 C 
HETATM    3  O   UNL     1      -6.326   0.628 -34.456  1.00  0.00    -0.266 OA
HETATM    4  H   UNL     1      -7.455  -1.089 -32.105  1.00  0.00     0.169 HD
ENDROOT
BRANCH   2   5
HETATM    5  C   UNL     1      -6.149  -1.731 -34.058  1.00  0.00     0.156 A 
HETATM    6  N   UNL     1      -6.805  -2.434 -34.942  1.00  0.00    -0.166 NA
HETATM    7  N   UNL     1      -6.391  -3.705 -35.194  1.00  0.00    -0.242 N 
HETATM    8  C   UNL     1      -5.354  -4.354 -34.570  1.00  0.00     0.272 A 
HETATM    9  H   UNL     1      -6.931  -4.242 -35.866  1.00  0.00     0.192 HD
HETATM   10  O   UNL     1      -5.069  -5.521 -34.819  1.00  0.00    -0.266 OA
HETATM   11  C   UNL     1      -4.588  -3.563 -33.592  1.00  0.00     0.046 A 
HETATM   12  C   UNL     1      -4.956  -2.240 -33.342  1.00  0.00     0.016 A 
HETATM   13  C   UNL     1      -3.489  -4.140 -32.942  1.00  0.00     0.018 A 
HETATM   14  C   UNL     1      -4.188  -1.481 -32.451  1.00  0.00     0.015 A 
HETATM   15  C   UNL     1      -3.090  -2.055 -31.800  1.00  0.00     0.001 A 
HETATM   16  C   UNL     1      -2.744  -3.383 -32.040  1.00  0.00     0.001 A 
ENDBRANCH   2   5
BRANCH   1  17
HETATM   17  C   UNL     1      -8.072   0.917 -32.196  1.00  0.00     0.049 A 
HETATM   18  C   UNL     1      -9.370   1.342 -32.603  1.00  0.00    -0.031 A 
HETATM   19  C   UNL     1      -9.877   2.566 -32.142  1.00  0.00     0.011 A 
HETATM   20  C   UNL     1      -9.135   3.351 -31.277  1.00  0.00     0.025 A 
HETATM   21  C   UNL     1      -7.887   2.911 -30.835  1.00  0.00     0.042 A 
HETATM   22  C   UNL     1      -7.323   1.675 -31.260  1.00  0.00    -0.009 A 
HETATM   23 CL   UNL     1      -7.059   3.986 -29.746  1.00  0.00    -0.084 Cl
BRANCH  18  24
HETATM   24  C   UNL     1     -10.322   0.475 -33.407  1.00  0.00     0.036 C 
HETATM   25  C   UNL     1     -11.612   1.219 -33.729  1.00  0.00     0.010 C 
ENDBRANCH  18  24
BRANCH  22  26
HETATM   26  C   UNL     1      -5.933   1.360 -30.719  1.00  0.00     0.038 C 
HETATM   27  C   UNL     1      -5.685   0.471 -29.512  1.00  0.00     0.010 C 
ENDBRANCH  22  26
ENDBRANCH   1  17
TORSDOF 4
ENDMDL
MODEL 3
REMARK VINA RESULT:      -8.4      1.619      2.338
REMARK  4 active torsions:
REMARK  status: ('A' for Active; 'I' for Inactive)
REMARK    1  A    between atoms: C_2  and  C_3 
REMARK    2  A    between atoms: C_4  and  N_5 
REMARK       I    between atoms: N_5  and  C_6 
REMARK    3  A    between atoms: C_6  and  C_7 
REMARK    4  A    between atoms: C_19  and  C_20 
ROOT
HETATM    1  N   UNL     1      -7.731   1.024 -34.128  1.00  0.00    -0.321 N 
HETATM    2  C   UNL     1      -8.846   1.198 -33.318  1.00  0.00     0.277 C 
HETATM    3  O   UNL     1      -8.936   0.927 -32.130  1.00  0.00    -0.266 OA
HETATM    4  H   UNL     1      -7.739   1.651 -34.922  1.00  0.00     0.169 HD
ENDROOT
BRANCH   2   5
HETATM    5  C   UNL     1     -10.003   1.887 -34.053  1.00  0.00     0.156 A 
HETATM    6  N   UNL     1      -9.689   3.001 -34.659  1.00  0.00    -0.166 NA
HETATM    7  N   UNL     1     -10.674   3.689 -35.296  1.00  0.00    -0.242 N 
HETATM    8  C   UNL     1     -12.003   3.346 -35.336  1.00  0.00     0.272 A 
HETATM    9  H   UNL     1     -10.413   4.565 -35.740  1.00  0.00     0.192 HD
HETATM   10  O   UNL     1     -12.842   4.045 -35.894  1.00  0.00    -0.266 OA
HETATM   11  C   UNL     1     -12.365   2.077 -34.682  1.00  0.00     0.046 A 
HETATM   12  C   UNL     1     -11.372   1.321 -34.056  1.00  0.00     0.016 A 
HETATM   13  C   UNL     1     -13.694   1.636 -34.712  1.00  0.00     0.018 A 
HETATM   14  C   UNL     1     -11.718   0.091 -33.484  1.00  0.00     0.015 A 
HETATM   15  C   UNL     1     -13.045  -0.352 -33.514  1.00  0.00     0.001 A 
HETATM   16  C   UNL     1     -14.033   0.420 -34.121  1.00  0.00     0.001 A 
ENDBRANCH   2   5
BRANCH   1  17
HETATM   17  C   UNL     1      -6.500   0.578 -33.608  1.00  0.00     0.049 A 
HETATM   18  C   UNL     1      -6.174  -0.800 -33.762  1.00  0.00    -0.031 A 
HETATM   19  C   UNL     1      -4.980  -1.297 -33.221  1.00  0.00     0.011 A 
HETATM   20  C   UNL     1      -4.106  -0.453 -32.558  1.00  0.00     0.025 A 
HETATM   21  C   UNL     1      -4.398   0.906 -32.453  1.00  0.00     0.042 A 
HETATM   22  C   UNL     1      -5.588   1.472 -32.989  1.00  0.00    -0.009 A 
HETATM   23 CL   UNL     1      -3.216   1.860 -31.604  1.00  0.00    -0.084 Cl
BRANCH  18  24
HETATM   24  C   UNL     1      -6.982  -1.762 -34.615  1.00  0.00     0.036 C 
HETATM   25  C   UNL     1      -6.286  -3.111 -34.742  1.00  0.00     0.010 C 
ENDBRANCH  18  24
BRANCH  22  26
HETATM   26  C   UNL     1      -5.777   2.966 -32.753  1.00  0.00     0.038 C 
HETATM   27  C   UNL     1      -5.688   4.007 -33.856  1.00  0.00     0.010 C 
ENDBRANCH  22  26
ENDBRANCH   1  17
TORSDOF 4
ENDMDL
MODEL 4
REMARK VINA RESULT:      -8.2      3.181      7.281
REMARK  4 active torsions:
REMARK  status: ('A' for Active; 'I' for Inactive)
REMARK    1  A    between atoms: C_2  and  C_3 
REMARK    2  A    between atoms: C_4  and  N_5 
REMARK       I    between atoms: N_5  and  C_6 
REMARK    3  A    between atoms: C_6  and  C_7 
REMARK    4  A    between atoms: C_19  and  C_20 
ROOT
HETATM    1  N   UNL     1      -6.900   2.141 -33.454  1.00  0.00    -0.321 N 
HETATM    2  C   UNL     1      -6.799   1.559 -32.197  1.00  0.00     0.277 C 
HETATM    3  O   UNL     1      -7.541   1.742 -31.245  1.00  0.00    -0.266 OA
HETATM    4  H   UNL     1      -6.458   1.576 -34.169  1.00  0.00     0.169 HD
ENDROOT
BRANCH   2   5
HETATM    5  C   UNL     1      -5.664   0.529 -32.118  1.00  0.00     0.156 A 
HETATM    6  N   UNL     1      -4.738   0.791 -31.236  1.00  0.00    -0.166 NA
HETATM    7  N   UNL     1      -3.679  -0.056 -31.140  1.00  0.00    -0.242 N 
HETATM    8  C   UNL     1      -3.458  -1.165 -31.920  1.00  0.00     0.272 A 
HETATM    9  H   UNL     1      -2.957   0.180 -30.465  1.00  0.00     0.192 HD
HETATM   10  O   UNL     1      -2.453  -1.856 -31.804  1.00  0.00    -0.266 OA
HETATM   11  C   UNL     1      -4.511  -1.489 -32.898  1.00  0.00     0.046 A 
HETATM   12  C   UNL     1      -5.634  -0.666 -32.994  1.00  0.00     0.016 A 
HETATM   13  C   UNL     1      -4.381  -2.627 -33.705  1.00  0.00     0.018 A 
HETATM   14  C   UNL     1      -6.652  -1.014 -33.889  1.00  0.00     0.015 A 
HETATM   15  C   UNL     1      -6.525  -2.150 -34.696  1.00  0.00     0.001 A 
HETATM   16  C   UNL     1      -5.390  -2.953 -34.609  1.00  0.00     0.001 A 
ENDBRANCH   2   5
BRANCH   1  17
HETATM   17  C   UNL     1      -7.981   2.976 -33.799  1.00  0.00     0.049 A 
HETATM   18  C   UNL     1      -7.756   4.382 -33.810  1.00  0.00    -0.031 A 
HETATM   19  C   UNL     1      -8.815   5.254 -34.103  1.00  0.00     0.011 A 
HETATM   20  C   UNL     1     -10.071   4.755 -34.404  1.00  0.00     0.025 A 
HETATM   21  C   UNL     1     -10.279   3.377 -34.446  1.00  0.00     0.042 A 
HETATM   22  C   UNL     1      -9.243   2.442 -34.167  1.00  0.00    -0.009 A 
HETATM   23 CL   UNL     1     -11.899   2.879 -34.842  1.00  0.00    -0.084 Cl
BRANCH  18  24
HETATM   24  C   UNL     1      -6.382   5.012 -33.663  1.00  0.00     0.036 C 
HETATM   25  C   UNL     1      -6.396   6.141 -32.639  1.00  0.00     0.010 C 
ENDBRANCH  18  24
BRANCH  22  26
HETATM   26  C   UNL     1      -9.646   0.973 -34.214  1.00  0.00     0.038 C 
HETATM   27  C   UNL     1     -10.192   0.215 -33.017  1.00  0.00     0.010 C 
ENDBRANCH  22  26
ENDBRANCH   1  17
TORSDOF 4
ENDMDL
MODEL 5
REMARK VINA RESULT:      -8.1      3.233      7.089
REMARK  4 active torsions:
REMARK  status: ('A' for Active; 'I' for Inactive)
REMARK    1  A    between atoms: C_2  and  C_3 
REMARK    2  A    between atoms: C_4  and  N_5 
REMARK       I    between atoms: N_5  and  C_6 
REMARK    3  A    between atoms: C_6  and  C_7 
REMARK    4  A    between atoms: C_19  and  C_20 
ROOT
HETATM    1  N   UNL     1      -7.406   1.082 -31.604  1.00  0.00    -0.321 N 
HETATM    2  C   UNL     1      -6.323   1.209 -32.464  1.00  0.00     0.277 C 
HETATM    3  O   UNL     1      -6.102   2.134 -33.230  1.00  0.00    -0.266 OA
HETATM    4  H   UNL     1      -7.196   0.481 -30.817  1.00  0.00     0.169 HD
ENDROOT
BRANCH   2   5
HETATM    5  C   UNL     1      -5.311   0.067 -32.303  1.00  0.00     0.156 A 
HETATM    6  N   UNL     1      -4.424   0.242 -31.361  1.00  0.00    -0.166 NA
HETATM    7  N   UNL     1      -3.468  -0.710 -31.189  1.00  0.00    -0.242 N 
HETATM    8  C   UNL     1      -3.313  -1.845 -31.947  1.00  0.00     0.272 A 
HETATM    9  H   UNL     1      -2.773  -0.542 -30.468  1.00  0.00     0.192 HD
HETATM   10  O   UNL     1      -2.396  -2.636 -31.759  1.00  0.00    -0.266 OA
HETATM   11  C   UNL     1      -4.325  -2.069 -32.993  1.00  0.00     0.046 A 
HETATM   12  C   UNL     1      -5.348  -1.135 -33.169  1.00  0.00     0.016 A 
HETATM   13  C   UNL     1      -4.261  -3.224 -33.784  1.00  0.00     0.018 A 
HETATM   14  C   UNL     1      -6.334  -1.385 -34.130  1.00  0.00     0.015 A 
HETATM   15  C   UNL     1      -6.273  -2.538 -34.921  1.00  0.00     0.001 A 
HETATM   16  C   UNL     1      -5.236  -3.454 -34.753  1.00  0.00     0.001 A 
ENDBRANCH   2   5
BRANCH   1  17
HETATM   17  C   UNL     1      -8.359   2.110 -31.457  1.00  0.00     0.049 A 
HETATM   18  C   UNL     1      -9.562   2.013 -32.214  1.00  0.00    -0.031 A 
HETATM   19  C   UNL     1     -10.518   3.035 -32.135  1.00  0.00     0.011 A 
HETATM   20  C   UNL     1     -10.312   4.125 -31.307  1.00  0.00     0.025 A 
HETATM   21  C   UNL     1      -9.160   4.196 -30.525  1.00  0.00     0.042 A 
HETATM   22  C   UNL     1      -8.157   3.186 -30.555  1.00  0.00    -0.009 A 
HETATM   23 CL   UNL     1      -9.024   5.612 -29.524  1.00  0.00    -0.084 Cl
BRANCH  18  24
HETATM   24  C   UNL     1      -9.952   0.781 -33.013  1.00  0.00     0.036 C 
HETATM   25  C   UNL     1     -11.327   0.945 -33.648  1.00  0.00     0.010 C 
ENDBRANCH  18  24
BRANCH  22  26
HETATM   26  C   UNL     1      -6.940   3.434 -29.671  1.00  0.00     0.038 C 
HETATM   27  C   UNL     1      -5.631   4.004 -30.189  1.00  0.00     0.010 C 
ENDBRANCH  22  26
ENDBRANCH   1  17
TORSDOF 4
ENDMDL
MODEL 6
REMARK VINA RESULT:      -8.1     15.246     17.886
REMARK  4 active torsions:
REMARK  status: ('A' for Active; 'I' for Inactive)
REMARK    1  A    between atoms: C_2  and  C_3 
REMARK    2  A    between atoms: C_4  and  N_5 
REMARK       I    between atoms: N_5  and  C_6 
REMARK    3  A    between atoms: C_6  and  C_7 
REMARK    4  A    between atoms: C_19  and  C_20 
ROOT
HETATM    1  N   UNL     1      -4.065 -13.971 -38.900  1.00  0.00    -0.321 N 
HETATM    2  C   UNL     1      -3.027 -13.079 -38.667  1.00  0.00     0.277 C 
HETATM    3  O   UNL     1      -3.125 -11.937 -38.243  1.00  0.00    -0.266 OA
HETATM    4  H   UNL     1      -3.752 -14.933 -38.861  1.00  0.00     0.169 HD
ENDROOT
BRANCH   2   5
HETATM    5  C   UNL     1      -1.648 -13.707 -38.909  1.00  0.00     0.156 A 
HETATM    6  N   UNL     1      -1.174 -13.555 -40.116  1.00  0.00    -0.166 NA
HETATM    7  N   UNL     1       0.025 -14.123 -40.416  1.00  0.00    -0.242 N 
HETATM    8  C   UNL     1       0.788 -14.891 -39.571  1.00  0.00     0.272 A 
HETATM    9  H   UNL     1       0.363 -14.014 -41.367  1.00  0.00     0.192 HD
HETATM   10  O   UNL     1       1.840 -15.410 -39.930  1.00  0.00    -0.266 OA
HETATM   11  C   UNL     1       0.279 -15.046 -38.198  1.00  0.00     0.046 A 
HETATM   12  C   UNL     1      -0.927 -14.439 -37.841  1.00  0.00     0.016 A 
HETATM   13  C   UNL     1       1.018 -15.782 -37.262  1.00  0.00     0.018 A 
HETATM   14  C   UNL     1      -1.374 -14.548 -36.519  1.00  0.00     0.015 A 
HETATM   15  C   UNL     1      -0.636 -15.282 -35.583  1.00  0.00     0.001 A 
HETATM   16  C   UNL     1       0.555 -15.903 -35.954  1.00  0.00     0.001 A 
ENDBRANCH   2   5
BRANCH   1  17
HETATM   17  C   UNL     1      -5.397 -13.660 -38.566  1.00  0.00     0.049 A 
HETATM   18  C   UNL     1      -5.837 -13.958 -37.244  1.00  0.00    -0.031 A 
HETATM   19  C   UNL     1      -7.168 -13.708 -36.880  1.00  0.00     0.011 A 
HETATM   20  C   UNL     1      -8.051 -13.152 -37.790  1.00  0.00     0.025 A 
HETATM   21  C   UNL     1      -7.608 -12.810 -39.067  1.00  0.00     0.042 A 
HETATM   22  C   UNL     1      -6.268 -13.030 -39.493  1.00  0.00    -0.009 A 
HETATM   23 CL   UNL     1      -8.812 -12.113 -40.112  1.00  0.00    -0.084 Cl
BRANCH  18  24
HETATM   24  C   UNL     1      -4.905 -14.408 -36.133  1.00  0.00     0.036 C 
HETATM   25  C   UNL     1      -4.652 -13.287 -35.132  1.00  0.00     0.010 C 
ENDBRANCH  18  24
BRANCH  22  26
HETATM   26  C   UNL     1      -5.956 -12.640 -40.933  1.00  0.00     0.038 C 
HETATM   27  C   UNL     1      -5.658 -13.648 -42.029  1.00  0.00     0.010 C 
ENDBRANCH  22  26
ENDBRANCH   1  17
TORSDOF 4
ENDMDL
MODEL 7
REMARK VINA RESULT:      -8.0      4.494      7.227
REMARK  4 active torsions:
REMARK  status: ('A' for Active; 'I' for Inactive)
REMARK    1  A    between atoms: C_2  and  C_3 
REMARK    2  A    between atoms: C_4  and  N_5 
REMARK       I    between atoms: N_5  and  C_6 
REMARK    3  A    between atoms: C_6  and  C_7 
REMARK    4  A    between atoms: C_19  and  C_20 
ROOT
HETATM    1  N   UNL     1      -4.371   2.406 -32.744  1.00  0.00    -0.321 N 
HETATM    2  C   UNL     1      -4.498   1.583 -31.633  1.00  0.00     0.277 C 
HETATM    3  O   UNL     1      -4.846   1.916 -30.511  1.00  0.00    -0.266 OA
HETATM    4  H   UNL     1      -4.462   1.890 -33.610  1.00  0.00     0.169 HD
ENDROOT
BRANCH   2   5
HETATM    5  C   UNL     1      -4.240   0.107 -31.965  1.00  0.00     0.156 A 
HETATM    6  N   UNL     1      -3.266  -0.450 -31.297  1.00  0.00    -0.166 NA
HETATM    7  N   UNL     1      -2.953  -1.745 -31.570  1.00  0.00    -0.242 N 
HETATM    8  C   UNL     1      -3.543  -2.534 -32.526  1.00  0.00     0.272 A 
HETATM    9  H   UNL     1      -2.175  -2.150 -31.056  1.00  0.00     0.192 HD
HETATM   10  O   UNL     1      -3.173  -3.682 -32.746  1.00  0.00    -0.266 OA
HETATM   11  C   UNL     1      -4.662  -1.928 -33.266  1.00  0.00     0.046 A 
HETATM   12  C   UNL     1      -5.042  -0.615 -32.981  1.00  0.00     0.016 A 
HETATM   13  C   UNL     1      -5.344  -2.680 -34.232  1.00  0.00     0.018 A 
HETATM   14  C   UNL     1      -6.141  -0.067 -33.653  1.00  0.00     0.015 A 
HETATM   15  C   UNL     1      -6.824  -0.817 -34.617  1.00  0.00     0.001 A 
HETATM   16  C   UNL     1      -6.424  -2.119 -34.911  1.00  0.00     0.001 A 
ENDBRANCH   2   5
BRANCH   1  17
HETATM   17  C   UNL     1      -4.740   3.765 -32.704  1.00  0.00     0.049 A 
HETATM   18  C   UNL     1      -3.705   4.729 -32.535  1.00  0.00    -0.031 A 
HETATM   19  C   UNL     1      -4.030   6.090 -32.444  1.00  0.00     0.011 A 
HETATM   20  C   UNL     1      -5.347   6.504 -32.540  1.00  0.00     0.025 A 
HETATM   21  C   UNL     1      -6.356   5.567 -32.759  1.00  0.00     0.042 A 
HETATM   22  C   UNL     1      -6.089   4.174 -32.869  1.00  0.00    -0.009 A 
HETATM   23 CL   UNL     1      -7.967   6.216 -32.868  1.00  0.00    -0.084 Cl
BRANCH  18  24
HETATM   24  C   UNL     1      -2.226   4.389 -32.590  1.00  0.00     0.036 C 
HETATM   25  C   UNL     1      -1.507   5.210 -33.653  1.00  0.00     0.010 C 
ENDBRANCH  18  24
BRANCH  22  26
HETATM   26  C   UNL     1      -7.307   3.278 -33.066  1.00  0.00     0.038 C 
HETATM   27  C   UNL     1      -8.078   2.649 -31.918  1.00  0.00     0.010 C 
ENDBRANCH  22  26
ENDBRANCH   1  17
TORSDOF 4
ENDMDL
MODEL 8
REMARK VINA RESULT:      -7.9      3.495      6.210
REMARK  4 active torsions:
REMARK  status: ('A' for Active; 'I' for Inactive)
REMARK    1  A    between atoms: C_2  and  C_3 
REMARK    2  A    between atoms: C_4  and  N_5 
REMARK       I    between atoms: N_5  and  C_6 
REMARK    3  A    between atoms: C_6  and  C_7 
REMARK    4  A    between atoms: C_19  and  C_20 
ROOT
HETATM    1  N   UNL     1      -5.875   1.599 -33.443  1.00  0.00    -0.321 N 
HETATM    2  C   UNL     1      -6.232   2.080 -32.190  1.00  0.00     0.277 C 
HETATM    3  O   UNL     1      -6.625   1.423 -31.238  1.00  0.00    -0.266 OA
HETATM    4  H   UNL     1      -5.231   2.219 -33.917  1.00  0.00     0.169 HD
ENDROOT
BRANCH   2   5
HETATM    5  C   UNL     1      -5.992   3.589 -32.052  1.00  0.00     0.156 A 
HETATM    6  N   UNL     1      -7.045   4.292 -31.734  1.00  0.00    -0.166 NA
HETATM    7  N   UNL     1      -6.916   5.642 -31.636  1.00  0.00    -0.242 N 
HETATM    8  C   UNL     1      -5.774   6.364 -31.882  1.00  0.00     0.272 A 
HETATM    9  H   UNL     1      -7.754   6.172 -31.412  1.00  0.00     0.192 HD
HETATM   10  O   UNL     1      -5.748   7.588 -31.818  1.00  0.00    -0.266 OA
HETATM   11  C   UNL     1      -4.571   5.581 -32.213  1.00  0.00     0.046 A 
HETATM   12  C   UNL     1      -4.655   4.189 -32.278  1.00  0.00     0.016 A 
HETATM   13  C   UNL     1      -3.355   6.240 -32.438  1.00  0.00     0.018 A 
HETATM   14  C   UNL     1      -3.494   3.453 -32.540  1.00  0.00     0.015 A 
HETATM   15  C   UNL     1      -2.279   4.109 -32.766  1.00  0.00     0.001 A 
HETATM   16  C   UNL     1      -2.209   5.500 -32.720  1.00  0.00     0.001 A 
ENDBRANCH   2   5
BRANCH   1  17
HETATM   17  C   UNL     1      -5.843   0.219 -33.724  1.00  0.00     0.049 A 
HETATM   18  C   UNL     1      -6.951  -0.342 -34.421  1.00  0.00    -0.031 A 
HETATM   19  C   UNL     1      -6.984  -1.720 -34.683  1.00  0.00     0.011 A 
HETATM   20  C   UNL     1      -5.936  -2.533 -34.288  1.00  0.00     0.025 A 
HETATM   21  C   UNL     1      -4.826  -1.977 -33.653  1.00  0.00     0.042 A 
HETATM   22  C   UNL     1      -4.730  -0.586 -33.368  1.00  0.00    -0.009 A 
HETATM   23 CL   UNL     1      -3.575  -3.104 -33.214  1.00  0.00    -0.084 Cl
BRANCH  18  24
HETATM   24  C   UNL     1      -8.060   0.490 -35.041  1.00  0.00     0.036 C 
HETATM   25  C   UNL     1      -9.238   0.644 -34.087  1.00  0.00     0.010 C 
ENDBRANCH  18  24
BRANCH  22  26
HETATM   26  C   UNL     1      -3.471  -0.145 -32.631  1.00  0.00     0.038 C 
HETATM   27  C   UNL     1      -3.371  -0.063 -31.117  1.00  0.00     0.010 C 
ENDBRANCH  22  26
ENDBRANCH   1  17
TORSDOF 4
ENDMDL
MODEL 9
REMARK VINA RESULT:      -7.9      3.854      6.256
REMARK  4 active torsions:
REMARK  status: ('A' for Active; 'I' for Inactive)
REMARK    1  A    between atoms: C_2  and  C_3 
REMARK    2  A    between atoms: C_4  and  N_5 
REMARK       I    between atoms: N_5  and  C_6 
REMARK    3  A    between atoms: C_6  and  C_7 
REMARK    4  A    between atoms: C_19  and  C_20 
ROOT
HETATM    1  N   UNL     1      -5.176   0.384 -33.638  1.00  0.00    -0.321 N 
HETATM    2  C   UNL     1      -5.451   0.858 -32.361  1.00  0.00     0.277 C 
HETATM    3  O   UNL     1      -6.077   0.280 -31.486  1.00  0.00    -0.266 OA
HETATM    4  H   UNL     1      -4.350   0.817 -34.032  1.00  0.00     0.169 HD
ENDROOT
BRANCH   2   5
HETATM    5  C   UNL     1      -4.787   2.213 -32.084  1.00  0.00     0.156 A 
HETATM    6  N   UNL     1      -3.622   2.149 -31.497  1.00  0.00    -0.166 NA
HETATM    7  N   UNL     1      -2.993   3.313 -31.181  1.00  0.00    -0.242 N 
HETATM    8  C   UNL     1      -3.486   4.579 -31.386  1.00  0.00     0.272 A 
HETATM    9  H   UNL     1      -2.100   3.241 -30.702  1.00  0.00     0.192 HD
HETATM   10  O   UNL     1      -2.879   5.582 -31.031  1.00  0.00    -0.266 OA
HETATM   11  C   UNL     1      -4.786   4.665 -32.074  1.00  0.00     0.046 A 
HETATM   12  C   UNL     1      -5.440   3.491 -32.454  1.00  0.00     0.016 A 
HETATM   13  C   UNL     1      -5.339   5.920 -32.357  1.00  0.00     0.018 A 
HETATM   14  C   UNL     1      -6.647   3.586 -33.154  1.00  0.00     0.015 A 
HETATM   15  C   UNL     1      -7.202   4.839 -33.438  1.00  0.00     0.001 A 
HETATM   16  C   UNL     1      -6.553   6.005 -33.036  1.00  0.00     0.001 A 
ENDBRANCH   2   5
BRANCH   1  17
HETATM   17  C   UNL     1      -5.533  -0.919 -34.037  1.00  0.00     0.049 A 
HETATM   18  C   UNL     1      -6.785  -1.091 -34.695  1.00  0.00    -0.031 A 
HETATM   19  C   UNL     1      -7.203  -2.376 -35.069  1.00  0.00     0.011 A 
HETATM   20  C   UNL     1      -6.397  -3.475 -34.824  1.00  0.00     0.025 A 
HETATM   21  C   UNL     1      -5.148  -3.301 -34.229  1.00  0.00     0.042 A 
HETATM   22  C   UNL     1      -4.664  -2.023 -33.835  1.00  0.00    -0.009 A 
HETATM   23 CL   UNL     1      -4.230  -4.759 -33.982  1.00  0.00    -0.084 Cl
BRANCH  18  24
HETATM   24  C   UNL     1      -7.655   0.064 -35.157  1.00  0.00     0.036 C 
HETATM   25  C   UNL     1      -8.732   0.393 -34.131  1.00  0.00     0.010 C 
ENDBRANCH  18  24
BRANCH  22  26
HETATM   26  C   UNL     1      -3.298  -2.009 -33.159  1.00  0.00     0.038 C 
HETATM   27  C   UNL     1      -3.101  -1.769 -31.672  1.00  0.00     0.010 C 
ENDBRANCH  22  26
ENDBRANCH   1  17
TORSDOF 4
ENDMDL
MODEL 10
REMARK VINA RESULT:      -7.9      1.933      3.661
REMARK  4 active torsions:
REMARK  status: ('A' for Active; 'I' for Inactive)
REMARK    1  A    between atoms: C_2  and  C_3 
REMARK    2  A    between atoms: C_4  and  N_5 
REMARK       I    between atoms: N_5  and  C_6 
REMARK    3  A    between atoms: C_6  and  C_7 
REMARK    4  A    between atoms: C_19  and  C_20 
ROOT
HETATM    1  N   UNL     1      -7.665   1.025 -33.938  1.00  0.00    -0.321 N 
HETATM    2  C   UNL     1      -8.901   0.848 -33.328  1.00  0.00     0.277 C 
HETATM    3  O   UNL     1      -9.131   0.207 -32.315  1.00  0.00    -0.266 OA
HETATM    4  H   UNL     1      -7.635   1.871 -34.493  1.00  0.00     0.169 HD
ENDROOT
BRANCH   2   5
HETATM    5  C   UNL     1     -10.014   1.648 -34.018  1.00  0.00     0.156 A 
HETATM    6  N   UNL     1      -9.629   2.761 -34.582  1.00  0.00    -0.166 NA
HETATM    7  N   UNL     1     -10.569   3.544 -35.176  1.00  0.00    -0.242 N 
HETATM    8  C   UNL     1     -11.920   3.297 -35.211  1.00  0.00     0.272 A 
HETATM    9  H   UNL     1     -10.251   4.417 -35.585  1.00  0.00     0.192 HD
HETATM   10  O   UNL     1     -12.713   4.076 -35.728  1.00  0.00    -0.266 OA
HETATM   11  C   UNL     1     -12.363   2.030 -34.606  1.00  0.00     0.046 A 
HETATM   12  C   UNL     1     -11.420   1.180 -34.026  1.00  0.00     0.016 A 
HETATM   13  C   UNL     1     -13.721   1.685 -34.636  1.00  0.00     0.018 A 
HETATM   14  C   UNL     1     -11.846  -0.046 -33.501  1.00  0.00     0.015 A 
HETATM   15  C   UNL     1     -13.201  -0.393 -33.531  1.00  0.00     0.001 A 
HETATM   16  C   UNL     1     -14.139   0.472 -34.092  1.00  0.00     0.001 A 
ENDBRANCH   2   5
BRANCH   1  17
HETATM   17  C   UNL     1      -6.479   0.530 -33.362  1.00  0.00     0.049 A 
HETATM   18  C   UNL     1      -5.835   1.331 -32.377  1.00  0.00    -0.031 A 
HETATM   19  C   UNL     1      -4.627   0.900 -31.809  1.00  0.00     0.011 A 
HETATM   20  C   UNL     1      -4.069  -0.310 -32.184  1.00  0.00     0.025 A 
HETATM   21  C   UNL     1      -4.725  -1.121 -33.109  1.00  0.00     0.042 A 
HETATM   22  C   UNL     1      -5.957  -0.743 -33.713  1.00  0.00    -0.009 A 
HETATM   23 CL   UNL     1      -3.925  -2.618 -33.490  1.00  0.00    -0.084 Cl
BRANCH  18  24
HETATM   24  C   UNL     1      -6.453   2.584 -31.780  1.00  0.00     0.036 C 
HETATM   25  C   UNL     1      -6.934   2.340 -30.355  1.00  0.00     0.010 C 
ENDBRANCH  18  24
BRANCH  22  26
HETATM   26  C   UNL     1      -6.523  -1.722 -34.735  1.00  0.00     0.038 C 
HETATM   27  C   UNL     1      -7.073  -3.090 -34.371  1.00  0.00     0.010 C 
ENDBRANCH  22  26
ENDBRANCH   1  17
TORSDOF 4
ENDMDL
