MODEL 1
REMARK VINA RESULT:      -8.8      0.000      0.000
REMARK  6 active torsions:
REMARK  status: ('A' for Active; 'I' for Inactive)
REMARK    1  A    between atoms: C_4  and  C_5 
REMARK    2  A    between atoms: C_5  and  N_6 
REMARK    3  A    between atoms: C_5  and  C_10 
REMARK    4  A    between atoms: C_10  and  N_11 
REMARK       I    between atoms: N_11  and  C_12 
REMARK       I    between atoms: C_12  and  N_13 
REMARK    5  A    between atoms: N_13  and  C_14 
REMARK    6  A    between atoms: C_17  and  N_18 
ROOT
HETATM    1  N   UNL     1      -3.366   3.843 -31.229  1.00  0.00    -0.340 N 
HETATM    2  C   UNL     1      -4.215   2.898 -31.770  1.00  0.00     0.320 C 
HETATM    3  N   UNL     1      -3.713   1.633 -31.609  1.00  0.00    -0.309 N 
HETATM    4  O   UNL     1      -5.269   3.234 -32.294  1.00  0.00    -0.247 OA
HETATM    5  H   UNL     1      -2.388   3.583 -31.218  1.00  0.00     0.164 HD
HETATM    6  H   UNL     1      -2.956   1.535 -30.947  1.00  0.00     0.170 HD
ENDROOT
BRANCH   1   7
HETATM    7  C   UNL     1      -3.668   5.258 -31.412  1.00  0.00     0.164 C 
BRANCH   7   8
HETATM    8  C   UNL     1      -2.758   5.999 -32.446  1.00  0.00     0.261 C 
BRANCH   8   9
HETATM    9  C   UNL     1      -1.413   6.225 -31.824  1.00  0.00     0.085 A 
HETATM   10  O   UNL     1      -0.943   5.216 -31.030  1.00  0.00    -0.318 OA
HETATM   11  C   UNL     1       0.265   5.622 -30.548  1.00  0.00     0.049 A 
HETATM   12  C   UNL     1       0.957   4.700 -29.622  1.00  0.00     0.076 C 
HETATM   13  C   UNL     1       0.586   6.863 -31.057  1.00  0.00     0.035 A 
HETATM   14  C   UNL     1      -0.498   7.253 -31.879  1.00  0.00     0.037 A 
ENDBRANCH   8   9
BRANCH   8  15
HETATM   15  N   UNL     1      -2.614   5.181 -33.751  1.00  0.00    -0.067 N 
HETATM   16  H   UNL     1      -2.551   4.200 -33.448  1.00  0.00     0.280 HD
HETATM   17  C   UNL     1      -3.768   5.331 -34.698  1.00  0.00     0.270 C 
HETATM   18  C   UNL     1      -1.315   5.485 -34.459  1.00  0.00     0.270 C 
ENDBRANCH   8  15
ENDBRANCH   7   8
ENDBRANCH   1   7
BRANCH   3  19
HETATM   19  C   UNL     1      -4.192   0.437 -32.178  1.00  0.00     0.036 A 
HETATM   20  C   UNL     1      -5.511  -0.001 -32.079  1.00  0.00     0.032 A 
HETATM   21  C   UNL     1      -5.929  -1.176 -32.726  1.00  0.00     0.032 A 
HETATM   22  C   UNL     1      -5.029  -1.937 -33.479  1.00  0.00     0.040 A 
HETATM   23  C   UNL     1      -3.702  -1.495 -33.574  1.00  0.00     0.032 A 
HETATM   24  C   UNL     1      -3.290  -0.323 -32.927  1.00  0.00     0.032 A 
BRANCH  22  25
HETATM   25  N   UNL     1      -5.439  -3.112 -34.184  1.00  0.00    -0.309 N 
HETATM   26  C   UNL     1      -4.830  -4.365 -34.276  1.00  0.00     0.106 A 
HETATM   27  C   UNL     1      -3.474  -4.722 -33.783  1.00  0.00     0.091 C 
HETATM   28  N   UNL     1      -5.577  -5.213 -34.961  1.00  0.00    -0.246 NA
HETATM   29  C   UNL     1      -6.665  -4.511 -35.377  1.00  0.00     0.136 A 
HETATM   30  C   UNL     1      -6.594  -3.214 -34.939  1.00  0.00     0.118 A 
ENDBRANCH  22  25
ENDBRANCH   3  19
TORSDOF 6
ENDMDL
MODEL 2
REMARK VINA RESULT:      -8.3      1.540      2.674
REMARK  6 active torsions:
REMARK  status: ('A' for Active; 'I' for Inactive)
REMARK    1  A    between atoms: C_4  and  C_5 
REMARK    2  A    between atoms: C_5  and  N_6 
REMARK    3  A    between atoms: C_5  and  C_10 
REMARK    4  A    between atoms: C_10  and  N_11 
REMARK       I    between atoms: N_11  and  C_12 
REMARK       I    between atoms: C_12  and  N_13 
REMARK    5  A    between atoms: N_13  and  C_14 
REMARK    6  A    between atoms: C_17  and  N_18 
ROOT
HETATM    1  N   UNL     1      -4.128   3.926 -30.678  1.00  0.00    -0.340 N 
HETATM    2  C   UNL     1      -4.722   3.028 -31.542  1.00  0.00     0.320 C 
HETATM    3  N   UNL     1      -4.284   1.750 -31.307  1.00  0.00    -0.309 N 
HETATM    4  O   UNL     1      -5.537   3.408 -32.373  1.00  0.00    -0.247 OA
HETATM    5  H   UNL     1      -3.208   3.658 -30.349  1.00  0.00     0.164 HD
HETATM    6  H   UNL     1      -3.799   1.600 -30.434  1.00  0.00     0.170 HD
ENDROOT
BRANCH   1   7
HETATM    7  C   UNL     1      -4.373   5.352 -30.854  1.00  0.00     0.164 C 
BRANCH   7   8
HETATM    8  C   UNL     1      -3.161   6.278 -30.508  1.00  0.00     0.261 C 
BRANCH   8   9
HETATM    9  C   UNL     1      -2.363   6.509 -31.755  1.00  0.00     0.085 A 
HETATM   10  O   UNL     1      -2.524   5.585 -32.749  1.00  0.00    -0.318 OA
HETATM   11  C   UNL     1      -1.705   5.957 -33.773  1.00  0.00     0.049 A 
HETATM   12  C   UNL     1      -1.679   5.076 -34.959  1.00  0.00     0.076 C 
HETATM   13  C   UNL     1      -1.052   7.130 -33.455  1.00  0.00     0.035 A 
HETATM   14  C   UNL     1      -1.476   7.486 -32.152  1.00  0.00     0.037 A 
ENDBRANCH   8   9
BRANCH   8  15
HETATM   15  N   UNL     1      -3.638   7.627 -29.920  1.00  0.00    -0.067 N 
HETATM   16  H   UNL     1      -3.392   8.331 -30.628  1.00  0.00     0.280 HD
HETATM   17  C   UNL     1      -5.115   7.691 -29.656  1.00  0.00     0.270 C 
HETATM   18  C   UNL     1      -2.869   7.997 -28.675  1.00  0.00     0.270 C 
ENDBRANCH   8  15
ENDBRANCH   7   8
ENDBRANCH   1   7
BRANCH   3  19
HETATM   19  C   UNL     1      -4.517   0.602 -32.088  1.00  0.00     0.036 A 
HETATM   20  C   UNL     1      -3.538  -0.040 -32.843  1.00  0.00     0.032 A 
HETATM   21  C   UNL     1      -3.833  -1.218 -33.549  1.00  0.00     0.032 A 
HETATM   22  C   UNL     1      -5.117  -1.771 -33.515  1.00  0.00     0.040 A 
HETATM   23  C   UNL     1      -6.100  -1.120 -32.756  1.00  0.00     0.032 A 
HETATM   24  C   UNL     1      -5.802   0.054 -32.054  1.00  0.00     0.032 A 
BRANCH  22  25
HETATM   25  N   UNL     1      -5.431  -2.994 -34.187  1.00  0.00    -0.309 N 
HETATM   26  C   UNL     1      -4.782  -4.230 -34.157  1.00  0.00     0.106 A 
HETATM   27  C   UNL     1      -3.465  -4.516 -33.532  1.00  0.00     0.091 C 
HETATM   28  N   UNL     1      -5.443  -5.136 -34.856  1.00  0.00    -0.246 NA
HETATM   29  C   UNL     1      -6.510  -4.492 -35.401  1.00  0.00     0.136 A 
HETATM   30  C   UNL     1      -6.513  -3.172 -35.031  1.00  0.00     0.118 A 
ENDBRANCH  22  25
ENDBRANCH   3  19
TORSDOF 6
ENDMDL
MODEL 3
REMARK VINA RESULT:      -8.0      5.937      8.499
REMARK  6 active torsions:
REMARK  status: ('A' for Active; 'I' for Inactive)
REMARK    1  A    between atoms: C_4  and  C_5 
REMARK    2  A    between atoms: C_5  and  N_6 
REMARK    3  A    between atoms: C_5  and  C_10 
REMARK    4  A    between atoms: C_10  and  N_11 
REMARK       I    between atoms: N_11  and  C_12 
REMARK       I    between atoms: C_12  and  N_13 
REMARK    5  A    between atoms: N_13  and  C_14 
REMARK    6  A    between atoms: C_17  and  N_18 
ROOT
HETATM    1  N   UNL     1      -9.485   3.572 -33.325  1.00  0.00    -0.340 N 
HETATM    2  C   UNL     1      -9.169   2.239 -33.151  1.00  0.00     0.320 C 
HETATM    3  N   UNL     1      -7.898   1.971 -33.589  1.00  0.00    -0.309 N 
HETATM    4  O   UNL     1      -9.976   1.468 -32.648  1.00  0.00    -0.247 OA
HETATM    5  H   UNL     1      -9.004   4.029 -34.090  1.00  0.00     0.164 HD
HETATM    6  H   UNL     1      -7.303   2.771 -33.748  1.00  0.00     0.170 HD
ENDROOT
BRANCH   1   7
HETATM    7  C   UNL     1     -10.838   4.027 -33.033  1.00  0.00     0.164 C 
BRANCH   7   8
HETATM    8  C   UNL     1     -11.803   4.061 -34.264  1.00  0.00     0.261 C 
BRANCH   8   9
HETATM    9  C   UNL     1     -12.782   2.934 -34.136  1.00  0.00     0.085 A 
HETATM   10  O   UNL     1     -13.799   3.122 -33.242  1.00  0.00    -0.318 OA
HETATM   11  C   UNL     1     -14.554   1.988 -33.257  1.00  0.00     0.049 A 
HETATM   12  C   UNL     1     -15.704   1.941 -32.329  1.00  0.00     0.076 C 
HETATM   13  C   UNL     1     -14.051   1.095 -34.180  1.00  0.00     0.035 A 
HETATM   14  C   UNL     1     -12.906   1.705 -34.747  1.00  0.00     0.037 A 
ENDBRANCH   8   9
BRANCH   8  15
HETATM   15  N   UNL     1     -12.550   5.412 -34.351  1.00  0.00    -0.067 N 
HETATM   16  H   UNL     1     -13.423   5.272 -33.825  1.00  0.00     0.280 HD
HETATM   17  C   UNL     1     -11.798   6.568 -33.758  1.00  0.00     0.270 C 
HETATM   18  C   UNL     1     -12.963   5.732 -35.769  1.00  0.00     0.270 C 
ENDBRANCH   8  15
ENDBRANCH   7   8
ENDBRANCH   1   7
BRANCH   3  19
HETATM   19  C   UNL     1      -7.289   0.710 -33.745  1.00  0.00     0.036 A 
HETATM   20  C   UNL     1      -7.329  -0.036 -34.920  1.00  0.00     0.032 A 
HETATM   21  C   UNL     1      -6.645  -1.259 -35.019  1.00  0.00     0.032 A 
HETATM   22  C   UNL     1      -5.913  -1.758 -33.938  1.00  0.00     0.040 A 
HETATM   23  C   UNL     1      -5.876  -1.006 -32.755  1.00  0.00     0.032 A 
HETATM   24  C   UNL     1      -6.561   0.213 -32.661  1.00  0.00     0.032 A 
BRANCH  22  25
HETATM   25  N   UNL     1      -5.170  -2.978 -34.027  1.00  0.00    -0.309 N 
HETATM   26  C   UNL     1      -5.478  -4.174 -34.679  1.00  0.00     0.106 A 
HETATM   27  C   UNL     1      -6.779  -4.523 -35.306  1.00  0.00     0.091 C 
HETATM   28  N   UNL     1      -4.482  -5.037 -34.593  1.00  0.00    -0.246 NA
HETATM   29  C   UNL     1      -3.524  -4.439 -33.835  1.00  0.00     0.136 A 
HETATM   30  C   UNL     1      -3.930  -3.188 -33.451  1.00  0.00     0.118 A 
ENDBRANCH  22  25
ENDBRANCH   3  19
TORSDOF 6
ENDMDL
MODEL 4
REMARK VINA RESULT:      -8.0      1.586      2.375
REMARK  6 active torsions:
REMARK  status: ('A' for Active; 'I' for Inactive)
REMARK    1  A    between atoms: C_4  and  C_5 
REMARK    2  A    between atoms: C_5  and  N_6 
REMARK    3  A    between atoms: C_5  and  C_10 
REMARK    4  A    between atoms: C_10  and  N_11 
REMARK       I    between atoms: N_11  and  C_12 
REMARK       I    between atoms: C_12  and  N_13 
REMARK    5  A    between atoms: N_13  and  C_14 
REMARK    6  A    between atoms: C_17  and  N_18 
ROOT
HETATM    1  N   UNL     1      -3.818   3.999 -30.889  1.00  0.00    -0.340 N 
HETATM    2  C   UNL     1      -4.336   3.129 -31.828  1.00  0.00     0.320 C 
HETATM    3  N   UNL     1      -4.209   1.827 -31.420  1.00  0.00    -0.309 N 
HETATM    4  O   UNL     1      -4.838   3.554 -32.861  1.00  0.00    -0.247 OA
HETATM    5  H   UNL     1      -3.073   3.618 -30.319  1.00  0.00     0.164 HD
HETATM    6  H   UNL     1      -3.990   1.685 -30.444  1.00  0.00     0.170 HD
ENDROOT
BRANCH   1   7
HETATM    7  C   UNL     1      -3.748   5.421 -31.198  1.00  0.00     0.164 C 
BRANCH   7   8
HETATM    8  C   UNL     1      -3.274   6.331 -30.017  1.00  0.00     0.261 C 
BRANCH   8   9
HETATM    9  C   UNL     1      -1.807   6.593 -30.174  1.00  0.00     0.085 A 
HETATM   10  O   UNL     1      -1.181   7.162 -29.100  1.00  0.00    -0.318 OA
HETATM   11  C   UNL     1       0.124   7.338 -29.450  1.00  0.00     0.049 A 
HETATM   12  C   UNL     1       1.000   7.982 -28.449  1.00  0.00     0.076 C 
HETATM   13  C   UNL     1       0.343   6.852 -30.722  1.00  0.00     0.035 A 
HETATM   14  C   UNL     1      -0.903   6.372 -31.190  1.00  0.00     0.037 A 
ENDBRANCH   8   9
BRANCH   8  15
HETATM   15  N   UNL     1      -4.056   7.665 -29.990  1.00  0.00    -0.067 N 
HETATM   16  H   UNL     1      -3.354   8.385 -29.773  1.00  0.00     0.280 HD
HETATM   17  C   UNL     1      -4.726   8.009 -31.289  1.00  0.00     0.270 C 
HETATM   18  C   UNL     1      -5.059   7.703 -28.861  1.00  0.00     0.270 C 
ENDBRANCH   8  15
ENDBRANCH   7   8
ENDBRANCH   1   7
BRANCH   3  19
HETATM   19  C   UNL     1      -4.449   0.661 -32.172  1.00  0.00     0.036 A 
HETATM   20  C   UNL     1      -3.463  -0.035 -32.870  1.00  0.00     0.032 A 
HETATM   21  C   UNL     1      -3.768  -1.225 -33.549  1.00  0.00     0.032 A 
HETATM   22  C   UNL     1      -5.069  -1.738 -33.546  1.00  0.00     0.040 A 
HETATM   23  C   UNL     1      -6.059  -1.035 -32.845  1.00  0.00     0.032 A 
HETATM   24  C   UNL     1      -5.750   0.153 -32.170  1.00  0.00     0.032 A 
BRANCH  22  25
HETATM   25  N   UNL     1      -5.396  -2.973 -34.190  1.00  0.00    -0.309 N 
HETATM   26  C   UNL     1      -4.762  -4.215 -34.130  1.00  0.00     0.106 A 
HETATM   27  C   UNL     1      -3.450  -4.503 -33.496  1.00  0.00     0.091 C 
HETATM   28  N   UNL     1      -5.432  -5.129 -34.809  1.00  0.00    -0.246 NA
HETATM   29  C   UNL     1      -6.490  -4.486 -35.372  1.00  0.00     0.136 A 
HETATM   30  C   UNL     1      -6.478  -3.158 -35.032  1.00  0.00     0.118 A 
ENDBRANCH  22  25
ENDBRANCH   3  19
TORSDOF 6
ENDMDL
MODEL 5
REMARK VINA RESULT:      -7.9      1.980      2.944
REMARK  6 active torsions:
REMARK  status: ('A' for Active; 'I' for Inactive)
REMARK    1  A    between atoms: C_4  and  C_5 
REMARK    2  A    between atoms: C_5  and  N_6 
REMARK    3  A    between atoms: C_5  and  C_10 
REMARK    4  A    between atoms: C_10  and  N_11 
REMARK       I    between atoms: N_11  and  C_12 
REMARK       I    between atoms: C_12  and  N_13 
REMARK    5  A    between atoms: N_13  and  C_14 
REMARK    6  A    between atoms: C_17  and  N_18 
ROOT
HETATM    1  N   UNL     1      -4.372   5.236 -30.125  1.00  0.00    -0.340 N 
HETATM    2  C   UNL     1      -4.821   4.210 -30.932  1.00  0.00     0.320 C 
HETATM    3  N   UNL     1      -4.408   2.991 -30.459  1.00  0.00    -0.309 N 
HETATM    4  O   UNL     1      -5.508   4.446 -31.917  1.00  0.00    -0.247 OA
HETATM    5  H   UNL     1      -3.508   5.045 -29.631  1.00  0.00     0.164 HD
HETATM    6  H   UNL     1      -4.057   2.977 -29.512  1.00  0.00     0.170 HD
ENDROOT
BRANCH   1   7
HETATM    7  C   UNL     1      -4.605   6.616 -30.533  1.00  0.00     0.164 C 
BRANCH   7   8
HETATM    8  C   UNL     1      -3.341   7.538 -30.496  1.00  0.00     0.261 C 
BRANCH   8   9
HETATM    9  C   UNL     1      -2.243   6.875 -31.270  1.00  0.00     0.085 A 
HETATM   10  O   UNL     1      -2.586   6.388 -32.501  1.00  0.00    -0.318 OA
HETATM   11  C   UNL     1      -1.468   5.811 -33.024  1.00  0.00     0.049 A 
HETATM   12  C   UNL     1      -1.608   5.173 -34.350  1.00  0.00     0.076 C 
HETATM   13  C   UNL     1      -0.407   5.957 -32.155  1.00  0.00     0.035 A 
HETATM   14  C   UNL     1      -0.907   6.643 -31.022  1.00  0.00     0.037 A 
ENDBRANCH   8   9
BRANCH   8  15
HETATM   15  N   UNL     1      -3.649   8.932 -31.090  1.00  0.00    -0.067 N 
HETATM   16  H   UNL     1      -3.449   8.846 -32.095  1.00  0.00     0.280 HD
HETATM   17  C   UNL     1      -5.071   9.375 -30.907  1.00  0.00     0.270 C 
HETATM   18  C   UNL     1      -2.703   9.985 -30.562  1.00  0.00     0.270 C 
ENDBRANCH   8  15
ENDBRANCH   7   8
ENDBRANCH   1   7
BRANCH   3  19
HETATM   19  C   UNL     1      -4.509   1.740 -31.096  1.00  0.00     0.036 A 
HETATM   20  C   UNL     1      -5.534   0.825 -30.862  1.00  0.00     0.032 A 
HETATM   21  C   UNL     1      -5.600  -0.379 -31.582  1.00  0.00     0.032 A 
HETATM   22  C   UNL     1      -4.638  -0.690 -32.547  1.00  0.00     0.040 A 
HETATM   23  C   UNL     1      -3.607   0.232 -32.779  1.00  0.00     0.032 A 
HETATM   24  C   UNL     1      -3.544   1.431 -32.058  1.00  0.00     0.032 A 
BRANCH  22  25
HETATM   25  N   UNL     1      -4.709  -1.887 -33.327  1.00  0.00    -0.309 N 
HETATM   26  C   UNL     1      -5.603  -2.254 -34.335  1.00  0.00     0.106 A 
HETATM   27  C   UNL     1      -6.839  -1.525 -34.720  1.00  0.00     0.091 C 
HETATM   28  N   UNL     1      -5.274  -3.416 -34.870  1.00  0.00    -0.246 NA
HETATM   29  C   UNL     1      -4.187  -3.857 -34.181  1.00  0.00     0.136 A 
HETATM   30  C   UNL     1      -3.835  -2.954 -33.212  1.00  0.00     0.118 A 
ENDBRANCH  22  25
ENDBRANCH   3  19
TORSDOF 6
ENDMDL
MODEL 6
REMARK VINA RESULT:      -7.5      2.469      3.821
REMARK  6 active torsions:
REMARK  status: ('A' for Active; 'I' for Inactive)
REMARK    1  A    between atoms: C_4  and  C_5 
REMARK    2  A    between atoms: C_5  and  N_6 
REMARK    3  A    between atoms: C_5  and  C_10 
REMARK    4  A    between atoms: C_10  and  N_11 
REMARK       I    between atoms: N_11  and  C_12 
REMARK       I    between atoms: C_12  and  N_13 
REMARK    5  A    between atoms: N_13  and  C_14 
REMARK    6  A    between atoms: C_17  and  N_18 
ROOT
HETATM    1  N   UNL     1      -2.332   4.943 -30.709  1.00  0.00    -0.340 N 
HETATM    2  C   UNL     1      -2.708   4.061 -31.703  1.00  0.00     0.320 C 
HETATM    3  N   UNL     1      -3.434   3.017 -31.189  1.00  0.00    -0.309 N 
HETATM    4  O   UNL     1      -2.401   4.269 -32.869  1.00  0.00    -0.247 OA
HETATM    5  H   UNL     1      -2.224   4.532 -29.790  1.00  0.00     0.164 HD
HETATM    6  H   UNL     1      -3.787   3.140 -30.251  1.00  0.00     0.170 HD
ENDROOT
BRANCH   1   7
HETATM    7  C   UNL     1      -1.448   6.053 -31.041  1.00  0.00     0.164 C 
BRANCH   7   8
HETATM    8  C   UNL     1      -0.732   6.715 -29.817  1.00  0.00     0.261 C 
BRANCH   8   9
HETATM    9  C   UNL     1      -1.693   7.651 -29.149  1.00  0.00     0.085 A 
HETATM   10  O   UNL     1      -2.878   7.103 -28.744  1.00  0.00    -0.318 OA
HETATM   11  C   UNL     1      -3.611   8.110 -28.190  1.00  0.00     0.049 A 
HETATM   12  C   UNL     1      -4.964   7.762 -27.709  1.00  0.00     0.076 C 
HETATM   13  C   UNL     1      -2.889   9.285 -28.205  1.00  0.00     0.035 A 
HETATM   14  C   UNL     1      -1.651   8.989 -28.825  1.00  0.00     0.037 A 
ENDBRANCH   8   9
BRANCH   8  15
HETATM   15  N   UNL     1      -0.239   5.647 -28.813  1.00  0.00    -0.067 N 
HETATM   16  H   UNL     1      -1.049   5.034 -28.653  1.00  0.00     0.280 HD
HETATM   17  C   UNL     1       0.911   4.821 -29.312  1.00  0.00     0.270 C 
HETATM   18  C   UNL     1       0.099   6.255 -27.472  1.00  0.00     0.270 C 
ENDBRANCH   8  15
ENDBRANCH   7   8
ENDBRANCH   1   7
BRANCH   3  19
HETATM   19  C   UNL     1      -3.833   1.838 -31.848  1.00  0.00     0.036 A 
HETATM   20  C   UNL     1      -3.181   0.614 -31.719  1.00  0.00     0.032 A 
HETATM   21  C   UNL     1      -3.675  -0.534 -32.361  1.00  0.00     0.032 A 
HETATM   22  C   UNL     1      -4.828  -0.473 -33.149  1.00  0.00     0.040 A 
HETATM   23  C   UNL     1      -5.479   0.762 -33.280  1.00  0.00     0.032 A 
HETATM   24  C   UNL     1      -4.983   1.904 -32.638  1.00  0.00     0.032 A 
BRANCH  22  25
HETATM   25  N   UNL     1      -5.378  -1.635 -33.776  1.00  0.00    -0.309 N 
HETATM   26  C   UNL     1      -6.693  -1.920 -34.148  1.00  0.00     0.106 A 
HETATM   27  C   UNL     1      -7.897  -1.121 -33.802  1.00  0.00     0.091 C 
HETATM   28  N   UNL     1      -6.773  -3.076 -34.783  1.00  0.00    -0.246 NA
HETATM   29  C   UNL     1      -5.515  -3.593 -34.790  1.00  0.00     0.136 A 
HETATM   30  C   UNL     1      -4.645  -2.745 -34.157  1.00  0.00     0.118 A 
ENDBRANCH  22  25
ENDBRANCH   3  19
TORSDOF 6
ENDMDL
MODEL 7
REMARK VINA RESULT:      -7.5      1.724      2.809
REMARK  6 active torsions:
REMARK  status: ('A' for Active; 'I' for Inactive)
REMARK    1  A    between atoms: C_4  and  C_5 
REMARK    2  A    between atoms: C_5  and  N_6 
REMARK    3  A    between atoms: C_5  and  C_10 
REMARK    4  A    between atoms: C_10  and  N_11 
REMARK       I    between atoms: N_11  and  C_12 
REMARK       I    between atoms: C_12  and  N_13 
REMARK    5  A    between atoms: N_13  and  C_14 
REMARK    6  A    between atoms: C_17  and  N_18 
ROOT
HETATM    1  N   UNL     1      -6.033   4.544 -32.222  1.00  0.00    -0.340 N 
HETATM    2  C   UNL     1      -5.526   3.430 -32.862  1.00  0.00     0.320 C 
HETATM    3  N   UNL     1      -6.320   2.333 -32.650  1.00  0.00    -0.309 N 
HETATM    4  O   UNL     1      -4.501   3.506 -33.527  1.00  0.00    -0.247 OA
HETATM    5  H   UNL     1      -6.577   4.348 -31.391  1.00  0.00     0.164 HD
HETATM    6  H   UNL     1      -7.241   2.515 -32.280  1.00  0.00     0.170 HD
ENDROOT
BRANCH   1   7
HETATM    7  C   UNL     1      -5.263   5.780 -32.228  1.00  0.00     0.164 C 
BRANCH   7   8
HETATM    8  C   UNL     1      -4.149   5.869 -31.133  1.00  0.00     0.261 C 
BRANCH   8   9
HETATM    9  C   UNL     1      -2.884   6.353 -31.776  1.00  0.00     0.085 A 
HETATM   10  O   UNL     1      -1.754   6.270 -31.012  1.00  0.00    -0.318 OA
HETATM   11  C   UNL     1      -0.733   6.775 -31.760  1.00  0.00     0.049 A 
HETATM   12  C   UNL     1       0.599   6.827 -31.120  1.00  0.00     0.076 C 
HETATM   13  C   UNL     1      -1.195   7.144 -33.006  1.00  0.00     0.035 A 
HETATM   14  C   UNL     1      -2.584   6.872 -33.017  1.00  0.00     0.037 A 
ENDBRANCH   8   9
BRANCH   8  15
HETATM   15  N   UNL     1      -4.565   6.822 -29.989  1.00  0.00    -0.067 N 
HETATM   16  H   UNL     1      -3.706   6.981 -29.445  1.00  0.00     0.280 HD
HETATM   17  C   UNL     1      -5.103   8.143 -30.456  1.00  0.00     0.270 C 
HETATM   18  C   UNL     1      -5.544   6.165 -29.044  1.00  0.00     0.270 C 
ENDBRANCH   8  15
ENDBRANCH   7   8
ENDBRANCH   1   7
BRANCH   3  19
HETATM   19  C   UNL     1      -6.043   0.992 -32.981  1.00  0.00     0.036 A 
HETATM   20  C   UNL     1      -6.366   0.408 -34.204  1.00  0.00     0.032 A 
HETATM   21  C   UNL     1      -6.003  -0.920 -34.483  1.00  0.00     0.032 A 
HETATM   22  C   UNL     1      -5.313  -1.688 -33.540  1.00  0.00     0.040 A 
HETATM   23  C   UNL     1      -4.992  -1.097 -32.309  1.00  0.00     0.032 A 
HETATM   24  C   UNL     1      -5.357   0.227 -32.034  1.00  0.00     0.032 A 
BRANCH  22  25
HETATM   25  N   UNL     1      -4.892  -3.026 -33.817  1.00  0.00    -0.309 N 
HETATM   26  C   UNL     1      -5.533  -4.044 -34.526  1.00  0.00     0.106 A 
HETATM   27  C   UNL     1      -6.933  -4.020 -35.025  1.00  0.00     0.091 C 
HETATM   28  N   UNL     1      -4.766  -5.114 -34.629  1.00  0.00    -0.246 NA
HETATM   29  C   UNL     1      -3.628  -4.834 -33.940  1.00  0.00     0.136 A 
HETATM   30  C   UNL     1      -3.688  -3.573 -33.408  1.00  0.00     0.118 A 
ENDBRANCH  22  25
ENDBRANCH   3  19
TORSDOF 6
ENDMDL
MODEL 8
REMARK VINA RESULT:      -7.5      6.014      8.794
REMARK  6 active torsions:
REMARK  status: ('A' for Active; 'I' for Inactive)
REMARK    1  A    between atoms: C_4  and  C_5 
REMARK    2  A    between atoms: C_5  and  N_6 
REMARK    3  A    between atoms: C_5  and  C_10 
REMARK    4  A    between atoms: C_10  and  N_11 
REMARK       I    between atoms: N_11  and  C_12 
REMARK       I    between atoms: C_12  and  N_13 
REMARK    5  A    between atoms: N_13  and  C_14 
REMARK    6  A    between atoms: C_17  and  N_18 
ROOT
HETATM    1  N   UNL     1     -11.246   3.187 -34.476  1.00  0.00    -0.340 N 
HETATM    2  C   UNL     1     -10.003   2.720 -34.100  1.00  0.00     0.320 C 
HETATM    3  N   UNL     1      -9.733   1.509 -34.683  1.00  0.00    -0.309 N 
HETATM    4  O   UNL     1      -9.291   3.375 -33.350  1.00  0.00    -0.247 OA
HETATM    5  H   UNL     1     -11.921   2.469 -34.708  1.00  0.00     0.164 HD
HETATM    6  H   UNL     1     -10.330   1.242 -35.453  1.00  0.00     0.170 HD
ENDROOT
BRANCH   1   7
HETATM    7  C   UNL     1     -11.765   4.403 -33.862  1.00  0.00     0.164 C 
BRANCH   7   8
HETATM    8  C   UNL     1     -12.701   4.172 -32.630  1.00  0.00     0.261 C 
BRANCH   8   9
HETATM    9  C   UNL     1     -13.540   2.957 -32.887  1.00  0.00     0.085 A 
HETATM   10  O   UNL     1     -12.857   1.805 -33.163  1.00  0.00    -0.318 OA
HETATM   11  C   UNL     1     -13.790   0.837 -33.388  1.00  0.00     0.049 A 
HETATM   12  C   UNL     1     -13.283  -0.504 -33.748  1.00  0.00     0.076 C 
HETATM   13  C   UNL     1     -15.058   1.352 -33.221  1.00  0.00     0.035 A 
HETATM   14  C   UNL     1     -14.897   2.721 -32.899  1.00  0.00     0.037 A 
ENDBRANCH   8   9
BRANCH   8  15
HETATM   15  N   UNL     1     -11.881   3.991 -31.331  1.00  0.00    -0.067 N 
HETATM   16  H   UNL     1     -11.326   3.138 -31.479  1.00  0.00     0.280 HD
HETATM   17  C   UNL     1     -10.955   5.133 -31.027  1.00  0.00     0.270 C 
HETATM   18  C   UNL     1     -12.771   3.712 -30.143  1.00  0.00     0.270 C 
ENDBRANCH   8  15
ENDBRANCH   7   8
ENDBRANCH   1   7
BRANCH   3  19
HETATM   19  C   UNL     1      -8.660   0.639 -34.406  1.00  0.00     0.036 A 
HETATM   20  C   UNL     1      -8.534  -0.095 -33.229  1.00  0.00     0.032 A 
HETATM   21  C   UNL     1      -7.465  -0.988 -33.050  1.00  0.00     0.032 A 
HETATM   22  C   UNL     1      -6.500  -1.158 -34.047  1.00  0.00     0.040 A 
HETATM   23  C   UNL     1      -6.628  -0.416 -35.230  1.00  0.00     0.032 A 
HETATM   24  C   UNL     1      -7.695   0.475 -35.403  1.00  0.00     0.032 A 
BRANCH  22  25
HETATM   25  N   UNL     1      -5.428  -2.095 -33.909  1.00  0.00    -0.309 N 
HETATM   26  C   UNL     1      -4.259  -2.020 -33.149  1.00  0.00     0.106 A 
HETATM   27  C   UNL     1      -3.761  -0.826 -32.418  1.00  0.00     0.091 C 
HETATM   28  N   UNL     1      -3.562  -3.139 -33.229  1.00  0.00    -0.246 NA
HETATM   29  C   UNL     1      -4.238  -3.948 -34.089  1.00  0.00     0.136 A 
HETATM   30  C   UNL     1      -5.370  -3.324 -34.542  1.00  0.00     0.118 A 
ENDBRANCH  22  25
ENDBRANCH   3  19
TORSDOF 6
ENDMDL
MODEL 9
REMARK VINA RESULT:      -7.4      1.945      2.748
REMARK  6 active torsions:
REMARK  status: ('A' for Active; 'I' for Inactive)
REMARK    1  A    between atoms: C_4  and  C_5 
REMARK    2  A    between atoms: C_5  and  N_6 
REMARK    3  A    between atoms: C_5  and  C_10 
REMARK    4  A    between atoms: C_10  and  N_11 
REMARK       I    between atoms: N_11  and  C_12 
REMARK       I    between atoms: C_12  and  N_13 
REMARK    5  A    between atoms: N_13  and  C_14 
REMARK    6  A    between atoms: C_17  and  N_18 
ROOT
HETATM    1  N   UNL     1      -3.347   5.784 -30.504  1.00  0.00    -0.340 N 
HETATM    2  C   UNL     1      -3.974   4.885 -31.344  1.00  0.00     0.320 C 
HETATM    3  N   UNL     1      -3.920   3.612 -30.836  1.00  0.00    -0.309 N 
HETATM    4  O   UNL     1      -4.500   5.264 -32.382  1.00  0.00    -0.247 OA
HETATM    5  H   UNL     1      -2.601   5.393 -29.941  1.00  0.00     0.164 HD
HETATM    6  H   UNL     1      -3.660   3.532 -29.863  1.00  0.00     0.170 HD
ENDROOT
BRANCH   1   7
HETATM    7  C   UNL     1      -3.192   7.168 -30.932  1.00  0.00     0.164 C 
BRANCH   7   8
HETATM    8  C   UNL     1      -1.712   7.638 -31.125  1.00  0.00     0.261 C 
BRANCH   8   9
HETATM    9  C   UNL     1      -0.925   7.251 -29.910  1.00  0.00     0.085 A 
HETATM   10  O   UNL     1      -1.639   7.107 -28.754  1.00  0.00    -0.318 OA
HETATM   11  C   UNL     1      -0.748   6.781 -27.776  1.00  0.00     0.049 A 
HETATM   12  C   UNL     1      -1.290   6.611 -26.411  1.00  0.00     0.076 C 
HETATM   13  C   UNL     1       0.521   6.679 -28.306  1.00  0.00     0.035 A 
HETATM   14  C   UNL     1       0.408   6.983 -29.683  1.00  0.00     0.037 A 
ENDBRANCH   8   9
BRANCH   8  15
HETATM   15  N   UNL     1      -1.087   7.008 -32.392  1.00  0.00    -0.067 N 
HETATM   16  H   UNL     1      -0.201   7.512 -32.533  1.00  0.00     0.280 HD
HETATM   17  C   UNL     1      -0.803   5.539 -32.269  1.00  0.00     0.270 C 
HETATM   18  C   UNL     1      -1.923   7.278 -33.620  1.00  0.00     0.270 C 
ENDBRANCH   8  15
ENDBRANCH   7   8
ENDBRANCH   1   7
BRANCH   3  19
HETATM   19  C   UNL     1      -4.282   2.412 -31.478  1.00  0.00     0.036 A 
HETATM   20  C   UNL     1      -5.587   2.082 -31.836  1.00  0.00     0.032 A 
HETATM   21  C   UNL     1      -5.863   0.892 -32.529  1.00  0.00     0.032 A 
HETATM   22  C   UNL     1      -4.835   0.008 -32.871  1.00  0.00     0.040 A 
HETATM   23  C   UNL     1      -3.523   0.342 -32.506  1.00  0.00     0.032 A 
HETATM   24  C   UNL     1      -3.253   1.530 -31.814  1.00  0.00     0.032 A 
BRANCH  22  25
HETATM   25  N   UNL     1      -5.082  -1.187 -33.616  1.00  0.00    -0.309 N 
HETATM   26  C   UNL     1      -6.090  -1.481 -34.537  1.00  0.00     0.106 A 
HETATM   27  C   UNL     1      -7.283  -0.646 -34.831  1.00  0.00     0.091 C 
HETATM   28  N   UNL     1      -5.917  -2.676 -35.073  1.00  0.00    -0.246 NA
HETATM   29  C   UNL     1      -4.820  -3.208 -34.471  1.00  0.00     0.136 A 
HETATM   30  C   UNL     1      -4.304  -2.329 -33.554  1.00  0.00     0.118 A 
ENDBRANCH  22  25
ENDBRANCH   3  19
TORSDOF 6
ENDMDL
MODEL 10
REMARK VINA RESULT:      -7.4      2.899     10.002
REMARK  6 active torsions:
REMARK  status: ('A' for Active; 'I' for Inactive)
REMARK    1  A    between atoms: C_4  and  C_5 
REMARK    2  A    between atoms: C_5  and  N_6 
REMARK    3  A    between atoms: C_5  and  C_10 
REMARK    4  A    between atoms: C_10  and  N_11 
REMARK       I    between atoms: N_11  and  C_12 
REMARK       I    between atoms: C_12  and  N_13 
REMARK    5  A    between atoms: N_13  and  C_14 
REMARK    6  A    between atoms: C_17  and  N_18 
ROOT
HETATM    1  N   UNL     1      -4.973   2.094 -32.815  1.00  0.00    -0.340 N 
HETATM    2  C   UNL     1      -4.521   2.857 -31.756  1.00  0.00     0.320 C 
HETATM    3  N   UNL     1      -3.878   3.985 -32.198  1.00  0.00    -0.309 N 
HETATM    4  O   UNL     1      -4.725   2.505 -30.602  1.00  0.00    -0.247 OA
HETATM    5  H   UNL     1      -4.433   2.183 -33.667  1.00  0.00     0.164 HD
HETATM    6  H   UNL     1      -4.017   4.225 -33.169  1.00  0.00     0.170 HD
ENDROOT
BRANCH   1   7
HETATM    7  C   UNL     1      -5.574   0.794 -32.549  1.00  0.00     0.164 C 
BRANCH   7   8
HETATM    8  C   UNL     1      -6.327   0.154 -33.762  1.00  0.00     0.261 C 
BRANCH   8   9
HETATM    9  C   UNL     1      -5.716  -1.183 -34.053  1.00  0.00     0.085 A 
HETATM   10  O   UNL     1      -6.551  -2.118 -34.598  1.00  0.00    -0.318 OA
HETATM   11  C   UNL     1      -5.819  -3.255 -34.762  1.00  0.00     0.049 A 
HETATM   12  C   UNL     1      -6.529  -4.431 -35.307  1.00  0.00     0.076 C 
HETATM   13  C   UNL     1      -4.516  -3.042 -34.362  1.00  0.00     0.035 A 
HETATM   14  C   UNL     1      -4.450  -1.705 -33.903  1.00  0.00     0.037 A 
ENDBRANCH   8   9
BRANCH   8  15
HETATM   15  N   UNL     1      -7.837  -0.001 -33.463  1.00  0.00    -0.067 N 
HETATM   16  H   UNL     1      -8.036  -1.002 -33.593  1.00  0.00     0.280 HD
HETATM   17  C   UNL     1      -8.230   0.401 -32.071  1.00  0.00     0.270 C 
HETATM   18  C   UNL     1      -8.685   0.730 -34.476  1.00  0.00     0.270 C 
ENDBRANCH   8  15
ENDBRANCH   7   8
ENDBRANCH   1   7
BRANCH   3  19
HETATM   19  C   UNL     1      -3.131   4.905 -31.436  1.00  0.00     0.036 A 
HETATM   20  C   UNL     1      -3.695   5.897 -30.638  1.00  0.00     0.032 A 
HETATM   21  C   UNL     1      -2.885   6.740 -29.860  1.00  0.00     0.032 A 
HETATM   22  C   UNL     1      -1.493   6.606 -29.871  1.00  0.00     0.040 A 
HETATM   23  C   UNL     1      -0.929   5.607 -30.678  1.00  0.00     0.032 A 
HETATM   24  C   UNL     1      -1.741   4.770 -31.453  1.00  0.00     0.032 A 
BRANCH  22  25
HETATM   25  N   UNL     1      -0.649   7.420 -29.053  1.00  0.00    -0.309 N 
HETATM   26  C   UNL     1      -0.814   8.737 -28.619  1.00  0.00     0.106 A 
HETATM   27  C   UNL     1      -1.863   9.686 -29.073  1.00  0.00     0.091 C 
HETATM   28  N   UNL     1       0.158   9.099 -27.801  1.00  0.00    -0.246 NA
HETATM   29  C   UNL     1       1.008   8.039 -27.728  1.00  0.00     0.136 A 
HETATM   30  C   UNL     1       0.553   7.007 -28.506  1.00  0.00     0.118 A 
ENDBRANCH  22  25
ENDBRANCH   3  19
TORSDOF 6
ENDMDL
