MODEL 1
REMARK VINA RESULT:      -9.0      0.000      0.000
REMARK  2 active torsions:
REMARK  status: ('A' for Active; 'I' for Inactive)
REMARK    1  A    between atoms: C_9  and  C_10 
REMARK       I    between atoms: C_10  and  N_11 
REMARK    2  A    between atoms: N_11  and  C_12 
ROOT
HETATM    1  C   UNL     1      -4.216   0.370 -32.709  1.00  0.00     0.277 C 
HETATM    2  N   UNL     1      -3.304   1.293 -32.228  1.00  0.00    -0.322 N 
HETATM    3  O   UNL     1      -5.295   0.620 -33.233  1.00  0.00    -0.266 OA
HETATM    4  H   UNL     1      -2.478   0.859 -31.820  1.00  0.00     0.169 HD
ENDROOT
BRANCH   1   5
HETATM    5  C   UNL     1      -3.740  -1.013 -32.512  1.00  0.00     0.157 A 
HETATM    6  C   UNL     1      -4.178  -2.189 -33.190  1.00  0.00     0.029 A 
HETATM    7  C   UNL     1      -5.124  -2.492 -34.190  1.00  0.00     0.023 A 
HETATM    8  C   UNL     1      -3.425  -3.222 -32.648  1.00  0.00     0.063 A 
HETATM    9  C   UNL     1      -5.288  -3.823 -34.609  1.00  0.00    -0.061 A 
HETATM   10  C   UNL     1      -6.297  -4.169 -35.664  1.00  0.00     0.048 C 
HETATM   11  C   UNL     1      -4.503  -4.833 -34.040  1.00  0.00     0.009 A 
HETATM   12  C   UNL     1      -3.554  -4.554 -33.048  1.00  0.00     0.032 A 
HETATM   13  N   UNL     1      -2.616  -2.630 -31.717  1.00  0.00    -0.277 N 
HETATM   14  H   UNL     1      -1.930  -3.084 -31.127  1.00  0.00     0.189 HD
HETATM   15  N   UNL     1      -2.785  -1.301 -31.596  1.00  0.00    -0.168 NA
ENDBRANCH   1   5
BRANCH   2  16
HETATM   16  C   UNL     1      -3.389   2.694 -32.224  1.00  0.00     0.037 A 
HETATM   17  C   UNL     1      -2.679   3.521 -33.096  1.00  0.00     0.069 A 
HETATM   18  C   UNL     1      -2.806   4.912 -33.010  1.00  0.00     0.104 A 
HETATM   19  C   UNL     1      -3.670   5.483 -32.073  1.00  0.00     0.102 A 
HETATM   20  O   UNL     1      -2.129   5.651 -33.942  1.00  0.00    -0.348 OA
HETATM   21  O   UNL     1      -3.922   6.825 -32.005  1.00  0.00    -0.348 OA
HETATM   22  C   UNL     1      -4.405   4.663 -31.222  1.00  0.00     0.042 A 
HETATM   23  C   UNL     1      -2.756   7.576 -31.667  1.00  0.00     0.178 C 
HETATM   24  C   UNL     1      -1.866   7.830 -32.874  1.00  0.00     0.053 C 
HETATM   25  C   UNL     1      -1.195   6.548 -33.341  1.00  0.00     0.178 C 
HETATM   26  C   UNL     1      -4.251   3.275 -31.285  1.00  0.00     0.032 A 
ENDBRANCH   2  16
TORSDOF 2
ENDMDL
MODEL 2
REMARK VINA RESULT:      -8.9      6.579      8.110
REMARK  2 active torsions:
REMARK  status: ('A' for Active; 'I' for Inactive)
REMARK    1  A    between atoms: C_9  and  C_10 
REMARK       I    between atoms: C_10  and  N_11 
REMARK    2  A    between atoms: N_11  and  C_12 
ROOT
HETATM    1  C   UNL     1      -8.732   0.452 -32.323  1.00  0.00     0.277 C 
HETATM    2  N   UNL     1      -9.538   0.852 -33.374  1.00  0.00    -0.322 N 
HETATM    3  O   UNL     1      -9.088   0.261 -31.166  1.00  0.00    -0.266 OA
HETATM    4  H   UNL     1      -9.026   0.961 -34.247  1.00  0.00     0.169 HD
ENDROOT
BRANCH   1   5
HETATM    5  C   UNL     1      -7.331   0.277 -32.753  1.00  0.00     0.157 A 
HETATM    6  C   UNL     1      -6.766  -0.837 -33.443  1.00  0.00     0.029 A 
HETATM    7  C   UNL     1      -7.234  -2.073 -33.931  1.00  0.00     0.023 A 
HETATM    8  C   UNL     1      -5.426  -0.515 -33.614  1.00  0.00     0.063 A 
HETATM    9  C   UNL     1      -6.341  -2.950 -34.571  1.00  0.00    -0.061 A 
HETATM   10  C   UNL     1      -6.816  -4.276 -35.088  1.00  0.00     0.048 C 
HETATM   11  C   UNL     1      -4.999  -2.581 -34.728  1.00  0.00     0.009 A 
HETATM   12  C   UNL     1      -4.513  -1.357 -34.255  1.00  0.00     0.032 A 
HETATM   13  N   UNL     1      -5.275   0.718 -33.043  1.00  0.00    -0.277 N 
HETATM   14  H   UNL     1      -4.424   1.265 -32.985  1.00  0.00     0.189 HD
HETATM   15  N   UNL     1      -6.398   1.224 -32.501  1.00  0.00    -0.168 NA
ENDBRANCH   1   5
BRANCH   2  16
HETATM   16  C   UNL     1     -10.914   1.127 -33.372  1.00  0.00     0.037 A 
HETATM   17  C   UNL     1     -11.457   2.398 -33.173  1.00  0.00     0.069 A 
HETATM   18  C   UNL     1     -12.844   2.581 -33.164  1.00  0.00     0.104 A 
HETATM   19  C   UNL     1     -13.697   1.499 -33.390  1.00  0.00     0.102 A 
HETATM   20  O   UNL     1     -13.294   3.866 -33.029  1.00  0.00    -0.348 OA
HETATM   21  O   UNL     1     -15.054   1.624 -33.501  1.00  0.00    -0.348 OA
HETATM   22  C   UNL     1     -13.163   0.235 -33.622  1.00  0.00     0.042 A 
HETATM   23  C   UNL     1     -15.654   2.087 -32.291  1.00  0.00     0.178 C 
HETATM   24  C   UNL     1     -15.552   3.597 -32.140  1.00  0.00     0.053 C 
HETATM   25  C   UNL     1     -14.118   4.027 -31.874  1.00  0.00     0.178 C 
HETATM   26  C   UNL     1     -11.779   0.047 -33.595  1.00  0.00     0.032 A 
ENDBRANCH   2  16
TORSDOF 2
ENDMDL
MODEL 3
REMARK VINA RESULT:      -8.9      2.039      2.605
REMARK  2 active torsions:
REMARK  status: ('A' for Active; 'I' for Inactive)
REMARK    1  A    between atoms: C_9  and  C_10 
REMARK       I    between atoms: C_10  and  N_11 
REMARK    2  A    between atoms: N_11  and  C_12 
ROOT
HETATM    1  C   UNL     1      -4.554   1.041 -32.443  1.00  0.00     0.277 C 
HETATM    2  N   UNL     1      -4.621   2.370 -32.823  1.00  0.00    -0.322 N 
HETATM    3  O   UNL     1      -3.878   0.578 -31.532  1.00  0.00    -0.266 OA
HETATM    4  H   UNL     1      -5.240   2.525 -33.616  1.00  0.00     0.169 HD
ENDROOT
BRANCH   1   5
HETATM    5  C   UNL     1      -5.417   0.194 -33.289  1.00  0.00     0.157 A 
HETATM    6  C   UNL     1      -5.224  -1.179 -33.629  1.00  0.00     0.029 A 
HETATM    7  C   UNL     1      -4.260  -2.168 -33.350  1.00  0.00     0.023 A 
HETATM    8  C   UNL     1      -6.304  -1.507 -34.438  1.00  0.00     0.063 A 
HETATM    9  C   UNL     1      -4.409  -3.454 -33.895  1.00  0.00    -0.061 A 
HETATM   10  C   UNL     1      -3.389  -4.520 -33.619  1.00  0.00     0.048 C 
HETATM   11  C   UNL     1      -5.517  -3.745 -34.701  1.00  0.00     0.009 A 
HETATM   12  C   UNL     1      -6.488  -2.778 -34.988  1.00  0.00     0.032 A 
HETATM   13  N   UNL     1      -7.047  -0.362 -34.531  1.00  0.00    -0.277 N 
HETATM   14  H   UNL     1      -7.911  -0.236 -35.043  1.00  0.00     0.189 HD
HETATM   15  N   UNL     1      -6.539   0.689 -33.863  1.00  0.00    -0.168 NA
ENDBRANCH   1   5
BRANCH   2  16
HETATM   16  C   UNL     1      -3.952   3.475 -32.276  1.00  0.00     0.037 A 
HETATM   17  C   UNL     1      -2.636   3.824 -32.586  1.00  0.00     0.069 A 
HETATM   18  C   UNL     1      -2.037   4.932 -31.977  1.00  0.00     0.104 A 
HETATM   19  C   UNL     1      -2.761   5.719 -31.080  1.00  0.00     0.102 A 
HETATM   20  O   UNL     1      -0.768   5.247 -32.385  1.00  0.00    -0.348 OA
HETATM   21  O   UNL     1      -2.274   6.873 -30.531  1.00  0.00    -0.348 OA
HETATM   22  C   UNL     1      -4.083   5.396 -30.790  1.00  0.00     0.042 A 
HETATM   23  C   UNL     1      -1.137   6.638 -29.700  1.00  0.00     0.178 C 
HETATM   24  C   UNL     1       0.146   6.508 -30.505  1.00  0.00     0.053 C 
HETATM   25  C   UNL     1       0.165   5.215 -31.305  1.00  0.00     0.178 C 
HETATM   26  C   UNL     1      -4.670   4.269 -31.371  1.00  0.00     0.032 A 
ENDBRANCH   2  16
TORSDOF 2
ENDMDL
MODEL 4
REMARK VINA RESULT:      -8.8      4.653      6.064
REMARK  2 active torsions:
REMARK  status: ('A' for Active; 'I' for Inactive)
REMARK    1  A    between atoms: C_9  and  C_10 
REMARK       I    between atoms: C_10  and  N_11 
REMARK    2  A    between atoms: N_11  and  C_12 
ROOT
HETATM    1  C   UNL     1      -5.912   0.515 -32.945  1.00  0.00     0.277 C 
HETATM    2  N   UNL     1      -7.192   0.157 -32.562  1.00  0.00    -0.322 N 
HETATM    3  O   UNL     1      -5.568   1.596 -33.409  1.00  0.00    -0.266 OA
HETATM    4  H   UNL     1      -7.249  -0.798 -32.215  1.00  0.00     0.169 HD
ENDROOT
BRANCH   1   5
HETATM    5  C   UNL     1      -4.956  -0.589 -32.735  1.00  0.00     0.157 A 
HETATM    6  C   UNL     1      -4.963  -1.875 -33.353  1.00  0.00     0.029 A 
HETATM    7  C   UNL     1      -5.774  -2.547 -34.289  1.00  0.00     0.023 A 
HETATM    8  C   UNL     1      -3.863  -2.537 -32.824  1.00  0.00     0.063 A 
HETATM    9  C   UNL     1      -5.459  -3.866 -34.659  1.00  0.00    -0.061 A 
HETATM   10  C   UNL     1      -6.315  -4.604 -35.646  1.00  0.00     0.048 C 
HETATM   11  C   UNL     1      -4.336  -4.494 -34.106  1.00  0.00     0.009 A 
HETATM   12  C   UNL     1      -3.514  -3.843 -33.178  1.00  0.00     0.032 A 
HETATM   13  N   UNL     1      -3.288  -1.648 -31.958  1.00  0.00    -0.277 N 
HETATM   14  H   UNL     1      -2.460  -1.795 -31.394  1.00  0.00     0.189 HD
HETATM   15  N   UNL     1      -3.925  -0.467 -31.866  1.00  0.00    -0.168 NA
ENDBRANCH   1   5
BRANCH   2  16
HETATM   16  C   UNL     1      -8.370   0.919 -32.610  1.00  0.00     0.037 A 
HETATM   17  C   UNL     1      -9.515   0.543 -33.316  1.00  0.00     0.069 A 
HETATM   18  C   UNL     1     -10.641   1.373 -33.329  1.00  0.00     0.104 A 
HETATM   19  C   UNL     1     -10.642   2.568 -32.608  1.00  0.00     0.102 A 
HETATM   20  O   UNL     1     -11.744   0.903 -33.989  1.00  0.00    -0.348 OA
HETATM   21  O   UNL     1     -11.742   3.373 -32.490  1.00  0.00    -0.348 OA
HETATM   22  C   UNL     1      -9.516   2.934 -31.875  1.00  0.00     0.042 A 
HETATM   23  C   UNL     1     -12.152   3.911 -33.746  1.00  0.00     0.178 C 
HETATM   24  C   UNL     1     -12.989   2.927 -34.548  1.00  0.00     0.053 C 
HETATM   25  C   UNL     1     -12.143   1.769 -35.052  1.00  0.00     0.178 C 
HETATM   26  C   UNL     1      -8.379   2.121 -31.891  1.00  0.00     0.032 A 
ENDBRANCH   2  16
TORSDOF 2
ENDMDL
MODEL 5
REMARK VINA RESULT:      -8.7      5.080      6.390
REMARK  2 active torsions:
REMARK  status: ('A' for Active; 'I' for Inactive)
REMARK    1  A    between atoms: C_9  and  C_10 
REMARK       I    between atoms: C_10  and  N_11 
REMARK    2  A    between atoms: N_11  and  C_12 
ROOT
HETATM    1  C   UNL     1      -6.681   1.037 -33.761  1.00  0.00     0.277 C 
HETATM    2  N   UNL     1      -7.830   0.724 -33.055  1.00  0.00    -0.322 N 
HETATM    3  O   UNL     1      -6.543   1.964 -34.550  1.00  0.00    -0.266 OA
HETATM    4  H   UNL     1      -7.720  -0.098 -32.465  1.00  0.00     0.169 HD
ENDROOT
BRANCH   1   5
HETATM    5  C   UNL     1      -5.588   0.093 -33.458  1.00  0.00     0.157 A 
HETATM    6  C   UNL     1      -5.488  -1.276 -33.846  1.00  0.00     0.029 A 
HETATM    7  C   UNL     1      -6.282  -2.186 -34.572  1.00  0.00     0.023 A 
HETATM    8  C   UNL     1      -4.280  -1.715 -33.320  1.00  0.00     0.063 A 
HETATM    9  C   UNL     1      -5.841  -3.509 -34.742  1.00  0.00    -0.061 A 
HETATM   10  C   UNL     1      -6.675  -4.498 -35.503  1.00  0.00     0.048 C 
HETATM   11  C   UNL     1      -4.612  -3.908 -34.200  1.00  0.00     0.009 A 
HETATM   12  C   UNL     1      -3.806  -3.020 -33.478  1.00  0.00     0.032 A 
HETATM   13  N   UNL     1      -3.751  -0.630 -32.676  1.00  0.00    -0.277 N 
HETATM   14  H   UNL     1      -2.871  -0.586 -32.177  1.00  0.00     0.189 HD
HETATM   15  N   UNL     1      -4.515   0.476 -32.725  1.00  0.00    -0.168 NA
ENDBRANCH   1   5
BRANCH   2  16
HETATM   16  C   UNL     1      -9.075   1.371 -33.071  1.00  0.00     0.037 A 
HETATM   17  C   UNL     1      -9.352   2.548 -32.374  1.00  0.00     0.069 A 
HETATM   18  C   UNL     1     -10.630   3.116 -32.427  1.00  0.00     0.104 A 
HETATM   19  C   UNL     1     -11.629   2.528 -33.204  1.00  0.00     0.102 A 
HETATM   20  O   UNL     1     -10.802   4.305 -31.771  1.00  0.00    -0.348 OA
HETATM   21  O   UNL     1     -12.865   3.086 -33.386  1.00  0.00    -0.348 OA
HETATM   22  C   UNL     1     -11.351   1.372 -33.927  1.00  0.00     0.042 A 
HETATM   23  C   UNL     1     -13.602   3.172 -32.166  1.00  0.00     0.178 C 
HETATM   24  C   UNL     1     -13.204   4.383 -31.338  1.00  0.00     0.053 C 
HETATM   25  C   UNL     1     -11.807   4.219 -30.760  1.00  0.00     0.178 C 
HETATM   26  C   UNL     1     -10.085   0.786 -33.847  1.00  0.00     0.032 A 
ENDBRANCH   2  16
TORSDOF 2
ENDMDL
MODEL 6
REMARK VINA RESULT:      -8.7      1.883      2.744
REMARK  2 active torsions:
REMARK  status: ('A' for Active; 'I' for Inactive)
REMARK    1  A    between atoms: C_9  and  C_10 
REMARK       I    between atoms: C_10  and  N_11 
REMARK    2  A    between atoms: N_11  and  C_12 
ROOT
HETATM    1  C   UNL     1      -3.791   2.016 -31.714  1.00  0.00     0.277 C 
HETATM    2  N   UNL     1      -3.030   2.813 -32.551  1.00  0.00    -0.322 N 
HETATM    3  O   UNL     1      -4.377   2.377 -30.700  1.00  0.00    -0.266 OA
HETATM    4  H   UNL     1      -2.626   2.297 -33.329  1.00  0.00     0.169 HD
ENDROOT
BRANCH   1   5
HETATM    5  C   UNL     1      -3.824   0.617 -32.184  1.00  0.00     0.157 A 
HETATM    6  C   UNL     1      -4.769   0.018 -33.069  1.00  0.00     0.029 A 
HETATM    7  C   UNL     1      -5.917   0.443 -33.766  1.00  0.00     0.023 A 
HETATM    8  C   UNL     1      -4.362  -1.303 -33.193  1.00  0.00     0.063 A 
HETATM    9  C   UNL     1      -6.623  -0.475 -34.563  1.00  0.00    -0.061 A 
HETATM   10  C   UNL     1      -7.855  -0.047 -35.307  1.00  0.00     0.048 C 
HETATM   11  C   UNL     1      -6.173  -1.797 -34.666  1.00  0.00     0.009 A 
HETATM   12  C   UNL     1      -5.033  -2.239 -33.985  1.00  0.00     0.032 A 
HETATM   13  N   UNL     1      -3.246  -1.413 -32.410  1.00  0.00    -0.277 N 
HETATM   14  H   UNL     1      -2.681  -2.242 -32.264  1.00  0.00     0.189 HD
HETATM   15  N   UNL     1      -2.896  -0.280 -31.774  1.00  0.00    -0.168 NA
ENDBRANCH   1   5
BRANCH   2  16
HETATM   16  C   UNL     1      -2.753   4.185 -32.446  1.00  0.00     0.037 A 
HETATM   17  C   UNL     1      -2.085   4.766 -31.366  1.00  0.00     0.069 A 
HETATM   18  C   UNL     1      -1.869   6.148 -31.331  1.00  0.00     0.104 A 
HETATM   19  C   UNL     1      -2.288   6.953 -32.393  1.00  0.00     0.102 A 
HETATM   20  O   UNL     1      -1.150   6.631 -30.272  1.00  0.00    -0.348 OA
HETATM   21  O   UNL     1      -2.015   8.290 -32.473  1.00  0.00    -0.348 OA
HETATM   22  C   UNL     1      -2.925   6.376 -33.487  1.00  0.00     0.042 A 
HETATM   23  C   UNL     1      -2.633   9.031 -31.421  1.00  0.00     0.178 C 
HETATM   24  C   UNL     1      -1.832   8.971 -30.129  1.00  0.00     0.053 C 
HETATM   25  C   UNL     1      -1.892   7.583 -29.510  1.00  0.00     0.178 C 
HETATM   26  C   UNL     1      -3.172   5.001 -33.505  1.00  0.00     0.032 A 
ENDBRANCH   2  16
TORSDOF 2
ENDMDL
MODEL 7
REMARK VINA RESULT:      -8.6      2.508      3.464
REMARK  2 active torsions:
REMARK  status: ('A' for Active; 'I' for Inactive)
REMARK    1  A    between atoms: C_9  and  C_10 
REMARK       I    between atoms: C_10  and  N_11 
REMARK    2  A    between atoms: N_11  and  C_12 
ROOT
HETATM    1  C   UNL     1      -5.406   2.568 -32.512  1.00  0.00     0.277 C 
HETATM    2  N   UNL     1      -4.582   3.395 -33.255  1.00  0.00    -0.322 N 
HETATM    3  O   UNL     1      -5.506   2.549 -31.291  1.00  0.00    -0.266 OA
HETATM    4  H   UNL     1      -4.653   3.228 -34.257  1.00  0.00     0.169 HD
ENDROOT
BRANCH   1   5
HETATM    5  C   UNL     1      -6.185   1.662 -33.378  1.00  0.00     0.157 A 
HETATM    6  C   UNL     1      -5.920   0.289 -33.664  1.00  0.00     0.029 A 
HETATM    7  C   UNL     1      -4.936  -0.651 -33.300  1.00  0.00     0.023 A 
HETATM    8  C   UNL     1      -6.939  -0.105 -34.520  1.00  0.00     0.063 A 
HETATM    9  C   UNL     1      -5.003  -1.958 -33.813  1.00  0.00    -0.061 A 
HETATM   10  C   UNL     1      -3.960  -2.973 -33.448  1.00  0.00     0.048 C 
HETATM   11  C   UNL     1      -6.053  -2.316 -34.669  1.00  0.00     0.009 A 
HETATM   12  C   UNL     1      -7.042  -1.398 -35.040  1.00  0.00     0.032 A 
HETATM   13  N   UNL     1      -7.719   1.005 -34.690  1.00  0.00    -0.277 N 
HETATM   14  H   UNL     1      -8.558   1.081 -35.253  1.00  0.00     0.189 HD
HETATM   15  N   UNL     1      -7.291   2.095 -34.028  1.00  0.00    -0.168 NA
ENDBRANCH   1   5
BRANCH   2  16
HETATM   16  C   UNL     1      -3.690   4.381 -32.807  1.00  0.00     0.037 A 
HETATM   17  C   UNL     1      -2.394   4.117 -32.361  1.00  0.00     0.069 A 
HETATM   18  C   UNL     1      -1.576   5.159 -31.909  1.00  0.00     0.104 A 
HETATM   19  C   UNL     1      -2.038   6.476 -31.934  1.00  0.00     0.102 A 
HETATM   20  O   UNL     1      -0.298   4.827 -31.551  1.00  0.00    -0.348 OA
HETATM   21  O   UNL     1      -1.257   7.551 -31.610  1.00  0.00    -0.348 OA
HETATM   22  C   UNL     1      -3.317   6.751 -32.408  1.00  0.00     0.042 A 
HETATM   23  C   UNL     1      -0.842   7.523 -30.244  1.00  0.00     0.178 C 
HETATM   24  C   UNL     1       0.359   6.617 -30.026  1.00  0.00     0.053 C 
HETATM   25  C   UNL     1      -0.021   5.153 -30.189  1.00  0.00     0.178 C 
HETATM   26  C   UNL     1      -4.146   5.706 -32.826  1.00  0.00     0.032 A 
ENDBRANCH   2  16
TORSDOF 2
ENDMDL
MODEL 8
REMARK VINA RESULT:      -8.5      3.708      4.870
REMARK  2 active torsions:
REMARK  status: ('A' for Active; 'I' for Inactive)
REMARK    1  A    between atoms: C_9  and  C_10 
REMARK       I    between atoms: C_10  and  N_11 
REMARK    2  A    between atoms: N_11  and  C_12 
ROOT
HETATM    1  C   UNL     1      -5.143   0.294 -32.581  1.00  0.00     0.277 C 
HETATM    2  N   UNL     1      -6.463   0.100 -32.213  1.00  0.00    -0.322 N 
HETATM    3  O   UNL     1      -4.646   1.341 -32.979  1.00  0.00    -0.266 OA
HETATM    4  H   UNL     1      -6.657  -0.857 -31.926  1.00  0.00     0.169 HD
ENDROOT
BRANCH   1   5
HETATM    5  C   UNL     1      -4.357  -0.948 -32.447  1.00  0.00     0.157 A 
HETATM    6  C   UNL     1      -4.543  -2.176 -33.150  1.00  0.00     0.029 A 
HETATM    7  C   UNL     1      -5.435  -2.662 -34.126  1.00  0.00     0.023 A 
HETATM    8  C   UNL     1      -3.553  -3.022 -32.669  1.00  0.00     0.063 A 
HETATM    9  C   UNL     1      -5.309  -3.984 -34.584  1.00  0.00    -0.061 A 
HETATM   10  C   UNL     1      -6.254  -4.526 -35.616  1.00  0.00     0.048 C 
HETATM   11  C   UNL     1      -4.291  -4.802 -34.077  1.00  0.00     0.009 A 
HETATM   12  C   UNL     1      -3.391  -4.338 -33.110  1.00  0.00     0.032 A 
HETATM   13  N   UNL     1      -2.863  -2.284 -31.747  1.00  0.00    -0.277 N 
HETATM   14  H   UNL     1      -2.067  -2.584 -31.196  1.00  0.00     0.189 HD
HETATM   15  N   UNL     1      -3.325  -1.032 -31.575  1.00  0.00    -0.168 NA
ENDBRANCH   1   5
BRANCH   2  16
HETATM   16  C   UNL     1      -7.519   1.024 -32.205  1.00  0.00     0.037 A 
HETATM   17  C   UNL     1      -7.412   2.328 -31.719  1.00  0.00     0.069 A 
HETATM   18  C   UNL     1      -8.522   3.179 -31.728  1.00  0.00     0.104 A 
HETATM   19  C   UNL     1      -9.739   2.742 -32.256  1.00  0.00     0.102 A 
HETATM   20  O   UNL     1      -8.318   4.462 -31.296  1.00  0.00    -0.348 OA
HETATM   21  O   UNL     1     -10.832   3.552 -32.393  1.00  0.00    -0.348 OA
HETATM   22  C   UNL     1      -9.844   1.454 -32.772  1.00  0.00     0.042 A 
HETATM   23  C   UNL     1     -11.326   4.009 -31.134  1.00  0.00     0.178 C 
HETATM   24  C   UNL     1     -10.541   5.199 -30.606  1.00  0.00     0.053 C 
HETATM   25  C   UNL     1      -9.142   4.787 -30.176  1.00  0.00     0.178 C 
HETATM   26  C   UNL     1      -8.744   0.593 -32.730  1.00  0.00     0.032 A 
ENDBRANCH   2  16
TORSDOF 2
ENDMDL
MODEL 9
REMARK VINA RESULT:      -8.5      1.342      2.352
REMARK  2 active torsions:
REMARK  status: ('A' for Active; 'I' for Inactive)
REMARK    1  A    between atoms: C_9  and  C_10 
REMARK       I    between atoms: C_10  and  N_11 
REMARK    2  A    between atoms: N_11  and  C_12 
ROOT
HETATM    1  C   UNL     1      -4.417   0.135 -32.608  1.00  0.00     0.277 C 
HETATM    2  N   UNL     1      -3.671   1.044 -31.878  1.00  0.00    -0.322 N 
HETATM    3  O   UNL     1      -5.407   0.385 -33.285  1.00  0.00    -0.266 OA
HETATM    4  H   UNL     1      -2.896   0.611 -31.381  1.00  0.00     0.169 HD
ENDROOT
BRANCH   1   5
HETATM    5  C   UNL     1      -3.878  -1.233 -32.479  1.00  0.00     0.157 A 
HETATM    6  C   UNL     1      -4.284  -2.399 -33.194  1.00  0.00     0.029 A 
HETATM    7  C   UNL     1      -5.245  -2.703 -34.179  1.00  0.00     0.023 A 
HETATM    8  C   UNL     1      -3.474  -3.419 -32.713  1.00  0.00     0.063 A 
HETATM    9  C   UNL     1      -5.364  -4.022 -34.648  1.00  0.00    -0.061 A 
HETATM   10  C   UNL     1      -6.386  -4.370 -35.690  1.00  0.00     0.048 C 
HETATM   11  C   UNL     1      -4.521  -5.020 -34.140  1.00  0.00     0.009 A 
HETATM   12  C   UNL     1      -3.558  -4.739 -33.163  1.00  0.00     0.032 A 
HETATM   13  N   UNL     1      -2.665  -2.830 -31.781  1.00  0.00    -0.277 N 
HETATM   14  H   UNL     1      -1.945  -3.277 -31.227  1.00  0.00     0.189 HD
HETATM   15  N   UNL     1      -2.886  -1.515 -31.601  1.00  0.00    -0.168 NA
ENDBRANCH   1   5
BRANCH   2  16
HETATM   16  C   UNL     1      -3.861   2.427 -31.739  1.00  0.00     0.037 A 
HETATM   17  C   UNL     1      -4.721   3.007 -30.805  1.00  0.00     0.069 A 
HETATM   18  C   UNL     1      -4.868   4.398 -30.748  1.00  0.00     0.104 A 
HETATM   19  C   UNL     1      -4.130   5.219 -31.602  1.00  0.00     0.102 A 
HETATM   20  O   UNL     1      -5.679   4.891 -29.762  1.00  0.00    -0.348 OA
HETATM   21  O   UNL     1      -4.144   6.584 -31.529  1.00  0.00    -0.348 OA
HETATM   22  C   UNL     1      -3.246   4.649 -32.514  1.00  0.00     0.042 A 
HETATM   23  C   UNL     1      -5.434   7.126 -31.816  1.00  0.00     0.178 C 
HETATM   24  C   UNL     1      -6.359   7.076 -30.611  1.00  0.00     0.053 C 
HETATM   25  C   UNL     1      -6.768   5.647 -30.291  1.00  0.00     0.178 C 
HETATM   26  C   UNL     1      -3.126   3.259 -32.595  1.00  0.00     0.032 A 
ENDBRANCH   2  16
TORSDOF 2
ENDMDL
MODEL 10
REMARK VINA RESULT:      -8.5      3.105      8.707
REMARK  2 active torsions:
REMARK  status: ('A' for Active; 'I' for Inactive)
REMARK    1  A    between atoms: C_9  and  C_10 
REMARK       I    between atoms: C_10  and  N_11 
REMARK    2  A    between atoms: N_11  and  C_12 
ROOT
HETATM    1  C   UNL     1      -1.652   4.639 -31.666  1.00  0.00     0.277 C 
HETATM    2  N   UNL     1      -2.689   3.894 -31.135  1.00  0.00    -0.322 N 
HETATM    3  O   UNL     1      -1.480   4.905 -32.850  1.00  0.00    -0.266 OA
HETATM    4  H   UNL     1      -2.625   3.789 -30.125  1.00  0.00     0.169 HD
ENDROOT
BRANCH   1   5
HETATM    5  C   UNL     1      -0.724   5.100 -30.615  1.00  0.00     0.157 A 
HETATM    6  C   UNL     1      -0.731   6.355 -29.936  1.00  0.00     0.029 A 
HETATM    7  C   UNL     1      -1.511   7.528 -29.980  1.00  0.00     0.023 A 
HETATM    8  C   UNL     1       0.334   6.293 -29.048  1.00  0.00     0.063 A 
HETATM    9  C   UNL     1      -1.193   8.604 -29.134  1.00  0.00    -0.061 A 
HETATM   10  C   UNL     1      -2.003   9.866 -29.171  1.00  0.00     0.048 C 
HETATM   11  C   UNL     1      -0.113   8.496 -28.248  1.00  0.00     0.009 A 
HETATM   12  C   UNL     1       0.672   7.339 -28.185  1.00  0.00     0.032 A 
HETATM   13  N   UNL     1       0.892   5.059 -29.238  1.00  0.00    -0.277 N 
HETATM   14  H   UNL     1       1.692   4.669 -28.755  1.00  0.00     0.189 HD
HETATM   15  N   UNL     1       0.291   4.314 -30.184  1.00  0.00    -0.168 NA
ENDBRANCH   1   5
BRANCH   2  16
HETATM   16  C   UNL     1      -3.762   3.280 -31.800  1.00  0.00     0.037 A 
HETATM   17  C   UNL     1      -3.973   1.901 -31.834  1.00  0.00     0.069 A 
HETATM   18  C   UNL     1      -5.058   1.370 -32.540  1.00  0.00     0.104 A 
HETATM   19  C   UNL     1      -5.959   2.218 -33.188  1.00  0.00     0.102 A 
HETATM   20  O   UNL     1      -5.234   0.014 -32.470  1.00  0.00    -0.348 OA
HETATM   21  O   UNL     1      -7.096   1.775 -33.804  1.00  0.00    -0.348 OA
HETATM   22  C   UNL     1      -5.773   3.596 -33.130  1.00  0.00     0.042 A 
HETATM   23  C   UNL     1      -6.811   0.921 -34.913  1.00  0.00     0.178 C 
HETATM   24  C   UNL     1      -6.520  -0.506 -34.479  1.00  0.00     0.053 C 
HETATM   25  C   UNL     1      -5.184  -0.600 -33.758  1.00  0.00     0.178 C 
HETATM   26  C   UNL     1      -4.669   4.123 -32.455  1.00  0.00     0.032 A 
ENDBRANCH   2  16
TORSDOF 2
ENDMDL
