MODEL 1
REMARK VINA RESULT:      -7.9      0.000      0.000
REMARK  5 active torsions:
REMARK  status: ('A' for Active; 'I' for Inactive)
REMARK    1  A    between atoms: C_8  and  N_9 
REMARK       I    between atoms: N_9  and  C_10 
REMARK    2  A    between atoms: C_10  and  C_11 
REMARK    3  A    between atoms: C_11  and  N_12 
REMARK    4  A    between atoms: N_12  and  C_13 
REMARK    5  A    between atoms: C_13  and  C_14 
ROOT
HETATM    1  C   UNL     1      -3.344   2.240 -31.468  1.00  0.00     0.372 C 
ENDROOT
BRANCH   1   2
HETATM    2  C   UNL     1      -3.338   3.749 -31.760  1.00  0.00     0.250 C 
HETATM    3  N   UNL     1      -2.288   4.113 -32.576  1.00  0.00    -0.322 N 
HETATM    4  H   UNL     1      -1.630   3.362 -32.773  1.00  0.00     0.169 HD
HETATM    5  O   UNL     1      -4.228   4.470 -31.324  1.00  0.00    -0.271 OA
BRANCH   3   6
HETATM    6  C   UNL     1      -2.010   5.360 -33.105  1.00  0.00     0.085 A 
HETATM    7  C   UNL     1      -2.661   5.827 -34.232  1.00  0.00     0.052 A 
HETATM    8  C   UNL     1      -3.700   5.232 -35.105  1.00  0.00     0.072 C 
HETATM    9  N   UNL     1      -2.152   7.070 -34.470  1.00  0.00    -0.280 N 
HETATM   10  H   UNL     1      -2.391   7.713 -35.216  1.00  0.00     0.189 HD
HETATM   11  N   UNL     1      -1.228   7.454 -33.585  1.00  0.00    -0.177 NA
HETATM   12  C   UNL     1      -1.131   6.420 -32.736  1.00  0.00     0.079 A 
HETATM   13  C   UNL     1      -0.187   6.541 -31.597  1.00  0.00     0.075 C 
ENDBRANCH   3   6
ENDBRANCH   1   2
BRANCH   1  14
HETATM   14  N   UNL     1      -4.327   1.546 -32.334  1.00  0.00     0.101 N 
HETATM   15  H   UNL     1      -3.889   1.436 -33.253  1.00  0.00     0.317 HD
BRANCH  14  16
HETATM   16  C   UNL     1      -4.660   0.199 -31.831  1.00  0.00     0.254 C 
HETATM   17  C   UNL     1      -5.749   0.209 -30.749  1.00  0.00     0.048 C 
BRANCH  16  18
HETATM   18  C   UNL     1      -5.057  -0.740 -32.961  1.00  0.00     0.035 A 
HETATM   19  C   UNL     1      -6.166  -0.566 -33.810  1.00  0.00     0.045 A 
HETATM   20 CL   UNL     1      -7.235   0.788 -33.700  1.00  0.00    -0.084 Cl
HETATM   21  C   UNL     1      -6.465  -1.512 -34.804  1.00  0.00     0.024 A 
HETATM   22  C   UNL     1      -5.675  -2.648 -34.967  1.00  0.00     0.005 A 
HETATM   23  C   UNL     1      -4.582  -2.843 -34.133  1.00  0.00     0.043 A 
HETATM   24  C   UNL     1      -4.288  -1.901 -33.150  1.00  0.00     0.126 A 
HETATM   25  F   UNL     1      -3.231  -2.138 -32.357  1.00  0.00    -0.205 F 
ENDBRANCH  16  18
ENDBRANCH  14  16
ENDBRANCH   1  14
TORSDOF 5
ENDMDL
MODEL 2
REMARK VINA RESULT:      -7.8      1.561      1.864
REMARK  5 active torsions:
REMARK  status: ('A' for Active; 'I' for Inactive)
REMARK    1  A    between atoms: C_8  and  N_9 
REMARK       I    between atoms: N_9  and  C_10 
REMARK    2  A    between atoms: C_10  and  C_11 
REMARK    3  A    between atoms: C_11  and  N_12 
REMARK    4  A    between atoms: N_12  and  C_13 
REMARK    5  A    between atoms: C_13  and  C_14 
ROOT
HETATM    1  C   UNL     1      -3.314   2.279 -31.364  1.00  0.00     0.372 C 
ENDROOT
BRANCH   1   2
HETATM    2  C   UNL     1      -3.273   3.789 -31.645  1.00  0.00     0.250 C 
HETATM    3  N   UNL     1      -2.281   4.122 -32.542  1.00  0.00    -0.322 N 
HETATM    4  H   UNL     1      -1.672   3.348 -32.799  1.00  0.00     0.169 HD
HETATM    5  O   UNL     1      -4.094   4.539 -31.130  1.00  0.00    -0.271 OA
BRANCH   3   6
HETATM    6  C   UNL     1      -2.000   5.362 -33.084  1.00  0.00     0.085 A 
HETATM    7  C   UNL     1      -2.659   5.826 -34.207  1.00  0.00     0.052 A 
HETATM    8  C   UNL     1      -3.711   5.233 -35.065  1.00  0.00     0.072 C 
HETATM    9  N   UNL     1      -2.143   7.064 -34.460  1.00  0.00    -0.280 N 
HETATM   10  H   UNL     1      -2.386   7.703 -35.208  1.00  0.00     0.189 HD
HETATM   11  N   UNL     1      -1.207   7.448 -33.588  1.00  0.00    -0.177 NA
HETATM   12  C   UNL     1      -1.108   6.419 -32.732  1.00  0.00     0.079 A 
HETATM   13  C   UNL     1      -0.151   6.541 -31.604  1.00  0.00     0.075 C 
ENDBRANCH   3   6
ENDBRANCH   1   2
BRANCH   1  14
HETATM   14  N   UNL     1      -4.306   1.613 -32.241  1.00  0.00     0.101 N 
HETATM   15  H   UNL     1      -3.837   1.427 -33.132  1.00  0.00     0.317 HD
BRANCH  14  16
HETATM   16  C   UNL     1      -4.756   0.319 -31.691  1.00  0.00     0.254 C 
HETATM   17  C   UNL     1      -5.960   0.449 -30.747  1.00  0.00     0.048 C 
BRANCH  16  18
HETATM   18  C   UNL     1      -5.066  -0.682 -32.795  1.00  0.00     0.035 A 
HETATM   19  C   UNL     1      -4.384  -1.894 -33.007  1.00  0.00     0.045 A 
HETATM   20 CL   UNL     1      -3.089  -2.437 -31.999  1.00  0.00    -0.084 Cl
HETATM   21  C   UNL     1      -4.728  -2.734 -34.079  1.00  0.00     0.024 A 
HETATM   22  C   UNL     1      -5.748  -2.382 -34.960  1.00  0.00     0.005 A 
HETATM   23  C   UNL     1      -6.427  -1.186 -34.775  1.00  0.00     0.043 A 
HETATM   24  C   UNL     1      -6.083  -0.356 -33.709  1.00  0.00     0.126 A 
HETATM   25  F   UNL     1      -6.756   0.797 -33.576  1.00  0.00    -0.205 F 
ENDBRANCH  16  18
ENDBRANCH  14  16
ENDBRANCH   1  14
TORSDOF 5
ENDMDL
MODEL 3
REMARK VINA RESULT:      -7.7      0.533      1.802
REMARK  5 active torsions:
REMARK  status: ('A' for Active; 'I' for Inactive)
REMARK    1  A    between atoms: C_8  and  N_9 
REMARK       I    between atoms: N_9  and  C_10 
REMARK    2  A    between atoms: C_10  and  C_11 
REMARK    3  A    between atoms: C_11  and  N_12 
REMARK    4  A    between atoms: N_12  and  C_13 
REMARK    5  A    between atoms: C_13  and  C_14 
ROOT
HETATM    1  C   UNL     1      -3.483   2.242 -31.244  1.00  0.00     0.372 C 
ENDROOT
BRANCH   1   2
HETATM    2  C   UNL     1      -3.522   3.650 -31.859  1.00  0.00     0.250 C 
HETATM    3  N   UNL     1      -2.271   4.077 -32.252  1.00  0.00    -0.322 N 
HETATM    4  H   UNL     1      -1.513   3.452 -31.987  1.00  0.00     0.169 HD
HETATM    5  O   UNL     1      -4.587   4.239 -31.996  1.00  0.00    -0.271 OA
BRANCH   3   6
HETATM    6  C   UNL     1      -1.935   5.247 -32.907  1.00  0.00     0.085 A 
HETATM    7  C   UNL     1      -0.961   6.096 -32.414  1.00  0.00     0.052 A 
HETATM    8  C   UNL     1      -0.101   6.038 -31.209  1.00  0.00     0.072 C 
HETATM    9  N   UNL     1      -0.887   7.134 -33.297  1.00  0.00    -0.280 N 
HETATM   10  H   UNL     1      -0.283   7.946 -33.260  1.00  0.00     0.189 HD
HETATM   11  N   UNL     1      -1.728   7.026 -34.329  1.00  0.00    -0.177 NA
HETATM   12  C   UNL     1      -2.377   5.872 -34.110  1.00  0.00     0.079 A 
HETATM   13  C   UNL     1      -3.386   5.440 -35.110  1.00  0.00     0.075 C 
ENDBRANCH   3   6
ENDBRANCH   1   2
BRANCH   1  14
HETATM   14  N   UNL     1      -3.460   1.209 -32.307  1.00  0.00     0.101 N 
HETATM   15  H   UNL     1      -2.479   1.075 -32.569  1.00  0.00     0.317 HD
BRANCH  14  16
HETATM   16  C   UNL     1      -3.982  -0.088 -31.836  1.00  0.00     0.254 C 
HETATM   17  C   UNL     1      -4.933   0.042 -30.638  1.00  0.00     0.048 C 
BRANCH  16  18
HETATM   18  C   UNL     1      -4.662  -0.860 -32.958  1.00  0.00     0.035 A 
HETATM   19  C   UNL     1      -5.744  -0.393 -33.726  1.00  0.00     0.045 A 
HETATM   20 CL   UNL     1      -6.445   1.173 -33.515  1.00  0.00    -0.084 Cl
HETATM   21  C   UNL     1      -6.322  -1.201 -34.719  1.00  0.00     0.024 A 
HETATM   22  C   UNL     1      -5.842  -2.486 -34.960  1.00  0.00     0.005 A 
HETATM   23  C   UNL     1      -4.781  -2.970 -34.207  1.00  0.00     0.043 A 
HETATM   24  C   UNL     1      -4.209  -2.164 -33.224  1.00  0.00     0.126 A 
HETATM   25  F   UNL     1      -3.196  -2.677 -32.510  1.00  0.00    -0.205 F 
ENDBRANCH  16  18
ENDBRANCH  14  16
ENDBRANCH   1  14
TORSDOF 5
ENDMDL
MODEL 4
REMARK VINA RESULT:      -7.6      1.608      2.564
REMARK  5 active torsions:
REMARK  status: ('A' for Active; 'I' for Inactive)
REMARK    1  A    between atoms: C_8  and  N_9 
REMARK       I    between atoms: N_9  and  C_10 
REMARK    2  A    between atoms: C_10  and  C_11 
REMARK    3  A    between atoms: C_11  and  N_12 
REMARK    4  A    between atoms: N_12  and  C_13 
REMARK    5  A    between atoms: C_13  and  C_14 
ROOT
HETATM    1  C   UNL     1      -3.441   2.174 -31.239  1.00  0.00     0.372 C 
ENDROOT
BRANCH   1   2
HETATM    2  C   UNL     1      -3.477   3.614 -31.772  1.00  0.00     0.250 C 
HETATM    3  N   UNL     1      -2.261   4.002 -32.294  1.00  0.00    -0.322 N 
HETATM    4  H   UNL     1      -1.512   3.327 -32.157  1.00  0.00     0.169 HD
HETATM    5  O   UNL     1      -4.517   4.262 -31.747  1.00  0.00    -0.271 OA
BRANCH   3   6
HETATM    6  C   UNL     1      -1.942   5.190 -32.926  1.00  0.00     0.085 A 
HETATM    7  C   UNL     1      -0.969   6.035 -32.426  1.00  0.00     0.052 A 
HETATM    8  C   UNL     1      -0.093   5.957 -31.233  1.00  0.00     0.072 C 
HETATM    9  N   UNL     1      -0.914   7.094 -33.285  1.00  0.00    -0.280 N 
HETATM   10  H   UNL     1      -0.316   7.911 -33.235  1.00  0.00     0.189 HD
HETATM   11  N   UNL     1      -1.768   7.004 -34.308  1.00  0.00    -0.177 NA
HETATM   12  C   UNL     1      -2.405   5.840 -34.108  1.00  0.00     0.079 A 
HETATM   13  C   UNL     1      -3.423   5.423 -35.105  1.00  0.00     0.075 C 
ENDBRANCH   3   6
ENDBRANCH   1   2
BRANCH   1  14
HETATM   14  N   UNL     1      -3.874   1.220 -32.288  1.00  0.00     0.101 N 
HETATM   15  H   UNL     1      -3.036   0.959 -32.816  1.00  0.00     0.317 HD
BRANCH  14  16
HETATM   16  C   UNL     1      -4.447  -0.014 -31.716  1.00  0.00     0.254 C 
HETATM   17  C   UNL     1      -5.670   0.243 -30.825  1.00  0.00     0.048 C 
BRANCH  16  18
HETATM   18  C   UNL     1      -4.797  -1.025 -32.799  1.00  0.00     0.035 A 
HETATM   19  C   UNL     1      -4.185  -2.282 -32.965  1.00  0.00     0.045 A 
HETATM   20 CL   UNL     1      -2.946  -2.874 -31.916  1.00  0.00    -0.084 Cl
HETATM   21  C   UNL     1      -4.559  -3.129 -34.021  1.00  0.00     0.024 A 
HETATM   22  C   UNL     1      -5.538  -2.740 -34.933  1.00  0.00     0.005 A 
HETATM   23  C   UNL     1      -6.147  -1.500 -34.793  1.00  0.00     0.043 A 
HETATM   24  C   UNL     1      -5.774  -0.664 -33.743  1.00  0.00     0.126 A 
HETATM   25  F   UNL     1      -6.378   0.531 -33.654  1.00  0.00    -0.205 F 
ENDBRANCH  16  18
ENDBRANCH  14  16
ENDBRANCH   1  14
TORSDOF 5
ENDMDL
MODEL 5
REMARK VINA RESULT:      -7.2      5.219      7.634
REMARK  5 active torsions:
REMARK  status: ('A' for Active; 'I' for Inactive)
REMARK    1  A    between atoms: C_8  and  N_9 
REMARK       I    between atoms: N_9  and  C_10 
REMARK    2  A    between atoms: C_10  and  C_11 
REMARK    3  A    between atoms: C_11  and  N_12 
REMARK    4  A    between atoms: N_12  and  C_13 
REMARK    5  A    between atoms: C_13  and  C_14 
ROOT
HETATM    1  C   UNL     1      -8.545   1.585 -31.888  1.00  0.00     0.372 C 
ENDROOT
BRANCH   1   2
HETATM    2  C   UNL     1      -9.880   2.183 -32.355  1.00  0.00     0.250 C 
HETATM    3  N   UNL     1     -10.378   1.535 -33.464  1.00  0.00    -0.322 N 
HETATM    4  H   UNL     1      -9.748   0.840 -33.861  1.00  0.00     0.169 HD
HETATM    5  O   UNL     1     -10.404   3.098 -31.729  1.00  0.00    -0.271 OA
BRANCH   3   6
HETATM    6  C   UNL     1     -11.582   1.746 -34.110  1.00  0.00     0.085 A 
HETATM    7  C   UNL     1     -11.790   2.860 -34.903  1.00  0.00     0.052 A 
HETATM    8  C   UNL     1     -10.927   4.011 -35.256  1.00  0.00     0.072 C 
HETATM    9  N   UNL     1     -13.065   2.749 -35.377  1.00  0.00    -0.280 N 
HETATM   10  H   UNL     1     -13.563   3.385 -35.989  1.00  0.00     0.189 HD
HETATM   11  N   UNL     1     -13.702   1.650 -34.963  1.00  0.00    -0.177 NA
HETATM   12  C   UNL     1     -12.806   1.019 -34.188  1.00  0.00     0.079 A 
HETATM   13  C   UNL     1     -13.201  -0.277 -33.582  1.00  0.00     0.075 C 
ENDBRANCH   3   6
ENDBRANCH   1   2
BRANCH   1  14
HETATM   14  N   UNL     1      -7.415   2.459 -32.284  1.00  0.00     0.101 N 
HETATM   15  H   UNL     1      -6.641   2.251 -31.645  1.00  0.00     0.317 HD
BRANCH  14  16
HETATM   16  C   UNL     1      -6.950   2.182 -33.657  1.00  0.00     0.254 C 
HETATM   17  C   UNL     1      -5.936   3.213 -34.171  1.00  0.00     0.048 C 
BRANCH  16  18
HETATM   18  C   UNL     1      -6.376   0.778 -33.783  1.00  0.00     0.035 A 
HETATM   19  C   UNL     1      -5.253   0.295 -33.086  1.00  0.00     0.045 A 
HETATM   20 CL   UNL     1      -4.372   1.244 -31.942  1.00  0.00    -0.084 Cl
HETATM   21  C   UNL     1      -4.783  -1.011 -33.301  1.00  0.00     0.024 A 
HETATM   22  C   UNL     1      -5.412  -1.854 -34.214  1.00  0.00     0.005 A 
HETATM   23  C   UNL     1      -6.516  -1.393 -34.919  1.00  0.00     0.043 A 
HETATM   24  C   UNL     1      -6.980  -0.097 -34.701  1.00  0.00     0.126 A 
HETATM   25  F   UNL     1      -8.041   0.312 -35.415  1.00  0.00    -0.205 F 
ENDBRANCH  16  18
ENDBRANCH  14  16
ENDBRANCH   1  14
TORSDOF 5
ENDMDL
MODEL 6
REMARK VINA RESULT:      -7.0      2.965      4.320
REMARK  5 active torsions:
REMARK  status: ('A' for Active; 'I' for Inactive)
REMARK    1  A    between atoms: C_8  and  N_9 
REMARK       I    between atoms: N_9  and  C_10 
REMARK    2  A    between atoms: C_10  and  C_11 
REMARK    3  A    between atoms: C_11  and  N_12 
REMARK    4  A    between atoms: N_12  and  C_13 
REMARK    5  A    between atoms: C_13  and  C_14 
ROOT
HETATM    1  C   UNL     1      -6.593  -0.227 -31.707  1.00  0.00     0.372 C 
ENDROOT
BRANCH   1   2
HETATM    2  C   UNL     1      -6.704   1.306 -31.709  1.00  0.00     0.250 C 
HETATM    3  N   UNL     1      -6.782   1.817 -32.987  1.00  0.00    -0.322 N 
HETATM    4  H   UNL     1      -6.653   1.126 -33.723  1.00  0.00     0.169 HD
HETATM    5  O   UNL     1      -6.762   1.926 -30.654  1.00  0.00    -0.271 OA
BRANCH   3   6
HETATM    6  C   UNL     1      -6.966   3.132 -33.371  1.00  0.00     0.085 A 
HETATM    7  C   UNL     1      -5.914   4.030 -33.398  1.00  0.00     0.052 A 
HETATM    8  C   UNL     1      -4.476   3.896 -33.069  1.00  0.00     0.072 C 
HETATM    9  N   UNL     1      -6.445   5.215 -33.819  1.00  0.00    -0.280 N 
HETATM   10  H   UNL     1      -5.970   6.100 -33.957  1.00  0.00     0.189 HD
HETATM   11  N   UNL     1      -7.754   5.160 -34.076  1.00  0.00    -0.177 NA
HETATM   12  C   UNL     1      -8.092   3.888 -33.812  1.00  0.00     0.079 A 
HETATM   13  C   UNL     1      -9.504   3.485 -34.025  1.00  0.00     0.075 C 
ENDBRANCH   3   6
ENDBRANCH   1   2
BRANCH   1  14
HETATM   14  N   UNL     1      -5.178  -0.647 -31.571  1.00  0.00     0.101 N 
HETATM   15  H   UNL     1      -5.185  -1.579 -31.146  1.00  0.00     0.317 HD
BRANCH  14  16
HETATM   16  C   UNL     1      -4.500  -0.754 -32.878  1.00  0.00     0.254 C 
HETATM   17  C   UNL     1      -3.061  -0.220 -32.857  1.00  0.00     0.048 C 
BRANCH  16  18
HETATM   18  C   UNL     1      -4.518  -2.182 -33.404  1.00  0.00     0.035 A 
HETATM   19  C   UNL     1      -5.407  -2.678 -34.376  1.00  0.00     0.045 A 
HETATM   20 CL   UNL     1      -6.608  -1.700 -35.144  1.00  0.00    -0.084 Cl
HETATM   21  C   UNL     1      -5.362  -4.025 -34.770  1.00  0.00     0.024 A 
HETATM   22  C   UNL     1      -4.441  -4.903 -34.201  1.00  0.00     0.005 A 
HETATM   23  C   UNL     1      -3.561  -4.436 -33.234  1.00  0.00     0.043 A 
HETATM   24  C   UNL     1      -3.609  -3.097 -32.848  1.00  0.00     0.126 A 
HETATM   25  F   UNL     1      -2.750  -2.693 -31.899  1.00  0.00    -0.205 F 
ENDBRANCH  16  18
ENDBRANCH  14  16
ENDBRANCH   1  14
TORSDOF 5
ENDMDL
MODEL 7
REMARK VINA RESULT:      -6.7      4.667      6.401
REMARK  5 active torsions:
REMARK  status: ('A' for Active; 'I' for Inactive)
REMARK    1  A    between atoms: C_8  and  N_9 
REMARK       I    between atoms: N_9  and  C_10 
REMARK    2  A    between atoms: C_10  and  C_11 
REMARK    3  A    between atoms: C_11  and  N_12 
REMARK    4  A    between atoms: N_12  and  C_13 
REMARK    5  A    between atoms: C_13  and  C_14 
ROOT
HETATM    1  C   UNL     1      -7.305   2.825 -32.584  1.00  0.00     0.372 C 
ENDROOT
BRANCH   1   2
HETATM    2  C   UNL     1      -8.827   2.960 -32.749  1.00  0.00     0.250 C 
HETATM    3  N   UNL     1      -9.179   3.291 -34.041  1.00  0.00    -0.322 N 
HETATM    4  H   UNL     1      -8.390   3.493 -34.652  1.00  0.00     0.169 HD
HETATM    5  O   UNL     1      -9.577   2.734 -31.807  1.00  0.00    -0.271 OA
BRANCH   3   6
HETATM    6  C   UNL     1     -10.448   3.420 -34.573  1.00  0.00     0.085 A 
HETATM    7  C   UNL     1     -10.860   4.591 -35.182  1.00  0.00     0.052 A 
HETATM    8  C   UNL     1     -10.182   5.887 -35.418  1.00  0.00     0.072 C 
HETATM    9  N   UNL     1     -12.144   4.371 -35.588  1.00  0.00    -0.280 N 
HETATM   10  H   UNL     1     -12.767   5.008 -36.071  1.00  0.00     0.189 HD
HETATM   11  N   UNL     1     -12.599   3.148 -35.301  1.00  0.00    -0.177 NA
HETATM   12  C   UNL     1     -11.571   2.548 -34.682  1.00  0.00     0.079 A 
HETATM   13  C   UNL     1     -11.748   1.140 -34.247  1.00  0.00     0.075 C 
ENDBRANCH   3   6
ENDBRANCH   1   2
BRANCH   1  14
HETATM   14  N   UNL     1      -6.771   1.792 -33.503  1.00  0.00     0.101 N 
HETATM   15  H   UNL     1      -6.234   2.284 -34.224  1.00  0.00     0.317 HD
BRANCH  14  16
HETATM   16  C   UNL     1      -5.855   0.858 -32.821  1.00  0.00     0.254 C 
HETATM   17  C   UNL     1      -6.144   0.716 -31.320  1.00  0.00     0.048 C 
BRANCH  16  18
HETATM   18  C   UNL     1      -5.854  -0.513 -33.483  1.00  0.00     0.035 A 
HETATM   19  C   UNL     1      -7.003  -1.255 -33.814  1.00  0.00     0.045 A 
HETATM   20 CL   UNL     1      -8.610  -0.682 -33.534  1.00  0.00    -0.084 Cl
HETATM   21  C   UNL     1      -6.892  -2.529 -34.394  1.00  0.00     0.024 A 
HETATM   22  C   UNL     1      -5.642  -3.090 -34.648  1.00  0.00     0.005 A 
HETATM   23  C   UNL     1      -4.497  -2.378 -34.320  1.00  0.00     0.043 A 
HETATM   24  C   UNL     1      -4.611  -1.113 -33.746  1.00  0.00     0.126 A 
HETATM   25  F   UNL     1      -3.478  -0.468 -33.432  1.00  0.00    -0.205 F 
ENDBRANCH  16  18
ENDBRANCH  14  16
ENDBRANCH   1  14
TORSDOF 5
ENDMDL
MODEL 8
REMARK VINA RESULT:      -6.7      2.305      2.846
REMARK  5 active torsions:
REMARK  status: ('A' for Active; 'I' for Inactive)
REMARK    1  A    between atoms: C_8  and  N_9 
REMARK       I    between atoms: N_9  and  C_10 
REMARK    2  A    between atoms: C_10  and  C_11 
REMARK    3  A    between atoms: C_11  and  N_12 
REMARK    4  A    between atoms: N_12  and  C_13 
REMARK    5  A    between atoms: C_13  and  C_14 
ROOT
HETATM    1  C   UNL     1      -5.041   3.073 -32.115  1.00  0.00     0.372 C 
ENDROOT
BRANCH   1   2
HETATM    2  C   UNL     1      -4.527   4.261 -32.942  1.00  0.00     0.250 C 
HETATM    3  N   UNL     1      -3.525   4.949 -32.292  1.00  0.00    -0.322 N 
HETATM    4  H   UNL     1      -3.352   4.635 -31.339  1.00  0.00     0.169 HD
HETATM    5  O   UNL     1      -4.971   4.476 -34.064  1.00  0.00    -0.271 OA
BRANCH   3   6
HETATM    6  C   UNL     1      -2.780   6.016 -32.758  1.00  0.00     0.085 A 
HETATM    7  C   UNL     1      -2.781   7.236 -32.108  1.00  0.00     0.052 A 
HETATM    8  C   UNL     1      -3.480   7.722 -30.895  1.00  0.00     0.072 C 
HETATM    9  N   UNL     1      -1.949   8.045 -32.827  1.00  0.00    -0.280 N 
HETATM   10  H   UNL     1      -1.709   9.013 -32.648  1.00  0.00     0.189 HD
HETATM   11  N   UNL     1      -1.400   7.448 -33.887  1.00  0.00    -0.177 NA
HETATM   12  C   UNL     1      -1.893   6.200 -33.860  1.00  0.00     0.079 A 
HETATM   13  C   UNL     1      -1.449   5.252 -34.912  1.00  0.00     0.075 C 
ENDBRANCH   3   6
ENDBRANCH   1   2
BRANCH   1  14
HETATM   14  N   UNL     1      -6.396   2.672 -32.564  1.00  0.00     0.101 N 
HETATM   15  H   UNL     1      -6.345   2.540 -33.578  1.00  0.00     0.317 HD
BRANCH  14  16
HETATM   16  C   UNL     1      -6.826   1.394 -31.965  1.00  0.00     0.254 C 
HETATM   17  C   UNL     1      -8.295   1.399 -31.520  1.00  0.00     0.048 C 
BRANCH  16  18
HETATM   18  C   UNL     1      -6.571   0.221 -32.901  1.00  0.00     0.035 A 
HETATM   19  C   UNL     1      -5.552  -0.738 -32.743  1.00  0.00     0.045 A 
HETATM   20 CL   UNL     1      -4.447  -0.729 -31.414  1.00  0.00    -0.084 Cl
HETATM   21  C   UNL     1      -5.381  -1.765 -33.685  1.00  0.00     0.024 A 
HETATM   22  C   UNL     1      -6.209  -1.853 -34.802  1.00  0.00     0.005 A 
HETATM   23  C   UNL     1      -7.213  -0.912 -34.981  1.00  0.00     0.043 A 
HETATM   24  C   UNL     1      -7.382   0.105 -34.043  1.00  0.00     0.126 A 
HETATM   25  F   UNL     1      -8.355   1.001 -34.264  1.00  0.00    -0.205 F 
ENDBRANCH  16  18
ENDBRANCH  14  16
ENDBRANCH   1  14
TORSDOF 5
ENDMDL
MODEL 9
REMARK VINA RESULT:      -6.7     16.835     18.529
REMARK  5 active torsions:
REMARK  status: ('A' for Active; 'I' for Inactive)
REMARK    1  A    between atoms: C_8  and  N_9 
REMARK       I    between atoms: N_9  and  C_10 
REMARK    2  A    between atoms: C_10  and  C_11 
REMARK    3  A    between atoms: C_11  and  N_12 
REMARK    4  A    between atoms: N_12  and  C_13 
REMARK    5  A    between atoms: C_13  and  C_14 
ROOT
HETATM    1  C   UNL     1      -5.359 -11.937 -40.200  1.00  0.00     0.372 C 
ENDROOT
BRANCH   1   2
HETATM    2  C   UNL     1      -6.706 -12.405 -39.629  1.00  0.00     0.250 C 
HETATM    3  N   UNL     1      -7.558 -12.853 -40.616  1.00  0.00    -0.322 N 
HETATM    4  H   UNL     1      -7.213 -12.712 -41.564  1.00  0.00     0.169 HD
HETATM    5  O   UNL     1      -6.906 -12.398 -38.420  1.00  0.00    -0.271 OA
BRANCH   3   6
HETATM    6  C   UNL     1      -8.813 -13.414 -40.472  1.00  0.00     0.085 A 
HETATM    7  C   UNL     1      -8.987 -14.784 -40.391  1.00  0.00     0.052 A 
HETATM    8  C   UNL     1      -8.033 -15.916 -40.434  1.00  0.00     0.072 C 
HETATM    9  N   UNL     1     -10.330 -14.984 -40.253  1.00  0.00    -0.280 N 
HETATM   10  H   UNL     1     -10.826 -15.863 -40.166  1.00  0.00     0.189 HD
HETATM   11  N   UNL     1     -11.044 -13.856 -40.228  1.00  0.00    -0.177 NA
HETATM   12  C   UNL     1     -10.131 -12.881 -40.357  1.00  0.00     0.079 A 
HETATM   13  C   UNL     1     -10.607 -11.475 -40.341  1.00  0.00     0.075 C 
ENDBRANCH   3   6
ENDBRANCH   1   2
BRANCH   1  14
HETATM   14  N   UNL     1      -4.730 -13.014 -41.002  1.00  0.00     0.101 N 
HETATM   15  H   UNL     1      -3.874 -12.622 -41.405  1.00  0.00     0.317 HD
BRANCH  14  16
HETATM   16  C   UNL     1      -4.347 -14.174 -40.175  1.00  0.00     0.254 C 
HETATM   17  C   UNL     1      -4.517 -15.516 -40.901  1.00  0.00     0.048 C 
BRANCH  16  18
HETATM   18  C   UNL     1      -2.925 -14.043 -39.649  1.00  0.00     0.035 A 
HETATM   19  C   UNL     1      -2.575 -13.756 -38.316  1.00  0.00     0.045 A 
HETATM   20 CL   UNL     1      -3.743 -13.539 -37.060  1.00  0.00    -0.084 Cl
HETATM   21  C   UNL     1      -1.229 -13.623 -37.939  1.00  0.00     0.024 A 
HETATM   22  C   UNL     1      -0.210 -13.764 -38.879  1.00  0.00     0.005 A 
HETATM   23  C   UNL     1      -0.533 -14.038 -40.200  1.00  0.00     0.043 A 
HETATM   24  C   UNL     1      -1.871 -14.171 -40.569  1.00  0.00     0.126 A 
HETATM   25  F   UNL     1      -2.138 -14.421 -41.860  1.00  0.00    -0.205 F 
ENDBRANCH  16  18
ENDBRANCH  14  16
ENDBRANCH   1  14
TORSDOF 5
ENDMDL
MODEL 10
REMARK VINA RESULT:      -6.6      2.871      3.205
REMARK  5 active torsions:
REMARK  status: ('A' for Active; 'I' for Inactive)
REMARK    1  A    between atoms: C_8  and  N_9 
REMARK       I    between atoms: N_9  and  C_10 
REMARK    2  A    between atoms: C_10  and  C_11 
REMARK    3  A    between atoms: C_11  and  N_12 
REMARK    4  A    between atoms: N_12  and  C_13 
REMARK    5  A    between atoms: C_13  and  C_14 
ROOT
HETATM    1  C   UNL     1      -5.397   4.373 -30.650  1.00  0.00     0.372 C 
ENDROOT
BRANCH   1   2
HETATM    2  C   UNL     1      -4.976   5.397 -31.715  1.00  0.00     0.250 C 
HETATM    3  N   UNL     1      -3.629   5.684 -31.651  1.00  0.00    -0.322 N 
HETATM    4  H   UNL     1      -3.148   5.263 -30.859  1.00  0.00     0.169 HD
HETATM    5  O   UNL     1      -5.790   5.824 -32.524  1.00  0.00    -0.271 OA
BRANCH   3   6
HETATM    6  C   UNL     1      -2.887   6.494 -32.491  1.00  0.00     0.085 A 
HETATM    7  C   UNL     1      -2.601   6.116 -33.790  1.00  0.00     0.052 A 
HETATM    8  C   UNL     1      -2.937   4.907 -34.577  1.00  0.00     0.072 C 
HETATM    9  N   UNL     1      -1.866   7.136 -34.323  1.00  0.00    -0.280 N 
HETATM   10  H   UNL     1      -1.478   7.206 -35.256  1.00  0.00     0.189 HD
HETATM   11  N   UNL     1      -1.657   8.150 -33.479  1.00  0.00    -0.177 NA
HETATM   12  C   UNL     1      -2.281   7.777 -32.351  1.00  0.00     0.079 A 
HETATM   13  C   UNL     1      -2.259   8.716 -31.201  1.00  0.00     0.075 C 
ENDBRANCH   3   6
ENDBRANCH   1   2
BRANCH   1  14
HETATM   14  N   UNL     1      -4.520   3.179 -30.698  1.00  0.00     0.101 N 
HETATM   15  H   UNL     1      -4.866   2.528 -29.986  1.00  0.00     0.317 HD
BRANCH  14  16
HETATM   16  C   UNL     1      -4.581   2.494 -32.003  1.00  0.00     0.254 C 
HETATM   17  C   UNL     1      -3.495   1.423 -32.175  1.00  0.00     0.048 C 
BRANCH  16  18
HETATM   18  C   UNL     1      -5.955   1.887 -32.254  1.00  0.00     0.035 A 
HETATM   19  C   UNL     1      -6.617   0.992 -31.393  1.00  0.00     0.045 A 
HETATM   20 CL   UNL     1      -5.957   0.473 -29.882  1.00  0.00    -0.084 Cl
HETATM   21  C   UNL     1      -7.872   0.462 -31.735  1.00  0.00     0.024 A 
HETATM   22  C   UNL     1      -8.485   0.804 -32.938  1.00  0.00     0.005 A 
HETATM   23  C   UNL     1      -7.845   1.678 -33.806  1.00  0.00     0.043 A 
HETATM   24  C   UNL     1      -6.600   2.203 -33.461  1.00  0.00     0.126 A 
HETATM   25  F   UNL     1      -6.011   3.032 -34.336  1.00  0.00    -0.205 F 
ENDBRANCH  16  18
ENDBRANCH  14  16
ENDBRANCH   1  14
TORSDOF 5
ENDMDL
