MODEL 1
REMARK VINA RESULT:      -8.4      0.000      0.000
REMARK  3 active torsions:
REMARK  status: ('A' for Active; 'I' for Inactive)
REMARK    1  A    between atoms: C_6  and  C_7 
REMARK       I    between atoms: C_7  and  N_8 
REMARK    2  A    between atoms: N_8  and  C_9 
REMARK    3  A    between atoms: C_13  and  C_14 
ROOT
HETATM    1  C   UNL     1      -3.878   2.538 -31.956  1.00  0.00     0.036 A 
HETATM    2  C   UNL     1      -5.031   2.683 -32.725  1.00  0.00     0.054 A 
HETATM    3  C   UNL     1      -5.689   1.560 -33.264  1.00  0.00     0.050 A 
HETATM    4 CL   UNL     1      -7.059   1.899 -34.270  1.00  0.00    -0.083 Cl
HETATM    5  C   UNL     1      -5.202   0.265 -33.027  1.00  0.00     0.035 A 
HETATM    6  C   UNL     1      -4.049   0.133 -32.232  1.00  0.00     0.019 A 
HETATM    7  C   UNL     1      -3.397   1.251 -31.704  1.00  0.00     0.030 A 
ENDROOT
BRANCH   1   8
HETATM    8  N   UNL     1      -3.124   3.613 -31.441  1.00  0.00    -0.323 N 
HETATM    9  C   UNL     1      -2.249   4.437 -32.116  1.00  0.00     0.261 C 
HETATM   10  O   UNL     1      -2.063   4.439 -33.331  1.00  0.00    -0.267 OA
HETATM   11  H   UNL     1      -3.202   3.765 -30.434  1.00  0.00     0.169 HD
BRANCH   9  12
HETATM   12  C   UNL     1      -1.474   5.375 -31.240  1.00  0.00     0.100 A 
HETATM   13  C   UNL     1      -2.103   6.312 -30.261  1.00  0.00     0.261 A 
HETATM   14  N   UNL     1      -1.249   7.066 -29.489  1.00  0.00    -0.327 N 
HETATM   15  O   UNL     1      -3.323   6.407 -30.144  1.00  0.00    -0.267 OA
HETATM   16  C   UNL     1       0.123   7.014 -29.570  1.00  0.00     0.008 A 
HETATM   17  H   UNL     1      -1.693   7.691 -28.826  1.00  0.00     0.169 HD
HETATM   18  C   UNL     1       0.898   7.895 -28.639  1.00  0.00     0.068 C 
HETATM   19  C   UNL     1       0.692   6.187 -30.459  1.00  0.00     0.026 A 
HETATM   20  C   UNL     1      -0.130   5.351 -31.307  1.00  0.00     0.025 A 
ENDBRANCH   9  12
ENDBRANCH   1   8
BRANCH   5  21
HETATM   21  C   UNL     1      -5.805  -0.945 -33.580  1.00  0.00     0.183 A 
HETATM   22  N   UNL     1      -7.131  -1.180 -33.563  1.00  0.00    -0.152 NA
HETATM   23  N   UNL     1      -7.214  -2.384 -34.143  1.00  0.00    -0.263 N 
HETATM   24  H   UNL     1      -8.121  -2.826 -34.245  1.00  0.00     0.190 HD
HETATM   25  C   UNL     1      -5.989  -2.844 -34.519  1.00  0.00     0.118 A 
HETATM   26  C   UNL     1      -5.769  -4.153 -35.167  1.00  0.00     0.093 C 
HETATM   27  N   UNL     1      -5.088  -1.944 -34.198  1.00  0.00    -0.212 NA
ENDBRANCH   5  21
TORSDOF 3
ENDMDL
MODEL 2
REMARK VINA RESULT:      -8.3      6.656      9.930
REMARK  3 active torsions:
REMARK  status: ('A' for Active; 'I' for Inactive)
REMARK    1  A    between atoms: C_6  and  C_7 
REMARK       I    between atoms: C_7  and  N_8 
REMARK    2  A    between atoms: N_8  and  C_9 
REMARK    3  A    between atoms: C_13  and  C_14 
ROOT
HETATM    1  C   UNL     1     -10.002   0.823 -32.985  1.00  0.00     0.036 A 
HETATM    2  C   UNL     1      -9.232   0.655 -34.135  1.00  0.00     0.054 A 
HETATM    3  C   UNL     1      -7.852   0.390 -34.051  1.00  0.00     0.050 A 
HETATM    4 CL   UNL     1      -7.008   0.291 -35.562  1.00  0.00    -0.083 Cl
HETATM    5  C   UNL     1      -7.221   0.276 -32.802  1.00  0.00     0.035 A 
HETATM    6  C   UNL     1      -8.014   0.429 -31.650  1.00  0.00     0.019 A 
HETATM    7  C   UNL     1      -9.383   0.697 -31.740  1.00  0.00     0.030 A 
ENDROOT
BRANCH   1   8
HETATM    8  N   UNL     1     -11.372   1.159 -32.986  1.00  0.00    -0.323 N 
HETATM    9  C   UNL     1     -11.951   2.364 -33.327  1.00  0.00     0.261 C 
HETATM   10  O   UNL     1     -11.360   3.330 -33.803  1.00  0.00    -0.267 OA
HETATM   11  H   UNL     1     -12.005   0.433 -32.646  1.00  0.00     0.169 HD
BRANCH   9  12
HETATM   12  C   UNL     1     -13.422   2.447 -33.052  1.00  0.00     0.100 A 
HETATM   13  C   UNL     1     -14.446   1.596 -33.730  1.00  0.00     0.261 A 
HETATM   14  N   UNL     1     -15.751   1.754 -33.323  1.00  0.00    -0.327 N 
HETATM   15  O   UNL     1     -14.143   0.789 -34.607  1.00  0.00    -0.267 OA
HETATM   16  C   UNL     1     -16.161   2.639 -32.353  1.00  0.00     0.008 A 
HETATM   17  H   UNL     1     -16.431   1.163 -33.788  1.00  0.00     0.169 HD
HETATM   18  C   UNL     1     -17.622   2.667 -32.024  1.00  0.00     0.068 C 
HETATM   19  C   UNL     1     -15.248   3.418 -31.754  1.00  0.00     0.026 A 
HETATM   20  C   UNL     1     -13.851   3.313 -32.115  1.00  0.00     0.025 A 
ENDBRANCH   9  12
ENDBRANCH   1   8
BRANCH   5  21
HETATM   21  C   UNL     1      -5.789   0.040 -32.631  1.00  0.00     0.183 A 
HETATM   22  N   UNL     1      -4.855   0.978 -32.875  1.00  0.00    -0.152 NA
HETATM   23  N   UNL     1      -3.717   0.323 -32.608  1.00  0.00    -0.263 N 
HETATM   24  H   UNL     1      -2.830   0.797 -32.732  1.00  0.00     0.190 HD
HETATM   25  C   UNL     1      -3.960  -0.951 -32.195  1.00  0.00     0.118 A 
HETATM   26  C   UNL     1      -2.896  -1.915 -31.847  1.00  0.00     0.093 C 
HETATM   27  N   UNL     1      -5.258  -1.145 -32.176  1.00  0.00    -0.212 NA
ENDBRANCH   5  21
TORSDOF 3
ENDMDL
MODEL 3
REMARK VINA RESULT:      -8.2      1.538      2.075
REMARK  3 active torsions:
REMARK  status: ('A' for Active; 'I' for Inactive)
REMARK    1  A    between atoms: C_6  and  C_7 
REMARK       I    between atoms: C_7  and  N_8 
REMARK    2  A    between atoms: N_8  and  C_9 
REMARK    3  A    between atoms: C_13  and  C_14 
ROOT
HETATM    1  C   UNL     1      -3.577   2.312 -31.777  1.00  0.00     0.036 A 
HETATM    2  C   UNL     1      -3.136   1.002 -31.593  1.00  0.00     0.054 A 
HETATM    3  C   UNL     1      -3.839  -0.085 -32.147  1.00  0.00     0.050 A 
HETATM    4 CL   UNL     1      -3.222  -1.659 -31.763  1.00  0.00    -0.083 Cl
HETATM    5  C   UNL     1      -4.998   0.128 -32.910  1.00  0.00     0.035 A 
HETATM    6  C   UNL     1      -5.421   1.456 -33.104  1.00  0.00     0.019 A 
HETATM    7  C   UNL     1      -4.721   2.532 -32.547  1.00  0.00     0.030 A 
ENDROOT
BRANCH   1   8
HETATM    8  N   UNL     1      -2.969   3.445 -31.198  1.00  0.00    -0.323 N 
HETATM    9  C   UNL     1      -2.143   4.368 -31.803  1.00  0.00     0.261 C 
HETATM   10  O   UNL     1      -1.885   4.416 -33.004  1.00  0.00    -0.267 OA
HETATM   11  H   UNL     1      -3.124   3.565 -30.195  1.00  0.00     0.169 HD
BRANCH   9  12
HETATM   12  C   UNL     1      -1.522   5.358 -30.864  1.00  0.00     0.100 A 
HETATM   13  C   UNL     1      -0.094   5.311 -30.428  1.00  0.00     0.261 A 
HETATM   14  N   UNL     1       0.337   6.328 -29.607  1.00  0.00    -0.327 N 
HETATM   15  O   UNL     1       0.665   4.412 -30.784  1.00  0.00    -0.267 OA
HETATM   16  C   UNL     1      -0.458   7.361 -29.167  1.00  0.00     0.008 A 
HETATM   17  H   UNL     1       1.310   6.284 -29.327  1.00  0.00     0.169 HD
HETATM   18  C   UNL     1       0.184   8.392 -28.290  1.00  0.00     0.068 C 
HETATM   19  C   UNL     1      -1.744   7.398 -29.541  1.00  0.00     0.026 A 
HETATM   20  C   UNL     1      -2.281   6.373 -30.410  1.00  0.00     0.025 A 
ENDBRANCH   9  12
ENDBRANCH   1   8
BRANCH   5  21
HETATM   21  C   UNL     1      -5.803  -0.946 -33.486  1.00  0.00     0.183 A 
HETATM   22  N   UNL     1      -7.148  -0.969 -33.428  1.00  0.00    -0.152 NA
HETATM   23  N   UNL     1      -7.440  -2.118 -34.051  1.00  0.00    -0.263 N 
HETATM   24  H   UNL     1      -8.409  -2.406 -34.136  1.00  0.00     0.190 HD
HETATM   25  C   UNL     1      -6.316  -2.748 -34.490  1.00  0.00     0.118 A 
HETATM   26  C   UNL     1      -6.329  -4.045 -35.198  1.00  0.00     0.093 C 
HETATM   27  N   UNL     1      -5.274  -2.017 -34.170  1.00  0.00    -0.212 NA
ENDBRANCH   5  21
TORSDOF 3
ENDMDL
MODEL 4
REMARK VINA RESULT:      -8.0      6.222      9.049
REMARK  3 active torsions:
REMARK  status: ('A' for Active; 'I' for Inactive)
REMARK    1  A    between atoms: C_6  and  C_7 
REMARK       I    between atoms: C_7  and  N_8 
REMARK    2  A    between atoms: N_8  and  C_9 
REMARK    3  A    between atoms: C_13  and  C_14 
ROOT
HETATM    1  C   UNL     1      -8.873   0.814 -33.221  1.00  0.00     0.036 A 
HETATM    2  C   UNL     1      -8.739   2.148 -32.839  1.00  0.00     0.054 A 
HETATM    3  C   UNL     1      -9.856   3.003 -32.782  1.00  0.00     0.050 A 
HETATM    4 CL   UNL     1      -9.524   4.655 -32.374  1.00  0.00    -0.083 Cl
HETATM    5  C   UNL     1     -11.137   2.525 -33.100  1.00  0.00     0.035 A 
HETATM    6  C   UNL     1     -11.261   1.172 -33.465  1.00  0.00     0.019 A 
HETATM    7  C   UNL     1     -10.147   0.329 -33.524  1.00  0.00     0.030 A 
ENDROOT
BRANCH   1   8
HETATM    8  N   UNL     1      -7.796  -0.084 -33.369  1.00  0.00    -0.323 N 
HETATM    9  C   UNL     1      -7.129  -0.428 -34.526  1.00  0.00     0.261 C 
HETATM   10  O   UNL     1      -7.298   0.090 -35.628  1.00  0.00    -0.267 OA
HETATM   11  H   UNL     1      -7.510  -0.574 -32.519  1.00  0.00     0.169 HD
BRANCH   9  12
HETATM   12  C   UNL     1      -6.143  -1.546 -34.368  1.00  0.00     0.100 A 
HETATM   13  C   UNL     1      -4.887  -1.442 -33.566  1.00  0.00     0.261 A 
HETATM   14  N   UNL     1      -4.116  -2.578 -33.472  1.00  0.00    -0.327 N 
HETATM   15  O   UNL     1      -4.555  -0.396 -33.012  1.00  0.00    -0.267 OA
HETATM   16  C   UNL     1      -4.425  -3.778 -34.068  1.00  0.00     0.008 A 
HETATM   17  H   UNL     1      -3.272  -2.491 -32.918  1.00  0.00     0.169 HD
HETATM   18  C   UNL     1      -3.479  -4.917 -33.846  1.00  0.00     0.068 C 
HETATM   19  C   UNL     1      -5.543  -3.872 -34.803  1.00  0.00     0.026 A 
HETATM   20  C   UNL     1      -6.417  -2.728 -34.951  1.00  0.00     0.025 A 
ENDBRANCH   9  12
ENDBRANCH   1   8
BRANCH   5  21
HETATM   21  C   UNL     1     -12.339   3.356 -33.101  1.00  0.00     0.183 A 
HETATM   22  N   UNL     1     -12.778   4.012 -34.192  1.00  0.00    -0.152 NA
HETATM   23  N   UNL     1     -13.866   4.640 -33.728  1.00  0.00    -0.263 N 
HETATM   24  H   UNL     1     -14.397   5.240 -34.349  1.00  0.00     0.190 HD
HETATM   25  C   UNL     1     -14.089   4.350 -32.416  1.00  0.00     0.118 A 
HETATM   26  C   UNL     1     -15.208   4.912 -31.633  1.00  0.00     0.093 C 
HETATM   27  N   UNL     1     -13.156   3.523 -32.006  1.00  0.00    -0.212 NA
ENDBRANCH   5  21
TORSDOF 3
ENDMDL
MODEL 5
REMARK VINA RESULT:      -8.0      2.744      9.031
REMARK  3 active torsions:
REMARK  status: ('A' for Active; 'I' for Inactive)
REMARK    1  A    between atoms: C_6  and  C_7 
REMARK       I    between atoms: C_7  and  N_8 
REMARK    2  A    between atoms: N_8  and  C_9 
REMARK    3  A    between atoms: C_13  and  C_14 
ROOT
HETATM    1  C   UNL     1      -4.170   2.739 -32.238  1.00  0.00     0.036 A 
HETATM    2  C   UNL     1      -2.996   3.295 -32.745  1.00  0.00     0.054 A 
HETATM    3  C   UNL     1      -2.578   4.583 -32.358  1.00  0.00     0.050 A 
HETATM    4 CL   UNL     1      -1.146   5.177 -33.134  1.00  0.00    -0.083 Cl
HETATM    5  C   UNL     1      -3.332   5.333 -31.442  1.00  0.00     0.035 A 
HETATM    6  C   UNL     1      -4.504   4.752 -30.924  1.00  0.00     0.019 A 
HETATM    7  C   UNL     1      -4.916   3.474 -31.315  1.00  0.00     0.030 A 
ENDROOT
BRANCH   1   8
HETATM    8  N   UNL     1      -4.690   1.487 -32.628  1.00  0.00    -0.323 N 
HETATM    9  C   UNL     1      -4.231   0.232 -32.286  1.00  0.00     0.261 C 
HETATM   10  O   UNL     1      -3.339  -0.005 -31.475  1.00  0.00    -0.267 OA
HETATM   11  H   UNL     1      -5.473   1.520 -33.284  1.00  0.00     0.169 HD
BRANCH   9  12
HETATM   12  C   UNL     1      -4.903  -0.895 -33.011  1.00  0.00     0.100 A 
HETATM   13  C   UNL     1      -6.377  -0.980 -33.236  1.00  0.00     0.261 A 
HETATM   14  N   UNL     1      -6.831  -2.051 -33.972  1.00  0.00    -0.327 N 
HETATM   15  O   UNL     1      -7.153  -0.136 -32.792  1.00  0.00    -0.267 OA
HETATM   16  C   UNL     1      -6.022  -3.033 -34.494  1.00  0.00     0.008 A 
HETATM   17  H   UNL     1      -7.832  -2.089 -34.121  1.00  0.00     0.169 HD
HETATM   18  C   UNL     1      -6.686  -4.118 -35.285  1.00  0.00     0.068 C 
HETATM   19  C   UNL     1      -4.700  -2.971 -34.280  1.00  0.00     0.026 A 
HETATM   20  C   UNL     1      -4.135  -1.874 -33.523  1.00  0.00     0.025 A 
ENDBRANCH   9  12
ENDBRANCH   1   8
BRANCH   5  21
HETATM   21  C   UNL     1      -2.986   6.689 -31.020  1.00  0.00     0.183 A 
HETATM   22  N   UNL     1      -3.310   7.785 -31.730  1.00  0.00    -0.152 NA
HETATM   23  N   UNL     1      -2.786   8.770 -30.989  1.00  0.00    -0.263 N 
HETATM   24  H   UNL     1      -2.866   9.729 -31.308  1.00  0.00     0.190 HD
HETATM   25  C   UNL     1      -2.194   8.287 -29.863  1.00  0.00     0.118 A 
HETATM   26  C   UNL     1      -1.517   9.139 -28.864  1.00  0.00     0.093 C 
HETATM   27  N   UNL     1      -2.330   6.981 -29.846  1.00  0.00    -0.212 NA
ENDBRANCH   5  21
TORSDOF 3
ENDMDL
MODEL 6
REMARK VINA RESULT:      -7.9      3.434      4.312
REMARK  3 active torsions:
REMARK  status: ('A' for Active; 'I' for Inactive)
REMARK    1  A    between atoms: C_6  and  C_7 
REMARK       I    between atoms: C_7  and  N_8 
REMARK    2  A    between atoms: N_8  and  C_9 
REMARK    3  A    between atoms: C_13  and  C_14 
ROOT
HETATM    1  C   UNL     1      -6.467   3.421 -32.895  1.00  0.00     0.036 A 
HETATM    2  C   UNL     1      -6.575   2.416 -33.856  1.00  0.00     0.054 A 
HETATM    3  C   UNL     1      -7.784   1.721 -34.045  1.00  0.00     0.050 A 
HETATM    4 CL   UNL     1      -7.745   0.441 -35.214  1.00  0.00    -0.083 Cl
HETATM    5  C   UNL     1      -8.916   2.033 -33.275  1.00  0.00     0.035 A 
HETATM    6  C   UNL     1      -8.798   3.062 -32.323  1.00  0.00     0.019 A 
HETATM    7  C   UNL     1      -7.593   3.746 -32.136  1.00  0.00     0.030 A 
ENDROOT
BRANCH   1   8
HETATM    8  N   UNL     1      -5.275   4.114 -32.598  1.00  0.00    -0.323 N 
HETATM    9  C   UNL     1      -4.548   4.946 -33.424  1.00  0.00     0.261 C 
HETATM   10  O   UNL     1      -4.889   5.316 -34.545  1.00  0.00    -0.267 OA
HETATM   11  H   UNL     1      -4.879   3.935 -31.674  1.00  0.00     0.169 HD
BRANCH   9  12
HETATM   12  C   UNL     1      -3.231   5.387 -32.859  1.00  0.00     0.100 A 
HETATM   13  C   UNL     1      -2.321   4.499 -32.075  1.00  0.00     0.261 A 
HETATM   14  N   UNL     1      -1.120   5.040 -31.676  1.00  0.00    -0.327 N 
HETATM   15  O   UNL     1      -2.622   3.339 -31.801  1.00  0.00    -0.267 OA
HETATM   16  C   UNL     1      -0.721   6.329 -31.943  1.00  0.00     0.008 A 
HETATM   17  H   UNL     1      -0.512   4.420 -31.152  1.00  0.00     0.169 HD
HETATM   18  C   UNL     1       0.628   6.745 -31.445  1.00  0.00     0.068 C 
HETATM   19  C   UNL     1      -1.542   7.135 -32.631  1.00  0.00     0.026 A 
HETATM   20  C   UNL     1      -2.822   6.647 -33.097  1.00  0.00     0.025 A 
ENDBRANCH   9  12
ENDBRANCH   1   8
BRANCH   5  21
HETATM   21  C   UNL     1     -10.194   1.333 -33.385  1.00  0.00     0.183 A 
HETATM   22  N   UNL     1     -10.414   0.117 -32.854  1.00  0.00    -0.152 NA
HETATM   23  N   UNL     1     -11.682  -0.126 -33.213  1.00  0.00    -0.263 N 
HETATM   24  H   UNL     1     -12.112  -1.008 -32.956  1.00  0.00     0.190 HD
HETATM   25  C   UNL     1     -12.211   0.917 -33.910  1.00  0.00     0.118 A 
HETATM   26  C   UNL     1     -13.587   0.925 -34.450  1.00  0.00     0.093 C 
HETATM   27  N   UNL     1     -11.303   1.859 -34.009  1.00  0.00    -0.212 NA
ENDBRANCH   5  21
TORSDOF 3
ENDMDL
MODEL 7
REMARK VINA RESULT:      -7.7      2.689      3.236
REMARK  3 active torsions:
REMARK  status: ('A' for Active; 'I' for Inactive)
REMARK    1  A    between atoms: C_6  and  C_7 
REMARK       I    between atoms: C_7  and  N_8 
REMARK    2  A    between atoms: N_8  and  C_9 
REMARK    3  A    between atoms: C_13  and  C_14 
ROOT
HETATM    1  C   UNL     1      -4.214   4.012 -31.589  1.00  0.00     0.036 A 
HETATM    2  C   UNL     1      -4.553   2.739 -31.133  1.00  0.00     0.054 A 
HETATM    3  C   UNL     1      -5.600   2.010 -31.729  1.00  0.00     0.050 A 
HETATM    4 CL   UNL     1      -5.964   0.479 -31.002  1.00  0.00    -0.083 Cl
HETATM    5  C   UNL     1      -6.321   2.548 -32.807  1.00  0.00     0.035 A 
HETATM    6  C   UNL     1      -5.955   3.826 -33.269  1.00  0.00     0.019 A 
HETATM    7  C   UNL     1      -4.918   4.547 -32.670  1.00  0.00     0.030 A 
ENDROOT
BRANCH   1   8
HETATM    8  N   UNL     1      -3.226   4.831 -31.002  1.00  0.00    -0.323 N 
HETATM    9  C   UNL     1      -1.913   4.991 -31.392  1.00  0.00     0.261 C 
HETATM   10  O   UNL     1      -1.408   4.519 -32.408  1.00  0.00    -0.267 OA
HETATM   11  H   UNL     1      -3.510   5.326 -30.155  1.00  0.00     0.169 HD
BRANCH   9  12
HETATM   12  C   UNL     1      -1.078   5.803 -30.448  1.00  0.00     0.100 A 
HETATM   13  C   UNL     1       0.162   5.297 -29.788  1.00  0.00     0.261 A 
HETATM   14  N   UNL     1       0.848   6.187 -28.993  1.00  0.00    -0.327 N 
HETATM   15  O   UNL     1       0.560   4.144 -29.946  1.00  0.00    -0.267 OA
HETATM   16  C   UNL     1       0.459   7.487 -28.769  1.00  0.00     0.008 A 
HETATM   17  H   UNL     1       1.691   5.829 -28.559  1.00  0.00     0.169 HD
HETATM   18  C   UNL     1       1.337   8.321 -27.886  1.00  0.00     0.068 C 
HETATM   19  C   UNL     1      -0.663   7.941 -29.345  1.00  0.00     0.026 A 
HETATM   20  C   UNL     1      -1.443   7.075 -30.203  1.00  0.00     0.025 A 
ENDBRANCH   9  12
ENDBRANCH   1   8
BRANCH   5  21
HETATM   21  C   UNL     1      -7.444   1.872 -33.454  1.00  0.00     0.183 A 
HETATM   22  N   UNL     1      -7.327   1.202 -34.616  1.00  0.00    -0.152 NA
HETATM   23  N   UNL     1      -8.580   0.780 -34.828  1.00  0.00    -0.263 N 
HETATM   24  H   UNL     1      -8.793   0.252 -35.667  1.00  0.00     0.190 HD
HETATM   25  C   UNL     1      -9.412   1.158 -33.818  1.00  0.00     0.118 A 
HETATM   26  C   UNL     1     -10.857   0.849 -33.789  1.00  0.00     0.093 C 
HETATM   27  N   UNL     1      -8.715   1.825 -32.928  1.00  0.00    -0.212 NA
ENDBRANCH   5  21
TORSDOF 3
ENDMDL
MODEL 8
REMARK VINA RESULT:      -7.6      6.072      9.048
REMARK  3 active torsions:
REMARK  status: ('A' for Active; 'I' for Inactive)
REMARK    1  A    between atoms: C_6  and  C_7 
REMARK       I    between atoms: C_7  and  N_8 
REMARK    2  A    between atoms: N_8  and  C_9 
REMARK    3  A    between atoms: C_13  and  C_14 
ROOT
HETATM    1  C   UNL     1      -9.208   1.021 -33.375  1.00  0.00     0.036 A 
HETATM    2  C   UNL     1     -10.349   0.927 -34.171  1.00  0.00     0.054 A 
HETATM    3  C   UNL     1     -11.432   1.808 -33.994  1.00  0.00     0.050 A 
HETATM    4 CL   UNL     1     -12.815   1.516 -34.998  1.00  0.00    -0.083 Cl
HETATM    5  C   UNL     1     -11.383   2.813 -33.016  1.00  0.00     0.035 A 
HETATM    6  C   UNL     1     -10.218   2.910 -32.232  1.00  0.00     0.019 A 
HETATM    7  C   UNL     1      -9.147   2.028 -32.409  1.00  0.00     0.030 A 
ENDROOT
BRANCH   1   8
HETATM    8  N   UNL     1      -8.113   0.135 -33.444  1.00  0.00    -0.323 N 
HETATM    9  C   UNL     1      -7.012   0.207 -34.271  1.00  0.00     0.261 C 
HETATM   10  O   UNL     1      -6.745   1.141 -35.024  1.00  0.00    -0.267 OA
HETATM   11  H   UNL     1      -8.172  -0.687 -32.840  1.00  0.00     0.169 HD
BRANCH   9  12
HETATM   12  C   UNL     1      -6.113  -0.991 -34.217  1.00  0.00     0.100 A 
HETATM   13  C   UNL     1      -4.779  -1.002 -33.544  1.00  0.00     0.261 A 
HETATM   14  N   UNL     1      -4.101  -2.200 -33.533  1.00  0.00    -0.327 N 
HETATM   15  O   UNL     1      -4.306   0.005 -33.021  1.00  0.00    -0.267 OA
HETATM   16  C   UNL     1      -4.568  -3.362 -34.101  1.00  0.00     0.008 A 
HETATM   17  H   UNL     1      -3.202  -2.191 -33.065  1.00  0.00     0.169 HD
HETATM   18  C   UNL     1      -3.703  -4.579 -33.979  1.00  0.00     0.068 C 
HETATM   19  C   UNL     1      -5.757  -3.353 -34.721  1.00  0.00     0.026 A 
HETATM   20  C   UNL     1      -6.541  -2.139 -34.775  1.00  0.00     0.025 A 
ENDBRANCH   9  12
ENDBRANCH   1   8
BRANCH   5  21
HETATM   21  C   UNL     1     -12.478   3.741 -32.745  1.00  0.00     0.183 A 
HETATM   22  N   UNL     1     -13.252   3.665 -31.646  1.00  0.00    -0.152 NA
HETATM   23  N   UNL     1     -14.110   4.677 -31.830  1.00  0.00    -0.263 N 
HETATM   24  H   UNL     1     -14.838   4.843 -31.145  1.00  0.00     0.190 HD
HETATM   25  C   UNL     1     -13.844   5.353 -32.982  1.00  0.00     0.118 A 
HETATM   26  C   UNL     1     -14.636   6.507 -33.455  1.00  0.00     0.093 C 
HETATM   27  N   UNL     1     -12.805   4.799 -33.563  1.00  0.00    -0.212 NA
ENDBRANCH   5  21
TORSDOF 3
ENDMDL
MODEL 9
REMARK VINA RESULT:      -7.6      6.597      8.562
REMARK  3 active torsions:
REMARK  status: ('A' for Active; 'I' for Inactive)
REMARK    1  A    between atoms: C_6  and  C_7 
REMARK       I    between atoms: C_7  and  N_8 
REMARK    2  A    between atoms: N_8  and  C_9 
REMARK    3  A    between atoms: C_13  and  C_14 
ROOT
HETATM    1  C   UNL     1      -8.622   1.352 -33.852  1.00  0.00     0.036 A 
HETATM    2  C   UNL     1      -7.909   0.990 -32.710  1.00  0.00     0.054 A 
HETATM    3  C   UNL     1      -6.965  -0.054 -32.745  1.00  0.00     0.050 A 
HETATM    4 CL   UNL     1      -6.219  -0.449 -31.230  1.00  0.00    -0.083 Cl
HETATM    5  C   UNL     1      -6.713  -0.750 -33.937  1.00  0.00     0.035 A 
HETATM    6  C   UNL     1      -7.426  -0.361 -35.087  1.00  0.00     0.019 A 
HETATM    7  C   UNL     1      -8.365   0.674 -35.045  1.00  0.00     0.030 A 
ENDROOT
BRANCH   1   8
HETATM    8  N   UNL     1      -9.631   2.338 -33.881  1.00  0.00    -0.323 N 
HETATM    9  C   UNL     1     -10.995   2.160 -33.780  1.00  0.00     0.261 C 
HETATM   10  O   UNL     1     -11.560   1.098 -33.531  1.00  0.00    -0.267 OA
HETATM   11  H   UNL     1      -9.310   3.293 -34.047  1.00  0.00     0.169 HD
BRANCH   9  12
HETATM   12  C   UNL     1     -11.803   3.399 -34.025  1.00  0.00     0.100 A 
HETATM   13  C   UNL     1     -12.559   3.666 -35.285  1.00  0.00     0.261 A 
HETATM   14  N   UNL     1     -13.300   4.825 -35.330  1.00  0.00    -0.327 N 
HETATM   15  O   UNL     1     -12.529   2.889 -36.238  1.00  0.00    -0.267 OA
HETATM   16  C   UNL     1     -13.376   5.739 -34.305  1.00  0.00     0.008 A 
HETATM   17  H   UNL     1     -13.813   4.985 -36.189  1.00  0.00     0.169 HD
HETATM   18  C   UNL     1     -14.245   6.939 -34.521  1.00  0.00     0.068 C 
HETATM   19  C   UNL     1     -12.684   5.513 -33.179  1.00  0.00     0.026 A 
HETATM   20  C   UNL     1     -11.884   4.315 -33.042  1.00  0.00     0.025 A 
ENDBRANCH   9  12
ENDBRANCH   1   8
BRANCH   5  21
HETATM   21  C   UNL     1      -5.779  -1.868 -34.047  1.00  0.00     0.183 A 
HETATM   22  N   UNL     1      -4.453  -1.739 -33.855  1.00  0.00    -0.152 NA
HETATM   23  N   UNL     1      -4.011  -2.984 -34.073  1.00  0.00    -0.263 N 
HETATM   24  H   UNL     1      -3.018  -3.178 -34.014  1.00  0.00     0.190 HD
HETATM   25  C   UNL     1      -5.036  -3.835 -34.359  1.00  0.00     0.118 A 
HETATM   26  C   UNL     1      -4.848  -5.269 -34.661  1.00  0.00     0.093 C 
HETATM   27  N   UNL     1      -6.162  -3.161 -34.323  1.00  0.00    -0.212 NA
ENDBRANCH   5  21
TORSDOF 3
ENDMDL
MODEL 10
REMARK VINA RESULT:      -7.5      5.798      7.191
REMARK  3 active torsions:
REMARK  status: ('A' for Active; 'I' for Inactive)
REMARK    1  A    between atoms: C_6  and  C_7 
REMARK       I    between atoms: C_7  and  N_8 
REMARK    2  A    between atoms: N_8  and  C_9 
REMARK    3  A    between atoms: C_13  and  C_14 
ROOT
HETATM    1  C   UNL     1      -7.776   1.479 -33.862  1.00  0.00     0.036 A 
HETATM    2  C   UNL     1      -6.988   0.979 -32.827  1.00  0.00     0.054 A 
HETATM    3  C   UNL     1      -6.373  -0.283 -32.928  1.00  0.00     0.050 A 
HETATM    4 CL   UNL     1      -5.494  -0.810 -31.529  1.00  0.00    -0.083 Cl
HETATM    5  C   UNL     1      -6.531  -1.065 -34.083  1.00  0.00     0.035 A 
HETATM    6  C   UNL     1      -7.313  -0.539 -35.129  1.00  0.00     0.019 A 
HETATM    7  C   UNL     1      -7.926   0.713 -35.020  1.00  0.00     0.030 A 
ENDROOT
BRANCH   1   8
HETATM    8  N   UNL     1      -8.480   2.700 -33.809  1.00  0.00    -0.323 N 
HETATM    9  C   UNL     1      -9.787   2.944 -34.173  1.00  0.00     0.261 C 
HETATM   10  O   UNL     1     -10.606   2.090 -34.507  1.00  0.00    -0.267 OA
HETATM   11  H   UNL     1      -7.935   3.511 -33.509  1.00  0.00     0.169 HD
BRANCH   9  12
HETATM   12  C   UNL     1     -10.178   4.391 -34.158  1.00  0.00     0.100 A 
HETATM   13  C   UNL     1      -9.206   5.518 -34.287  1.00  0.00     0.261 A 
HETATM   14  N   UNL     1      -9.732   6.790 -34.314  1.00  0.00    -0.327 N 
HETATM   15  O   UNL     1      -7.995   5.326 -34.369  1.00  0.00    -0.267 OA
HETATM   16  C   UNL     1     -11.074   7.078 -34.223  1.00  0.00     0.008 A 
HETATM   17  H   UNL     1      -9.059   7.541 -34.409  1.00  0.00     0.169 HD
HETATM   18  C   UNL     1     -11.470   8.521 -34.286  1.00  0.00     0.068 C 
HETATM   19  C   UNL     1     -11.949   6.071 -34.090  1.00  0.00     0.026 A 
HETATM   20  C   UNL     1     -11.485   4.701 -34.059  1.00  0.00     0.025 A 
ENDBRANCH   9  12
ENDBRANCH   1   8
BRANCH   5  21
HETATM   21  C   UNL     1      -5.958  -2.398 -34.250  1.00  0.00     0.183 A 
HETATM   22  N   UNL     1      -6.649  -3.437 -34.754  1.00  0.00    -0.152 NA
HETATM   23  N   UNL     1      -5.750  -4.429 -34.701  1.00  0.00    -0.263 N 
HETATM   24  H   UNL     1      -6.016  -5.358 -35.008  1.00  0.00     0.190 HD
HETATM   25  C   UNL     1      -4.557  -3.996 -34.210  1.00  0.00     0.118 A 
HETATM   26  C   UNL     1      -3.383  -4.873 -34.021  1.00  0.00     0.093 C 
HETATM   27  N   UNL     1      -4.654  -2.714 -33.943  1.00  0.00    -0.212 NA
ENDBRANCH   5  21
TORSDOF 3
ENDMDL
