MODEL 1
REMARK VINA RESULT:      -9.1      0.000      0.000
REMARK  7 active torsions:
REMARK  status: ('A' for Active; 'I' for Inactive)
REMARK       I    between atoms: C_2  and  N_3 
REMARK    1  A    between atoms: N_3  and  C_4 
REMARK    2  A    between atoms: C_6  and  N_7 
REMARK       I    between atoms: N_7  and  C_8 
REMARK       I    between atoms: C_8  and  N_9 
REMARK    3  A    between atoms: N_9  and  C_10 
REMARK    4  A    between atoms: C_10  and  C_11 
REMARK    5  A    between atoms: C_11  and  C_12 
REMARK    6  A    between atoms: N_14  and  C_16 
REMARK    7  A    between atoms: C_16  and  C_17 
ROOT
HETATM    1  N   UNL     1      -5.092   5.168 -34.379  1.00  0.00    -0.309 N 
HETATM    2  C   UNL     1      -6.215   4.979 -33.633  1.00  0.00     0.320 C 
HETATM    3  N   UNL     1      -6.055   4.661 -32.322  1.00  0.00    -0.343 N 
HETATM    4  O   UNL     1      -7.325   5.084 -34.157  1.00  0.00    -0.247 OA
HETATM    5  H   UNL     1      -5.298   5.150 -35.371  1.00  0.00     0.170 HD
HETATM    6  H   UNL     1      -5.154   4.260 -32.091  1.00  0.00     0.164 HD
ENDROOT
BRANCH   3   7
HETATM    7  C   UNL     1      -7.148   4.251 -31.466  1.00  0.00     0.125 C 
BRANCH   7   8
HETATM    8  C   UNL     1      -6.854   3.000 -30.633  1.00  0.00     0.026 C 
BRANCH   8   9
HETATM    9  C   UNL     1      -6.284   1.758 -31.332  1.00  0.00     0.014 C 
HETATM   10  C   UNL     1      -7.027   1.285 -32.574  1.00  0.00     0.240 C 
HETATM   11  N   UNL     1      -6.639  -0.173 -32.725  1.00  0.00    -0.067 N 
HETATM   12  H   UNL     1      -7.529  -0.693 -32.709  1.00  0.00     0.280 HD
HETATM   13  C   UNL     1      -5.863  -0.576 -31.491  1.00  0.00     0.235 C 
HETATM   14  C   UNL     1      -6.151   0.510 -30.475  1.00  0.00     0.034 C 
BRANCH  11  15
HETATM   15  C   UNL     1      -5.928  -0.524 -34.000  1.00  0.00     0.273 C 
BRANCH  15  16
HETATM   16  C   UNL     1      -5.779  -2.002 -34.234  1.00  0.00    -0.033 A 
HETATM   17  C   UNL     1      -6.886  -2.785 -34.599  1.00  0.00     0.009 A 
HETATM   18  C   UNL     1      -6.740  -4.152 -34.841  1.00  0.00     0.001 A 
HETATM   19  C   UNL     1      -5.490  -4.751 -34.721  1.00  0.00     0.000 A 
HETATM   20  C   UNL     1      -4.383  -3.987 -34.359  1.00  0.00     0.001 A 
HETATM   21  C   UNL     1      -4.525  -2.620 -34.113  1.00  0.00     0.009 A 
ENDBRANCH  15  16
ENDBRANCH  11  15
ENDBRANCH   8   9
ENDBRANCH   7   8
ENDBRANCH   3   7
BRANCH   1  22
HETATM   22  C   UNL     1      -3.739   5.374 -34.035  1.00  0.00     0.038 A 
HETATM   23  C   UNL     1      -3.301   5.818 -32.781  1.00  0.00     0.059 A 
HETATM   24  C   UNL     1      -1.936   5.979 -32.508  1.00  0.00     0.036 A 
HETATM   25  C   UNL     1      -1.007   5.736 -33.526  1.00  0.00     0.029 A 
HETATM   26  C   UNL     1      -1.434   5.339 -34.792  1.00  0.00     0.004 A 
HETATM   27  C   UNL     1      -2.795   5.163 -35.045  1.00  0.00     0.029 A 
BRANCH  24  28
HETATM   28  N   UNL     1      -1.423   6.383 -31.257  1.00  0.00    -0.327 N 
HETATM   29  C   UNL     1      -0.693   5.624 -30.360  1.00  0.00     0.218 C 
HETATM   30  C   UNL     1      -0.290   6.399 -29.127  1.00  0.00     0.117 C 
HETATM   31  O   UNL     1      -0.350   4.455 -30.501  1.00  0.00    -0.274 OA
HETATM   32  H   UNL     1      -1.576   7.355 -31.012  1.00  0.00     0.169 HD
ENDBRANCH  24  28
ENDBRANCH   1  22
TORSDOF 7
ENDMDL
MODEL 2
REMARK VINA RESULT:      -8.7      2.332      4.217
REMARK  7 active torsions:
REMARK  status: ('A' for Active; 'I' for Inactive)
REMARK       I    between atoms: C_2  and  N_3 
REMARK    1  A    between atoms: N_3  and  C_4 
REMARK    2  A    between atoms: C_6  and  N_7 
REMARK       I    between atoms: N_7  and  C_8 
REMARK       I    between atoms: C_8  and  N_9 
REMARK    3  A    between atoms: N_9  and  C_10 
REMARK    4  A    between atoms: C_10  and  C_11 
REMARK    5  A    between atoms: C_11  and  C_12 
REMARK    6  A    between atoms: N_14  and  C_16 
REMARK    7  A    between atoms: C_16  and  C_17 
ROOT
HETATM    1  N   UNL     1      -0.413   7.059 -32.438  1.00  0.00    -0.309 N 
HETATM    2  C   UNL     1      -1.534   6.939 -33.201  1.00  0.00     0.320 C 
HETATM    3  N   UNL     1      -2.463   6.025 -32.819  1.00  0.00    -0.343 N 
HETATM    4  O   UNL     1      -1.668   7.638 -34.207  1.00  0.00    -0.247 OA
HETATM    5  H   UNL     1       0.316   7.567 -32.926  1.00  0.00     0.170 HD
HETATM    6  H   UNL     1      -2.108   5.287 -32.222  1.00  0.00     0.164 HD
ENDROOT
BRANCH   3   7
HETATM    7  C   UNL     1      -3.602   5.663 -33.634  1.00  0.00     0.125 C 
BRANCH   7   8
HETATM    8  C   UNL     1      -4.936   5.664 -32.880  1.00  0.00     0.026 C 
BRANCH   8   9
HETATM    9  C   UNL     1      -5.774   4.379 -32.851  1.00  0.00     0.014 C 
HETATM   10  C   UNL     1      -5.017   3.077 -33.077  1.00  0.00     0.240 C 
HETATM   11  N   UNL     1      -6.073   2.092 -33.542  1.00  0.00    -0.067 N 
HETATM   12  H   UNL     1      -5.747   1.759 -34.461  1.00  0.00     0.280 HD
HETATM   13  C   UNL     1      -7.355   2.861 -33.772  1.00  0.00     0.235 C 
HETATM   14  C   UNL     1      -6.934   4.315 -33.832  1.00  0.00     0.034 C 
BRANCH  11  15
HETATM   15  C   UNL     1      -6.266   0.889 -32.664  1.00  0.00     0.273 C 
BRANCH  15  16
HETATM   16  C   UNL     1      -5.990  -0.422 -33.347  1.00  0.00    -0.033 A 
HETATM   17  C   UNL     1      -4.685  -0.938 -33.405  1.00  0.00     0.009 A 
HETATM   18  C   UNL     1      -4.436  -2.167 -34.017  1.00  0.00     0.001 A 
HETATM   19  C   UNL     1      -5.483  -2.893 -34.577  1.00  0.00     0.000 A 
HETATM   20  C   UNL     1      -6.782  -2.392 -34.528  1.00  0.00     0.001 A 
HETATM   21  C   UNL     1      -7.037  -1.161 -33.919  1.00  0.00     0.009 A 
ENDBRANCH  15  16
ENDBRANCH  11  15
ENDBRANCH   8   9
ENDBRANCH   7   8
ENDBRANCH   3   7
BRANCH   1  22
HETATM   22  C   UNL     1      -0.090   6.618 -31.137  1.00  0.00     0.038 A 
HETATM   23  C   UNL     1      -0.251   7.388 -29.978  1.00  0.00     0.059 A 
HETATM   24  C   UNL     1       0.073   6.872 -28.717  1.00  0.00     0.036 A 
HETATM   25  C   UNL     1       0.610   5.582 -28.629  1.00  0.00     0.029 A 
HETATM   26  C   UNL     1       0.817   4.823 -29.779  1.00  0.00     0.004 A 
HETATM   27  C   UNL     1       0.472   5.342 -31.027  1.00  0.00     0.029 A 
BRANCH  24  28
HETATM   28  N   UNL     1      -0.101   7.576 -27.506  1.00  0.00    -0.327 N 
HETATM   29  C   UNL     1       0.820   8.379 -26.857  1.00  0.00     0.218 C 
HETATM   30  C   UNL     1       0.273   8.993 -25.589  1.00  0.00     0.117 C 
HETATM   31  O   UNL     1       1.961   8.631 -27.230  1.00  0.00    -0.274 OA
HETATM   32  H   UNL     1      -1.024   7.515 -27.091  1.00  0.00     0.169 HD
ENDBRANCH  24  28
ENDBRANCH   1  22
TORSDOF 7
ENDMDL
MODEL 3
REMARK VINA RESULT:      -8.6      3.290      6.816
REMARK  7 active torsions:
REMARK  status: ('A' for Active; 'I' for Inactive)
REMARK       I    between atoms: C_2  and  N_3 
REMARK    1  A    between atoms: N_3  and  C_4 
REMARK    2  A    between atoms: C_6  and  N_7 
REMARK       I    between atoms: N_7  and  C_8 
REMARK       I    between atoms: C_8  and  N_9 
REMARK    3  A    between atoms: N_9  and  C_10 
REMARK    4  A    between atoms: C_10  and  C_11 
REMARK    5  A    between atoms: C_11  and  C_12 
REMARK    6  A    between atoms: N_14  and  C_16 
REMARK    7  A    between atoms: C_16  and  C_17 
ROOT
HETATM    1  N   UNL     1      -8.095   3.638 -34.181  1.00  0.00    -0.309 N 
HETATM    2  C   UNL     1      -6.924   4.059 -33.627  1.00  0.00     0.320 C 
HETATM    3  N   UNL     1      -6.619   3.609 -32.381  1.00  0.00    -0.343 N 
HETATM    4  O   UNL     1      -6.194   4.831 -34.249  1.00  0.00    -0.247 OA
HETATM    5  H   UNL     1      -8.353   4.208 -34.978  1.00  0.00     0.170 HD
HETATM    6  H   UNL     1      -7.414   3.291 -31.840  1.00  0.00     0.164 HD
ENDROOT
BRANCH   3   7
HETATM    7  C   UNL     1      -5.510   4.119 -31.604  1.00  0.00     0.125 C 
BRANCH   7   8
HETATM    8  C   UNL     1      -4.864   3.081 -30.681  1.00  0.00     0.026 C 
BRANCH   8   9
HETATM    9  C   UNL     1      -4.851   1.609 -31.112  1.00  0.00     0.014 C 
HETATM   10  C   UNL     1      -4.672   1.346 -32.602  1.00  0.00     0.240 C 
HETATM   11  N   UNL     1      -5.232  -0.048 -32.818  1.00  0.00    -0.067 N 
HETATM   12  H   UNL     1      -5.975   0.066 -33.523  1.00  0.00     0.280 HD
HETATM   13  C   UNL     1      -5.899  -0.483 -31.532  1.00  0.00     0.235 C 
HETATM   14  C   UNL     1      -6.073   0.789 -30.730  1.00  0.00     0.034 C 
BRANCH  11  15
HETATM   15  C   UNL     1      -4.257  -1.062 -33.342  1.00  0.00     0.273 C 
BRANCH  15  16
HETATM   16  C   UNL     1      -4.899  -2.309 -33.884  1.00  0.00    -0.033 A 
HETATM   17  C   UNL     1      -6.209  -2.279 -34.389  1.00  0.00     0.009 A 
HETATM   18  C   UNL     1      -6.793  -3.433 -34.914  1.00  0.00     0.001 A 
HETATM   19  C   UNL     1      -6.077  -4.626 -34.942  1.00  0.00     0.000 A 
HETATM   20  C   UNL     1      -4.778  -4.671 -34.443  1.00  0.00     0.001 A 
HETATM   21  C   UNL     1      -4.190  -3.520 -33.913  1.00  0.00     0.009 A 
ENDBRANCH  15  16
ENDBRANCH  11  15
ENDBRANCH   8   9
ENDBRANCH   7   8
ENDBRANCH   3   7
BRANCH   1  22
HETATM   22  C   UNL     1      -8.985   2.593 -33.856  1.00  0.00     0.038 A 
HETATM   23  C   UNL     1     -10.337   2.776 -33.538  1.00  0.00     0.059 A 
HETATM   24  C   UNL     1     -11.165   1.685 -33.245  1.00  0.00     0.036 A 
HETATM   25  C   UNL     1     -10.612   0.399 -33.227  1.00  0.00     0.029 A 
HETATM   26  C   UNL     1      -9.258   0.209 -33.497  1.00  0.00     0.004 A 
HETATM   27  C   UNL     1      -8.448   1.302 -33.806  1.00  0.00     0.029 A 
BRANCH  24  28
HETATM   28  N   UNL     1     -12.542   1.792 -32.956  1.00  0.00    -0.327 N 
HETATM   29  C   UNL     1     -13.595   1.208 -33.637  1.00  0.00     0.218 C 
HETATM   30  C   UNL     1     -14.939   1.528 -33.025  1.00  0.00     0.117 C 
HETATM   31  O   UNL     1     -13.515   0.476 -34.619  1.00  0.00    -0.274 OA
HETATM   32  H   UNL     1     -12.777   2.328 -32.127  1.00  0.00     0.169 HD
ENDBRANCH  24  28
ENDBRANCH   1  22
TORSDOF 7
ENDMDL
MODEL 4
REMARK VINA RESULT:      -8.6      1.988      9.241
REMARK  7 active torsions:
REMARK  status: ('A' for Active; 'I' for Inactive)
REMARK       I    between atoms: C_2  and  N_3 
REMARK    1  A    between atoms: N_3  and  C_4 
REMARK    2  A    between atoms: C_6  and  N_7 
REMARK       I    between atoms: N_7  and  C_8 
REMARK       I    between atoms: C_8  and  N_9 
REMARK    3  A    between atoms: N_9  and  C_10 
REMARK    4  A    between atoms: C_10  and  C_11 
REMARK    5  A    between atoms: C_11  and  C_12 
REMARK    6  A    between atoms: N_14  and  C_16 
REMARK    7  A    between atoms: C_16  and  C_17 
ROOT
HETATM    1  N   UNL     1      -6.436   3.337 -32.972  1.00  0.00    -0.309 N 
HETATM    2  C   UNL     1      -5.900   4.306 -33.764  1.00  0.00     0.320 C 
HETATM    3  N   UNL     1      -4.572   4.230 -34.043  1.00  0.00    -0.343 N 
HETATM    4  O   UNL     1      -6.613   5.216 -34.188  1.00  0.00    -0.247 OA
HETATM    5  H   UNL     1      -7.347   3.608 -32.620  1.00  0.00     0.170 HD
HETATM    6  H   UNL     1      -4.033   3.682 -33.383  1.00  0.00     0.164 HD
ENDROOT
BRANCH   3   7
HETATM    7  C   UNL     1      -3.840   5.284 -34.710  1.00  0.00     0.125 C 
BRANCH   7   8
HETATM    8  C   UNL     1      -2.318   5.153 -34.602  1.00  0.00     0.026 C 
BRANCH   8   9
HETATM    9  C   UNL     1      -1.560   6.067 -33.629  1.00  0.00     0.014 C 
HETATM   10  C   UNL     1      -1.141   5.440 -32.306  1.00  0.00     0.240 C 
HETATM   11  N   UNL     1      -0.941   6.615 -31.368  1.00  0.00    -0.067 N 
HETATM   12  H   UNL     1      -1.579   6.442 -30.577  1.00  0.00     0.280 HD
HETATM   13  C   UNL     1      -1.431   7.860 -32.074  1.00  0.00     0.235 C 
HETATM   14  C   UNL     1      -2.268   7.352 -33.229  1.00  0.00     0.034 C 
BRANCH  11  15
HETATM   15  C   UNL     1       0.445   6.769 -30.811  1.00  0.00     0.273 C 
BRANCH  15  16
HETATM   16  C   UNL     1       0.493   6.939 -29.317  1.00  0.00    -0.033 A 
HETATM   17  C   UNL     1       1.096   8.071 -28.745  1.00  0.00     0.009 A 
HETATM   18  C   UNL     1       1.117   8.238 -27.359  1.00  0.00     0.001 A 
HETATM   19  C   UNL     1       0.537   7.281 -26.532  1.00  0.00     0.000 A 
HETATM   20  C   UNL     1      -0.063   6.153 -27.087  1.00  0.00     0.001 A 
HETATM   21  C   UNL     1      -0.084   5.979 -28.472  1.00  0.00     0.009 A 
ENDBRANCH  15  16
ENDBRANCH  11  15
ENDBRANCH   8   9
ENDBRANCH   7   8
ENDBRANCH   3   7
BRANCH   1  22
HETATM   22  C   UNL     1      -5.970   2.070 -32.562  1.00  0.00     0.038 A 
HETATM   23  C   UNL     1      -5.827   0.967 -33.414  1.00  0.00     0.059 A 
HETATM   24  C   UNL     1      -5.337  -0.256 -32.936  1.00  0.00     0.036 A 
HETATM   25  C   UNL     1      -5.032  -0.380 -31.575  1.00  0.00     0.029 A 
HETATM   26  C   UNL     1      -5.213   0.697 -30.710  1.00  0.00     0.004 A 
HETATM   27  C   UNL     1      -5.684   1.915 -31.202  1.00  0.00     0.029 A 
BRANCH  24  28
HETATM   28  N   UNL     1      -5.131  -1.394 -33.744  1.00  0.00    -0.327 N 
HETATM   29  C   UNL     1      -6.090  -2.232 -34.283  1.00  0.00     0.218 C 
HETATM   30  C   UNL     1      -5.498  -3.342 -35.119  1.00  0.00     0.117 C 
HETATM   31  O   UNL     1      -7.306  -2.125 -34.159  1.00  0.00    -0.274 OA
HETATM   32  H   UNL     1      -4.166  -1.590 -33.988  1.00  0.00     0.169 HD
ENDBRANCH  24  28
ENDBRANCH   1  22
TORSDOF 7
ENDMDL
MODEL 5
REMARK VINA RESULT:      -8.6      2.179      3.485
REMARK  7 active torsions:
REMARK  status: ('A' for Active; 'I' for Inactive)
REMARK       I    between atoms: C_2  and  N_3 
REMARK    1  A    between atoms: N_3  and  C_4 
REMARK    2  A    between atoms: C_6  and  N_7 
REMARK       I    between atoms: N_7  and  C_8 
REMARK       I    between atoms: C_8  and  N_9 
REMARK    3  A    between atoms: N_9  and  C_10 
REMARK    4  A    between atoms: C_10  and  C_11 
REMARK    5  A    between atoms: C_11  and  C_12 
REMARK    6  A    between atoms: N_14  and  C_16 
REMARK    7  A    between atoms: C_16  and  C_17 
ROOT
HETATM    1  N   UNL     1      -1.463   4.986 -31.781  1.00  0.00    -0.309 N 
HETATM    2  C   UNL     1      -2.752   4.634 -32.042  1.00  0.00     0.320 C 
HETATM    3  N   UNL     1      -3.638   4.674 -31.013  1.00  0.00    -0.343 N 
HETATM    4  O   UNL     1      -3.074   4.282 -33.178  1.00  0.00    -0.247 OA
HETATM    5  H   UNL     1      -0.840   4.690 -32.523  1.00  0.00     0.170 HD
HETATM    6  H   UNL     1      -3.219   4.625 -30.092  1.00  0.00     0.164 HD
ENDROOT
BRANCH   3   7
HETATM    7  C   UNL     1      -4.984   4.151 -31.104  1.00  0.00     0.125 C 
BRANCH   7   8
HETATM    8  C   UNL     1      -5.240   2.926 -30.221  1.00  0.00     0.026 C 
BRANCH   8   9
HETATM    9  C   UNL     1      -5.100   1.526 -30.834  1.00  0.00     0.014 C 
HETATM   10  C   UNL     1      -5.105   1.454 -32.355  1.00  0.00     0.240 C 
HETATM   11  N   UNL     1      -5.507   0.026 -32.674  1.00  0.00    -0.067 N 
HETATM   12  H   UNL     1      -6.352   0.107 -33.258  1.00  0.00     0.280 HD
HETATM   13  C   UNL     1      -5.920  -0.638 -31.379  1.00  0.00     0.235 C 
HETATM   14  C   UNL     1      -6.139   0.502 -30.406  1.00  0.00     0.034 C 
BRANCH  11  15
HETATM   15  C   UNL     1      -4.495  -0.773 -33.442  1.00  0.00     0.273 C 
BRANCH  15  16
HETATM   16  C   UNL     1      -5.010  -2.092 -33.950  1.00  0.00    -0.033 A 
HETATM   17  C   UNL     1      -4.196  -3.236 -33.925  1.00  0.00     0.009 A 
HETATM   18  C   UNL     1      -4.684  -4.464 -34.374  1.00  0.00     0.001 A 
HETATM   19  C   UNL     1      -5.988  -4.563 -34.851  1.00  0.00     0.000 A 
HETATM   20  C   UNL     1      -6.806  -3.437 -34.883  1.00  0.00     0.001 A 
HETATM   21  C   UNL     1      -6.320  -2.205 -34.438  1.00  0.00     0.009 A 
ENDBRANCH  15  16
ENDBRANCH  11  15
ENDBRANCH   8   9
ENDBRANCH   7   8
ENDBRANCH   3   7
BRANCH   1  22
HETATM   22  C   UNL     1      -0.857   5.661 -30.700  1.00  0.00     0.038 A 
HETATM   23  C   UNL     1      -1.178   6.965 -30.302  1.00  0.00     0.059 A 
HETATM   24  C   UNL     1      -0.545   7.562 -29.204  1.00  0.00     0.036 A 
HETATM   25  C   UNL     1       0.456   6.853 -28.529  1.00  0.00     0.029 A 
HETATM   26  C   UNL     1       0.817   5.572 -28.945  1.00  0.00     0.004 A 
HETATM   27  C   UNL     1       0.165   4.982 -30.028  1.00  0.00     0.029 A 
BRANCH  24  28
HETATM   28  N   UNL     1      -0.847   8.854 -28.724  1.00  0.00    -0.327 N 
HETATM   29  C   UNL     1      -1.583   9.186 -27.600  1.00  0.00     0.218 C 
HETATM   30  C   UNL     1      -1.682  10.678 -27.383  1.00  0.00     0.117 C 
HETATM   31  O   UNL     1      -2.101   8.405 -26.809  1.00  0.00    -0.274 OA
HETATM   32  H   UNL     1      -0.439   9.623 -29.244  1.00  0.00     0.169 HD
ENDBRANCH  24  28
ENDBRANCH   1  22
TORSDOF 7
ENDMDL
MODEL 6
REMARK VINA RESULT:      -8.5      2.175      3.064
REMARK  7 active torsions:
REMARK  status: ('A' for Active; 'I' for Inactive)
REMARK       I    between atoms: C_2  and  N_3 
REMARK    1  A    between atoms: N_3  and  C_4 
REMARK    2  A    between atoms: C_6  and  N_7 
REMARK       I    between atoms: N_7  and  C_8 
REMARK       I    between atoms: C_8  and  N_9 
REMARK    3  A    between atoms: N_9  and  C_10 
REMARK    4  A    between atoms: C_10  and  C_11 
REMARK    5  A    between atoms: C_11  and  C_12 
REMARK    6  A    between atoms: N_14  and  C_16 
REMARK    7  A    between atoms: C_16  and  C_17 
ROOT
HETATM    1  N   UNL     1      -1.970   4.454 -32.143  1.00  0.00    -0.309 N 
HETATM    2  C   UNL     1      -3.000   3.570 -32.041  1.00  0.00     0.320 C 
HETATM    3  N   UNL     1      -3.821   3.678 -30.964  1.00  0.00    -0.343 N 
HETATM    4  O   UNL     1      -3.150   2.702 -32.902  1.00  0.00    -0.247 OA
HETATM    5  H   UNL     1      -1.282   4.147 -32.820  1.00  0.00     0.170 HD
HETATM    6  H   UNL     1      -3.416   4.162 -30.171  1.00  0.00     0.164 HD
ENDROOT
BRANCH   3   7
HETATM    7  C   UNL     1      -4.832   2.696 -30.635  1.00  0.00     0.125 C 
BRANCH   7   8
HETATM    8  C   UNL     1      -6.194   2.961 -31.283  1.00  0.00     0.026 C 
BRANCH   8   9
HETATM    9  C   UNL     1      -6.683   2.023 -32.395  1.00  0.00     0.014 C 
HETATM   10  C   UNL     1      -6.055   0.635 -32.428  1.00  0.00     0.240 C 
HETATM   11  N   UNL     1      -6.264   0.151 -33.851  1.00  0.00    -0.067 N 
HETATM   12  H   UNL     1      -5.319  -0.053 -34.209  1.00  0.00     0.280 HD
HETATM   13  C   UNL     1      -6.809   1.307 -34.658  1.00  0.00     0.235 C 
HETATM   14  C   UNL     1      -6.534   2.537 -33.818  1.00  0.00     0.034 C 
BRANCH  11  15
HETATM   15  C   UNL     1      -7.085  -1.098 -33.994  1.00  0.00     0.273 C 
BRANCH  15  16
HETATM   16  C   UNL     1      -6.276  -2.344 -34.226  1.00  0.00    -0.033 A 
HETATM   17  C   UNL     1      -4.915  -2.388 -33.881  1.00  0.00     0.009 A 
HETATM   18  C   UNL     1      -4.172  -3.553 -34.074  1.00  0.00     0.001 A 
HETATM   19  C   UNL     1      -4.778  -4.685 -34.612  1.00  0.00     0.000 A 
HETATM   20  C   UNL     1      -6.126  -4.655 -34.960  1.00  0.00     0.001 A 
HETATM   21  C   UNL     1      -6.873  -3.490 -34.772  1.00  0.00     0.009 A 
ENDBRANCH  15  16
ENDBRANCH  11  15
ENDBRANCH   8   9
ENDBRANCH   7   8
ENDBRANCH   3   7
BRANCH   1  22
HETATM   22  C   UNL     1      -1.693   5.677 -31.496  1.00  0.00     0.038 A 
HETATM   23  C   UNL     1      -0.792   5.824 -30.434  1.00  0.00     0.059 A 
HETATM   24  C   UNL     1      -0.554   7.078 -29.855  1.00  0.00     0.036 A 
HETATM   25  C   UNL     1      -1.269   8.187 -30.322  1.00  0.00     0.029 A 
HETATM   26  C   UNL     1      -2.202   8.045 -31.347  1.00  0.00     0.004 A 
HETATM   27  C   UNL     1      -2.415   6.795 -31.928  1.00  0.00     0.029 A 
BRANCH  24  28
HETATM   28  N   UNL     1       0.368   7.304 -28.812  1.00  0.00    -0.327 N 
HETATM   29  C   UNL     1       0.161   7.147 -27.453  1.00  0.00     0.218 C 
HETATM   30  C   UNL     1       1.389   7.462 -26.631  1.00  0.00     0.117 C 
HETATM   31  O   UNL     1      -0.873   6.768 -26.911  1.00  0.00    -0.274 OA
HETATM   32  H   UNL     1       1.302   7.574 -29.101  1.00  0.00     0.169 HD
ENDBRANCH  24  28
ENDBRANCH   1  22
TORSDOF 7
ENDMDL
MODEL 7
REMARK VINA RESULT:      -8.4      2.102      2.762
REMARK  7 active torsions:
REMARK  status: ('A' for Active; 'I' for Inactive)
REMARK       I    between atoms: C_2  and  N_3 
REMARK    1  A    between atoms: N_3  and  C_4 
REMARK    2  A    between atoms: C_6  and  N_7 
REMARK       I    between atoms: N_7  and  C_8 
REMARK       I    between atoms: C_8  and  N_9 
REMARK    3  A    between atoms: N_9  and  C_10 
REMARK    4  A    between atoms: C_10  and  C_11 
REMARK    5  A    between atoms: C_11  and  C_12 
REMARK    6  A    between atoms: N_14  and  C_16 
REMARK    7  A    between atoms: C_16  and  C_17 
ROOT
HETATM    1  N   UNL     1      -3.763   7.230 -31.068  1.00  0.00    -0.309 N 
HETATM    2  C   UNL     1      -4.765   6.313 -30.975  1.00  0.00     0.320 C 
HETATM    3  N   UNL     1      -4.427   4.999 -31.043  1.00  0.00    -0.343 N 
HETATM    4  O   UNL     1      -5.931   6.690 -30.849  1.00  0.00    -0.247 OA
HETATM    5  H   UNL     1      -4.124   8.157 -31.258  1.00  0.00     0.170 HD
HETATM    6  H   UNL     1      -3.538   4.814 -31.491  1.00  0.00     0.164 HD
ENDROOT
BRANCH   3   7
HETATM    7  C   UNL     1      -5.401   3.934 -31.146  1.00  0.00     0.125 C 
BRANCH   7   8
HETATM    8  C   UNL     1      -5.082   2.710 -30.282  1.00  0.00     0.026 C 
BRANCH   8   9
HETATM    9  C   UNL     1      -5.027   1.326 -30.944  1.00  0.00     0.014 C 
HETATM   10  C   UNL     1      -4.820   1.311 -32.453  1.00  0.00     0.240 C 
HETATM   11  N   UNL     1      -5.342  -0.041 -32.901  1.00  0.00    -0.067 N 
HETATM   12  H   UNL     1      -6.077   0.168 -33.592  1.00  0.00     0.280 HD
HETATM   13  C   UNL     1      -6.015  -0.693 -31.714  1.00  0.00     0.235 C 
HETATM   14  C   UNL     1      -6.233   0.429 -30.721  1.00  0.00     0.034 C 
BRANCH  11  15
HETATM   15  C   UNL     1      -4.335  -0.936 -33.563  1.00  0.00     0.273 C 
BRANCH  15  16
HETATM   16  C   UNL     1      -4.899  -2.240 -34.055  1.00  0.00    -0.033 A 
HETATM   17  C   UNL     1      -4.164  -3.431 -33.929  1.00  0.00     0.009 A 
HETATM   18  C   UNL     1      -4.701  -4.644 -34.364  1.00  0.00     0.001 A 
HETATM   19  C   UNL     1      -5.973  -4.682 -34.927  1.00  0.00     0.000 A 
HETATM   20  C   UNL     1      -6.712  -3.509 -35.059  1.00  0.00     0.001 A 
HETATM   21  C   UNL     1      -6.178  -2.292 -34.629  1.00  0.00     0.009 A 
ENDBRANCH  15  16
ENDBRANCH  11  15
ENDBRANCH   8   9
ENDBRANCH   7   8
ENDBRANCH   3   7
BRANCH   1  22
HETATM   22  C   UNL     1      -2.360   7.127 -30.955  1.00  0.00     0.038 A 
HETATM   23  C   UNL     1      -1.627   7.511 -29.825  1.00  0.00     0.059 A 
HETATM   24  C   UNL     1      -0.235   7.359 -29.780  1.00  0.00     0.036 A 
HETATM   25  C   UNL     1       0.430   6.859 -30.906  1.00  0.00     0.029 A 
HETATM   26  C   UNL     1      -0.284   6.517 -32.053  1.00  0.00     0.004 A 
HETATM   27  C   UNL     1      -1.672   6.655 -32.078  1.00  0.00     0.029 A 
BRANCH  24  28
HETATM   28  N   UNL     1       0.560   7.686 -28.661  1.00  0.00    -0.327 N 
HETATM   29  C   UNL     1       0.627   7.021 -27.450  1.00  0.00     0.218 C 
HETATM   30  C   UNL     1       1.610   7.648 -26.489  1.00  0.00     0.117 C 
HETATM   31  O   UNL     1       0.005   6.011 -27.136  1.00  0.00    -0.274 OA
HETATM   32  H   UNL     1       1.183   8.477 -28.781  1.00  0.00     0.169 HD
ENDBRANCH  24  28
ENDBRANCH   1  22
TORSDOF 7
ENDMDL
MODEL 8
REMARK VINA RESULT:      -8.2      2.342      4.162
REMARK  7 active torsions:
REMARK  status: ('A' for Active; 'I' for Inactive)
REMARK       I    between atoms: C_2  and  N_3 
REMARK    1  A    between atoms: N_3  and  C_4 
REMARK    2  A    between atoms: C_6  and  N_7 
REMARK       I    between atoms: N_7  and  C_8 
REMARK       I    between atoms: C_8  and  N_9 
REMARK    3  A    between atoms: N_9  and  C_10 
REMARK    4  A    between atoms: C_10  and  C_11 
REMARK    5  A    between atoms: C_11  and  C_12 
REMARK    6  A    between atoms: N_14  and  C_16 
REMARK    7  A    between atoms: C_16  and  C_17 
ROOT
HETATM    1  N   UNL     1      -2.951   7.345 -28.260  1.00  0.00    -0.309 N 
HETATM    2  C   UNL     1      -4.123   6.688 -28.037  1.00  0.00     0.320 C 
HETATM    3  N   UNL     1      -4.550   5.819 -28.991  1.00  0.00    -0.343 N 
HETATM    4  O   UNL     1      -4.760   6.903 -27.005  1.00  0.00    -0.247 OA
HETATM    5  H   UNL     1      -2.845   8.136 -27.636  1.00  0.00     0.170 HD
HETATM    6  H   UNL     1      -4.164   5.980 -29.913  1.00  0.00     0.164 HD
ENDROOT
BRANCH   3   7
HETATM    7  C   UNL     1      -5.858   5.200 -28.970  1.00  0.00     0.125 C 
BRANCH   7   8
HETATM    8  C   UNL     1      -6.527   5.107 -30.346  1.00  0.00     0.026 C 
BRANCH   8   9
HETATM    9  C   UNL     1      -6.529   3.760 -31.081  1.00  0.00     0.014 C 
HETATM   10  C   UNL     1      -5.966   2.572 -30.312  1.00  0.00     0.240 C 
HETATM   11  N   UNL     1      -5.578   1.568 -31.380  1.00  0.00    -0.067 N 
HETATM   12  H   UNL     1      -4.573   1.392 -31.235  1.00  0.00     0.280 HD
HETATM   13  C   UNL     1      -5.723   2.244 -32.725  1.00  0.00     0.235 C 
HETATM   14  C   UNL     1      -5.799   3.724 -32.414  1.00  0.00     0.034 C 
BRANCH  11  15
HETATM   15  C   UNL     1      -6.287   0.247 -31.313  1.00  0.00     0.273 C 
BRANCH  15  16
HETATM   16  C   UNL     1      -6.072  -0.629 -32.517  1.00  0.00    -0.033 A 
HETATM   17  C   UNL     1      -4.832  -1.249 -32.738  1.00  0.00     0.009 A 
HETATM   18  C   UNL     1      -4.642  -2.082 -33.842  1.00  0.00     0.001 A 
HETATM   19  C   UNL     1      -5.687  -2.304 -34.735  1.00  0.00     0.000 A 
HETATM   20  C   UNL     1      -6.922  -1.694 -34.528  1.00  0.00     0.001 A 
HETATM   21  C   UNL     1      -7.115  -0.857 -33.427  1.00  0.00     0.009 A 
ENDBRANCH  15  16
ENDBRANCH  11  15
ENDBRANCH   8   9
ENDBRANCH   7   8
ENDBRANCH   3   7
BRANCH   1  22
HETATM   22  C   UNL     1      -1.897   7.135 -29.174  1.00  0.00     0.038 A 
HETATM   23  C   UNL     1      -2.040   6.503 -30.416  1.00  0.00     0.059 A 
HETATM   24  C   UNL     1      -0.947   6.350 -31.279  1.00  0.00     0.036 A 
HETATM   25  C   UNL     1       0.313   6.797 -30.865  1.00  0.00     0.029 A 
HETATM   26  C   UNL     1       0.477   7.385 -29.612  1.00  0.00     0.004 A 
HETATM   27  C   UNL     1      -0.623   7.549 -28.770  1.00  0.00     0.029 A 
BRANCH  24  28
HETATM   28  N   UNL     1      -1.028   5.761 -32.559  1.00  0.00    -0.327 N 
HETATM   29  C   UNL     1      -1.247   6.396 -33.768  1.00  0.00     0.218 C 
HETATM   30  C   UNL     1      -1.248   5.442 -34.941  1.00  0.00     0.117 C 
HETATM   31  O   UNL     1      -1.403   7.600 -33.943  1.00  0.00    -0.274 OA
HETATM   32  H   UNL     1      -0.863   4.760 -32.593  1.00  0.00     0.169 HD
ENDBRANCH  24  28
ENDBRANCH   1  22
TORSDOF 7
ENDMDL
MODEL 9
REMARK VINA RESULT:      -8.2      2.159      9.054
REMARK  7 active torsions:
REMARK  status: ('A' for Active; 'I' for Inactive)
REMARK       I    between atoms: C_2  and  N_3 
REMARK    1  A    between atoms: N_3  and  C_4 
REMARK    2  A    between atoms: C_6  and  N_7 
REMARK       I    between atoms: N_7  and  C_8 
REMARK       I    between atoms: C_8  and  N_9 
REMARK    3  A    between atoms: N_9  and  C_10 
REMARK    4  A    between atoms: C_10  and  C_11 
REMARK    5  A    between atoms: C_11  and  C_12 
REMARK    6  A    between atoms: N_14  and  C_16 
REMARK    7  A    between atoms: C_16  and  C_17 
ROOT
HETATM    1  N   UNL     1      -6.885   2.964 -33.193  1.00  0.00    -0.309 N 
HETATM    2  C   UNL     1      -6.306   4.148 -33.533  1.00  0.00     0.320 C 
HETATM    3  N   UNL     1      -5.157   4.105 -34.256  1.00  0.00    -0.343 N 
HETATM    4  O   UNL     1      -6.821   5.208 -33.172  1.00  0.00    -0.247 OA
HETATM    5  H   UNL     1      -7.574   3.084 -32.461  1.00  0.00     0.170 HD
HETATM    6  H   UNL     1      -4.649   3.231 -34.190  1.00  0.00     0.164 HD
ENDROOT
BRANCH   3   7
HETATM    7  C   UNL     1      -4.343   5.271 -34.523  1.00  0.00     0.125 C 
BRANCH   7   8
HETATM    8  C   UNL     1      -2.841   4.980 -34.604  1.00  0.00     0.026 C 
BRANCH   8   9
HETATM    9  C   UNL     1      -1.921   5.504 -33.493  1.00  0.00     0.014 C 
HETATM   10  C   UNL     1      -2.548   5.647 -32.112  1.00  0.00     0.240 C 
HETATM   11  N   UNL     1      -1.668   6.649 -31.390  1.00  0.00    -0.067 N 
HETATM   12  H   UNL     1      -2.300   7.415 -31.113  1.00  0.00     0.280 HD
HETATM   13  C   UNL     1      -0.691   7.216 -32.395  1.00  0.00     0.235 C 
HETATM   14  C   UNL     1      -1.264   6.851 -33.748  1.00  0.00     0.034 C 
BRANCH  11  15
HETATM   15  C   UNL     1      -0.996   6.141 -30.147  1.00  0.00     0.273 C 
BRANCH  15  16
HETATM   16  C   UNL     1      -0.533   7.223 -29.211  1.00  0.00    -0.033 A 
HETATM   17  C   UNL     1       0.806   7.282 -28.792  1.00  0.00     0.009 A 
HETATM   18  C   UNL     1       1.238   8.301 -27.942  1.00  0.00     0.001 A 
HETATM   19  C   UNL     1       0.342   9.271 -27.504  1.00  0.00     0.000 A 
HETATM   20  C   UNL     1      -0.989   9.224 -27.911  1.00  0.00     0.001 A 
HETATM   21  C   UNL     1      -1.428   8.204 -28.758  1.00  0.00     0.009 A 
ENDBRANCH  15  16
ENDBRANCH  11  15
ENDBRANCH   8   9
ENDBRANCH   7   8
ENDBRANCH   3   7
BRANCH   1  22
HETATM   22  C   UNL     1      -6.701   1.643 -33.655  1.00  0.00     0.038 A 
HETATM   23  C   UNL     1      -5.839   0.711 -33.064  1.00  0.00     0.059 A 
HETATM   24  C   UNL     1      -5.726  -0.591 -33.569  1.00  0.00     0.036 A 
HETATM   25  C   UNL     1      -6.455  -0.942 -34.712  1.00  0.00     0.029 A 
HETATM   26  C   UNL     1      -7.281  -0.009 -35.336  1.00  0.00     0.004 A 
HETATM   27  C   UNL     1      -7.400   1.279 -34.811  1.00  0.00     0.029 A 
BRANCH  24  28
HETATM   28  N   UNL     1      -4.909  -1.591 -33.000  1.00  0.00    -0.327 N 
HETATM   29  C   UNL     1      -3.641  -1.443 -32.467  1.00  0.00     0.218 C 
HETATM   30  C   UNL     1      -3.077  -2.736 -31.925  1.00  0.00     0.117 C 
HETATM   31  O   UNL     1      -3.000  -0.400 -32.386  1.00  0.00    -0.274 OA
HETATM   32  H   UNL     1      -5.323  -2.515 -32.941  1.00  0.00     0.169 HD
ENDBRANCH  24  28
ENDBRANCH   1  22
TORSDOF 7
ENDMDL
MODEL 10
REMARK VINA RESULT:      -8.2      2.543      8.845
REMARK  7 active torsions:
REMARK  status: ('A' for Active; 'I' for Inactive)
REMARK       I    between atoms: C_2  and  N_3 
REMARK    1  A    between atoms: N_3  and  C_4 
REMARK    2  A    between atoms: C_6  and  N_7 
REMARK       I    between atoms: N_7  and  C_8 
REMARK       I    between atoms: C_8  and  N_9 
REMARK    3  A    between atoms: N_9  and  C_10 
REMARK    4  A    between atoms: C_10  and  C_11 
REMARK    5  A    between atoms: C_11  and  C_12 
REMARK    6  A    between atoms: N_14  and  C_16 
REMARK    7  A    between atoms: C_16  and  C_17 
ROOT
HETATM    1  N   UNL     1      -7.405   0.703 -31.773  1.00  0.00    -0.309 N 
HETATM    2  C   UNL     1      -7.310   2.046 -31.574  1.00  0.00     0.320 C 
HETATM    3  N   UNL     1      -6.445   2.741 -32.358  1.00  0.00    -0.343 N 
HETATM    4  O   UNL     1      -7.986   2.585 -30.696  1.00  0.00    -0.247 OA
HETATM    5  H   UNL     1      -7.868   0.244 -30.998  1.00  0.00     0.170 HD
HETATM    6  H   UNL     1      -5.710   2.182 -32.774  1.00  0.00     0.164 HD
ENDROOT
BRANCH   3   7
HETATM    7  C   UNL     1      -6.109   4.130 -32.130  1.00  0.00     0.125 C 
BRANCH   7   8
HETATM    8  C   UNL     1      -4.779   4.339 -31.399  1.00  0.00     0.026 C 
BRANCH   8   9
HETATM    9  C   UNL     1      -3.616   5.005 -32.147  1.00  0.00     0.014 C 
HETATM   10  C   UNL     1      -2.956   6.186 -31.448  1.00  0.00     0.240 C 
HETATM   11  N   UNL     1      -2.278   6.963 -32.561  1.00  0.00    -0.067 N 
HETATM   12  H   UNL     1      -2.680   7.911 -32.513  1.00  0.00     0.280 HD
HETATM   13  C   UNL     1      -2.712   6.359 -33.878  1.00  0.00     0.235 C 
HETATM   14  C   UNL     1      -3.926   5.520 -33.544  1.00  0.00     0.034 C 
BRANCH  11  15
HETATM   15  C   UNL     1      -0.787   7.093 -32.443  1.00  0.00     0.273 C 
BRANCH  15  16
HETATM   16  C   UNL     1      -0.228   6.603 -31.136  1.00  0.00    -0.033 A 
HETATM   17  C   UNL     1      -0.220   7.434 -30.004  1.00  0.00     0.009 A 
HETATM   18  C   UNL     1       0.277   6.968 -28.786  1.00  0.00     0.001 A 
HETATM   19  C   UNL     1       0.769   5.670 -28.684  1.00  0.00     0.000 A 
HETATM   20  C   UNL     1       0.768   4.835 -29.799  1.00  0.00     0.001 A 
HETATM   21  C   UNL     1       0.276   5.298 -31.021  1.00  0.00     0.009 A 
ENDBRANCH  15  16
ENDBRANCH  11  15
ENDBRANCH   8   9
ENDBRANCH   7   8
ENDBRANCH   3   7
BRANCH   1  22
HETATM   22  C   UNL     1      -6.985  -0.140 -32.825  1.00  0.00     0.038 A 
HETATM   23  C   UNL     1      -5.908  -1.032 -32.742  1.00  0.00     0.059 A 
HETATM   24  C   UNL     1      -5.564  -1.852 -33.825  1.00  0.00     0.036 A 
HETATM   25  C   UNL     1      -6.285  -1.736 -35.019  1.00  0.00     0.029 A 
HETATM   26  C   UNL     1      -7.329  -0.820 -35.129  1.00  0.00     0.004 A 
HETATM   27  C   UNL     1      -7.674  -0.023 -34.037  1.00  0.00     0.029 A 
BRANCH  24  28
HETATM   28  N   UNL     1      -4.519  -2.800 -33.797  1.00  0.00    -0.327 N 
HETATM   29  C   UNL     1      -4.595  -4.148 -34.097  1.00  0.00     0.218 C 
HETATM   30  C   UNL     1      -3.263  -4.851 -33.980  1.00  0.00     0.117 C 
HETATM   31  O   UNL     1      -5.596  -4.762 -34.454  1.00  0.00    -0.274 OA
HETATM   32  H   UNL     1      -3.600  -2.434 -33.571  1.00  0.00     0.169 HD
ENDBRANCH  24  28
ENDBRANCH   1  22
TORSDOF 7
ENDMDL
