MODEL 1
REMARK VINA RESULT:      -8.4      0.000      0.000
REMARK  9 active torsions:
REMARK  status: ('A' for Active; 'I' for Inactive)
REMARK    1  A    between atoms: C_2  and  O_3 
REMARK    2  A    between atoms: O_3  and  C_4 
REMARK    3  A    between atoms: C_4  and  C_5 
REMARK    4  A    between atoms: C_7  and  C_8 
REMARK       I    between atoms: C_8  and  N_9 
REMARK    5  A    between atoms: N_9  and  N_10 
REMARK    6  A    between atoms: N_10  and  C_11 
REMARK    7  A    between atoms: C_11  and  N_12 
REMARK    8  A    between atoms: N_12  and  C_13 
REMARK    9  A    between atoms: C_13  and  C_14 
ROOT
HETATM    1  C   UNL     1      -2.958   3.918 -32.549  1.00  0.00     0.078 A 
HETATM    2  O   UNL     1      -2.147   3.945 -31.455  1.00  0.00    -0.307 OA
HETATM    3  C   UNL     1      -1.089   4.769 -31.739  1.00  0.00     0.145 A 
HETATM    4  C   UNL     1      -1.246   5.276 -33.019  1.00  0.00     0.045 A 
HETATM    5  C   UNL     1      -2.444   4.729 -33.537  1.00  0.00     0.038 A 
ENDROOT
BRANCH   3   6
HETATM    6  C   UNL     1      -0.064   4.941 -30.727  1.00  0.00     0.293 C 
HETATM    7  N   UNL     1      -0.531   5.397 -29.503  1.00  0.00    -0.262 N 
HETATM    8  H   UNL     1      -1.520   5.393 -29.270  1.00  0.00     0.190 HD
HETATM    9  O   UNL     1       1.135   4.710 -30.893  1.00  0.00    -0.264 OA
BRANCH   7  10
HETATM   10  N   UNL     1       0.363   5.446 -28.416  1.00  0.00    -0.274 N 
HETATM   11  H   UNL     1       0.880   4.579 -28.279  1.00  0.00     0.189 HD
BRANCH  10  12
HETATM   12  C   UNL     1       0.067   6.214 -27.320  1.00  0.00     0.186 C 
HETATM   13  S   UNL     1       1.079   7.379 -26.666  1.00  0.00    -0.040 SA
BRANCH  12  14
HETATM   14  N   UNL     1      -1.110   5.959 -26.692  1.00  0.00    -0.364 N 
HETATM   15  H   UNL     1      -1.555   5.092 -26.980  1.00  0.00     0.162 HD
BRANCH  14  16
HETATM   16  C   UNL     1      -1.976   6.861 -25.937  1.00  0.00     0.154 C 
BRANCH  16  17
HETATM   17  C   UNL     1      -2.895   7.707 -26.834  1.00  0.00     0.139 C 
HETATM   18  O   UNL     1      -2.950   7.121 -28.152  1.00  0.00    -0.384 OA
HETATM   19  C   UNL     1      -2.636   8.135 -29.115  1.00  0.00     0.168 C 
HETATM   20  C   UNL     1      -1.860   9.202 -28.380  1.00  0.00     0.029 C 
HETATM   21  C   UNL     1      -2.475   9.162 -27.004  1.00  0.00     0.035 C 
ENDBRANCH  16  17
ENDBRANCH  14  16
ENDBRANCH  12  14
ENDBRANCH  10  12
ENDBRANCH   7  10
ENDBRANCH   3   6
BRANCH   1  22
HETATM   22  C   UNL     1      -4.171   3.062 -32.470  1.00  0.00     0.240 C 
BRANCH  22  23
HETATM   23  O   UNL     1      -3.786   1.894 -31.750  1.00  0.00    -0.345 OA
BRANCH  23  24
HETATM   24  C   UNL     1      -4.053   0.689 -32.340  1.00  0.00     0.069 A 
HETATM   25  C   UNL     1      -3.301  -0.487 -32.180  1.00  0.00     0.037 A 
HETATM   26  C   UNL     1      -3.681  -1.672 -32.821  1.00  0.00     0.010 A 
HETATM   27  C   UNL     1      -4.818  -1.663 -33.608  1.00  0.00    -0.052 A 
HETATM   28  C   UNL     1      -5.568  -0.497 -33.772  1.00  0.00    -0.049 A 
HETATM   29  C   UNL     1      -5.393  -2.784 -34.416  1.00  0.00     0.039 C 
HETATM   30  C   UNL     1      -5.198   0.681 -33.144  1.00  0.00     0.044 A 
HETATM   31  C   UNL     1      -6.709  -0.722 -34.712  1.00  0.00     0.039 C 
HETATM   32  C   UNL     1      -6.807  -2.254 -34.698  1.00  0.00     0.009 C 
ENDBRANCH  23  24
ENDBRANCH  22  23
ENDBRANCH   1  22
TORSDOF 9
ENDMDL
MODEL 2
REMARK VINA RESULT:      -8.4      7.027      9.371
REMARK  9 active torsions:
REMARK  status: ('A' for Active; 'I' for Inactive)
REMARK    1  A    between atoms: C_2  and  O_3 
REMARK    2  A    between atoms: O_3  and  C_4 
REMARK    3  A    between atoms: C_4  and  C_5 
REMARK    4  A    between atoms: C_7  and  C_8 
REMARK       I    between atoms: C_8  and  N_9 
REMARK    5  A    between atoms: N_9  and  N_10 
REMARK    6  A    between atoms: N_10  and  C_11 
REMARK    7  A    between atoms: C_11  and  N_12 
REMARK    8  A    between atoms: N_12  and  C_13 
REMARK    9  A    between atoms: C_13  and  C_14 
ROOT
HETATM    1  C   UNL     1      -7.497   2.380 -32.362  1.00  0.00     0.078 A 
HETATM    2  O   UNL     1      -8.704   2.992 -32.199  1.00  0.00    -0.307 OA
HETATM    3  C   UNL     1      -8.758   3.475 -30.917  1.00  0.00     0.145 A 
HETATM    4  C   UNL     1      -7.566   3.178 -30.275  1.00  0.00     0.045 A 
HETATM    5  C   UNL     1      -6.760   2.475 -31.202  1.00  0.00     0.038 A 
ENDROOT
BRANCH   3   6
HETATM    6  C   UNL     1      -9.968   4.151 -30.491  1.00  0.00     0.293 C 
HETATM    7  N   UNL     1     -11.067   3.321 -30.330  1.00  0.00    -0.262 N 
HETATM    8  H   UNL     1     -10.976   2.310 -30.291  1.00  0.00     0.190 HD
HETATM    9  O   UNL     1     -10.061   5.361 -30.276  1.00  0.00    -0.264 OA
BRANCH   7  10
HETATM   10  N   UNL     1     -12.243   3.860 -29.771  1.00  0.00    -0.274 N 
HETATM   11  H   UNL     1     -12.437   3.518 -28.831  1.00  0.00     0.189 HD
BRANCH  10  12
HETATM   12  C   UNL     1     -13.299   4.187 -30.582  1.00  0.00     0.186 C 
HETATM   13  S   UNL     1     -13.958   5.720 -30.723  1.00  0.00    -0.040 SA
BRANCH  12  14
HETATM   14  N   UNL     1     -13.882   3.170 -31.269  1.00  0.00    -0.364 N 
HETATM   15  H   UNL     1     -14.058   2.340 -30.711  1.00  0.00     0.162 HD
BRANCH  14  16
HETATM   16  C   UNL     1     -13.991   2.964 -32.711  1.00  0.00     0.154 C 
BRANCH  16  17
HETATM   17  C   UNL     1     -13.162   1.770 -33.214  1.00  0.00     0.139 C 
HETATM   18  O   UNL     1     -11.759   2.108 -33.169  1.00  0.00    -0.384 OA
HETATM   19  C   UNL     1     -11.187   1.846 -34.457  1.00  0.00     0.168 C 
HETATM   20  C   UNL     1     -12.327   1.865 -35.447  1.00  0.00     0.029 C 
HETATM   21  C   UNL     1     -13.473   1.318 -34.635  1.00  0.00     0.035 C 
ENDBRANCH  16  17
ENDBRANCH  14  16
ENDBRANCH  12  14
ENDBRANCH  10  12
ENDBRANCH   7  10
ENDBRANCH   3   6
BRANCH   1  22
HETATM   22  C   UNL     1      -7.228   1.761 -33.686  1.00  0.00     0.240 C 
BRANCH  22  23
HETATM   23  O   UNL     1      -7.655   0.405 -33.585  1.00  0.00    -0.345 OA
BRANCH  23  24
HETATM   24  C   UNL     1      -6.690  -0.557 -33.715  1.00  0.00     0.069 A 
HETATM   25  C   UNL     1      -5.357  -0.443 -33.286  1.00  0.00     0.037 A 
HETATM   26  C   UNL     1      -4.459  -1.504 -33.454  1.00  0.00     0.010 A 
HETATM   27  C   UNL     1      -4.914  -2.668 -34.045  1.00  0.00    -0.052 A 
HETATM   28  C   UNL     1      -6.238  -2.786 -34.475  1.00  0.00    -0.049 A 
HETATM   29  C   UNL     1      -4.138  -3.908 -34.365  1.00  0.00     0.039 C 
HETATM   30  C   UNL     1      -7.132  -1.741 -34.315  1.00  0.00     0.044 A 
HETATM   31  C   UNL     1      -6.472  -4.108 -35.133  1.00  0.00     0.039 C 
HETATM   32  C   UNL     1      -5.272  -4.914 -34.613  1.00  0.00     0.009 C 
ENDBRANCH  23  24
ENDBRANCH  22  23
ENDBRANCH   1  22
TORSDOF 9
ENDMDL
MODEL 3
REMARK VINA RESULT:      -8.2      1.949      2.960
REMARK  9 active torsions:
REMARK  status: ('A' for Active; 'I' for Inactive)
REMARK    1  A    between atoms: C_2  and  O_3 
REMARK    2  A    between atoms: O_3  and  C_4 
REMARK    3  A    between atoms: C_4  and  C_5 
REMARK    4  A    between atoms: C_7  and  C_8 
REMARK       I    between atoms: C_8  and  N_9 
REMARK    5  A    between atoms: N_9  and  N_10 
REMARK    6  A    between atoms: N_10  and  C_11 
REMARK    7  A    between atoms: C_11  and  N_12 
REMARK    8  A    between atoms: N_12  and  C_13 
REMARK    9  A    between atoms: C_13  and  C_14 
ROOT
HETATM    1  C   UNL     1      -5.250   3.322 -33.317  1.00  0.00     0.078 A 
HETATM    2  O   UNL     1      -4.104   3.420 -32.586  1.00  0.00    -0.307 OA
HETATM    3  C   UNL     1      -3.501   4.607 -32.911  1.00  0.00     0.145 A 
HETATM    4  C   UNL     1      -4.283   5.267 -33.845  1.00  0.00     0.045 A 
HETATM    5  C   UNL     1      -5.404   4.442 -34.104  1.00  0.00     0.038 A 
ENDROOT
BRANCH   3   6
HETATM    6  C   UNL     1      -2.237   4.929 -32.276  1.00  0.00     0.293 C 
HETATM    7  N   UNL     1      -2.330   5.230 -30.925  1.00  0.00    -0.262 N 
HETATM    8  H   UNL     1      -3.164   5.023 -30.384  1.00  0.00     0.190 HD
HETATM    9  O   UNL     1      -1.145   4.944 -32.847  1.00  0.00    -0.264 OA
BRANCH   7  10
HETATM   10  N   UNL     1      -1.141   5.403 -30.190  1.00  0.00    -0.274 N 
HETATM   11  H   UNL     1      -0.650   4.530 -30.005  1.00  0.00     0.189 HD
BRANCH  10  12
HETATM   12  C   UNL     1      -1.044   6.418 -29.274  1.00  0.00     0.186 C 
HETATM   13  S   UNL     1      -1.454   8.016 -29.569  1.00  0.00    -0.040 SA
BRANCH  12  14
HETATM   14  N   UNL     1      -0.518   6.102 -28.062  1.00  0.00    -0.364 N 
HETATM   15  H   UNL     1       0.036   5.251 -28.059  1.00  0.00     0.162 HD
BRANCH  14  16
HETATM   16  C   UNL     1      -0.881   6.593 -26.735  1.00  0.00     0.154 C 
BRANCH  16  17
HETATM   17  C   UNL     1       0.179   7.528 -26.127  1.00  0.00     0.139 C 
HETATM   18  O   UNL     1      -0.261   8.897 -26.254  1.00  0.00    -0.384 OA
HETATM   19  C   UNL     1       0.782   9.654 -26.879  1.00  0.00     0.168 C 
HETATM   20  C   UNL     1       1.643   8.665 -27.630  1.00  0.00     0.029 C 
HETATM   21  C   UNL     1       1.563   7.438 -26.759  1.00  0.00     0.035 C 
ENDBRANCH  16  17
ENDBRANCH  14  16
ENDBRANCH  12  14
ENDBRANCH  10  12
ENDBRANCH   7  10
ENDBRANCH   3   6
BRANCH   1  22
HETATM   22  C   UNL     1      -6.064   2.092 -33.134  1.00  0.00     0.240 C 
BRANCH  22  23
HETATM   23  O   UNL     1      -5.158   0.997 -33.243  1.00  0.00    -0.345 OA
BRANCH  23  24
HETATM   24  C   UNL     1      -5.679  -0.195 -33.668  1.00  0.00     0.069 A 
HETATM   25  C   UNL     1      -7.001  -0.404 -34.095  1.00  0.00     0.037 A 
HETATM   26  C   UNL     1      -7.421  -1.668 -34.530  1.00  0.00     0.010 A 
HETATM   27  C   UNL     1      -6.503  -2.702 -34.537  1.00  0.00    -0.052 A 
HETATM   28  C   UNL     1      -5.188  -2.499 -34.112  1.00  0.00    -0.049 A 
HETATM   29  C   UNL     1      -6.725  -4.133 -34.916  1.00  0.00     0.039 C 
HETATM   30  C   UNL     1      -4.765  -1.254 -33.679  1.00  0.00     0.044 A 
HETATM   31  C   UNL     1      -4.408  -3.775 -34.154  1.00  0.00     0.039 C 
HETATM   32  C   UNL     1      -5.280  -4.624 -35.092  1.00  0.00     0.009 C 
ENDBRANCH  23  24
ENDBRANCH  22  23
ENDBRANCH   1  22
TORSDOF 9
ENDMDL
MODEL 4
REMARK VINA RESULT:      -8.1      3.058      4.217
REMARK  9 active torsions:
REMARK  status: ('A' for Active; 'I' for Inactive)
REMARK    1  A    between atoms: C_2  and  O_3 
REMARK    2  A    between atoms: O_3  and  C_4 
REMARK    3  A    between atoms: C_4  and  C_5 
REMARK    4  A    between atoms: C_7  and  C_8 
REMARK       I    between atoms: C_8  and  N_9 
REMARK    5  A    between atoms: N_9  and  N_10 
REMARK    6  A    between atoms: N_10  and  C_11 
REMARK    7  A    between atoms: C_11  and  N_12 
REMARK    8  A    between atoms: N_12  and  C_13 
REMARK    9  A    between atoms: C_13  and  C_14 
ROOT
HETATM    1  C   UNL     1      -7.070   2.456 -31.301  1.00  0.00     0.078 A 
HETATM    2  O   UNL     1      -7.100   2.895 -30.012  1.00  0.00    -0.307 OA
HETATM    3  C   UNL     1      -6.548   4.149 -29.985  1.00  0.00     0.145 A 
HETATM    4  C   UNL     1      -6.182   4.506 -31.273  1.00  0.00     0.045 A 
HETATM    5  C   UNL     1      -6.517   3.419 -32.115  1.00  0.00     0.038 A 
ENDROOT
BRANCH   3   6
HETATM    6  C   UNL     1      -6.442   4.823 -28.705  1.00  0.00     0.293 C 
HETATM    7  N   UNL     1      -5.213   4.682 -28.078  1.00  0.00    -0.262 N 
HETATM    8  H   UNL     1      -4.394   4.336 -28.570  1.00  0.00     0.190 HD
HETATM    9  O   UNL     1      -7.342   5.479 -28.177  1.00  0.00    -0.264 OA
BRANCH   7  10
HETATM   10  N   UNL     1      -4.963   5.427 -26.908  1.00  0.00    -0.274 N 
HETATM   11  H   UNL     1      -5.716   5.367 -26.224  1.00  0.00     0.189 HD
BRANCH  10  12
HETATM   12  C   UNL     1      -4.225   6.579 -26.974  1.00  0.00     0.186 C 
HETATM   13  S   UNL     1      -4.846   8.125 -26.791  1.00  0.00    -0.040 SA
BRANCH  12  14
HETATM   14  N   UNL     1      -2.906   6.446 -27.271  1.00  0.00    -0.364 N 
HETATM   15  H   UNL     1      -2.556   5.496 -27.192  1.00  0.00     0.162 HD
BRANCH  14  16
HETATM   16  C   UNL     1      -1.866   7.468 -27.362  1.00  0.00     0.154 C 
BRANCH  16  17
HETATM   17  C   UNL     1      -0.457   6.879 -27.545  1.00  0.00     0.139 C 
HETATM   18  O   UNL     1       0.259   6.952 -26.294  1.00  0.00    -0.384 OA
HETATM   19  C   UNL     1       1.517   7.598 -26.526  1.00  0.00     0.168 C 
HETATM   20  C   UNL     1       1.358   8.408 -27.791  1.00  0.00     0.029 C 
HETATM   21  C   UNL     1       0.402   7.568 -28.598  1.00  0.00     0.035 C 
ENDBRANCH  16  17
ENDBRANCH  14  16
ENDBRANCH  12  14
ENDBRANCH  10  12
ENDBRANCH   7  10
ENDBRANCH   3   6
BRANCH   1  22
HETATM   22  C   UNL     1      -7.608   1.095 -31.563  1.00  0.00     0.240 C 
BRANCH  22  23
HETATM   23  O   UNL     1      -7.435   0.862 -32.959  1.00  0.00    -0.345 OA
BRANCH  23  24
HETATM   24  C   UNL     1      -6.560  -0.129 -33.315  1.00  0.00     0.069 A 
HETATM   25  C   UNL     1      -5.166  -0.089 -33.147  1.00  0.00     0.037 A 
HETATM   26  C   UNL     1      -4.368  -1.172 -33.532  1.00  0.00     0.010 A 
HETATM   27  C   UNL     1      -4.982  -2.286 -34.074  1.00  0.00    -0.052 A 
HETATM   28  C   UNL     1      -6.368  -2.330 -34.245  1.00  0.00    -0.049 A 
HETATM   29  C   UNL     1      -4.342  -3.537 -34.592  1.00  0.00     0.039 C 
HETATM   30  C   UNL     1      -7.165  -1.262 -33.869  1.00  0.00     0.044 A 
HETATM   31  C   UNL     1      -6.786  -3.607 -34.903  1.00  0.00     0.039 C 
HETATM   32  C   UNL     1      -5.549  -4.484 -34.660  1.00  0.00     0.009 C 
ENDBRANCH  23  24
ENDBRANCH  22  23
ENDBRANCH   1  22
TORSDOF 9
ENDMDL
MODEL 5
REMARK VINA RESULT:      -8.1      2.771      4.730
REMARK  9 active torsions:
REMARK  status: ('A' for Active; 'I' for Inactive)
REMARK    1  A    between atoms: C_2  and  O_3 
REMARK    2  A    between atoms: O_3  and  C_4 
REMARK    3  A    between atoms: C_4  and  C_5 
REMARK    4  A    between atoms: C_7  and  C_8 
REMARK       I    between atoms: C_8  and  N_9 
REMARK    5  A    between atoms: N_9  and  N_10 
REMARK    6  A    between atoms: N_10  and  C_11 
REMARK    7  A    between atoms: C_11  and  N_12 
REMARK    8  A    between atoms: N_12  and  C_13 
REMARK    9  A    between atoms: C_13  and  C_14 
ROOT
HETATM    1  C   UNL     1      -7.190   2.105 -32.823  1.00  0.00     0.078 A 
HETATM    2  O   UNL     1      -6.501   3.232 -32.485  1.00  0.00    -0.307 OA
HETATM    3  C   UNL     1      -6.835   3.555 -31.196  1.00  0.00     0.145 A 
HETATM    4  C   UNL     1      -7.730   2.613 -30.714  1.00  0.00     0.045 A 
HETATM    5  C   UNL     1      -7.957   1.685 -31.759  1.00  0.00     0.038 A 
ENDROOT
BRANCH   3   6
HETATM    6  C   UNL     1      -6.244   4.744 -30.614  1.00  0.00     0.293 C 
HETATM    7  N   UNL     1      -5.016   4.539 -30.001  1.00  0.00    -0.262 N 
HETATM    8  H   UNL     1      -4.479   3.689 -30.145  1.00  0.00     0.190 HD
HETATM    9  O   UNL     1      -6.751   5.867 -30.638  1.00  0.00    -0.264 OA
BRANCH   7  10
HETATM   10  N   UNL     1      -4.295   5.659 -29.545  1.00  0.00    -0.274 N 
HETATM   11  H   UNL     1      -4.845   6.282 -28.956  1.00  0.00     0.189 HD
BRANCH  10  12
HETATM   12  C   UNL     1      -3.302   6.197 -30.322  1.00  0.00     0.186 C 
HETATM   13  S   UNL     1      -3.044   7.838 -30.544  1.00  0.00    -0.040 SA
BRANCH  12  14
HETATM   14  N   UNL     1      -2.517   5.324 -31.006  1.00  0.00    -0.364 N 
HETATM   15  H   UNL     1      -2.509   4.384 -30.621  1.00  0.00     0.162 HD
BRANCH  14  16
HETATM   16  C   UNL     1      -1.459   5.589 -31.977  1.00  0.00     0.154 C 
BRANCH  16  17
HETATM   17  C   UNL     1      -0.047   5.467 -31.378  1.00  0.00     0.139 C 
HETATM   18  O   UNL     1      -0.108   4.696 -30.160  1.00  0.00    -0.384 OA
HETATM   19  C   UNL     1       0.529   5.443 -29.116  1.00  0.00     0.168 C 
HETATM   20  C   UNL     1       0.503   6.891 -29.544  1.00  0.00     0.029 C 
HETATM   21  C   UNL     1       0.631   6.789 -31.043  1.00  0.00     0.035 C 
ENDBRANCH  16  17
ENDBRANCH  14  16
ENDBRANCH  12  14
ENDBRANCH  10  12
ENDBRANCH   7  10
ENDBRANCH   3   6
BRANCH   1  22
HETATM   22  C   UNL     1      -6.992   1.580 -34.199  1.00  0.00     0.240 C 
BRANCH  22  23
HETATM   23  O   UNL     1      -7.432   0.225 -34.174  1.00  0.00    -0.345 OA
BRANCH  23  24
HETATM   24  C   UNL     1      -6.460  -0.739 -34.140  1.00  0.00     0.069 A 
HETATM   25  C   UNL     1      -5.153  -0.566 -33.656  1.00  0.00     0.037 A 
HETATM   26  C   UNL     1      -4.245  -1.632 -33.651  1.00  0.00     0.010 A 
HETATM   27  C   UNL     1      -4.666  -2.861 -34.126  1.00  0.00    -0.052 A 
HETATM   28  C   UNL     1      -5.965  -3.037 -34.610  1.00  0.00    -0.049 A 
HETATM   29  C   UNL     1      -3.873  -4.123 -34.258  1.00  0.00     0.039 C 
HETATM   30  C   UNL     1      -6.868  -1.988 -34.621  1.00  0.00     0.044 A 
HETATM   31  C   UNL     1      -6.161  -4.429 -35.122  1.00  0.00     0.039 C 
HETATM   32  C   UNL     1      -4.991  -5.160 -34.448  1.00  0.00     0.009 C 
ENDBRANCH  23  24
ENDBRANCH  22  23
ENDBRANCH   1  22
TORSDOF 9
ENDMDL
MODEL 6
REMARK VINA RESULT:      -8.0      2.856      4.849
REMARK  9 active torsions:
REMARK  status: ('A' for Active; 'I' for Inactive)
REMARK    1  A    between atoms: C_2  and  O_3 
REMARK    2  A    between atoms: O_3  and  C_4 
REMARK    3  A    between atoms: C_4  and  C_5 
REMARK    4  A    between atoms: C_7  and  C_8 
REMARK       I    between atoms: C_8  and  N_9 
REMARK    5  A    between atoms: N_9  and  N_10 
REMARK    6  A    between atoms: N_10  and  C_11 
REMARK    7  A    between atoms: C_11  and  N_12 
REMARK    8  A    between atoms: N_12  and  C_13 
REMARK    9  A    between atoms: C_13  and  C_14 
ROOT
HETATM    1  C   UNL     1      -6.613   2.537 -32.067  1.00  0.00     0.078 A 
HETATM    2  O   UNL     1      -5.802   3.497 -31.539  1.00  0.00    -0.307 OA
HETATM    3  C   UNL     1      -6.236   3.756 -30.265  1.00  0.00     0.145 A 
HETATM    4  C   UNL     1      -7.321   2.940 -29.986  1.00  0.00     0.045 A 
HETATM    5  C   UNL     1      -7.561   2.160 -31.142  1.00  0.00     0.038 A 
ENDROOT
BRANCH   3   6
HETATM    6  C   UNL     1      -5.541   4.772 -29.499  1.00  0.00     0.293 C 
HETATM    7  N   UNL     1      -4.351   5.207 -30.062  1.00  0.00    -0.262 N 
HETATM    8  H   UNL     1      -4.106   5.002 -31.027  1.00  0.00     0.190 HD
HETATM    9  O   UNL     1      -5.937   5.243 -28.431  1.00  0.00    -0.264 OA
BRANCH   7  10
HETATM   10  N   UNL     1      -3.685   6.299 -29.472  1.00  0.00    -0.274 N 
HETATM   11  H   UNL     1      -3.911   6.426 -28.487  1.00  0.00     0.189 HD
BRANCH  10  12
HETATM   12  C   UNL     1      -3.383   7.405 -30.225  1.00  0.00     0.186 C 
HETATM   13  S   UNL     1      -3.473   8.987 -29.679  1.00  0.00    -0.040 SA
BRANCH  12  14
HETATM   14  N   UNL     1      -3.048   7.190 -31.523  1.00  0.00    -0.364 N 
HETATM   15  H   UNL     1      -3.414   6.324 -31.909  1.00  0.00     0.162 HD
BRANCH  14  16
HETATM   16  C   UNL     1      -2.006   7.819 -32.331  1.00  0.00     0.154 C 
BRANCH  16  17
HETATM   17  C   UNL     1      -1.015   6.806 -32.932  1.00  0.00     0.139 C 
HETATM   18  O   UNL     1      -1.141   6.809 -34.369  1.00  0.00    -0.384 OA
HETATM   19  C   UNL     1      -1.339   5.460 -34.812  1.00  0.00     0.168 C 
HETATM   20  C   UNL     1      -1.879   4.694 -33.627  1.00  0.00     0.029 C 
HETATM   21  C   UNL     1      -1.195   5.367 -32.465  1.00  0.00     0.035 C 
ENDBRANCH  16  17
ENDBRANCH  14  16
ENDBRANCH  12  14
ENDBRANCH  10  12
ENDBRANCH   7  10
ENDBRANCH   3   6
BRANCH   1  22
HETATM   22  C   UNL     1      -6.334   2.111 -33.464  1.00  0.00     0.240 C 
BRANCH  22  23
HETATM   23  O   UNL     1      -7.005   0.866 -33.641  1.00  0.00    -0.345 OA
BRANCH  23  24
HETATM   24  C   UNL     1      -6.218  -0.245 -33.779  1.00  0.00     0.069 A 
HETATM   25  C   UNL     1      -4.869  -0.345 -33.400  1.00  0.00     0.037 A 
HETATM   26  C   UNL     1      -4.165  -1.543 -33.572  1.00  0.00     0.010 A 
HETATM   27  C   UNL     1      -4.829  -2.628 -34.114  1.00  0.00    -0.052 A 
HETATM   28  C   UNL     1      -6.170  -2.533 -34.494  1.00  0.00    -0.049 A 
HETATM   29  C   UNL     1      -4.282  -3.986 -34.428  1.00  0.00     0.039 C 
HETATM   30  C   UNL     1      -6.873  -1.352 -34.331  1.00  0.00     0.044 A 
HETATM   31  C   UNL     1      -6.645  -3.812 -35.108  1.00  0.00     0.039 C 
HETATM   32  C   UNL     1      -5.575  -4.795 -34.609  1.00  0.00     0.009 C 
ENDBRANCH  23  24
ENDBRANCH  22  23
ENDBRANCH   1  22
TORSDOF 9
ENDMDL
MODEL 7
REMARK VINA RESULT:      -8.0      2.868      4.664
REMARK  9 active torsions:
REMARK  status: ('A' for Active; 'I' for Inactive)
REMARK    1  A    between atoms: C_2  and  O_3 
REMARK    2  A    between atoms: O_3  and  C_4 
REMARK    3  A    between atoms: C_4  and  C_5 
REMARK    4  A    between atoms: C_7  and  C_8 
REMARK       I    between atoms: C_8  and  N_9 
REMARK    5  A    between atoms: N_9  and  N_10 
REMARK    6  A    between atoms: N_10  and  C_11 
REMARK    7  A    between atoms: C_11  and  N_12 
REMARK    8  A    between atoms: N_12  and  C_13 
REMARK    9  A    between atoms: C_13  and  C_14 
ROOT
HETATM    1  C   UNL     1      -7.288   0.910 -31.659  1.00  0.00     0.078 A 
HETATM    2  O   UNL     1      -6.881   2.193 -31.869  1.00  0.00    -0.307 OA
HETATM    3  C   UNL     1      -6.061   2.546 -30.828  1.00  0.00     0.145 A 
HETATM    4  C   UNL     1      -5.942   1.468 -29.965  1.00  0.00     0.045 A 
HETATM    5  C   UNL     1      -6.730   0.421 -30.499  1.00  0.00     0.038 A 
ENDROOT
BRANCH   3   6
HETATM    6  C   UNL     1      -5.517   3.890 -30.812  1.00  0.00     0.293 C 
HETATM    7  N   UNL     1      -4.170   3.964 -30.490  1.00  0.00    -0.262 N 
HETATM    8  H   UNL     1      -3.571   3.143 -30.490  1.00  0.00     0.190 HD
HETATM    9  O   UNL     1      -6.158   4.913 -31.060  1.00  0.00    -0.264 OA
BRANCH   7  10
HETATM   10  N   UNL     1      -3.517   5.207 -30.600  1.00  0.00    -0.274 N 
HETATM   11  H   UNL     1      -4.050   5.980 -30.204  1.00  0.00     0.189 HD
BRANCH  10  12
HETATM   12  C   UNL     1      -2.694   5.457 -31.668  1.00  0.00     0.186 C 
HETATM   13  S   UNL     1      -2.432   4.399 -32.941  1.00  0.00    -0.040 SA
BRANCH  12  14
HETATM   14  N   UNL     1      -2.001   6.624 -31.648  1.00  0.00    -0.364 N 
HETATM   15  H   UNL     1      -1.627   6.901 -32.550  1.00  0.00     0.162 HD
BRANCH  14  16
HETATM   16  C   UNL     1      -1.442   7.355 -30.513  1.00  0.00     0.154 C 
BRANCH  16  17
HETATM   17  C   UNL     1       0.030   7.005 -30.236  1.00  0.00     0.139 C 
HETATM   18  O   UNL     1       0.180   5.570 -30.182  1.00  0.00    -0.384 OA
HETATM   19  C   UNL     1       0.843   5.228 -28.958  1.00  0.00     0.168 C 
HETATM   20  C   UNL     1       0.620   6.381 -28.010  1.00  0.00     0.029 C 
HETATM   21  C   UNL     1       0.598   7.568 -28.939  1.00  0.00     0.035 C 
ENDBRANCH  16  17
ENDBRANCH  14  16
ENDBRANCH  12  14
ENDBRANCH  10  12
ENDBRANCH   7  10
ENDBRANCH   3   6
BRANCH   1  22
HETATM   22  C   UNL     1      -8.209   0.321 -32.667  1.00  0.00     0.240 C 
BRANCH  22  23
HETATM   23  O   UNL     1      -7.474   0.258 -33.887  1.00  0.00    -0.345 OA
BRANCH  23  24
HETATM   24  C   UNL     1      -6.506  -0.706 -33.974  1.00  0.00     0.069 A 
HETATM   25  C   UNL     1      -5.148  -0.532 -33.659  1.00  0.00     0.037 A 
HETATM   26  C   UNL     1      -4.246  -1.598 -33.769  1.00  0.00     0.010 A 
HETATM   27  C   UNL     1      -4.724  -2.827 -34.185  1.00  0.00    -0.052 A 
HETATM   28  C   UNL     1      -6.073  -3.005 -34.501  1.00  0.00    -0.049 A 
HETATM   29  C   UNL     1      -3.953  -4.090 -34.415  1.00  0.00     0.039 C 
HETATM   30  C   UNL     1      -6.970  -1.955 -34.399  1.00  0.00     0.044 A 
HETATM   31  C   UNL     1      -6.332  -4.397 -34.983  1.00  0.00     0.039 C 
HETATM   32  C   UNL     1      -5.086  -5.127 -34.461  1.00  0.00     0.009 C 
ENDBRANCH  23  24
ENDBRANCH  22  23
ENDBRANCH   1  22
TORSDOF 9
ENDMDL
MODEL 8
REMARK VINA RESULT:      -8.0      2.249      3.374
REMARK  9 active torsions:
REMARK  status: ('A' for Active; 'I' for Inactive)
REMARK    1  A    between atoms: C_2  and  O_3 
REMARK    2  A    between atoms: O_3  and  C_4 
REMARK    3  A    between atoms: C_4  and  C_5 
REMARK    4  A    between atoms: C_7  and  C_8 
REMARK       I    between atoms: C_8  and  N_9 
REMARK    5  A    between atoms: N_9  and  N_10 
REMARK    6  A    between atoms: N_10  and  C_11 
REMARK    7  A    between atoms: C_11  and  N_12 
REMARK    8  A    between atoms: N_12  and  C_13 
REMARK    9  A    between atoms: C_13  and  C_14 
ROOT
HETATM    1  C   UNL     1      -5.978   2.755 -33.146  1.00  0.00     0.078 A 
HETATM    2  O   UNL     1      -4.754   2.915 -32.568  1.00  0.00    -0.307 OA
HETATM    3  C   UNL     1      -4.188   4.048 -33.093  1.00  0.00     0.145 A 
HETATM    4  C   UNL     1      -5.072   4.613 -33.998  1.00  0.00     0.045 A 
HETATM    5  C   UNL     1      -6.218   3.783 -34.031  1.00  0.00     0.038 A 
ENDROOT
BRANCH   3   6
HETATM    6  C   UNL     1      -2.858   4.417 -32.649  1.00  0.00     0.293 C 
HETATM    7  N   UNL     1      -2.747   4.646 -31.285  1.00  0.00    -0.262 N 
HETATM    8  H   UNL     1      -3.470   4.360 -30.632  1.00  0.00     0.190 HD
HETATM    9  O   UNL     1      -1.876   4.529 -33.384  1.00  0.00    -0.264 OA
BRANCH   7  10
HETATM   10  N   UNL     1      -1.466   4.857 -30.739  1.00  0.00    -0.274 N 
HETATM   11  H   UNL     1      -1.109   4.054 -30.224  1.00  0.00     0.189 HD
BRANCH  10  12
HETATM   12  C   UNL     1      -1.091   6.114 -30.339  1.00  0.00     0.186 C 
HETATM   13  S   UNL     1      -1.748   7.540 -30.925  1.00  0.00    -0.040 SA
BRANCH  12  14
HETATM   14  N   UNL     1      -0.070   6.194 -29.447  1.00  0.00    -0.364 N 
HETATM   15  H   UNL     1       0.041   5.368 -28.867  1.00  0.00     0.162 HD
BRANCH  14  16
HETATM   16  C   UNL     1       0.663   7.366 -28.976  1.00  0.00     0.154 C 
BRANCH  16  17
HETATM   17  C   UNL     1       0.336   7.735 -27.518  1.00  0.00     0.139 C 
HETATM   18  O   UNL     1       0.013   9.140 -27.441  1.00  0.00    -0.384 OA
HETATM   19  C   UNL     1       0.828   9.739 -26.426  1.00  0.00     0.168 C 
HETATM   20  C   UNL     1       2.029   8.841 -26.251  1.00  0.00     0.029 C 
HETATM   21  C   UNL     1       1.454   7.473 -26.517  1.00  0.00     0.035 C 
ENDBRANCH  16  17
ENDBRANCH  14  16
ENDBRANCH  12  14
ENDBRANCH  10  12
ENDBRANCH   7  10
ENDBRANCH   3   6
BRANCH   1  22
HETATM   22  C   UNL     1      -6.769   1.567 -32.733  1.00  0.00     0.240 C 
BRANCH  22  23
HETATM   23  O   UNL     1      -6.859   0.731 -33.884  1.00  0.00    -0.345 OA
BRANCH  23  24
HETATM   24  C   UNL     1      -6.068  -0.386 -33.898  1.00  0.00     0.069 A 
HETATM   25  C   UNL     1      -4.774  -0.480 -33.358  1.00  0.00     0.037 A 
HETATM   26  C   UNL     1      -4.062  -1.684 -33.413  1.00  0.00     0.010 A 
HETATM   27  C   UNL     1      -4.663  -2.781 -34.002  1.00  0.00    -0.052 A 
HETATM   28  C   UNL     1      -5.949  -2.693 -34.541  1.00  0.00    -0.049 A 
HETATM   29  C   UNL     1      -4.091  -4.149 -34.212  1.00  0.00     0.039 C 
HETATM   30  C   UNL     1      -6.659  -1.505 -34.494  1.00  0.00     0.044 A 
HETATM   31  C   UNL     1      -6.355  -3.986 -35.173  1.00  0.00     0.039 C 
HETATM   32  C   UNL     1      -5.358  -4.959 -34.525  1.00  0.00     0.009 C 
ENDBRANCH  23  24
ENDBRANCH  22  23
ENDBRANCH   1  22
TORSDOF 9
ENDMDL
MODEL 9
REMARK VINA RESULT:      -7.8      5.602      7.700
REMARK  9 active torsions:
REMARK  status: ('A' for Active; 'I' for Inactive)
REMARK    1  A    between atoms: C_2  and  O_3 
REMARK    2  A    between atoms: O_3  and  C_4 
REMARK    3  A    between atoms: C_4  and  C_5 
REMARK    4  A    between atoms: C_7  and  C_8 
REMARK       I    between atoms: C_8  and  N_9 
REMARK    5  A    between atoms: N_9  and  N_10 
REMARK    6  A    between atoms: N_10  and  C_11 
REMARK    7  A    between atoms: C_11  and  N_12 
REMARK    8  A    between atoms: N_12  and  C_13 
REMARK    9  A    between atoms: C_13  and  C_14 
ROOT
HETATM    1  C   UNL     1      -3.833   1.936 -32.170  1.00  0.00     0.078 A 
HETATM    2  O   UNL     1      -4.788   2.358 -33.046  1.00  0.00    -0.307 OA
HETATM    3  C   UNL     1      -5.399   3.456 -32.499  1.00  0.00     0.145 A 
HETATM    4  C   UNL     1      -4.812   3.735 -31.276  1.00  0.00     0.045 A 
HETATM    5  C   UNL     1      -3.808   2.759 -31.066  1.00  0.00     0.038 A 
ENDROOT
BRANCH   3   6
HETATM    6  C   UNL     1      -6.481   4.077 -33.241  1.00  0.00     0.293 C 
HETATM    7  N   UNL     1      -7.752   3.725 -32.811  1.00  0.00    -0.262 N 
HETATM    8  H   UNL     1      -7.909   3.260 -31.922  1.00  0.00     0.190 HD
HETATM    9  O   UNL     1      -6.332   4.860 -34.180  1.00  0.00    -0.264 OA
BRANCH   7  10
HETATM   10  N   UNL     1      -8.860   4.394 -33.366  1.00  0.00    -0.274 N 
HETATM   11  H   UNL     1      -9.318   5.028 -32.714  1.00  0.00     0.189 HD
BRANCH  10  12
HETATM   12  C   UNL     1      -9.621   3.778 -34.327  1.00  0.00     0.186 C 
HETATM   13  S   UNL     1     -10.765   4.547 -35.279  1.00  0.00    -0.040 SA
BRANCH  12  14
HETATM   14  N   UNL     1      -9.467   2.435 -34.462  1.00  0.00    -0.364 N 
HETATM   15  H   UNL     1      -8.728   2.164 -35.104  1.00  0.00     0.162 HD
BRANCH  14  16
HETATM   16  C   UNL     1     -10.380   1.354 -34.100  1.00  0.00     0.154 C 
BRANCH  16  17
HETATM   17  C   UNL     1      -9.863   0.492 -32.936  1.00  0.00     0.139 C 
HETATM   18  O   UNL     1      -9.367   1.352 -31.887  1.00  0.00    -0.384 OA
HETATM   19  C   UNL     1      -8.036   0.940 -31.552  1.00  0.00     0.168 C 
HETATM   20  C   UNL     1      -7.504   0.188 -32.748  1.00  0.00     0.029 C 
HETATM   21  C   UNL     1      -8.742  -0.476 -33.293  1.00  0.00     0.035 C 
ENDBRANCH  16  17
ENDBRANCH  14  16
ENDBRANCH  12  14
ENDBRANCH  10  12
ENDBRANCH   7  10
ENDBRANCH   3   6
BRANCH   1  22
HETATM   22  C   UNL     1      -3.049   0.733 -32.555  1.00  0.00     0.240 C 
BRANCH  22  23
HETATM   23  O   UNL     1      -3.491  -0.319 -31.701  1.00  0.00    -0.345 OA
BRANCH  23  24
HETATM   24  C   UNL     1      -3.677  -1.546 -32.278  1.00  0.00     0.069 A 
HETATM   25  C   UNL     1      -3.037  -2.737 -31.895  1.00  0.00     0.037 A 
HETATM   26  C   UNL     1      -3.321  -3.942 -32.548  1.00  0.00     0.010 A 
HETATM   27  C   UNL     1      -4.251  -3.937 -33.571  1.00  0.00    -0.052 A 
HETATM   28  C   UNL     1      -4.889  -2.756 -33.956  1.00  0.00    -0.049 A 
HETATM   29  C   UNL     1      -4.684  -5.082 -34.433  1.00  0.00     0.039 C 
HETATM   30  C   UNL     1      -4.612  -1.559 -33.319  1.00  0.00     0.044 A 
HETATM   31  C   UNL     1      -5.799  -2.994 -35.119  1.00  0.00     0.039 C 
HETATM   32  C   UNL     1      -5.972  -4.518 -35.053  1.00  0.00     0.009 C 
ENDBRANCH  23  24
ENDBRANCH  22  23
ENDBRANCH   1  22
TORSDOF 9
ENDMDL
MODEL 10
REMARK VINA RESULT:      -7.7      5.923      8.649
REMARK  9 active torsions:
REMARK  status: ('A' for Active; 'I' for Inactive)
REMARK    1  A    between atoms: C_2  and  O_3 
REMARK    2  A    between atoms: O_3  and  C_4 
REMARK    3  A    between atoms: C_4  and  C_5 
REMARK    4  A    between atoms: C_7  and  C_8 
REMARK       I    between atoms: C_8  and  N_9 
REMARK    5  A    between atoms: N_9  and  N_10 
REMARK    6  A    between atoms: N_10  and  C_11 
REMARK    7  A    between atoms: C_11  and  N_12 
REMARK    8  A    between atoms: N_12  and  C_13 
REMARK    9  A    between atoms: C_13  and  C_14 
ROOT
HETATM    1  C   UNL     1      -5.747   5.724 -33.168  1.00  0.00     0.078 A 
HETATM    2  O   UNL     1      -6.660   5.065 -33.935  1.00  0.00    -0.307 OA
HETATM    3  C   UNL     1      -7.903   5.539 -33.605  1.00  0.00     0.145 A 
HETATM    4  C   UNL     1      -7.767   6.515 -32.631  1.00  0.00     0.045 A 
HETATM    5  C   UNL     1      -6.384   6.632 -32.352  1.00  0.00     0.038 A 
ENDROOT
BRANCH   3   6
HETATM    6  C   UNL     1      -9.054   4.966 -34.276  1.00  0.00     0.293 C 
HETATM    7  N   UNL     1      -9.502   3.770 -33.735  1.00  0.00    -0.262 N 
HETATM    8  H   UNL     1      -9.198   3.446 -32.822  1.00  0.00     0.190 HD
HETATM    9  O   UNL     1      -9.622   5.464 -35.249  1.00  0.00    -0.264 OA
BRANCH   7  10
HETATM   10  N   UNL     1     -10.704   3.219 -34.221  1.00  0.00    -0.274 N 
HETATM   11  H   UNL     1     -11.298   3.898 -34.694  1.00  0.00     0.189 HD
BRANCH  10  12
HETATM   12  C   UNL     1     -11.298   2.178 -33.554  1.00  0.00     0.186 C 
HETATM   13  S   UNL     1     -12.934   1.819 -33.606  1.00  0.00    -0.040 SA
BRANCH  12  14
HETATM   14  N   UNL     1     -10.500   1.430 -32.750  1.00  0.00    -0.364 N 
HETATM   15  H   UNL     1     -10.096   1.943 -31.972  1.00  0.00     0.162 HD
BRANCH  14  16
HETATM   16  C   UNL     1      -9.884   0.129 -33.001  1.00  0.00     0.154 C 
BRANCH  16  17
HETATM   17  C   UNL     1      -8.346   0.177 -32.981  1.00  0.00     0.139 C 
HETATM   18  O   UNL     1      -7.904   1.506 -33.327  1.00  0.00    -0.384 OA
HETATM   19  C   UNL     1      -6.955   1.407 -34.396  1.00  0.00     0.168 C 
HETATM   20  C   UNL     1      -7.211   0.084 -35.078  1.00  0.00     0.029 C 
HETATM   21  C   UNL     1      -7.656  -0.791 -33.934  1.00  0.00     0.035 C 
ENDBRANCH  16  17
ENDBRANCH  14  16
ENDBRANCH  12  14
ENDBRANCH  10  12
ENDBRANCH   7  10
ENDBRANCH   3   6
BRANCH   1  22
HETATM   22  C   UNL     1      -4.319   5.352 -33.349  1.00  0.00     0.240 C 
BRANCH  22  23
HETATM   23  O   UNL     1      -3.882   4.835 -32.094  1.00  0.00    -0.345 OA
BRANCH  23  24
HETATM   24  C   UNL     1      -4.263   3.556 -31.787  1.00  0.00     0.069 A 
HETATM   25  C   UNL     1      -5.253   3.198 -30.857  1.00  0.00     0.037 A 
HETATM   26  C   UNL     1      -5.575   1.853 -30.637  1.00  0.00     0.010 A 
HETATM   27  C   UNL     1      -4.903   0.886 -31.362  1.00  0.00    -0.052 A 
HETATM   28  C   UNL     1      -3.917   1.237 -32.287  1.00  0.00    -0.049 A 
HETATM   29  C   UNL     1      -5.044  -0.602 -31.272  1.00  0.00     0.039 C 
HETATM   30  C   UNL     1      -3.591   2.564 -32.509  1.00  0.00     0.044 A 
HETATM   31  C   UNL     1      -3.296   0.020 -32.895  1.00  0.00     0.039 C 
HETATM   32  C   UNL     1      -4.353  -1.046 -32.570  1.00  0.00     0.009 C 
ENDBRANCH  23  24
ENDBRANCH  22  23
ENDBRANCH   1  22
TORSDOF 9
ENDMDL
