MODEL 1
REMARK VINA RESULT:      -8.0      0.000      0.000
REMARK  8 active torsions:
REMARK  status: ('A' for Active; 'I' for Inactive)
REMARK    1  A    between atoms: N_4  and  C_5 
REMARK    2  A    between atoms: C_5  and  C_6 
REMARK    3  A    between atoms: C_6  and  C_7 
REMARK    4  A    between atoms: C_7  and  N_8 
REMARK       I    between atoms: N_8  and  C_9 
REMARK       I    between atoms: C_9  and  N_10 
REMARK    5  A    between atoms: N_10  and  N_11 
REMARK       I    between atoms: N_11  and  C_12 
REMARK    6  A    between atoms: C_12  and  C_13 
REMARK    7  A    between atoms: C_13  and  O_14 
REMARK    8  A    between atoms: O_14  and  C_15 
ROOT
HETATM    1  N   UNL     1      -5.926   1.979 -31.058  1.00  0.00    -0.341 N 
HETATM    2  C   UNL     1      -6.446   0.990 -30.278  1.00  0.00     0.334 C 
HETATM    3  N   UNL     1      -7.691   0.546 -30.654  1.00  0.00    -0.249 N 
HETATM    4  O   UNL     1      -5.870   0.481 -29.322  1.00  0.00    -0.246 OA
HETATM    5  H   UNL     1      -6.388   2.137 -31.945  1.00  0.00     0.164 HD
HETATM    6  H   UNL     1      -8.097  -0.122 -30.003  1.00  0.00     0.192 HD
ENDROOT
BRANCH   1   7
HETATM    7  C   UNL     1      -4.550   2.425 -30.951  1.00  0.00     0.130 C 
BRANCH   7   8
HETATM    8  C   UNL     1      -4.217   3.563 -31.937  1.00  0.00     0.019 C 
HETATM    9  C   UNL     1      -5.273   3.691 -33.042  1.00  0.00     0.013 C 
BRANCH   8  10
HETATM   10  C   UNL     1      -2.840   3.330 -32.592  1.00  0.00     0.156 C 
BRANCH  10  11
HETATM   11  N   UNL     1      -1.935   4.469 -32.622  1.00  0.00    -0.274 N 
HETATM   12  N   UNL     1      -1.178   4.767 -31.550  1.00  0.00    -0.177 NA
HETATM   13  C   UNL     1      -0.527   5.882 -31.896  1.00  0.00     0.053 A 
HETATM   14  C   UNL     1       0.417   6.527 -30.954  1.00  0.00     0.072 C 
HETATM   15  C   UNL     1      -0.879   6.303 -33.195  1.00  0.00     0.055 A 
HETATM   16  C   UNL     1      -1.801   5.379 -33.644  1.00  0.00     0.028 A 
HETATM   17  C   UNL     1      -2.541   5.301 -34.926  1.00  0.00     0.070 C 
ENDBRANCH  10  11
ENDBRANCH   8  10
ENDBRANCH   7   8
ENDBRANCH   1   7
BRANCH   3  18
HETATM   18  N   UNL     1      -8.585   1.356 -31.373  1.00  0.00    -0.264 N 
HETATM   19  C   UNL     1      -9.240   0.875 -32.485  1.00  0.00     0.260 C 
HETATM   20  O   UNL     1     -10.366   1.292 -32.754  1.00  0.00    -0.269 OA
HETATM   21  H   UNL     1      -9.136   2.001 -30.813  1.00  0.00     0.190 HD
BRANCH  19  22
HETATM   22  C   UNL     1      -8.492  -0.104 -33.387  1.00  0.00     0.280 C 
BRANCH  22  23
HETATM   23  O   UNL     1      -7.128   0.286 -33.571  1.00  0.00    -0.342 OA
BRANCH  23  24
HETATM   24  C   UNL     1      -6.315  -0.805 -33.714  1.00  0.00     0.069 A 
HETATM   25  C   UNL     1      -5.068  -0.834 -33.090  1.00  0.00     0.038 A 
HETATM   26  C   UNL     1      -4.251  -1.956 -33.232  1.00  0.00     0.022 A 
HETATM   27  C   UNL     1      -4.700  -3.049 -33.974  1.00  0.00     0.011 A 
HETATM   28 BR   UNL     1      -3.591  -4.567 -34.171  1.00  0.00    -0.051 Br
HETATM   29  C   UNL     1      -5.963  -3.033 -34.568  1.00  0.00     0.022 A 
HETATM   30  C   UNL     1      -6.779  -1.908 -34.429  1.00  0.00     0.038 A 
ENDBRANCH  23  24
ENDBRANCH  22  23
ENDBRANCH  19  22
ENDBRANCH   3  18
TORSDOF 8
ENDMDL
MODEL 2
REMARK VINA RESULT:      -7.9      4.003      8.802
REMARK  8 active torsions:
REMARK  status: ('A' for Active; 'I' for Inactive)
REMARK    1  A    between atoms: N_4  and  C_5 
REMARK    2  A    between atoms: C_5  and  C_6 
REMARK    3  A    between atoms: C_6  and  C_7 
REMARK    4  A    between atoms: C_7  and  N_8 
REMARK       I    between atoms: N_8  and  C_9 
REMARK       I    between atoms: C_9  and  N_10 
REMARK    5  A    between atoms: N_10  and  N_11 
REMARK       I    between atoms: N_11  and  C_12 
REMARK    6  A    between atoms: C_12  and  C_13 
REMARK    7  A    between atoms: C_13  and  O_14 
REMARK    8  A    between atoms: O_14  and  C_15 
ROOT
HETATM    1  N   UNL     1      -5.377   3.089 -33.044  1.00  0.00    -0.341 N 
HETATM    2  C   UNL     1      -4.396   3.265 -32.114  1.00  0.00     0.334 C 
HETATM    3  N   UNL     1      -3.520   4.289 -32.378  1.00  0.00    -0.249 N 
HETATM    4  O   UNL     1      -4.283   2.603 -31.087  1.00  0.00    -0.246 OA
HETATM    5  H   UNL     1      -5.503   3.844 -33.707  1.00  0.00     0.164 HD
HETATM    6  H   UNL     1      -2.744   4.339 -31.723  1.00  0.00     0.192 HD
ENDROOT
BRANCH   1   7
HETATM    7  C   UNL     1      -6.510   2.208 -32.836  1.00  0.00     0.130 C 
BRANCH   7   8
HETATM    8  C   UNL     1      -6.521   1.016 -33.814  1.00  0.00     0.019 C 
HETATM    9  C   UNL     1      -7.730   1.059 -34.758  1.00  0.00     0.013 C 
BRANCH   8  10
HETATM   10  C   UNL     1      -6.543  -0.321 -33.044  1.00  0.00     0.156 C 
BRANCH  10  11
HETATM   11  N   UNL     1      -5.948  -1.466 -33.716  1.00  0.00    -0.274 N 
HETATM   12  N   UNL     1      -6.728  -2.418 -34.261  1.00  0.00    -0.177 NA
HETATM   13  C   UNL     1      -5.869  -3.328 -34.730  1.00  0.00     0.053 A 
HETATM   14  C   UNL     1      -6.363  -4.549 -35.410  1.00  0.00     0.072 C 
HETATM   15  C   UNL     1      -4.533  -2.959 -34.473  1.00  0.00     0.055 A 
HETATM   16  C   UNL     1      -4.606  -1.754 -33.805  1.00  0.00     0.028 A 
HETATM   17  C   UNL     1      -3.534  -0.887 -33.262  1.00  0.00     0.070 C 
ENDBRANCH  10  11
ENDBRANCH   8  10
ENDBRANCH   7   8
ENDBRANCH   1   7
BRANCH   3  18
HETATM   18  N   UNL     1      -3.277   4.744 -33.685  1.00  0.00    -0.264 N 
HETATM   19  C   UNL     1      -2.016   5.135 -34.077  1.00  0.00     0.260 C 
HETATM   20  O   UNL     1      -1.666   4.973 -35.245  1.00  0.00    -0.269 OA
HETATM   21  H   UNL     1      -3.815   4.282 -34.414  1.00  0.00     0.190 HD
BRANCH  19  22
HETATM   22  C   UNL     1      -1.132   5.835 -33.047  1.00  0.00     0.280 C 
BRANCH  22  23
HETATM   23  O   UNL     1      -0.601   4.909 -32.095  1.00  0.00    -0.342 OA
BRANCH  23  24
HETATM   24  C   UNL     1      -0.188   5.549 -30.958  1.00  0.00     0.069 A 
HETATM   25  C   UNL     1      -0.402   6.919 -30.810  1.00  0.00     0.038 A 
HETATM   26  C   UNL     1       0.012   7.561 -29.642  1.00  0.00     0.022 A 
HETATM   27  C   UNL     1       0.610   6.821 -28.622  1.00  0.00     0.011 A 
HETATM   28 BR   UNL     1       1.175   7.691 -27.042  1.00  0.00    -0.051 Br
HETATM   29  C   UNL     1       0.790   5.444 -28.756  1.00  0.00     0.022 A 
HETATM   30  C   UNL     1       0.380   4.803 -29.927  1.00  0.00     0.038 A 
ENDBRANCH  23  24
ENDBRANCH  22  23
ENDBRANCH  19  22
ENDBRANCH   3  18
TORSDOF 8
ENDMDL
MODEL 3
REMARK VINA RESULT:      -7.8      3.448      6.826
REMARK  8 active torsions:
REMARK  status: ('A' for Active; 'I' for Inactive)
REMARK    1  A    between atoms: N_4  and  C_5 
REMARK    2  A    between atoms: C_5  and  C_6 
REMARK    3  A    between atoms: C_6  and  C_7 
REMARK    4  A    between atoms: C_7  and  N_8 
REMARK       I    between atoms: N_8  and  C_9 
REMARK       I    between atoms: C_9  and  N_10 
REMARK    5  A    between atoms: N_10  and  N_11 
REMARK       I    between atoms: N_11  and  C_12 
REMARK    6  A    between atoms: C_12  and  C_13 
REMARK    7  A    between atoms: C_13  and  O_14 
REMARK    8  A    between atoms: O_14  and  C_15 
ROOT
HETATM    1  N   UNL     1      -7.723   0.173 -32.128  1.00  0.00    -0.341 N 
HETATM    2  C   UNL     1      -9.025   0.524 -31.935  1.00  0.00     0.334 C 
HETATM    3  N   UNL     1      -9.217   1.676 -31.211  1.00  0.00    -0.249 N 
HETATM    4  O   UNL     1      -9.988  -0.093 -32.380  1.00  0.00    -0.246 OA
HETATM    5  H   UNL     1      -7.034   0.886 -31.922  1.00  0.00     0.164 HD
HETATM    6  H   UNL     1     -10.193   1.865 -30.999  1.00  0.00     0.192 HD
ENDROOT
BRANCH   1   7
HETATM    7  C   UNL     1      -7.319  -0.881 -33.038  1.00  0.00     0.130 C 
BRANCH   7   8
HETATM    8  C   UNL     1      -6.403  -0.370 -34.169  1.00  0.00     0.019 C 
HETATM    9  C   UNL     1      -7.133   0.606 -35.101  1.00  0.00     0.013 C 
BRANCH   8  10
HETATM   10  C   UNL     1      -5.865  -1.547 -35.008  1.00  0.00     0.156 C 
BRANCH  10  11
HETATM   11  N   UNL     1      -5.149  -2.587 -34.283  1.00  0.00    -0.274 N 
HETATM   12  N   UNL     1      -4.256  -2.263 -33.331  1.00  0.00    -0.177 NA
HETATM   13  C   UNL     1      -3.757  -3.434 -32.925  1.00  0.00     0.053 A 
HETATM   14  C   UNL     1      -2.721  -3.486 -31.866  1.00  0.00     0.072 C 
HETATM   15  C   UNL     1      -4.330  -4.512 -33.631  1.00  0.00     0.055 A 
HETATM   16  C   UNL     1      -5.223  -3.940 -34.514  1.00  0.00     0.028 A 
HETATM   17  C   UNL     1      -6.106  -4.562 -35.528  1.00  0.00     0.070 C 
ENDBRANCH  10  11
ENDBRANCH   8  10
ENDBRANCH   7   8
ENDBRANCH   1   7
BRANCH   3  18
HETATM   18  N   UNL     1      -8.265   2.145 -30.290  1.00  0.00    -0.264 N 
HETATM   19  C   UNL     1      -7.699   3.392 -30.428  1.00  0.00     0.260 C 
HETATM   20  O   UNL     1      -7.363   4.021 -29.425  1.00  0.00    -0.269 OA
HETATM   21  H   UNL     1      -8.415   1.860 -29.326  1.00  0.00     0.190 HD
BRANCH  19  22
HETATM   22  C   UNL     1      -7.438   3.907 -31.842  1.00  0.00     0.280 C 
BRANCH  22  23
HETATM   23  O   UNL     1      -6.668   2.975 -32.607  1.00  0.00    -0.342 OA
BRANCH  23  24
HETATM   24  C   UNL     1      -5.504   3.541 -33.051  1.00  0.00     0.069 A 
HETATM   25  C   UNL     1      -5.533   4.492 -34.070  1.00  0.00     0.038 A 
HETATM   26  C   UNL     1      -4.341   5.072 -34.509  1.00  0.00     0.022 A 
HETATM   27  C   UNL     1      -3.136   4.714 -33.904  1.00  0.00     0.011 A 
HETATM   28 BR   UNL     1      -1.522   5.496 -34.500  1.00  0.00    -0.051 Br
HETATM   29  C   UNL     1      -3.113   3.790 -32.860  1.00  0.00     0.022 A 
HETATM   30  C   UNL     1      -4.304   3.206 -32.425  1.00  0.00     0.038 A 
ENDBRANCH  23  24
ENDBRANCH  22  23
ENDBRANCH  19  22
ENDBRANCH   3  18
TORSDOF 8
ENDMDL
MODEL 4
REMARK VINA RESULT:      -7.6      3.371      6.379
REMARK  8 active torsions:
REMARK  status: ('A' for Active; 'I' for Inactive)
REMARK    1  A    between atoms: N_4  and  C_5 
REMARK    2  A    between atoms: C_5  and  C_6 
REMARK    3  A    between atoms: C_6  and  C_7 
REMARK    4  A    between atoms: C_7  and  N_8 
REMARK       I    between atoms: N_8  and  C_9 
REMARK       I    between atoms: C_9  and  N_10 
REMARK    5  A    between atoms: N_10  and  N_11 
REMARK       I    between atoms: N_11  and  C_12 
REMARK    6  A    between atoms: C_12  and  C_13 
REMARK    7  A    between atoms: C_13  and  O_14 
REMARK    8  A    between atoms: O_14  and  C_15 
ROOT
HETATM    1  N   UNL     1      -7.658   0.533 -31.726  1.00  0.00    -0.341 N 
HETATM    2  C   UNL     1      -9.001   0.720 -31.867  1.00  0.00     0.334 C 
HETATM    3  N   UNL     1      -9.473   1.925 -31.406  1.00  0.00    -0.249 N 
HETATM    4  O   UNL     1      -9.766  -0.086 -32.388  1.00  0.00    -0.246 OA
HETATM    5  H   UNL     1      -7.114   1.359 -31.509  1.00  0.00     0.164 HD
HETATM    6  H   UNL     1     -10.486   2.001 -31.434  1.00  0.00     0.192 HD
ENDROOT
BRANCH   1   7
HETATM    7  C   UNL     1      -6.948  -0.573 -32.340  1.00  0.00     0.130 C 
BRANCH   7   8
HETATM    8  C   UNL     1      -6.471  -0.250 -33.770  1.00  0.00     0.019 C 
HETATM    9  C   UNL     1      -7.007  -1.259 -34.795  1.00  0.00     0.013 C 
BRANCH   8  10
HETATM   10  C   UNL     1      -4.930  -0.244 -33.841  1.00  0.00     0.156 C 
BRANCH  10  11
HETATM   11  N   UNL     1      -4.250  -1.402 -33.281  1.00  0.00    -0.274 N 
HETATM   12  N   UNL     1      -4.351  -2.606 -33.873  1.00  0.00    -0.177 NA
HETATM   13  C   UNL     1      -3.667  -3.432 -33.076  1.00  0.00     0.053 A 
HETATM   14  C   UNL     1      -3.553  -4.873 -33.404  1.00  0.00     0.072 C 
HETATM   15  C   UNL     1      -3.135  -2.752 -31.961  1.00  0.00     0.055 A 
HETATM   16  C   UNL     1      -3.533  -1.439 -32.108  1.00  0.00     0.028 A 
HETATM   17  C   UNL     1      -3.294  -0.258 -31.244  1.00  0.00     0.070 C 
ENDBRANCH  10  11
ENDBRANCH   8  10
ENDBRANCH   7   8
ENDBRANCH   1   7
BRANCH   3  18
HETATM   18  N   UNL     1      -8.809   2.651 -30.404  1.00  0.00    -0.264 N 
HETATM   19  C   UNL     1      -8.333   3.921 -30.645  1.00  0.00     0.260 C 
HETATM   20  O   UNL     1      -8.297   4.740 -29.728  1.00  0.00    -0.269 OA
HETATM   21  H   UNL     1      -9.158   2.510 -29.459  1.00  0.00     0.190 HD
BRANCH  19  22
HETATM   22  C   UNL     1      -7.789   4.228 -32.039  1.00  0.00     0.280 C 
BRANCH  22  23
HETATM   23  O   UNL     1      -6.932   3.184 -32.510  1.00  0.00    -0.342 OA
BRANCH  23  24
HETATM   24  C   UNL     1      -5.733   3.683 -32.939  1.00  0.00     0.069 A 
HETATM   25  C   UNL     1      -4.547   3.274 -32.330  1.00  0.00     0.038 A 
HETATM   26  C   UNL     1      -3.327   3.780 -32.782  1.00  0.00     0.022 A 
HETATM   27  C   UNL     1      -3.304   4.669 -33.857  1.00  0.00     0.011 A 
HETATM   28 BR   UNL     1      -1.653   5.358 -34.466  1.00  0.00    -0.051 Br
HETATM   29  C   UNL     1      -4.488   5.050 -34.489  1.00  0.00     0.022 A 
HETATM   30  C   UNL     1      -5.709   4.547 -34.033  1.00  0.00     0.038 A 
ENDBRANCH  23  24
ENDBRANCH  22  23
ENDBRANCH  19  22
ENDBRANCH   3  18
TORSDOF 8
ENDMDL
MODEL 5
REMARK VINA RESULT:      -7.6      4.007      8.520
REMARK  8 active torsions:
REMARK  status: ('A' for Active; 'I' for Inactive)
REMARK    1  A    between atoms: N_4  and  C_5 
REMARK    2  A    between atoms: C_5  and  C_6 
REMARK    3  A    between atoms: C_6  and  C_7 
REMARK    4  A    between atoms: C_7  and  N_8 
REMARK       I    between atoms: N_8  and  C_9 
REMARK       I    between atoms: C_9  and  N_10 
REMARK    5  A    between atoms: N_10  and  N_11 
REMARK       I    between atoms: N_11  and  C_12 
REMARK    6  A    between atoms: C_12  and  C_13 
REMARK    7  A    between atoms: C_13  and  O_14 
REMARK    8  A    between atoms: O_14  and  C_15 
ROOT
HETATM    1  N   UNL     1      -4.691   3.185 -31.687  1.00  0.00    -0.341 N 
HETATM    2  C   UNL     1      -3.341   3.368 -31.667  1.00  0.00     0.334 C 
HETATM    3  N   UNL     1      -2.903   4.535 -32.246  1.00  0.00    -0.249 N 
HETATM    4  O   UNL     1      -2.539   2.593 -31.155  1.00  0.00    -0.246 OA
HETATM    5  H   UNL     1      -5.248   3.999 -31.916  1.00  0.00     0.164 HD
HETATM    6  H   UNL     1      -1.890   4.604 -32.304  1.00  0.00     0.192 HD
ENDROOT
BRANCH   1   7
HETATM    7  C   UNL     1      -5.353   2.129 -30.945  1.00  0.00     0.130 C 
BRANCH   7   8
HETATM    8  C   UNL     1      -6.203   1.213 -31.848  1.00  0.00     0.019 C 
HETATM    9  C   UNL     1      -6.487  -0.142 -31.186  1.00  0.00     0.013 C 
BRANCH   8  10
HETATM   10  C   UNL     1      -5.494   0.966 -33.195  1.00  0.00     0.156 C 
BRANCH  10  11
HETATM   11  N   UNL     1      -5.579  -0.383 -33.736  1.00  0.00    -0.274 N 
HETATM   12  N   UNL     1      -4.625  -1.290 -33.457  1.00  0.00    -0.177 NA
HETATM   13  C   UNL     1      -4.982  -2.376 -34.150  1.00  0.00     0.053 A 
HETATM   14  C   UNL     1      -4.158  -3.607 -34.098  1.00  0.00     0.072 C 
HETATM   15  C   UNL     1      -6.167  -2.156 -34.882  1.00  0.00     0.055 A 
HETATM   16  C   UNL     1      -6.532  -0.854 -34.608  1.00  0.00     0.028 A 
HETATM   17  C   UNL     1      -7.677  -0.051 -35.099  1.00  0.00     0.070 C 
ENDBRANCH  10  11
ENDBRANCH   8  10
ENDBRANCH   7   8
ENDBRANCH   1   7
BRANCH   3  18
HETATM   18  N   UNL     1      -3.643   5.198 -33.239  1.00  0.00    -0.264 N 
HETATM   19  C   UNL     1      -3.038   5.650 -34.391  1.00  0.00     0.260 C 
HETATM   20  O   UNL     1      -3.679   5.682 -35.441  1.00  0.00    -0.269 OA
HETATM   21  H   UNL     1      -4.593   4.861 -33.373  1.00  0.00     0.190 HD
BRANCH  19  22
HETATM   22  C   UNL     1      -1.607   6.173 -34.289  1.00  0.00     0.280 C 
BRANCH  22  23
HETATM   23  O   UNL     1      -1.575   7.538 -33.860  1.00  0.00    -0.342 OA
BRANCH  23  24
HETATM   24  C   UNL     1      -1.288   7.631 -32.525  1.00  0.00     0.069 A 
HETATM   25  C   UNL     1      -2.108   8.383 -31.684  1.00  0.00     0.038 A 
HETATM   26  C   UNL     1      -1.814   8.463 -30.323  1.00  0.00     0.022 A 
HETATM   27  C   UNL     1      -0.717   7.768 -29.811  1.00  0.00     0.011 A 
HETATM   28 BR   UNL     1      -0.316   7.880 -27.967  1.00  0.00    -0.051 Br
HETATM   29  C   UNL     1       0.081   6.988 -30.647  1.00  0.00     0.022 A 
HETATM   30  C   UNL     1      -0.211   6.911 -32.011  1.00  0.00     0.038 A 
ENDBRANCH  23  24
ENDBRANCH  22  23
ENDBRANCH  19  22
ENDBRANCH   3  18
TORSDOF 8
ENDMDL
MODEL 6
REMARK VINA RESULT:      -7.4      2.207      2.832
REMARK  8 active torsions:
REMARK  status: ('A' for Active; 'I' for Inactive)
REMARK    1  A    between atoms: N_4  and  C_5 
REMARK    2  A    between atoms: C_5  and  C_6 
REMARK    3  A    between atoms: C_6  and  C_7 
REMARK    4  A    between atoms: C_7  and  N_8 
REMARK       I    between atoms: N_8  and  C_9 
REMARK       I    between atoms: C_9  and  N_10 
REMARK    5  A    between atoms: N_10  and  N_11 
REMARK       I    between atoms: N_11  and  C_12 
REMARK    6  A    between atoms: C_12  and  C_13 
REMARK    7  A    between atoms: C_13  and  O_14 
REMARK    8  A    between atoms: O_14  and  C_15 
ROOT
HETATM    1  N   UNL     1      -5.794   4.346 -29.001  1.00  0.00    -0.341 N 
HETATM    2  C   UNL     1      -6.998   3.955 -29.505  1.00  0.00     0.334 C 
HETATM    3  N   UNL     1      -7.231   2.602 -29.473  1.00  0.00    -0.249 N 
HETATM    4  O   UNL     1      -7.854   4.720 -29.938  1.00  0.00    -0.246 OA
HETATM    5  H   UNL     1      -5.291   3.652 -28.461  1.00  0.00     0.164 HD
HETATM    6  H   UNL     1      -8.091   2.327 -29.941  1.00  0.00     0.192 HD
ENDROOT
BRANCH   1   7
HETATM    7  C   UNL     1      -5.457   5.735 -28.754  1.00  0.00     0.130 C 
BRANCH   7   8
HETATM    8  C   UNL     1      -4.648   6.363 -29.908  1.00  0.00     0.019 C 
HETATM    9  C   UNL     1      -5.512   7.287 -30.776  1.00  0.00     0.013 C 
BRANCH   8  10
HETATM   10  C   UNL     1      -4.040   5.266 -30.805  1.00  0.00     0.156 C 
BRANCH  10  11
HETATM   11  N   UNL     1      -2.631   5.413 -31.144  1.00  0.00    -0.274 N 
HETATM   12  N   UNL     1      -1.842   6.240 -30.434  1.00  0.00    -0.177 NA
HETATM   13  C   UNL     1      -0.654   6.175 -31.043  1.00  0.00     0.053 A 
HETATM   14  C   UNL     1       0.493   6.968 -30.542  1.00  0.00     0.072 C 
HETATM   15  C   UNL     1      -0.689   5.308 -32.155  1.00  0.00     0.055 A 
HETATM   16  C   UNL     1      -1.984   4.832 -32.208  1.00  0.00     0.028 A 
HETATM   17  C   UNL     1      -2.628   3.902 -33.165  1.00  0.00     0.070 C 
ENDBRANCH  10  11
ENDBRANCH   8  10
ENDBRANCH   7   8
ENDBRANCH   1   7
BRANCH   3  18
HETATM   18  N   UNL     1      -6.185   1.665 -29.468  1.00  0.00    -0.264 N 
HETATM   19  C   UNL     1      -5.563   1.290 -30.638  1.00  0.00     0.260 C 
HETATM   20  O   UNL     1      -4.373   0.977 -30.620  1.00  0.00    -0.269 OA
HETATM   21  H   UNL     1      -5.566   1.708 -28.663  1.00  0.00     0.190 HD
BRANCH  19  22
HETATM   22  C   UNL     1      -6.413   1.201 -31.903  1.00  0.00     0.280 C 
BRANCH  22  23
HETATM   23  O   UNL     1      -5.602   1.042 -33.071  1.00  0.00    -0.342 OA
BRANCH  23  24
HETATM   24  C   UNL     1      -5.722  -0.218 -33.591  1.00  0.00     0.069 A 
HETATM   25  C   UNL     1      -4.642  -1.099 -33.547  1.00  0.00     0.038 A 
HETATM   26  C   UNL     1      -4.778  -2.386 -34.069  1.00  0.00     0.022 A 
HETATM   27  C   UNL     1      -6.002  -2.788 -34.605  1.00  0.00     0.011 A 
HETATM   28 BR   UNL     1      -6.185  -4.530 -35.317  1.00  0.00    -0.051 Br
HETATM   29  C   UNL     1      -7.092  -1.918 -34.616  1.00  0.00     0.022 A 
HETATM   30  C   UNL     1      -6.955  -0.629 -34.097  1.00  0.00     0.038 A 
ENDBRANCH  23  24
ENDBRANCH  22  23
ENDBRANCH  19  22
ENDBRANCH   3  18
TORSDOF 8
ENDMDL
MODEL 7
REMARK VINA RESULT:      -7.4      2.931      7.178
REMARK  8 active torsions:
REMARK  status: ('A' for Active; 'I' for Inactive)
REMARK    1  A    between atoms: N_4  and  C_5 
REMARK    2  A    between atoms: C_5  and  C_6 
REMARK    3  A    between atoms: C_6  and  C_7 
REMARK    4  A    between atoms: C_7  and  N_8 
REMARK       I    between atoms: N_8  and  C_9 
REMARK       I    between atoms: C_9  and  N_10 
REMARK    5  A    between atoms: N_10  and  N_11 
REMARK       I    between atoms: N_11  and  C_12 
REMARK    6  A    between atoms: C_12  and  C_13 
REMARK    7  A    between atoms: C_13  and  O_14 
REMARK    8  A    between atoms: O_14  and  C_15 
ROOT
HETATM    1  N   UNL     1      -7.184   3.850 -32.169  1.00  0.00    -0.341 N 
HETATM    2  C   UNL     1      -6.472   4.199 -33.277  1.00  0.00     0.334 C 
HETATM    3  N   UNL     1      -5.152   3.817 -33.265  1.00  0.00    -0.249 N 
HETATM    4  O   UNL     1      -6.938   4.783 -34.250  1.00  0.00    -0.246 OA
HETATM    5  H   UNL     1      -6.751   3.168 -31.557  1.00  0.00     0.164 HD
HETATM    6  H   UNL     1      -4.621   4.171 -34.056  1.00  0.00     0.192 HD
ENDROOT
BRANCH   1   7
HETATM    7  C   UNL     1      -8.627   3.975 -32.088  1.00  0.00     0.130 C 
BRANCH   7   8
HETATM    8  C   UNL     1      -9.344   2.610 -32.130  1.00  0.00     0.019 C 
HETATM    9  C   UNL     1      -8.549   1.522 -31.396  1.00  0.00     0.013 C 
BRANCH   8  10
HETATM   10  C   UNL     1      -9.570   2.158 -33.588  1.00  0.00     0.156 C 
BRANCH  10  11
HETATM   11  N   UNL     1     -10.955   2.017 -34.015  1.00  0.00    -0.274 N 
HETATM   12  N   UNL     1     -11.692   0.969 -33.603  1.00  0.00    -0.177 NA
HETATM   13  C   UNL     1     -12.867   1.122 -34.220  1.00  0.00     0.053 A 
HETATM   14  C   UNL     1     -13.959   0.141 -34.014  1.00  0.00     0.072 C 
HETATM   15  C   UNL     1     -12.876   2.270 -35.039  1.00  0.00     0.055 A 
HETATM   16  C   UNL     1     -11.622   2.830 -34.900  1.00  0.00     0.028 A 
HETATM   17  C   UNL     1     -11.032   4.036 -35.526  1.00  0.00     0.070 C 
ENDBRANCH  10  11
ENDBRANCH   8  10
ENDBRANCH   7   8
ENDBRANCH   1   7
BRANCH   3  18
HETATM   18  N   UNL     1      -4.447   3.609 -32.068  1.00  0.00    -0.264 N 
HETATM   19  C   UNL     1      -3.537   2.582 -31.951  1.00  0.00     0.260 C 
HETATM   20  O   UNL     1      -2.557   2.720 -31.219  1.00  0.00    -0.269 OA
HETATM   21  H   UNL     1      -4.192   4.452 -31.561  1.00  0.00     0.190 HD
BRANCH  19  22
HETATM   22  C   UNL     1      -3.834   1.275 -32.683  1.00  0.00     0.280 C 
BRANCH  22  23
HETATM   23  O   UNL     1      -5.227   0.951 -32.635  1.00  0.00    -0.342 OA
BRANCH  23  24
HETATM   24  C   UNL     1      -5.478  -0.249 -33.243  1.00  0.00     0.069 A 
HETATM   25  C   UNL     1      -6.672  -0.446 -33.935  1.00  0.00     0.038 A 
HETATM   26  C   UNL     1      -6.914  -1.669 -34.562  1.00  0.00     0.022 A 
HETATM   27  C   UNL     1      -5.947  -2.674 -34.512  1.00  0.00     0.011 A 
HETATM   28 BR   UNL     1      -6.276  -4.333 -35.357  1.00  0.00    -0.051 Br
HETATM   29  C   UNL     1      -4.737  -2.462 -33.850  1.00  0.00     0.022 A 
HETATM   30  C   UNL     1      -4.498  -1.240 -33.219  1.00  0.00     0.038 A 
ENDBRANCH  23  24
ENDBRANCH  22  23
ENDBRANCH  19  22
ENDBRANCH   3  18
TORSDOF 8
ENDMDL
MODEL 8
REMARK VINA RESULT:      -7.4      1.603      2.560
REMARK  8 active torsions:
REMARK  status: ('A' for Active; 'I' for Inactive)
REMARK    1  A    between atoms: N_4  and  C_5 
REMARK    2  A    between atoms: C_5  and  C_6 
REMARK    3  A    between atoms: C_6  and  C_7 
REMARK    4  A    between atoms: C_7  and  N_8 
REMARK       I    between atoms: N_8  and  C_9 
REMARK       I    between atoms: C_9  and  N_10 
REMARK    5  A    between atoms: N_10  and  N_11 
REMARK       I    between atoms: N_11  and  C_12 
REMARK    6  A    between atoms: C_12  and  C_13 
REMARK    7  A    between atoms: C_13  and  O_14 
REMARK    8  A    between atoms: O_14  and  C_15 
ROOT
HETATM    1  N   UNL     1      -3.916   3.227 -32.546  1.00  0.00    -0.341 N 
HETATM    2  C   UNL     1      -3.880   2.278 -31.569  1.00  0.00     0.334 C 
HETATM    3  N   UNL     1      -5.108   1.829 -31.147  1.00  0.00    -0.249 N 
HETATM    4  O   UNL     1      -2.852   1.806 -31.094  1.00  0.00    -0.246 OA
HETATM    5  H   UNL     1      -4.806   3.349 -33.016  1.00  0.00     0.164 HD
HETATM    6  H   UNL     1      -5.057   1.195 -30.354  1.00  0.00     0.192 HD
ENDROOT
BRANCH   1   7
HETATM    7  C   UNL     1      -2.734   3.663 -33.265  1.00  0.00     0.130 C 
BRANCH   7   8
HETATM    8  C   UNL     1      -2.809   5.145 -33.684  1.00  0.00     0.019 C 
HETATM    9  C   UNL     1      -3.376   5.313 -35.099  1.00  0.00     0.013 C 
BRANCH   8  10
HETATM   10  C   UNL     1      -1.412   5.797 -33.630  1.00  0.00     0.156 C 
BRANCH  10  11
HETATM   11  N   UNL     1      -0.844   6.007 -32.306  1.00  0.00    -0.274 N 
HETATM   12  N   UNL     1      -0.136   5.034 -31.705  1.00  0.00    -0.177 NA
HETATM   13  C   UNL     1       0.175   5.535 -30.506  1.00  0.00     0.053 A 
HETATM   14  C   UNL     1       0.964   4.738 -29.538  1.00  0.00     0.072 C 
HETATM   15  C   UNL     1      -0.347   6.835 -30.338  1.00  0.00     0.055 A 
HETATM   16  C   UNL     1      -1.013   7.118 -31.513  1.00  0.00     0.028 A 
HETATM   17  C   UNL     1      -1.775   8.321 -31.922  1.00  0.00     0.070 C 
ENDBRANCH  10  11
ENDBRANCH   8  10
ENDBRANCH   7   8
ENDBRANCH   1   7
BRANCH   3  18
HETATM   18  N   UNL     1      -6.267   2.615 -31.258  1.00  0.00    -0.264 N 
HETATM   19  C   UNL     1      -7.508   2.033 -31.389  1.00  0.00     0.260 C 
HETATM   20  O   UNL     1      -8.496   2.599 -30.924  1.00  0.00    -0.269 OA
HETATM   21  H   UNL     1      -6.265   3.473 -30.713  1.00  0.00     0.190 HD
BRANCH  19  22
HETATM   22  C   UNL     1      -7.609   0.736 -32.190  1.00  0.00     0.280 C 
BRANCH  22  23
HETATM   23  O   UNL     1      -6.707   0.733 -33.301  1.00  0.00    -0.342 OA
BRANCH  23  24
HETATM   24  C   UNL     1      -6.304  -0.538 -33.609  1.00  0.00     0.069 A 
HETATM   25  C   UNL     1      -7.195  -1.428 -34.208  1.00  0.00     0.038 A 
HETATM   26  C   UNL     1      -6.771  -2.719 -34.528  1.00  0.00     0.022 A 
HETATM   27  C   UNL     1      -5.453  -3.097 -34.271  1.00  0.00     0.011 A 
HETATM   28 BR   UNL     1      -4.881  -4.847 -34.701  1.00  0.00    -0.051 Br
HETATM   29  C   UNL     1      -4.553  -2.194 -33.705  1.00  0.00     0.022 A 
HETATM   30  C   UNL     1      -4.979  -0.904 -33.380  1.00  0.00     0.038 A 
ENDBRANCH  23  24
ENDBRANCH  22  23
ENDBRANCH  19  22
ENDBRANCH   3  18
TORSDOF 8
ENDMDL
MODEL 9
REMARK VINA RESULT:      -7.2      2.794      4.205
REMARK  8 active torsions:
REMARK  status: ('A' for Active; 'I' for Inactive)
REMARK    1  A    between atoms: N_4  and  C_5 
REMARK    2  A    between atoms: C_5  and  C_6 
REMARK    3  A    between atoms: C_6  and  C_7 
REMARK    4  A    between atoms: C_7  and  N_8 
REMARK       I    between atoms: N_8  and  C_9 
REMARK       I    between atoms: C_9  and  N_10 
REMARK    5  A    between atoms: N_10  and  N_11 
REMARK       I    between atoms: N_11  and  C_12 
REMARK    6  A    between atoms: C_12  and  C_13 
REMARK    7  A    between atoms: C_13  and  O_14 
REMARK    8  A    between atoms: O_14  and  C_15 
ROOT
HETATM    1  N   UNL     1      -3.777   5.089 -31.548  1.00  0.00    -0.341 N 
HETATM    2  C   UNL     1      -2.849   4.092 -31.545  1.00  0.00     0.334 C 
HETATM    3  N   UNL     1      -3.330   2.849 -31.211  1.00  0.00    -0.249 N 
HETATM    4  O   UNL     1      -1.667   4.239 -31.842  1.00  0.00    -0.246 OA
HETATM    5  H   UNL     1      -4.747   4.796 -31.525  1.00  0.00     0.164 HD
HETATM    6  H   UNL     1      -2.604   2.144 -31.122  1.00  0.00     0.192 HD
ENDROOT
BRANCH   1   7
HETATM    7  C   UNL     1      -3.509   6.413 -32.077  1.00  0.00     0.130 C 
BRANCH   7   8
HETATM    8  C   UNL     1      -3.304   7.464 -30.968  1.00  0.00     0.019 C 
HETATM    9  C   UNL     1      -4.393   8.544 -30.993  1.00  0.00     0.013 C 
BRANCH   8  10
HETATM   10  C   UNL     1      -1.927   8.146 -31.112  1.00  0.00     0.156 C 
BRANCH  10  11
HETATM   11  N   UNL     1      -1.051   8.089 -29.951  1.00  0.00    -0.274 N 
HETATM   12  N   UNL     1      -1.333   8.806 -28.847  1.00  0.00    -0.177 NA
HETATM   13  C   UNL     1      -0.311   8.568 -28.021  1.00  0.00     0.053 A 
HETATM   14  C   UNL     1      -0.263   9.198 -26.681  1.00  0.00     0.072 C 
HETATM   15  C   UNL     1       0.635   7.700 -28.606  1.00  0.00     0.055 A 
HETATM   16  C   UNL     1       0.141   7.410 -29.861  1.00  0.00     0.028 A 
HETATM   17  C   UNL     1       0.700   6.568 -30.944  1.00  0.00     0.070 C 
ENDBRANCH  10  11
ENDBRANCH   8  10
ENDBRANCH   7   8
ENDBRANCH   1   7
BRANCH   3  18
HETATM   18  N   UNL     1      -4.477   2.683 -30.417  1.00  0.00    -0.264 N 
HETATM   19  C   UNL     1      -5.423   1.733 -30.729  1.00  0.00     0.260 C 
HETATM   20  O   UNL     1      -6.062   1.192 -29.826  1.00  0.00    -0.269 OA
HETATM   21  H   UNL     1      -4.341   2.823 -29.419  1.00  0.00     0.190 HD
BRANCH  19  22
HETATM   22  C   UNL     1      -5.695   1.451 -32.205  1.00  0.00     0.280 C 
BRANCH  22  23
HETATM   23  O   UNL     1      -4.611   0.742 -32.813  1.00  0.00    -0.342 OA
BRANCH  23  24
HETATM   24  C   UNL     1      -5.039  -0.429 -33.378  1.00  0.00     0.069 A 
HETATM   25  C   UNL     1      -6.317  -0.513 -33.930  1.00  0.00     0.038 A 
HETATM   26  C   UNL     1      -6.740  -1.707 -34.514  1.00  0.00     0.022 A 
HETATM   27  C   UNL     1      -5.871  -2.798 -34.564  1.00  0.00     0.011 A 
HETATM   28 BR   UNL     1      -6.446  -4.417 -35.351  1.00  0.00    -0.051 Br
HETATM   29  C   UNL     1      -4.580  -2.701 -34.043  1.00  0.00     0.022 A 
HETATM   30  C   UNL     1      -4.159  -1.506 -33.455  1.00  0.00     0.038 A 
ENDBRANCH  23  24
ENDBRANCH  22  23
ENDBRANCH  19  22
ENDBRANCH   3  18
TORSDOF 8
ENDMDL
MODEL 10
REMARK VINA RESULT:      -7.2      2.175      3.896
REMARK  8 active torsions:
REMARK  status: ('A' for Active; 'I' for Inactive)
REMARK    1  A    between atoms: N_4  and  C_5 
REMARK    2  A    between atoms: C_5  and  C_6 
REMARK    3  A    between atoms: C_6  and  C_7 
REMARK    4  A    between atoms: C_7  and  N_8 
REMARK       I    between atoms: N_8  and  C_9 
REMARK       I    between atoms: C_9  and  N_10 
REMARK    5  A    between atoms: N_10  and  N_11 
REMARK       I    between atoms: N_11  and  C_12 
REMARK    6  A    between atoms: C_12  and  C_13 
REMARK    7  A    between atoms: C_13  and  O_14 
REMARK    8  A    between atoms: O_14  and  C_15 
ROOT
HETATM    1  N   UNL     1      -4.238   5.674 -32.893  1.00  0.00    -0.341 N 
HETATM    2  C   UNL     1      -4.933   4.963 -33.825  1.00  0.00     0.334 C 
HETATM    3  N   UNL     1      -5.977   4.219 -33.331  1.00  0.00    -0.249 N 
HETATM    4  O   UNL     1      -4.700   4.980 -35.030  1.00  0.00    -0.246 OA
HETATM    5  H   UNL     1      -4.676   5.764 -31.984  1.00  0.00     0.164 HD
HETATM    6  H   UNL     1      -6.418   3.626 -34.029  1.00  0.00     0.192 HD
ENDROOT
BRANCH   1   7
HETATM    7  C   UNL     1      -3.248   6.675 -33.242  1.00  0.00     0.130 C 
BRANCH   7   8
HETATM    8  C   UNL     1      -1.804   6.187 -33.008  1.00  0.00     0.019 C 
HETATM    9  C   UNL     1      -1.247   5.439 -34.226  1.00  0.00     0.013 C 
BRANCH   8  10
HETATM   10  C   UNL     1      -1.736   5.255 -31.781  1.00  0.00     0.156 C 
BRANCH  10  11
HETATM   11  N   UNL     1      -1.188   5.828 -30.561  1.00  0.00    -0.274 N 
HETATM   12  N   UNL     1      -1.938   6.638 -29.790  1.00  0.00    -0.177 NA
HETATM   13  C   UNL     1      -1.118   7.021 -28.807  1.00  0.00     0.053 A 
HETATM   14  C   UNL     1      -1.594   7.937 -27.744  1.00  0.00     0.072 C 
HETATM   15  C   UNL     1       0.167   6.459 -28.957  1.00  0.00     0.055 A 
HETATM   16  C   UNL     1       0.103   5.697 -30.106  1.00  0.00     0.028 A 
HETATM   17  C   UNL     1       1.143   4.886 -30.782  1.00  0.00     0.070 C 
ENDBRANCH  10  11
ENDBRANCH   8  10
ENDBRANCH   7   8
ENDBRANCH   1   7
BRANCH   3  18
HETATM   18  N   UNL     1      -6.006   3.765 -32.002  1.00  0.00    -0.264 N 
HETATM   19  C   UNL     1      -5.176   2.750 -31.581  1.00  0.00     0.260 C 
HETATM   20  O   UNL     1      -4.772   2.739 -30.419  1.00  0.00    -0.269 OA
HETATM   21  H   UNL     1      -6.176   4.482 -31.301  1.00  0.00     0.190 HD
BRANCH  19  22
HETATM   22  C   UNL     1      -4.860   1.629 -32.569  1.00  0.00     0.280 C 
BRANCH  22  23
HETATM   23  O   UNL     1      -5.970   1.359 -33.430  1.00  0.00    -0.342 OA
BRANCH  23  24
HETATM   24  C   UNL     1      -5.993   0.045 -33.811  1.00  0.00     0.069 A 
HETATM   25  C   UNL     1      -4.913  -0.787 -33.520  1.00  0.00     0.038 A 
HETATM   26  C   UNL     1      -4.951  -2.129 -33.902  1.00  0.00     0.022 A 
HETATM   27  C   UNL     1      -6.082  -2.632 -34.547  1.00  0.00     0.011 A 
HETATM   28 BR   UNL     1      -6.132  -4.448 -35.068  1.00  0.00    -0.051 Br
HETATM   29  C   UNL     1      -7.177  -1.807 -34.805  1.00  0.00     0.022 A 
HETATM   30  C   UNL     1      -7.136  -0.463 -34.427  1.00  0.00     0.038 A 
ENDBRANCH  23  24
ENDBRANCH  22  23
ENDBRANCH  19  22
ENDBRANCH   3  18
TORSDOF 8
ENDMDL
