MODEL 1
REMARK VINA RESULT:      -9.6      0.000      0.000
REMARK  4 active torsions:
REMARK  status: ('A' for Active; 'I' for Inactive)
REMARK    1  A    between atoms: O_2  and  C_3 
REMARK    2  A    between atoms: C_3  and  C_4 
REMARK    3  A    between atoms: N_11  and  C_13 
REMARK    4  A    between atoms: C_13  and  C_14 
ROOT
HETATM    1  C   UNL     1      -5.474   1.180 -32.114  1.00  0.00     0.290 C 
HETATM    2  N   UNL     1      -6.639   1.644 -33.070  1.00  0.00    -0.047 N 
HETATM    3  H   UNL     1      -6.147   1.865 -33.952  1.00  0.00     0.279 HD
HETATM    4  H   UNL     1      -6.938   2.566 -32.716  1.00  0.00     0.279 HD
HETATM    5  C   UNL     1      -7.709   0.611 -33.360  1.00  0.00     0.172 C 
HETATM    6  C   UNL     1      -8.645   0.440 -32.151  1.00  0.00     0.073 C 
HETATM    7  C   UNL     1      -9.537   1.645 -31.881  1.00  0.00     0.238 C 
HETATM    8  N   UNL     1     -10.298   2.022 -33.126  1.00  0.00    -0.067 N 
HETATM    9  H   UNL     1     -10.954   1.255 -33.343  1.00  0.00     0.280 HD
HETATM   10  C   UNL     1      -9.418   2.275 -34.318  1.00  0.00     0.238 C 
HETATM   11  C   UNL     1      -8.523   1.073 -34.586  1.00  0.00     0.073 C 
HETATM   12  C   UNL     1      -6.968  -0.668 -33.652  1.00  0.00     0.053 A 
HETATM   13  C   UNL     1      -5.626  -0.929 -33.407  1.00  0.00    -0.018 A 
HETATM   14  C   UNL     1      -4.686   0.059 -32.800  1.00  0.00     0.085 C 
HETATM   15  N   UNL     1      -7.507  -1.811 -34.202  1.00  0.00    -0.356 N 
HETATM   16  H   UNL     1      -8.465  -1.968 -34.489  1.00  0.00     0.166 HD
HETATM   17  C   UNL     1      -6.534  -2.774 -34.342  1.00  0.00     0.043 A 
HETATM   18  C   UNL     1      -5.342  -2.249 -33.846  1.00  0.00    -0.001 A 
HETATM   19  C   UNL     1      -6.625  -4.068 -34.870  1.00  0.00     0.030 A 
HETATM   20  C   UNL     1      -5.462  -4.844 -34.888  1.00  0.00     0.002 A 
HETATM   21  C   UNL     1      -4.259  -4.345 -34.397  1.00  0.00     0.001 A 
HETATM   22  C   UNL     1      -4.184  -3.049 -33.872  1.00  0.00     0.014 A 
ENDROOT
BRANCH   1  23
HETATM   23  C   UNL     1      -4.621   2.400 -31.794  1.00  0.00     0.289 C 
HETATM   24  O   UNL     1      -5.062   3.262 -31.038  1.00  0.00    -0.263 OA
BRANCH  23  25
HETATM   25  O   UNL     1      -3.402   2.354 -32.362  1.00  0.00    -0.325 OA
HETATM   26  C   UNL     1      -2.857   3.631 -32.726  1.00  0.00     0.213 C 
ENDBRANCH  23  25
ENDBRANCH   1  23
BRANCH   8  27
HETATM   27  C   UNL     1     -11.237   3.223 -32.897  1.00  0.00     0.273 C 
BRANCH  27  28
HETATM   28  C   UNL     1     -12.682   2.836 -32.777  1.00  0.00    -0.033 A 
HETATM   29  C   UNL     1     -13.544   3.570 -31.945  1.00  0.00     0.009 A 
HETATM   30  C   UNL     1     -14.882   3.199 -31.812  1.00  0.00     0.001 A 
HETATM   31  C   UNL     1     -15.374   2.096 -32.505  1.00  0.00     0.000 A 
HETATM   32  C   UNL     1     -14.531   1.367 -33.342  1.00  0.00     0.001 A 
HETATM   33  C   UNL     1     -13.191   1.733 -33.480  1.00  0.00     0.009 A 
ENDBRANCH  27  28
ENDBRANCH   8  27
TORSDOF 4
ENDMDL
MODEL 2
REMARK VINA RESULT:      -9.4      2.527      7.240
REMARK  4 active torsions:
REMARK  status: ('A' for Active; 'I' for Inactive)
REMARK    1  A    between atoms: O_2  and  C_3 
REMARK    2  A    between atoms: C_3  and  C_4 
REMARK    3  A    between atoms: N_11  and  C_13 
REMARK    4  A    between atoms: C_13  and  C_14 
ROOT
HETATM    1  C   UNL     1      -8.348   1.160 -33.288  1.00  0.00     0.290 C 
HETATM    2  N   UNL     1      -7.306   1.542 -32.168  1.00  0.00    -0.047 N 
HETATM    3  H   UNL     1      -7.582   0.941 -31.373  1.00  0.00     0.279 HD
HETATM    4  H   UNL     1      -7.564   2.492 -31.861  1.00  0.00     0.279 HD
HETATM    5  C   UNL     1      -5.852   1.270 -32.497  1.00  0.00     0.172 C 
HETATM    6  C   UNL     1      -5.311   2.316 -33.486  1.00  0.00     0.073 C 
HETATM    7  C   UNL     1      -5.169   3.714 -32.897  1.00  0.00     0.238 C 
HETATM    8  N   UNL     1      -4.352   3.668 -31.631  1.00  0.00    -0.067 N 
HETATM    9  H   UNL     1      -3.389   3.393 -31.883  1.00  0.00     0.280 HD
HETATM   10  C   UNL     1      -4.888   2.714 -30.601  1.00  0.00     0.238 C 
HETATM   11  C   UNL     1      -5.033   1.318 -31.190  1.00  0.00     0.073 C 
HETATM   12  C   UNL     1      -5.825  -0.109 -33.103  1.00  0.00     0.053 A 
HETATM   13  C   UNL     1      -6.914  -0.845 -33.551  1.00  0.00    -0.018 A 
HETATM   14  C   UNL     1      -8.324  -0.358 -33.491  1.00  0.00     0.085 C 
HETATM   15  N   UNL     1      -4.701  -0.873 -33.331  1.00  0.00    -0.356 N 
HETATM   16  H   UNL     1      -3.737  -0.634 -33.133  1.00  0.00     0.166 HD
HETATM   17  C   UNL     1      -5.055  -2.085 -33.880  1.00  0.00     0.043 A 
HETATM   18  C   UNL     1      -6.440  -2.092 -34.034  1.00  0.00    -0.001 A 
HETATM   19  C   UNL     1      -4.250  -3.169 -34.251  1.00  0.00     0.030 A 
HETATM   20  C   UNL     1      -4.883  -4.290 -34.794  1.00  0.00     0.002 A 
HETATM   21  C   UNL     1      -6.264  -4.324 -34.961  1.00  0.00     0.001 A 
HETATM   22  C   UNL     1      -7.056  -3.232 -34.586  1.00  0.00     0.014 A 
ENDROOT
BRANCH   1  23
HETATM   23  C   UNL     1      -9.711   1.683 -32.854  1.00  0.00     0.289 C 
HETATM   24  O   UNL     1      -9.794   2.799 -32.346  1.00  0.00    -0.263 OA
BRANCH  23  25
HETATM   25  O   UNL     1     -10.717   0.839 -33.146  1.00  0.00    -0.325 OA
HETATM   26  C   UNL     1     -11.799   1.421 -33.887  1.00  0.00     0.213 C 
ENDBRANCH  23  25
ENDBRANCH   1  23
BRANCH   8  27
HETATM   27  C   UNL     1      -4.159   5.065 -31.009  1.00  0.00     0.273 C 
BRANCH  27  28
HETATM   28  C   UNL     1      -2.766   5.603 -31.171  1.00  0.00    -0.033 A 
HETATM   29  C   UNL     1      -2.484   6.941 -30.850  1.00  0.00     0.009 A 
HETATM   30  C   UNL     1      -1.197   7.452 -31.022  1.00  0.00     0.001 A 
HETATM   31  C   UNL     1      -0.182   6.635 -31.514  1.00  0.00     0.000 A 
HETATM   32  C   UNL     1      -0.448   5.304 -31.826  1.00  0.00     0.001 A 
HETATM   33  C   UNL     1      -1.733   4.786 -31.655  1.00  0.00     0.009 A 
ENDBRANCH  27  28
ENDBRANCH   8  27
TORSDOF 4
ENDMDL
MODEL 3
REMARK VINA RESULT:      -9.4      2.127      7.906
REMARK  4 active torsions:
REMARK  status: ('A' for Active; 'I' for Inactive)
REMARK    1  A    between atoms: O_2  and  C_3 
REMARK    2  A    between atoms: C_3  and  C_4 
REMARK    3  A    between atoms: N_11  and  C_13 
REMARK    4  A    between atoms: C_13  and  C_14 
ROOT
HETATM    1  C   UNL     1      -8.899   3.739 -34.002  1.00  0.00     0.290 C 
HETATM    2  N   UNL     1      -8.198   2.713 -33.030  1.00  0.00    -0.047 N 
HETATM    3  H   UNL     1      -8.523   3.013 -32.096  1.00  0.00     0.279 HD
HETATM    4  H   UNL     1      -7.197   2.964 -33.036  1.00  0.00     0.279 HD
HETATM    5  C   UNL     1      -8.568   1.257 -33.226  1.00  0.00     0.172 C 
HETATM    6  C   UNL     1      -7.880   0.682 -34.477  1.00  0.00     0.073 C 
HETATM    7  C   UNL     1      -6.370   0.533 -34.343  1.00  0.00     0.238 C 
HETATM    8  N   UNL     1      -6.030  -0.259 -33.107  1.00  0.00    -0.067 N 
HETATM    9  H   UNL     1      -6.376  -1.222 -33.240  1.00  0.00     0.280 HD
HETATM   10  C   UNL     1      -6.618   0.310 -31.845  1.00  0.00     0.238 C 
HETATM   11  C   UNL     1      -8.126   0.463 -31.980  1.00  0.00     0.073 C 
HETATM   12  C   UNL     1     -10.066   1.237 -33.379  1.00  0.00     0.053 A 
HETATM   13  C   UNL     1     -10.897   2.327 -33.604  1.00  0.00    -0.018 A 
HETATM   14  C   UNL     1     -10.405   3.732 -33.728  1.00  0.00     0.085 C 
HETATM   15  N   UNL     1     -10.872   0.120 -33.336  1.00  0.00    -0.356 N 
HETATM   16  H   UNL     1     -10.590  -0.843 -33.199  1.00  0.00     0.166 HD
HETATM   17  C   UNL     1     -12.191   0.479 -33.494  1.00  0.00     0.043 A 
HETATM   18  C   UNL     1     -12.236   1.861 -33.669  1.00  0.00    -0.001 A 
HETATM   19  C   UNL     1     -13.342  -0.318 -33.495  1.00  0.00     0.030 A 
HETATM   20  C   UNL     1     -14.572   0.320 -33.682  1.00  0.00     0.002 A 
HETATM   21  C   UNL     1     -14.645   1.698 -33.861  1.00  0.00     0.001 A 
HETATM   22  C   UNL     1     -13.486   2.482 -33.858  1.00  0.00     0.014 A 
ENDROOT
BRANCH   1  23
HETATM   23  C   UNL     1      -8.258   5.102 -33.781  1.00  0.00     0.289 C 
HETATM   24  O   UNL     1      -7.081   5.272 -34.091  1.00  0.00    -0.263 OA
BRANCH  23  25
HETATM   25  O   UNL     1      -9.119   6.017 -33.300  1.00  0.00    -0.325 OA
HETATM   26  C   UNL     1      -8.557   6.935 -32.351  1.00  0.00     0.213 C 
ENDBRANCH  23  25
ENDBRANCH   1  23
BRANCH   8  27
HETATM   27  C   UNL     1      -4.511  -0.459 -32.940  1.00  0.00     0.273 C 
BRANCH  27  28
HETATM   28  C   UNL     1      -4.089  -1.898 -33.001  1.00  0.00    -0.033 A 
HETATM   29  C   UNL     1      -4.488  -2.707 -34.079  1.00  0.00     0.009 A 
HETATM   30  C   UNL     1      -4.118  -4.051 -34.127  1.00  0.00     0.001 A 
HETATM   31  C   UNL     1      -3.348  -4.601 -33.105  1.00  0.00     0.000 A 
HETATM   32  C   UNL     1      -2.938  -3.806 -32.037  1.00  0.00     0.001 A 
HETATM   33  C   UNL     1      -3.303  -2.460 -31.983  1.00  0.00     0.009 A 
ENDBRANCH  27  28
ENDBRANCH   8  27
TORSDOF 4
ENDMDL
MODEL 4
REMARK VINA RESULT:      -9.0      1.537      1.979
REMARK  4 active torsions:
REMARK  status: ('A' for Active; 'I' for Inactive)
REMARK    1  A    between atoms: O_2  and  C_3 
REMARK    2  A    between atoms: C_3  and  C_4 
REMARK    3  A    between atoms: N_11  and  C_13 
REMARK    4  A    between atoms: C_13  and  C_14 
ROOT
HETATM    1  C   UNL     1      -4.723   0.954 -32.179  1.00  0.00     0.290 C 
HETATM    2  N   UNL     1      -5.894   1.606 -33.011  1.00  0.00    -0.047 N 
HETATM    3  H   UNL     1      -5.460   1.779 -33.933  1.00  0.00     0.279 HD
HETATM    4  H   UNL     1      -6.021   2.551 -32.617  1.00  0.00     0.279 HD
HETATM    5  C   UNL     1      -7.124   0.745 -33.208  1.00  0.00     0.172 C 
HETATM    6  C   UNL     1      -7.957   0.678 -31.917  1.00  0.00     0.073 C 
HETATM    7  C   UNL     1      -8.635   1.990 -31.545  1.00  0.00     0.238 C 
HETATM    8  N   UNL     1      -9.448   2.505 -32.705  1.00  0.00    -0.067 N 
HETATM    9  H   UNL     1     -10.226   1.847 -32.867  1.00  0.00     0.280 HD
HETATM   10  C   UNL     1      -8.657   2.662 -33.973  1.00  0.00     0.238 C 
HETATM   11  C   UNL     1      -7.975   1.352 -34.343  1.00  0.00     0.073 C 
HETATM   12  C   UNL     1      -6.608  -0.618 -33.588  1.00  0.00     0.053 A 
HETATM   13  C   UNL     1      -5.301  -1.075 -33.479  1.00  0.00    -0.018 A 
HETATM   14  C   UNL     1      -4.175  -0.249 -32.954  1.00  0.00     0.085 C 
HETATM   15  N   UNL     1      -7.357  -1.657 -34.099  1.00  0.00    -0.356 N 
HETATM   16  H   UNL     1      -8.350  -1.667 -34.293  1.00  0.00     0.166 HD
HETATM   17  C   UNL     1      -6.552  -2.745 -34.346  1.00  0.00     0.043 A 
HETATM   18  C   UNL     1      -5.255  -2.410 -33.962  1.00  0.00    -0.001 A 
HETATM   19  C   UNL     1      -6.879  -3.997 -34.879  1.00  0.00     0.030 A 
HETATM   20  C   UNL     1      -5.848  -4.931 -35.022  1.00  0.00     0.002 A 
HETATM   21  C   UNL     1      -4.545  -4.623 -34.644  1.00  0.00     0.001 A 
HETATM   22  C   UNL     1      -4.233  -3.367 -34.111  1.00  0.00     0.014 A 
ENDROOT
BRANCH   1  23
HETATM   23  C   UNL     1      -3.675   2.030 -31.927  1.00  0.00     0.289 C 
HETATM   24  O   UNL     1      -2.787   1.825 -31.103  1.00  0.00    -0.263 OA
BRANCH  23  25
HETATM   25  O   UNL     1      -3.825   3.107 -32.720  1.00  0.00    -0.325 OA
HETATM   26  C   UNL     1      -2.708   4.007 -32.734  1.00  0.00     0.213 C 
ENDBRANCH  23  25
ENDBRANCH   1  23
BRANCH   8  27
HETATM   27  C   UNL     1     -10.176   3.822 -32.369  1.00  0.00     0.273 C 
BRANCH  27  28
HETATM   28  C   UNL     1     -11.033   4.332 -33.491  1.00  0.00    -0.033 A 
HETATM   29  C   UNL     1     -10.821   5.620 -34.012  1.00  0.00     0.009 A 
HETATM   30  C   UNL     1     -11.632   6.108 -35.038  1.00  0.00     0.001 A 
HETATM   31  C   UNL     1     -12.657   5.319 -35.553  1.00  0.00     0.000 A 
HETATM   32  C   UNL     1     -12.869   4.036 -35.052  1.00  0.00     0.001 A 
HETATM   33  C   UNL     1     -12.062   3.542 -34.026  1.00  0.00     0.009 A 
ENDBRANCH  27  28
ENDBRANCH   8  27
TORSDOF 4
ENDMDL
MODEL 5
REMARK VINA RESULT:      -8.5      2.397      8.041
REMARK  4 active torsions:
REMARK  status: ('A' for Active; 'I' for Inactive)
REMARK    1  A    between atoms: O_2  and  C_3 
REMARK    2  A    between atoms: C_3  and  C_4 
REMARK    3  A    between atoms: N_11  and  C_13 
REMARK    4  A    between atoms: C_13  and  C_14 
ROOT
HETATM    1  C   UNL     1      -7.064  -0.476 -33.217  1.00  0.00     0.290 C 
HETATM    2  N   UNL     1      -6.319   0.881 -33.522  1.00  0.00    -0.047 N 
HETATM    3  H   UNL     1      -6.462   1.005 -34.538  1.00  0.00     0.279 HD
HETATM    4  H   UNL     1      -5.313   0.671 -33.437  1.00  0.00     0.279 HD
HETATM    5  C   UNL     1      -6.854   2.104 -32.805  1.00  0.00     0.172 C 
HETATM    6  C   UNL     1      -6.432   2.099 -31.326  1.00  0.00     0.073 C 
HETATM    7  C   UNL     1      -4.941   2.319 -31.104  1.00  0.00     0.238 C 
HETATM    8  N   UNL     1      -4.487   3.571 -31.808  1.00  0.00    -0.067 N 
HETATM    9  H   UNL     1      -4.940   4.377 -31.350  1.00  0.00     0.280 HD
HETATM   10  C   UNL     1      -4.809   3.589 -33.276  1.00  0.00     0.238 C 
HETATM   11  C   UNL     1      -6.298   3.365 -33.499  1.00  0.00     0.073 C 
HETATM   12  C   UNL     1      -8.352   2.029 -32.938  1.00  0.00     0.053 A 
HETATM   13  C   UNL     1      -9.100   0.932 -33.348  1.00  0.00    -0.018 A 
HETATM   14  C   UNL     1      -8.502  -0.379 -33.736  1.00  0.00     0.085 C 
HETATM   15  N   UNL     1      -9.245   3.041 -32.656  1.00  0.00    -0.356 N 
HETATM   16  H   UNL     1      -9.037   3.974 -32.322  1.00  0.00     0.166 HD
HETATM   17  C   UNL     1     -10.531   2.624 -32.910  1.00  0.00     0.043 A 
HETATM   18  C   UNL     1     -10.470   1.301 -33.342  1.00  0.00    -0.001 A 
HETATM   19  C   UNL     1     -11.739   3.322 -32.788  1.00  0.00     0.030 A 
HETATM   20  C   UNL     1     -12.916   2.643 -33.116  1.00  0.00     0.002 A 
HETATM   21  C   UNL     1     -12.884   1.320 -33.547  1.00  0.00     0.001 A 
HETATM   22  C   UNL     1     -11.669   0.635 -33.665  1.00  0.00     0.014 A 
ENDROOT
BRANCH   1  23
HETATM   23  C   UNL     1      -6.268  -1.599 -33.867  1.00  0.00     0.289 C 
HETATM   24  O   UNL     1      -5.046  -1.505 -33.947  1.00  0.00    -0.263 OA
BRANCH  23  25
HETATM   25  O   UNL     1      -7.036  -2.639 -34.243  1.00  0.00    -0.325 OA
HETATM   26  C   UNL     1      -6.334  -3.698 -34.910  1.00  0.00     0.213 C 
ENDBRANCH  23  25
ENDBRANCH   1  23
BRANCH   8  27
HETATM   27  C   UNL     1      -2.986   3.852 -31.592  1.00  0.00     0.273 C 
BRANCH  27  28
HETATM   28  C   UNL     1      -2.511   5.106 -32.267  1.00  0.00    -0.033 A 
HETATM   29  C   UNL     1      -1.664   5.029 -33.385  1.00  0.00     0.009 A 
HETATM   30  C   UNL     1      -1.200   6.193 -34.000  1.00  0.00     0.001 A 
HETATM   31  C   UNL     1      -1.575   7.440 -33.508  1.00  0.00     0.000 A 
HETATM   32  C   UNL     1      -2.424   7.528 -32.407  1.00  0.00     0.001 A 
HETATM   33  C   UNL     1      -2.892   6.369 -31.787  1.00  0.00     0.009 A 
ENDBRANCH  27  28
ENDBRANCH   8  27
TORSDOF 4
ENDMDL
MODEL 6
REMARK VINA RESULT:      -8.4      2.263      5.285
REMARK  4 active torsions:
REMARK  status: ('A' for Active; 'I' for Inactive)
REMARK    1  A    between atoms: O_2  and  C_3 
REMARK    2  A    between atoms: C_3  and  C_4 
REMARK    3  A    between atoms: N_11  and  C_13 
REMARK    4  A    between atoms: C_13  and  C_14 
ROOT
HETATM    1  C   UNL     1      -4.412  -0.032 -32.980  1.00  0.00     0.290 C 
HETATM    2  N   UNL     1      -5.783   0.181 -32.229  1.00  0.00    -0.047 N 
HETATM    3  H   UNL     1      -5.503   0.227 -31.235  1.00  0.00     0.279 HD
HETATM    4  H   UNL     1      -6.283  -0.718 -32.303  1.00  0.00     0.279 HD
HETATM    5  C   UNL     1      -6.539   1.447 -32.578  1.00  0.00     0.172 C 
HETATM    6  C   UNL     1      -7.209   1.320 -33.957  1.00  0.00     0.073 C 
HETATM    7  C   UNL     1      -8.364   0.328 -33.998  1.00  0.00     0.238 C 
HETATM    8  N   UNL     1      -9.366   0.647 -32.919  1.00  0.00    -0.067 N 
HETATM    9  H   UNL     1      -9.797   1.558 -33.143  1.00  0.00     0.280 HD
HETATM   10  C   UNL     1      -8.771   0.705 -31.540  1.00  0.00     0.238 C 
HETATM   11  C   UNL     1      -7.613   1.693 -31.499  1.00  0.00     0.073 C 
HETATM   12  C   UNL     1      -5.509   2.546 -32.579  1.00  0.00     0.053 A 
HETATM   13  C   UNL     1      -4.128   2.396 -32.572  1.00  0.00    -0.018 A 
HETATM   14  C   UNL     1      -3.439   1.072 -32.557  1.00  0.00     0.085 C 
HETATM   15  N   UNL     1      -5.767   3.900 -32.603  1.00  0.00    -0.356 N 
HETATM   16  H   UNL     1      -6.669   4.359 -32.624  1.00  0.00     0.166 HD
HETATM   17  C   UNL     1      -4.587   4.608 -32.577  1.00  0.00     0.043 A 
HETATM   18  C   UNL     1      -3.540   3.688 -32.561  1.00  0.00    -0.001 A 
HETATM   19  C   UNL     1      -4.374   5.992 -32.567  1.00  0.00     0.030 A 
HETATM   20  C   UNL     1      -3.051   6.444 -32.541  1.00  0.00     0.002 A 
HETATM   21  C   UNL     1      -1.987   5.547 -32.528  1.00  0.00     0.001 A 
HETATM   22  C   UNL     1      -2.216   4.166 -32.539  1.00  0.00     0.014 A 
ENDROOT
BRANCH   1  23
HETATM   23  C   UNL     1      -3.911  -1.430 -32.646  1.00  0.00     0.289 C 
HETATM   24  O   UNL     1      -3.325  -1.623 -31.583  1.00  0.00    -0.263 OA
BRANCH  23  25
HETATM   25  O   UNL     1      -4.237  -2.344 -33.579  1.00  0.00    -0.325 OA
HETATM   26  C   UNL     1      -3.723  -3.662 -33.340  1.00  0.00     0.213 C 
ENDBRANCH  23  25
ENDBRANCH   1  23
BRANCH   8  27
HETATM   27  C   UNL     1     -10.570  -0.316 -32.936  1.00  0.00     0.273 C 
BRANCH  27  28
HETATM   28  C   UNL     1     -11.819   0.300 -33.497  1.00  0.00    -0.033 A 
HETATM   29  C   UNL     1     -11.792   1.605 -34.016  1.00  0.00     0.009 A 
HETATM   30  C   UNL     1     -12.956   2.189 -34.516  1.00  0.00     0.001 A 
HETATM   31  C   UNL     1     -14.154   1.480 -34.504  1.00  0.00     0.000 A 
HETATM   32  C   UNL     1     -14.191   0.182 -34.001  1.00  0.00     0.001 A 
HETATM   33  C   UNL     1     -13.030  -0.410 -33.501  1.00  0.00     0.009 A 
ENDBRANCH  27  28
ENDBRANCH   8  27
TORSDOF 4
ENDMDL
MODEL 7
REMARK VINA RESULT:      -8.4      3.064      5.430
REMARK  4 active torsions:
REMARK  status: ('A' for Active; 'I' for Inactive)
REMARK    1  A    between atoms: O_2  and  C_3 
REMARK    2  A    between atoms: C_3  and  C_4 
REMARK    3  A    between atoms: N_11  and  C_13 
REMARK    4  A    between atoms: C_13  and  C_14 
ROOT
HETATM    1  C   UNL     1      -8.284   1.206 -33.956  1.00  0.00     0.290 C 
HETATM    2  N   UNL     1      -7.616   1.558 -32.571  1.00  0.00    -0.047 N 
HETATM    3  H   UNL     1      -8.126   0.955 -31.904  1.00  0.00     0.279 HD
HETATM    4  H   UNL     1      -7.939   2.510 -32.341  1.00  0.00     0.279 HD
HETATM    5  C   UNL     1      -6.135   1.261 -32.456  1.00  0.00     0.172 C 
HETATM    6  C   UNL     1      -5.307   2.306 -33.224  1.00  0.00     0.073 C 
HETATM    7  C   UNL     1      -5.326   3.695 -32.600  1.00  0.00     0.238 C 
HETATM    8  N   UNL     1      -4.923   3.622 -31.149  1.00  0.00    -0.067 N 
HETATM    9  H   UNL     1      -3.934   3.331 -31.107  1.00  0.00     0.280 HD
HETATM   10  C   UNL     1      -5.757   2.669 -30.339  1.00  0.00     0.238 C 
HETATM   11  C   UNL     1      -5.742   1.281 -30.965  1.00  0.00     0.073 C 
HETATM   12  C   UNL     1      -5.950  -0.112 -33.046  1.00  0.00     0.053 A 
HETATM   13  C   UNL     1      -6.868  -0.823 -33.809  1.00  0.00    -0.018 A 
HETATM   14  C   UNL     1      -8.224  -0.310 -34.164  1.00  0.00     0.085 C 
HETATM   15  N   UNL     1      -4.821  -0.896 -32.941  1.00  0.00    -0.356 N 
HETATM   16  H   UNL     1      -3.957  -0.677 -32.461  1.00  0.00     0.166 HD
HETATM   17  C   UNL     1      -5.014  -2.096 -33.588  1.00  0.00     0.043 A 
HETATM   18  C   UNL     1      -6.291  -2.075 -34.147  1.00  0.00    -0.001 A 
HETATM   19  C   UNL     1      -4.153  -3.191 -33.717  1.00  0.00     0.030 A 
HETATM   20  C   UNL     1      -4.612  -4.296 -34.441  1.00  0.00     0.002 A 
HETATM   21  C   UNL     1      -5.882  -4.301 -35.011  1.00  0.00     0.001 A 
HETATM   22  C   UNL     1      -6.732  -3.198 -34.874  1.00  0.00     0.014 A 
ENDROOT
BRANCH   1  23
HETATM   23  C   UNL     1      -9.705   1.751 -33.940  1.00  0.00     0.289 C 
HETATM   24  O   UNL     1      -9.937   2.846 -34.447  1.00  0.00    -0.263 OA
BRANCH  23  25
HETATM   25  O   UNL     1     -10.591   0.898 -33.393  1.00  0.00    -0.325 OA
HETATM   26  C   UNL     1     -11.962   1.155 -33.726  1.00  0.00     0.213 C 
ENDBRANCH  23  25
ENDBRANCH   1  23
BRANCH   8  27
HETATM   27  C   UNL     1      -4.902   5.010 -30.478  1.00  0.00     0.273 C 
BRANCH  27  28
HETATM   28  C   UNL     1      -6.251   5.459 -29.995  1.00  0.00    -0.033 A 
HETATM   29  C   UNL     1      -7.230   5.869 -30.915  1.00  0.00     0.009 A 
HETATM   30  C   UNL     1      -8.477   6.311 -30.469  1.00  0.00     0.001 A 
HETATM   31  C   UNL     1      -8.758   6.348 -29.106  1.00  0.00     0.000 A 
HETATM   32  C   UNL     1      -7.798   5.934 -28.185  1.00  0.00     0.001 A 
HETATM   33  C   UNL     1      -6.550   5.490 -28.624  1.00  0.00     0.009 A 
ENDBRANCH  27  28
ENDBRANCH   8  27
TORSDOF 4
ENDMDL
MODEL 8
REMARK VINA RESULT:      -8.2      2.223      8.149
REMARK  4 active torsions:
REMARK  status: ('A' for Active; 'I' for Inactive)
REMARK    1  A    between atoms: O_2  and  C_3 
REMARK    2  A    between atoms: C_3  and  C_4 
REMARK    3  A    between atoms: N_11  and  C_13 
REMARK    4  A    between atoms: C_13  and  C_14 
ROOT
HETATM    1  C   UNL     1     -10.016   4.975 -32.406  1.00  0.00     0.290 C 
HETATM    2  N   UNL     1      -9.357   3.578 -32.083  1.00  0.00    -0.047 N 
HETATM    3  H   UNL     1      -9.529   3.465 -31.070  1.00  0.00     0.279 HD
HETATM    4  H   UNL     1      -8.339   3.731 -32.146  1.00  0.00     0.279 HD
HETATM    5  C   UNL     1      -9.944   2.386 -32.809  1.00  0.00     0.172 C 
HETATM    6  C   UNL     1      -9.490   2.363 -34.279  1.00  0.00     0.073 C 
HETATM    7  C   UNL     1      -8.009   2.058 -34.467  1.00  0.00     0.238 C 
HETATM    8  N   UNL     1      -7.643   0.783 -33.751  1.00  0.00    -0.067 N 
HETATM    9  H   UNL     1      -8.132   0.003 -34.218  1.00  0.00     0.280 HD
HETATM   10  C   UNL     1      -7.998   0.788 -32.291  1.00  0.00     0.238 C 
HETATM   11  C   UNL     1      -9.477   1.097 -32.101  1.00  0.00     0.073 C 
HETATM   12  C   UNL     1     -11.439   2.546 -32.710  1.00  0.00     0.053 A 
HETATM   13  C   UNL     1     -12.131   3.685 -32.318  1.00  0.00    -0.018 A 
HETATM   14  C   UNL     1     -11.468   4.962 -31.919  1.00  0.00     0.085 C 
HETATM   15  N   UNL     1     -12.381   1.586 -33.010  1.00  0.00    -0.356 N 
HETATM   16  H   UNL     1     -12.220   0.641 -33.338  1.00  0.00     0.166 HD
HETATM   17  C   UNL     1     -13.647   2.077 -32.786  1.00  0.00     0.043 A 
HETATM   18  C   UNL     1     -13.520   3.396 -32.354  1.00  0.00    -0.001 A 
HETATM   19  C   UNL     1     -14.889   1.449 -32.934  1.00  0.00     0.030 A 
HETATM   20  C   UNL     1     -16.033   2.194 -32.633  1.00  0.00     0.002 A 
HETATM   21  C   UNL     1     -15.935   3.514 -32.203  1.00  0.00     0.001 A 
HETATM   22  C   UNL     1     -14.686   4.129 -32.060  1.00  0.00     0.014 A 
ENDROOT
BRANCH   1  23
HETATM   23  C   UNL     1      -9.172   6.053 -31.741  1.00  0.00     0.289 C 
HETATM   24  O   UNL     1      -8.659   6.929 -32.432  1.00  0.00    -0.263 OA
BRANCH  23  25
HETATM   25  O   UNL     1      -9.136   5.941 -30.400  1.00  0.00    -0.325 OA
HETATM   26  C   UNL     1      -9.284   7.177 -29.686  1.00  0.00     0.213 C 
ENDBRANCH  23  25
ENDBRANCH   1  23
BRANCH   8  27
HETATM   27  C   UNL     1      -6.157   0.417 -33.933  1.00  0.00     0.273 C 
BRANCH  27  28
HETATM   28  C   UNL     1      -5.929  -1.047 -34.178  1.00  0.00    -0.033 A 
HETATM   29  C   UNL     1      -4.650  -1.602 -34.002  1.00  0.00     0.009 A 
HETATM   30  C   UNL     1      -4.429  -2.957 -34.252  1.00  0.00     0.001 A 
HETATM   31  C   UNL     1      -5.477  -3.769 -34.677  1.00  0.00     0.000 A 
HETATM   32  C   UNL     1      -6.751  -3.232 -34.844  1.00  0.00     0.001 A 
HETATM   33  C   UNL     1      -6.980  -1.878 -34.595  1.00  0.00     0.009 A 
ENDBRANCH  27  28
ENDBRANCH   8  27
TORSDOF 4
ENDMDL
MODEL 9
REMARK VINA RESULT:      -8.2      2.328      7.377
REMARK  4 active torsions:
REMARK  status: ('A' for Active; 'I' for Inactive)
REMARK    1  A    between atoms: O_2  and  C_3 
REMARK    2  A    between atoms: C_3  and  C_4 
REMARK    3  A    between atoms: N_11  and  C_13 
REMARK    4  A    between atoms: C_13  and  C_14 
ROOT
HETATM    1  C   UNL     1      -7.961   0.600 -32.143  1.00  0.00     0.290 C 
HETATM    2  N   UNL     1      -7.543   1.931 -32.879  1.00  0.00    -0.047 N 
HETATM    3  H   UNL     1      -7.451   1.636 -33.866  1.00  0.00     0.279 HD
HETATM    4  H   UNL     1      -6.572   2.117 -32.586  1.00  0.00     0.279 HD
HETATM    5  C   UNL     1      -8.541   3.069 -32.806  1.00  0.00     0.172 C 
HETATM    6  C   UNL     1      -8.520   3.724 -31.414  1.00  0.00     0.073 C 
HETATM    7  C   UNL     1      -7.244   4.499 -31.110  1.00  0.00     0.238 C 
HETATM    8  N   UNL     1      -6.969   5.501 -32.202  1.00  0.00    -0.067 N 
HETATM    9  H   UNL     1      -7.717   6.211 -32.179  1.00  0.00     0.280 HD
HETATM   10  C   UNL     1      -6.902   4.894 -33.575  1.00  0.00     0.238 C 
HETATM   11  C   UNL     1      -8.175   4.116 -33.878  1.00  0.00     0.073 C 
HETATM   12  C   UNL     1      -9.884   2.449 -33.089  1.00  0.00     0.053 A 
HETATM   13  C   UNL     1     -10.191   1.094 -33.106  1.00  0.00    -0.018 A 
HETATM   14  C   UNL     1      -9.195   0.015 -32.838  1.00  0.00     0.085 C 
HETATM   15  N   UNL     1     -11.050   3.129 -33.368  1.00  0.00    -0.356 N 
HETATM   16  H   UNL     1     -11.184   4.132 -33.423  1.00  0.00     0.166 HD
HETATM   17  C   UNL     1     -12.076   2.240 -33.592  1.00  0.00     0.043 A 
HETATM   18  C   UNL     1     -11.566   0.954 -33.430  1.00  0.00    -0.001 A 
HETATM   19  C   UNL     1     -13.414   2.484 -33.926  1.00  0.00     0.030 A 
HETATM   20  C   UNL     1     -14.251   1.377 -34.096  1.00  0.00     0.002 A 
HETATM   21  C   UNL     1     -13.769   0.082 -33.937  1.00  0.00     0.001 A 
HETATM   22  C   UNL     1     -12.428  -0.146 -33.603  1.00  0.00     0.014 A 
ENDROOT
BRANCH   1  23
HETATM   23  C   UNL     1      -6.763  -0.340 -32.164  1.00  0.00     0.289 C 
HETATM   24  O   UNL     1      -6.018  -0.387 -31.189  1.00  0.00    -0.263 OA
BRANCH  23  25
HETATM   25  O   UNL     1      -6.695  -1.083 -33.284  1.00  0.00    -0.325 OA
HETATM   26  C   UNL     1      -5.399  -1.135 -33.897  1.00  0.00     0.213 C 
ENDBRANCH  23  25
ENDBRANCH   1  23
BRANCH   8  27
HETATM   27  C   UNL     1      -5.698   6.330 -31.927  1.00  0.00     0.273 C 
BRANCH  27  28
HETATM   28  C   UNL     1      -4.434   5.645 -32.359  1.00  0.00    -0.033 A 
HETATM   29  C   UNL     1      -3.831   4.685 -31.529  1.00  0.00     0.009 A 
HETATM   30  C   UNL     1      -2.643   4.064 -31.916  1.00  0.00     0.001 A 
HETATM   31  C   UNL     1      -2.046   4.393 -33.131  1.00  0.00     0.000 A 
HETATM   32  C   UNL     1      -2.641   5.336 -33.967  1.00  0.00     0.001 A 
HETATM   33  C   UNL     1      -3.830   5.960 -33.586  1.00  0.00     0.009 A 
ENDBRANCH  27  28
ENDBRANCH   8  27
TORSDOF 4
ENDMDL
MODEL 10
REMARK VINA RESULT:      -8.0     14.650     16.448
REMARK  4 active torsions:
REMARK  status: ('A' for Active; 'I' for Inactive)
REMARK    1  A    between atoms: O_2  and  C_3 
REMARK    2  A    between atoms: C_3  and  C_4 
REMARK    3  A    between atoms: N_11  and  C_13 
REMARK    4  A    between atoms: C_13  and  C_14 
ROOT
HETATM    1  C   UNL     1      -4.025 -13.150 -37.736  1.00  0.00     0.290 C 
HETATM    2  N   UNL     1      -4.485 -13.083 -36.229  1.00  0.00    -0.047 N 
HETATM    3  H   UNL     1      -4.674 -12.077 -36.084  1.00  0.00     0.279 HD
HETATM    4  H   UNL     1      -3.635 -13.258 -35.671  1.00  0.00     0.279 HD
HETATM    5  C   UNL     1      -5.736 -13.865 -35.884  1.00  0.00     0.172 C 
HETATM    6  C   UNL     1      -5.438 -15.373 -35.822  1.00  0.00     0.073 C 
HETATM    7  C   UNL     1      -4.561 -15.786 -34.647  1.00  0.00     0.238 C 
HETATM    8  N   UNL     1      -5.148 -15.280 -33.354  1.00  0.00    -0.067 N 
HETATM    9  H   UNL     1      -6.043 -15.770 -33.196  1.00  0.00     0.280 HD
HETATM   10  C   UNL     1      -5.386 -13.796 -33.338  1.00  0.00     0.238 C 
HETATM   11  C   UNL     1      -6.258 -13.382 -34.515  1.00  0.00     0.073 C 
HETATM   12  C   UNL     1      -6.722 -13.555 -36.980  1.00  0.00     0.053 A 
HETATM   13  C   UNL     1      -6.452 -12.944 -38.197  1.00  0.00    -0.018 A 
HETATM   14  C   UNL     1      -5.093 -12.484 -38.610  1.00  0.00     0.085 C 
HETATM   15  N   UNL     1      -8.070 -13.843 -36.965  1.00  0.00    -0.356 N 
HETATM   16  H   UNL     1      -8.598 -14.300 -36.231  1.00  0.00     0.166 HD
HETATM   17  C   UNL     1      -8.663 -13.401 -38.125  1.00  0.00     0.043 A 
HETATM   18  C   UNL     1      -7.668 -12.835 -38.920  1.00  0.00    -0.001 A 
HETATM   19  C   UNL     1     -10.003 -13.461 -38.525  1.00  0.00     0.030 A 
HETATM   20  C   UNL     1     -10.332 -12.929 -39.774  1.00  0.00     0.002 A 
HETATM   21  C   UNL     1      -9.358 -12.360 -40.590  1.00  0.00     0.001 A 
HETATM   22  C   UNL     1      -8.022 -12.307 -40.177  1.00  0.00     0.014 A 
ENDROOT
BRANCH   1  23
HETATM   23  C   UNL     1      -2.664 -12.474 -37.838  1.00  0.00     0.289 C 
HETATM   24  O   UNL     1      -2.578 -11.366 -38.361  1.00  0.00    -0.263 OA
BRANCH  23  25
HETATM   25  O   UNL     1      -1.678 -13.186 -37.262  1.00  0.00    -0.325 OA
HETATM   26  C   UNL     1      -1.204 -14.298 -38.035  1.00  0.00     0.213 C 
ENDBRANCH  23  25
ENDBRANCH   1  23
BRANCH   8  27
HETATM   27  C   UNL     1      -4.309 -15.695 -32.129  1.00  0.00     0.273 C 
BRANCH  27  28
HETATM   28  C   UNL     1      -5.121 -16.322 -31.033  1.00  0.00    -0.033 A 
HETATM   29  C   UNL     1      -4.624 -16.363 -29.720  1.00  0.00     0.009 A 
HETATM   30  C   UNL     1      -5.365 -16.967 -28.704  1.00  0.00     0.001 A 
HETATM   31  C   UNL     1      -6.606 -17.532 -28.986  1.00  0.00     0.000 A 
HETATM   32  C   UNL     1      -7.114 -17.487 -30.282  1.00  0.00     0.001 A 
HETATM   33  C   UNL     1      -6.379 -16.884 -31.303  1.00  0.00     0.009 A 
ENDBRANCH  27  28
ENDBRANCH   8  27
TORSDOF 4
ENDMDL
