MODEL 1
REMARK VINA RESULT:      -8.3      0.000      0.000
REMARK  3 active torsions:
REMARK  status: ('A' for Active; 'I' for Inactive)
REMARK    1  A    between atoms: C_3  and  N_4 
REMARK       I    between atoms: N_4  and  C_5 
REMARK    2  A    between atoms: C_5  and  C_6 
REMARK    3  A    between atoms: C_6  and  C_7 
ROOT
HETATM    1  C   UNL     1      -3.803   0.891 -31.176  1.00  0.00     0.286 C 
HETATM    2  N   UNL     1      -5.224   0.322 -31.061  1.00  0.00    -0.056 N 
HETATM    3  H   UNL     1      -5.302  -0.504 -31.687  1.00  0.00     0.278 HD
HETATM    4  H   UNL     1      -5.385  -0.018 -30.104  1.00  0.00     0.278 HD
HETATM    5  C   UNL     1      -6.323   1.268 -31.476  1.00  0.00     0.209 C 
HETATM    6  C   UNL     1      -6.133   2.618 -30.760  1.00  0.00     0.115 C 
HETATM    7  N   UNL     1      -4.822   3.174 -31.051  1.00  0.00    -0.353 N 
HETATM    8  C   UNL     1      -3.691   2.429 -31.228  1.00  0.00     0.249 C 
HETATM    9  O   UNL     1      -2.623   2.991 -31.457  1.00  0.00    -0.271 OA
HETATM   10  C   UNL     1      -7.680   0.653 -31.156  1.00  0.00     0.035 C 
HETATM   11  C   UNL     1      -8.798   1.612 -31.565  1.00  0.00     0.002 C 
HETATM   12  C   UNL     1      -8.629   2.992 -30.931  1.00  0.00     0.002 C 
HETATM   13  C   UNL     1      -7.242   3.586 -31.180  1.00  0.00     0.027 C 
HETATM   14  H   UNL     1      -4.672   4.181 -30.999  1.00  0.00     0.163 HD
ENDROOT
BRANCH   1  15
HETATM   15  C   UNL     1      -3.025   0.269 -32.342  1.00  0.00     0.146 C 
BRANCH  15  16
HETATM   16  C   UNL     1      -3.535  -1.127 -32.569  1.00  0.00     0.224 C 
HETATM   17  N   UNL     1      -4.169  -1.317 -33.775  1.00  0.00    -0.327 N 
HETATM   18  H   UNL     1      -4.352  -0.493 -34.344  1.00  0.00     0.169 HD
HETATM   19  O   UNL     1      -3.515  -1.890 -31.603  1.00  0.00    -0.273 OA
BRANCH  17  20
HETATM   20  C   UNL     1      -4.908  -2.467 -34.148  1.00  0.00     0.040 A 
HETATM   21  C   UNL     1      -6.279  -2.492 -34.459  1.00  0.00    -0.035 A 
HETATM   22  C   UNL     1      -7.223  -1.336 -34.277  1.00  0.00     0.050 C 
HETATM   23  C   UNL     1      -6.849  -3.700 -34.912  1.00  0.00     0.009 A 
HETATM   24  C   UNL     1      -6.098  -4.871 -34.992  1.00  0.00     0.001 A 
HETATM   25  C   UNL     1      -4.764  -4.859 -34.608  1.00  0.00     0.002 A 
HETATM   26  C   UNL     1      -4.177  -3.667 -34.180  1.00  0.00     0.030 A 
ENDBRANCH  17  20
ENDBRANCH  15  16
ENDBRANCH   1  15
TORSDOF 3
ENDMDL
MODEL 2
REMARK VINA RESULT:      -8.2      3.813      4.974
REMARK  3 active torsions:
REMARK  status: ('A' for Active; 'I' for Inactive)
REMARK    1  A    between atoms: C_3  and  N_4 
REMARK       I    between atoms: N_4  and  C_5 
REMARK    2  A    between atoms: C_5  and  C_6 
REMARK    3  A    between atoms: C_6  and  C_7 
ROOT
HETATM    1  C   UNL     1      -9.279   1.239 -33.451  1.00  0.00     0.286 C 
HETATM    2  N   UNL     1     -10.466   0.275 -33.327  1.00  0.00    -0.056 N 
HETATM    3  H   UNL     1     -10.262  -0.577 -33.885  1.00  0.00     0.278 HD
HETATM    4  H   UNL     1     -10.565  -0.030 -32.351  1.00  0.00     0.278 HD
HETATM    5  C   UNL     1     -11.777   0.811 -33.847  1.00  0.00     0.209 C 
HETATM    6  C   UNL     1     -12.038   2.202 -33.238  1.00  0.00     0.115 C 
HETATM    7  N   UNL     1     -10.942   3.108 -33.539  1.00  0.00    -0.353 N 
HETATM    8  C   UNL     1      -9.632   2.731 -33.625  1.00  0.00     0.249 C 
HETATM    9  O   UNL     1      -8.772   3.573 -33.871  1.00  0.00    -0.271 OA
HETATM   10  C   UNL     1     -12.901  -0.163 -33.514  1.00  0.00     0.035 C 
HETATM   11  C   UNL     1     -14.233   0.380 -34.029  1.00  0.00     0.002 C 
HETATM   12  C   UNL     1     -14.519   1.788 -33.505  1.00  0.00     0.002 C 
HETATM   13  C   UNL     1     -13.364   2.756 -33.765  1.00  0.00     0.027 C 
HETATM   14  H   UNL     1     -11.105   4.114 -33.566  1.00  0.00     0.163 HD
ENDROOT
BRANCH   1  15
HETATM   15  C   UNL     1      -8.293   0.803 -34.542  1.00  0.00     0.146 C 
BRANCH  15  16
HETATM   16  C   UNL     1      -7.415  -0.284 -33.989  1.00  0.00     0.224 C 
HETATM   17  N   UNL     1      -6.721  -0.998 -34.938  1.00  0.00    -0.327 N 
HETATM   18  H   UNL     1      -6.947  -0.826 -35.915  1.00  0.00     0.169 HD
HETATM   19  O   UNL     1      -7.549  -0.555 -32.795  1.00  0.00    -0.273 OA
BRANCH  17  20
HETATM   20  C   UNL     1      -5.989  -2.189 -34.704  1.00  0.00     0.040 A 
HETATM   21  C   UNL     1      -4.752  -2.272 -34.041  1.00  0.00    -0.035 A 
HETATM   22  C   UNL     1      -3.920  -1.091 -33.623  1.00  0.00     0.050 C 
HETATM   23  C   UNL     1      -4.197  -3.545 -33.797  1.00  0.00     0.009 A 
HETATM   24  C   UNL     1      -4.816  -4.706 -34.258  1.00  0.00     0.001 A 
HETATM   25  C   UNL     1      -5.997  -4.614 -34.982  1.00  0.00     0.002 A 
HETATM   26  C   UNL     1      -6.574  -3.363 -35.211  1.00  0.00     0.030 A 
ENDBRANCH  17  20
ENDBRANCH  15  16
ENDBRANCH   1  15
TORSDOF 3
ENDMDL
MODEL 3
REMARK VINA RESULT:      -8.0      3.964      5.298
REMARK  3 active torsions:
REMARK  status: ('A' for Active; 'I' for Inactive)
REMARK    1  A    between atoms: C_3  and  N_4 
REMARK       I    between atoms: N_4  and  C_5 
REMARK    2  A    between atoms: C_5  and  C_6 
REMARK    3  A    between atoms: C_6  and  C_7 
ROOT
HETATM    1  C   UNL     1      -9.603   1.330 -34.370  1.00  0.00     0.286 C 
HETATM    2  N   UNL     1     -10.031   2.713 -34.879  1.00  0.00    -0.056 N 
HETATM    3  H   UNL     1      -9.186   3.311 -34.967  1.00  0.00     0.278 HD
HETATM    4  H   UNL     1     -10.430   2.626 -35.822  1.00  0.00     0.278 HD
HETATM    5  C   UNL     1     -10.979   3.458 -33.973  1.00  0.00     0.209 C 
HETATM    6  C   UNL     1     -12.157   2.540 -33.598  1.00  0.00     0.115 C 
HETATM    7  N   UNL     1     -11.678   1.320 -32.969  1.00  0.00    -0.353 N 
HETATM    8  C   UNL     1     -10.512   0.689 -33.300  1.00  0.00     0.249 C 
HETATM    9  O   UNL     1     -10.196  -0.347 -32.722  1.00  0.00    -0.271 OA
HETATM   10  C   UNL     1     -11.460   4.729 -34.663  1.00  0.00     0.035 C 
HETATM   11  C   UNL     1     -12.429   5.484 -33.753  1.00  0.00     0.002 C 
HETATM   12  C   UNL     1     -13.591   4.602 -33.298  1.00  0.00     0.002 C 
HETATM   13  C   UNL     1     -13.121   3.288 -32.673  1.00  0.00     0.027 C 
HETATM   14  H   UNL     1     -12.282   0.804 -32.331  1.00  0.00     0.163 HD
ENDROOT
BRANCH   1  15
HETATM   15  C   UNL     1      -8.145   1.317 -33.893  1.00  0.00     0.146 C 
BRANCH  15  16
HETATM   16  C   UNL     1      -7.433   0.173 -34.558  1.00  0.00     0.224 C 
HETATM   17  N   UNL     1      -7.192  -0.906 -33.739  1.00  0.00    -0.327 N 
HETATM   18  H   UNL     1      -7.393  -0.797 -32.747  1.00  0.00     0.169 HD
HETATM   19  O   UNL     1      -6.970   0.381 -35.680  1.00  0.00    -0.273 OA
BRANCH  17  20
HETATM   20  C   UNL     1      -6.371  -2.017 -34.055  1.00  0.00     0.040 A 
HETATM   21  C   UNL     1      -4.983  -2.093 -33.849  1.00  0.00    -0.035 A 
HETATM   22  C   UNL     1      -4.114  -0.942 -33.421  1.00  0.00     0.050 C 
HETATM   23  C   UNL     1      -4.322  -3.308 -34.122  1.00  0.00     0.009 A 
HETATM   24  C   UNL     1      -5.006  -4.402 -34.650  1.00  0.00     0.001 A 
HETATM   25  C   UNL     1      -6.362  -4.297 -34.926  1.00  0.00     0.002 A 
HETATM   26  C   UNL     1      -7.037  -3.110 -34.639  1.00  0.00     0.030 A 
ENDBRANCH  17  20
ENDBRANCH  15  16
ENDBRANCH   1  15
TORSDOF 3
ENDMDL
MODEL 4
REMARK VINA RESULT:      -8.0      3.305      4.321
REMARK  3 active torsions:
REMARK  status: ('A' for Active; 'I' for Inactive)
REMARK    1  A    between atoms: C_3  and  N_4 
REMARK       I    between atoms: N_4  and  C_5 
REMARK    2  A    between atoms: C_5  and  C_6 
REMARK    3  A    between atoms: C_6  and  C_7 
ROOT
HETATM    1  C   UNL     1      -8.418   1.032 -33.586  1.00  0.00     0.286 C 
HETATM    2  N   UNL     1      -9.826   0.434 -33.470  1.00  0.00    -0.056 N 
HETATM    3  H   UNL     1      -9.845  -0.472 -33.978  1.00  0.00     0.278 HD
HETATM    4  H   UNL     1     -10.033   0.223 -32.485  1.00  0.00     0.278 HD
HETATM    5  C   UNL     1     -10.925   1.274 -34.071  1.00  0.00     0.209 C 
HETATM    6  C   UNL     1     -10.815   2.716 -33.541  1.00  0.00     0.115 C 
HETATM    7  N   UNL     1      -9.505   3.273 -33.835  1.00  0.00    -0.353 N 
HETATM    8  C   UNL     1      -8.345   2.552 -33.846  1.00  0.00     0.249 C 
HETATM    9  O   UNL     1      -7.282   3.114 -34.093  1.00  0.00    -0.271 OA
HETATM   10  C   UNL     1     -12.281   0.661 -33.742  1.00  0.00     0.035 C 
HETATM   11  C   UNL     1     -13.399   1.514 -34.340  1.00  0.00     0.002 C 
HETATM   12  C   UNL     1     -13.306   2.974 -33.896  1.00  0.00     0.002 C 
HETATM   13  C   UNL     1     -11.924   3.577 -34.150  1.00  0.00     0.027 C 
HETATM   14  H   UNL     1      -9.387   4.282 -33.916  1.00  0.00     0.163 HD
ENDROOT
BRANCH   1  15
HETATM   15  C   UNL     1      -7.556   0.284 -34.611  1.00  0.00     0.146 C 
BRANCH  15  16
HETATM   16  C   UNL     1      -6.727  -0.738 -33.886  1.00  0.00     0.224 C 
HETATM   17  N   UNL     1      -5.978  -1.553 -34.703  1.00  0.00    -0.327 N 
HETATM   18  H   UNL     1      -6.138  -1.487 -35.706  1.00  0.00     0.169 HD
HETATM   19  O   UNL     1      -6.942  -0.877 -32.681  1.00  0.00    -0.273 OA
BRANCH  17  20
HETATM   20  C   UNL     1      -5.274  -2.713 -34.294  1.00  0.00     0.040 A 
HETATM   21  C   UNL     1      -5.563  -4.028 -34.696  1.00  0.00    -0.035 A 
HETATM   22  C   UNL     1      -6.774  -4.439 -35.489  1.00  0.00     0.050 C 
HETATM   23  C   UNL     1      -4.706  -5.068 -34.281  1.00  0.00     0.009 A 
HETATM   24  C   UNL     1      -3.627  -4.823 -33.433  1.00  0.00     0.001 A 
HETATM   25  C   UNL     1      -3.393  -3.534 -32.974  1.00  0.00     0.002 A 
HETATM   26  C   UNL     1      -4.216  -2.488 -33.394  1.00  0.00     0.030 A 
ENDBRANCH  17  20
ENDBRANCH  15  16
ENDBRANCH   1  15
TORSDOF 3
ENDMDL
MODEL 5
REMARK VINA RESULT:      -8.0      2.854      6.995
REMARK  3 active torsions:
REMARK  status: ('A' for Active; 'I' for Inactive)
REMARK    1  A    between atoms: C_3  and  N_4 
REMARK       I    between atoms: N_4  and  C_5 
REMARK    2  A    between atoms: C_5  and  C_6 
REMARK    3  A    between atoms: C_6  and  C_7 
ROOT
HETATM    1  C   UNL     1      -3.957   0.898 -32.596  1.00  0.00     0.286 C 
HETATM    2  N   UNL     1      -5.018   0.473 -33.619  1.00  0.00    -0.056 N 
HETATM    3  H   UNL     1      -5.886   1.016 -33.443  1.00  0.00     0.278 HD
HETATM    4  H   UNL     1      -4.705   0.719 -34.567  1.00  0.00     0.278 HD
HETATM    5  C   UNL     1      -5.415  -0.981 -33.557  1.00  0.00     0.209 C 
HETATM    6  C   UNL     1      -4.149  -1.858 -33.572  1.00  0.00     0.115 C 
HETATM    7  N   UNL     1      -3.266  -1.506 -32.472  1.00  0.00    -0.353 N 
HETATM    8  C   UNL     1      -3.109  -0.239 -31.987  1.00  0.00     0.249 C 
HETATM    9  O   UNL     1      -2.328  -0.035 -31.061  1.00  0.00    -0.271 OA
HETATM   10  C   UNL     1      -6.337  -1.314 -34.724  1.00  0.00     0.035 C 
HETATM   11  C   UNL     1      -6.735  -2.789 -34.672  1.00  0.00     0.002 C 
HETATM   12  C   UNL     1      -5.515  -3.709 -34.624  1.00  0.00     0.002 C 
HETATM   13  C   UNL     1      -4.542  -3.336 -33.504  1.00  0.00     0.027 C 
HETATM   14  H   UNL     1      -2.614  -2.195 -32.101  1.00  0.00     0.163 HD
ENDROOT
BRANCH   1  15
HETATM   15  C   UNL     1      -4.549   1.766 -31.479  1.00  0.00     0.146 C 
BRANCH  15  16
HETATM   16  C   UNL     1      -4.185   3.200 -31.743  1.00  0.00     0.224 C 
HETATM   17  N   UNL     1      -3.185   3.377 -32.670  1.00  0.00    -0.327 N 
HETATM   18  H   UNL     1      -2.697   2.546 -32.999  1.00  0.00     0.169 HD
HETATM   19  O   UNL     1      -4.661   4.045 -30.982  1.00  0.00    -0.273 OA
BRANCH  17  20
HETATM   20  C   UNL     1      -2.523   4.598 -32.951  1.00  0.00     0.040 A 
HETATM   21  C   UNL     1      -2.860   5.492 -33.982  1.00  0.00    -0.035 A 
HETATM   22  C   UNL     1      -3.867   5.216 -35.064  1.00  0.00     0.050 C 
HETATM   23  C   UNL     1      -2.168   6.718 -34.069  1.00  0.00     0.009 A 
HETATM   24  C   UNL     1      -1.123   7.024 -33.200  1.00  0.00     0.001 A 
HETATM   25  C   UNL     1      -0.741   6.103 -32.234  1.00  0.00     0.002 A 
HETATM   26  C   UNL     1      -1.430   4.895 -32.116  1.00  0.00     0.030 A 
ENDBRANCH  17  20
ENDBRANCH  15  16
ENDBRANCH   1  15
TORSDOF 3
ENDMDL
MODEL 6
REMARK VINA RESULT:      -7.9      3.240      4.777
REMARK  3 active torsions:
REMARK  status: ('A' for Active; 'I' for Inactive)
REMARK    1  A    between atoms: C_3  and  N_4 
REMARK       I    between atoms: N_4  and  C_5 
REMARK    2  A    between atoms: C_5  and  C_6 
REMARK    3  A    between atoms: C_6  and  C_7 
ROOT
HETATM    1  C   UNL     1      -4.473   3.500 -33.103  1.00  0.00     0.286 C 
HETATM    2  N   UNL     1      -3.089   3.590 -32.447  1.00  0.00    -0.056 N 
HETATM    3  H   UNL     1      -3.144   3.172 -31.498  1.00  0.00     0.278 HD
HETATM    4  H   UNL     1      -2.416   3.024 -32.979  1.00  0.00     0.278 HD
HETATM    5  C   UNL     1      -2.565   4.992 -32.257  1.00  0.00     0.209 C 
HETATM    6  C   UNL     1      -2.676   5.764 -33.585  1.00  0.00     0.115 C 
HETATM    7  N   UNL     1      -4.050   5.775 -34.060  1.00  0.00    -0.353 N 
HETATM    8  C   UNL     1      -4.931   4.744 -33.894  1.00  0.00     0.249 C 
HETATM    9  O   UNL     1      -6.069   4.840 -34.344  1.00  0.00    -0.271 OA
HETATM   10  C   UNL     1      -1.126   4.941 -31.759  1.00  0.00     0.035 C 
HETATM   11  C   UNL     1      -0.586   6.359 -31.574  1.00  0.00     0.002 C 
HETATM   12  C   UNL     1      -0.725   7.195 -32.846  1.00  0.00     0.002 C 
HETATM   13  C   UNL     1      -2.151   7.190 -33.399  1.00  0.00     0.027 C 
HETATM   14  H   UNL     1      -4.372   6.525 -34.670  1.00  0.00     0.163 HD
ENDROOT
BRANCH   1  15
HETATM   15  C   UNL     1      -5.560   3.087 -32.104  1.00  0.00     0.146 C 
BRANCH  15  16
HETATM   16  C   UNL     1      -5.765   1.601 -32.205  1.00  0.00     0.224 C 
HETATM   17  N   UNL     1      -5.328   1.041 -33.384  1.00  0.00    -0.327 N 
HETATM   18  H   UNL     1      -5.029   1.675 -34.122  1.00  0.00     0.169 HD
HETATM   19  O   UNL     1      -6.462   1.074 -31.337  1.00  0.00    -0.273 OA
BRANCH  17  20
HETATM   20  C   UNL     1      -5.581  -0.286 -33.812  1.00  0.00     0.040 A 
HETATM   21  C   UNL     1      -6.720  -0.714 -34.515  1.00  0.00    -0.035 A 
HETATM   22  C   UNL     1      -7.938   0.129 -34.775  1.00  0.00     0.050 C 
HETATM   23  C   UNL     1      -6.778  -2.051 -34.961  1.00  0.00     0.009 A 
HETATM   24  C   UNL     1      -5.765  -2.960 -34.661  1.00  0.00     0.001 A 
HETATM   25  C   UNL     1      -4.680  -2.552 -33.899  1.00  0.00     0.002 A 
HETATM   26  C   UNL     1      -4.593  -1.226 -33.469  1.00  0.00     0.030 A 
ENDBRANCH  17  20
ENDBRANCH  15  16
ENDBRANCH   1  15
TORSDOF 3
ENDMDL
MODEL 7
REMARK VINA RESULT:      -7.8      1.893      6.227
REMARK  3 active torsions:
REMARK  status: ('A' for Active; 'I' for Inactive)
REMARK    1  A    between atoms: C_3  and  N_4 
REMARK       I    between atoms: N_4  and  C_5 
REMARK    2  A    between atoms: C_5  and  C_6 
REMARK    3  A    between atoms: C_6  and  C_7 
ROOT
HETATM    1  C   UNL     1      -4.808  -0.119 -32.795  1.00  0.00     0.286 C 
HETATM    2  N   UNL     1      -5.765  -0.751 -33.816  1.00  0.00    -0.056 N 
HETATM    3  H   UNL     1      -6.732  -0.441 -33.600  1.00  0.00     0.278 HD
HETATM    4  H   UNL     1      -5.547  -0.401 -34.757  1.00  0.00     0.278 HD
HETATM    5  C   UNL     1      -5.797  -2.258 -33.809  1.00  0.00     0.209 C 
HETATM    6  C   UNL     1      -4.357  -2.801 -33.885  1.00  0.00     0.115 C 
HETATM    7  N   UNL     1      -3.555  -2.287 -32.787  1.00  0.00    -0.353 N 
HETATM    8  C   UNL     1      -3.694  -1.039 -32.251  1.00  0.00     0.249 C 
HETATM    9  O   UNL     1      -2.959  -0.687 -31.332  1.00  0.00    -0.271 OA
HETATM   10  C   UNL     1      -6.645  -2.761 -34.971  1.00  0.00     0.035 C 
HETATM   11  C   UNL     1      -6.673  -4.289 -34.975  1.00  0.00     0.002 C 
HETATM   12  C   UNL     1      -5.266  -4.888 -34.989  1.00  0.00     0.002 C 
HETATM   13  C   UNL     1      -4.381  -4.332 -33.873  1.00  0.00     0.027 C 
HETATM   14  H   UNL     1      -2.746  -2.811 -32.458  1.00  0.00     0.163 HD
ENDROOT
BRANCH   1  15
HETATM   15  C   UNL     1      -5.560   0.538 -31.630  1.00  0.00     0.146 C 
BRANCH  15  16
HETATM   16  C   UNL     1      -6.706   1.335 -32.188  1.00  0.00     0.224 C 
HETATM   17  N   UNL     1      -7.941   0.987 -31.691  1.00  0.00    -0.327 N 
HETATM   18  H   UNL     1      -7.994   0.159 -31.101  1.00  0.00     0.169 HD
HETATM   19  O   UNL     1      -6.462   2.061 -33.152  1.00  0.00    -0.273 OA
BRANCH  17  20
HETATM   20  C   UNL     1      -9.189   1.437 -32.189  1.00  0.00     0.040 A 
HETATM   21  C   UNL     1      -9.748   2.708 -31.968  1.00  0.00    -0.035 A 
HETATM   22  C   UNL     1      -9.194   3.737 -31.022  1.00  0.00     0.050 C 
HETATM   23  C   UNL     1     -10.954   3.040 -32.617  1.00  0.00     0.009 A 
HETATM   24  C   UNL     1     -11.628   2.115 -33.413  1.00  0.00     0.001 A 
HETATM   25  C   UNL     1     -11.113   0.835 -33.565  1.00  0.00     0.002 A 
HETATM   26  C   UNL     1      -9.907   0.496 -32.950  1.00  0.00     0.030 A 
ENDBRANCH  17  20
ENDBRANCH  15  16
ENDBRANCH   1  15
TORSDOF 3
ENDMDL
MODEL 8
REMARK VINA RESULT:      -7.8      3.374      5.509
REMARK  3 active torsions:
REMARK  status: ('A' for Active; 'I' for Inactive)
REMARK    1  A    between atoms: C_3  and  N_4 
REMARK       I    between atoms: N_4  and  C_5 
REMARK    2  A    between atoms: C_5  and  C_6 
REMARK    3  A    between atoms: C_6  and  C_7 
ROOT
HETATM    1  C   UNL     1      -3.600   3.829 -32.165  1.00  0.00     0.286 C 
HETATM    2  N   UNL     1      -2.424   3.879 -31.181  1.00  0.00    -0.056 N 
HETATM    3  H   UNL     1      -2.784   3.699 -30.224  1.00  0.00     0.278 HD
HETATM    4  H   UNL     1      -1.762   3.122 -31.393  1.00  0.00     0.278 HD
HETATM    5  C   UNL     1      -1.705   5.204 -31.116  1.00  0.00     0.209 C 
HETATM    6  C   UNL     1      -1.345   5.661 -32.542  1.00  0.00     0.115 C 
HETATM    7  N   UNL     1      -2.536   5.748 -33.370  1.00  0.00    -0.353 N 
HETATM    8  C   UNL     1      -3.610   4.910 -33.266  1.00  0.00     0.249 C 
HETATM    9  O   UNL     1      -4.568   5.053 -34.021  1.00  0.00    -0.271 OA
HETATM   10  C   UNL     1      -0.464   5.075 -30.241  1.00  0.00     0.035 C 
HETATM   11  C   UNL     1       0.274   6.412 -30.180  1.00  0.00     0.002 C 
HETATM   12  C   UNL     1       0.606   6.948 -31.573  1.00  0.00     0.002 C 
HETATM   13  C   UNL     1      -0.620   7.008 -32.485  1.00  0.00     0.027 C 
HETATM   14  H   UNL     1      -2.554   6.376 -34.173  1.00  0.00     0.163 HD
ENDROOT
BRANCH   1  15
HETATM   15  C   UNL     1      -4.954   3.804 -31.444  1.00  0.00     0.146 C 
BRANCH  15  16
HETATM   16  C   UNL     1      -5.649   2.513 -31.775  1.00  0.00     0.224 C 
HETATM   17  N   UNL     1      -5.181   1.883 -32.904  1.00  0.00    -0.327 N 
HETATM   18  H   UNL     1      -4.511   2.388 -33.481  1.00  0.00     0.169 HD
HETATM   19  O   UNL     1      -6.671   2.252 -31.138  1.00  0.00    -0.273 OA
BRANCH  17  20
HETATM   20  C   UNL     1      -5.786   0.771 -33.542  1.00  0.00     0.040 A 
HETATM   21  C   UNL     1      -5.555  -0.579 -33.225  1.00  0.00    -0.035 A 
HETATM   22  C   UNL     1      -4.496  -1.069 -32.275  1.00  0.00     0.050 C 
HETATM   23  C   UNL     1      -6.312  -1.569 -33.883  1.00  0.00     0.009 A 
HETATM   24  C   UNL     1      -7.228  -1.238 -34.880  1.00  0.00     0.001 A 
HETATM   25  C   UNL     1      -7.396   0.090 -35.245  1.00  0.00     0.002 A 
HETATM   26  C   UNL     1      -6.673   1.087 -34.587  1.00  0.00     0.030 A 
ENDBRANCH  17  20
ENDBRANCH  15  16
ENDBRANCH   1  15
TORSDOF 3
ENDMDL
MODEL 9
REMARK VINA RESULT:      -7.5      2.457      3.902
REMARK  3 active torsions:
REMARK  status: ('A' for Active; 'I' for Inactive)
REMARK    1  A    between atoms: C_3  and  N_4 
REMARK       I    between atoms: N_4  and  C_5 
REMARK    2  A    between atoms: C_5  and  C_6 
REMARK    3  A    between atoms: C_6  and  C_7 
ROOT
HETATM    1  C   UNL     1      -4.126   2.431 -31.806  1.00  0.00     0.286 C 
HETATM    2  N   UNL     1      -3.030   3.134 -32.618  1.00  0.00    -0.056 N 
HETATM    3  H   UNL     1      -2.275   2.450 -32.818  1.00  0.00     0.278 HD
HETATM    4  H   UNL     1      -3.408   3.429 -33.528  1.00  0.00     0.278 HD
HETATM    5  C   UNL     1      -2.369   4.297 -31.921  1.00  0.00     0.209 C 
HETATM    6  C   UNL     1      -3.451   5.249 -31.378  1.00  0.00     0.115 C 
HETATM    7  N   UNL     1      -4.355   4.545 -30.485  1.00  0.00    -0.353 N 
HETATM    8  C   UNL     1      -4.733   3.242 -30.642  1.00  0.00     0.249 C 
HETATM    9  O   UNL     1      -5.515   2.735 -29.841  1.00  0.00    -0.271 OA
HETATM   10  C   UNL     1      -1.430   5.010 -32.886  1.00  0.00     0.035 C 
HETATM   11  C   UNL     1      -0.765   6.196 -32.188  1.00  0.00     0.002 C 
HETATM   12  C   UNL     1      -1.791   7.149 -31.574  1.00  0.00     0.002 C 
HETATM   13  C   UNL     1      -2.788   6.430 -30.664  1.00  0.00     0.027 C 
HETATM   14  H   UNL     1      -4.859   5.056 -29.762  1.00  0.00     0.163 HD
ENDROOT
BRANCH   1  15
HETATM   15  C   UNL     1      -3.678   1.052 -31.306  1.00  0.00     0.146 C 
BRANCH  15  16
HETATM   16  C   UNL     1      -3.723   0.087 -32.458  1.00  0.00     0.224 C 
HETATM   17  N   UNL     1      -4.709  -0.868 -32.368  1.00  0.00    -0.327 N 
HETATM   18  H   UNL     1      -5.231  -0.924 -31.496  1.00  0.00     0.169 HD
HETATM   19  O   UNL     1      -2.777   0.117 -33.247  1.00  0.00    -0.273 OA
BRANCH  17  20
HETATM   20  C   UNL     1      -4.840  -2.003 -33.206  1.00  0.00     0.040 A 
HETATM   21  C   UNL     1      -5.811  -2.171 -34.209  1.00  0.00    -0.035 A 
HETATM   22  C   UNL     1      -6.977  -1.250 -34.439  1.00  0.00     0.050 C 
HETATM   23  C   UNL     1      -5.748  -3.317 -35.028  1.00  0.00     0.009 A 
HETATM   24  C   UNL     1      -4.789  -4.306 -34.819  1.00  0.00     0.001 A 
HETATM   25  C   UNL     1      -3.881  -4.174 -33.776  1.00  0.00     0.002 A 
HETATM   26  C   UNL     1      -3.913  -3.035 -32.970  1.00  0.00     0.030 A 
ENDBRANCH  17  20
ENDBRANCH  15  16
ENDBRANCH   1  15
TORSDOF 3
ENDMDL
MODEL 10
REMARK VINA RESULT:      -7.5      3.262      6.762
REMARK  3 active torsions:
REMARK  status: ('A' for Active; 'I' for Inactive)
REMARK    1  A    between atoms: C_3  and  N_4 
REMARK       I    between atoms: N_4  and  C_5 
REMARK    2  A    between atoms: C_5  and  C_6 
REMARK    3  A    between atoms: C_6  and  C_7 
ROOT
HETATM    1  C   UNL     1      -6.122  -0.040 -33.455  1.00  0.00     0.286 C 
HETATM    2  N   UNL     1      -6.369  -1.240 -34.379  1.00  0.00    -0.056 N 
HETATM    3  H   UNL     1      -7.391  -1.418 -34.426  1.00  0.00     0.278 HD
HETATM    4  H   UNL     1      -6.065  -1.011 -35.333  1.00  0.00     0.278 HD
HETATM    5  C   UNL     1      -5.739  -2.533 -33.923  1.00  0.00     0.209 C 
HETATM    6  C   UNL     1      -4.254  -2.291 -33.597  1.00  0.00     0.115 C 
HETATM    7  N   UNL     1      -4.109  -1.252 -32.591  1.00  0.00    -0.353 N 
HETATM    8  C   UNL     1      -4.927  -0.163 -32.486  1.00  0.00     0.249 C 
HETATM    9  O   UNL     1      -4.718   0.671 -31.610  1.00  0.00    -0.271 OA
HETATM   10  C   UNL     1      -5.909  -3.597 -35.000  1.00  0.00     0.035 C 
HETATM   11  C   UNL     1      -5.264  -4.907 -34.547  1.00  0.00     0.002 C 
HETATM   12  C   UNL     1      -3.799  -4.718 -34.152  1.00  0.00     0.002 C 
HETATM   13  C   UNL     1      -3.608  -3.598 -33.128  1.00  0.00     0.027 C 
HETATM   14  H   UNL     1      -3.285  -1.233 -31.993  1.00  0.00     0.163 HD
ENDROOT
BRANCH   1  15
HETATM   15  C   UNL     1      -7.384   0.361 -32.681  1.00  0.00     0.146 C 
BRANCH  15  16
HETATM   16  C   UNL     1      -8.355   0.991 -33.640  1.00  0.00     0.224 C 
HETATM   17  N   UNL     1      -9.561   1.349 -33.082  1.00  0.00    -0.327 N 
HETATM   18  H   UNL     1      -9.743   1.051 -32.126  1.00  0.00     0.169 HD
HETATM   19  O   UNL     1      -8.065   0.946 -34.836  1.00  0.00    -0.273 OA
BRANCH  17  20
HETATM   20  C   UNL     1     -10.709   1.772 -33.796  1.00  0.00     0.040 A 
HETATM   21  C   UNL     1     -10.839   2.987 -34.490  1.00  0.00    -0.035 A 
HETATM   22  C   UNL     1      -9.844   4.114 -34.443  1.00  0.00     0.050 C 
HETATM   23  C   UNL     1     -12.011   3.218 -35.239  1.00  0.00     0.009 A 
HETATM   24  C   UNL     1     -13.059   2.300 -35.247  1.00  0.00     0.001 A 
HETATM   25  C   UNL     1     -12.959   1.137 -34.496  1.00  0.00     0.002 A 
HETATM   26  C   UNL     1     -11.796   0.879 -33.769  1.00  0.00     0.030 A 
ENDBRANCH  17  20
ENDBRANCH  15  16
ENDBRANCH   1  15
TORSDOF 3
ENDMDL
