MODEL 1
REMARK VINA RESULT:      -8.0      0.000      0.000
REMARK  5 active torsions:
REMARK  status: ('A' for Active; 'I' for Inactive)
REMARK    1  A    between atoms: C_8  and  N_9 
REMARK       I    between atoms: N_9  and  C_10 
REMARK       I    between atoms: C_10  and  N_11 
REMARK    2  A    between atoms: N_11  and  C_12 
REMARK    3  A    between atoms: C_13  and  O_14 
REMARK    4  A    between atoms: O_14  and  C_15 
REMARK    5  A    between atoms: C_15  and  C_16 
ROOT
HETATM    1  N   UNL     1     -10.237   1.441 -34.626  1.00  0.00    -0.305 N 
HETATM    2  C   UNL     1      -9.359   1.153 -33.598  1.00  0.00     0.325 C 
HETATM    3  N   UNL     1      -8.140   0.742 -34.112  1.00  0.00    -0.306 N 
HETATM    4  O   UNL     1      -9.610   1.248 -32.405  1.00  0.00    -0.247 OA
HETATM    5  H   UNL     1      -9.820   1.674 -35.514  1.00  0.00     0.171 HD
HETATM    6  H   UNL     1      -8.134   0.443 -35.079  1.00  0.00     0.171 HD
ENDROOT
BRANCH   3   7
HETATM    7  C   UNL     1      -6.949   0.478 -33.401  1.00  0.00     0.072 A 
HETATM    8  C   UNL     1      -6.488  -0.854 -33.390  1.00  0.00     0.096 A 
HETATM    9  C   UNL     1      -5.294  -1.199 -32.752  1.00  0.00     0.042 A 
HETATM   10  C   UNL     1      -4.566  -0.216 -32.088  1.00  0.00     0.045 A 
HETATM   11  C   UNL     1      -5.030   1.096 -32.083  1.00  0.00     0.118 A 
HETATM   12  F   UNL     1      -4.317   2.037 -31.449  1.00  0.00    -0.206 F 
HETATM   13  C   UNL     1      -6.208   1.453 -32.735  1.00  0.00     0.074 A 
BRANCH   8  14
HETATM   14  O   UNL     1      -7.226  -1.794 -34.068  1.00  0.00    -0.340 OA
BRANCH  14  15
HETATM   15  C   UNL     1      -6.401  -2.596 -34.935  1.00  0.00     0.293 C 
BRANCH  15  16
HETATM   16  C   UNL     1      -6.740  -4.067 -34.754  1.00  0.00     0.408 C 
HETATM   17  F   UNL     1      -5.686  -4.754 -34.260  1.00  0.00    -0.169 F 
HETATM   18  F   UNL     1      -7.779  -4.238 -33.907  1.00  0.00    -0.169 F 
HETATM   19  F   UNL     1      -7.079  -4.630 -35.936  1.00  0.00    -0.169 F 
ENDBRANCH  15  16
ENDBRANCH  14  15
ENDBRANCH   8  14
ENDBRANCH   3   7
BRANCH   1  20
HETATM   20  C   UNL     1     -11.587   1.725 -34.500  1.00  0.00     0.086 A 
HETATM   21  C   UNL     1     -12.119   2.939 -34.893  1.00  0.00     0.052 A 
HETATM   22  C   UNL     1     -11.511   4.161 -35.470  1.00  0.00     0.072 C 
HETATM   23  N   UNL     1     -13.457   2.861 -34.631  1.00  0.00    -0.280 N 
HETATM   24  H   UNL     1     -14.168   3.569 -34.778  1.00  0.00     0.189 HD
HETATM   25  N   UNL     1     -13.842   1.685 -34.128  1.00  0.00    -0.177 NA
HETATM   26  C   UNL     1     -12.708   0.971 -34.045  1.00  0.00     0.079 A 
HETATM   27  C   UNL     1     -12.796  -0.431 -33.566  1.00  0.00     0.075 C 
ENDBRANCH   1  20
TORSDOF 5
ENDMDL
MODEL 2
REMARK VINA RESULT:      -7.8      2.756      5.389
REMARK  5 active torsions:
REMARK  status: ('A' for Active; 'I' for Inactive)
REMARK    1  A    between atoms: C_8  and  N_9 
REMARK       I    between atoms: N_9  and  C_10 
REMARK       I    between atoms: C_10  and  N_11 
REMARK    2  A    between atoms: N_11  and  C_12 
REMARK    3  A    between atoms: C_13  and  O_14 
REMARK    4  A    between atoms: O_14  and  C_15 
REMARK    5  A    between atoms: C_15  and  C_16 
ROOT
HETATM    1  N   UNL     1      -6.660   1.618 -33.194  1.00  0.00    -0.305 N 
HETATM    2  C   UNL     1      -6.648   0.244 -33.035  1.00  0.00     0.325 C 
HETATM    3  N   UNL     1      -6.076  -0.360 -34.141  1.00  0.00    -0.306 N 
HETATM    4  O   UNL     1      -7.075  -0.359 -32.060  1.00  0.00    -0.247 OA
HETATM    5  H   UNL     1      -5.979   1.996 -33.833  1.00  0.00     0.171 HD
HETATM    6  H   UNL     1      -6.015   0.199 -34.983  1.00  0.00     0.171 HD
ENDROOT
BRANCH   3   7
HETATM    7  C   UNL     1      -5.767  -1.727 -34.315  1.00  0.00     0.072 A 
HETATM    8  C   UNL     1      -4.483  -2.152 -33.923  1.00  0.00     0.096 A 
HETATM    9  C   UNL     1      -4.107  -3.495 -34.014  1.00  0.00     0.042 A 
HETATM   10  C   UNL     1      -5.007  -4.421 -34.533  1.00  0.00     0.045 A 
HETATM   11  C   UNL     1      -6.269  -3.999 -34.939  1.00  0.00     0.118 A 
HETATM   12  F   UNL     1      -7.131  -4.900 -35.429  1.00  0.00    -0.206 F 
HETATM   13  C   UNL     1      -6.659  -2.666 -34.830  1.00  0.00     0.074 A 
BRANCH   8  14
HETATM   14  O   UNL     1      -3.627  -1.212 -33.401  1.00  0.00    -0.340 OA
BRANCH  14  15
HETATM   15  C   UNL     1      -3.400  -1.419 -31.994  1.00  0.00     0.293 C 
BRANCH  15  16
HETATM   16  C   UNL     1      -3.343  -0.079 -31.278  1.00  0.00     0.408 C 
HETATM   17  F   UNL     1      -4.310   0.016 -30.338  1.00  0.00    -0.169 F 
HETATM   18  F   UNL     1      -2.152   0.109 -30.667  1.00  0.00    -0.169 F 
HETATM   19  F   UNL     1      -3.519   0.939 -32.151  1.00  0.00    -0.169 F 
ENDBRANCH  15  16
ENDBRANCH  14  15
ENDBRANCH   8  14
ENDBRANCH   3   7
BRANCH   1  20
HETATM   20  C   UNL     1      -7.293   2.536 -32.373  1.00  0.00     0.086 A 
HETATM   21  C   UNL     1      -8.573   2.991 -32.634  1.00  0.00     0.052 A 
HETATM   22  C   UNL     1      -9.536   2.708 -33.724  1.00  0.00     0.072 C 
HETATM   23  N   UNL     1      -8.868   3.866 -31.628  1.00  0.00    -0.280 N 
HETATM   24  H   UNL     1      -9.717   4.405 -31.493  1.00  0.00     0.189 HD
HETATM   25  N   UNL     1      -7.897   3.993 -30.719  1.00  0.00    -0.177 NA
HETATM   26  C   UNL     1      -6.923   3.180 -31.156  1.00  0.00     0.079 A 
HETATM   27  C   UNL     1      -5.699   3.044 -30.329  1.00  0.00     0.075 C 
ENDBRANCH   1  20
TORSDOF 5
ENDMDL
MODEL 3
REMARK VINA RESULT:      -7.8      1.735      2.252
REMARK  5 active torsions:
REMARK  status: ('A' for Active; 'I' for Inactive)
REMARK    1  A    between atoms: C_8  and  N_9 
REMARK       I    between atoms: N_9  and  C_10 
REMARK       I    between atoms: C_10  and  N_11 
REMARK    2  A    between atoms: N_11  and  C_12 
REMARK    3  A    between atoms: C_13  and  O_14 
REMARK    4  A    between atoms: O_14  and  C_15 
REMARK    5  A    between atoms: C_15  and  C_16 
ROOT
HETATM    1  N   UNL     1      -8.036   1.964 -33.890  1.00  0.00    -0.305 N 
HETATM    2  C   UNL     1      -7.342   1.147 -33.018  1.00  0.00     0.325 C 
HETATM    3  N   UNL     1      -6.191   0.670 -33.623  1.00  0.00    -0.306 N 
HETATM    4  O   UNL     1      -7.683   0.880 -31.874  1.00  0.00    -0.247 OA
HETATM    5  H   UNL     1      -7.495   2.387 -34.628  1.00  0.00     0.171 HD
HETATM    6  H   UNL     1      -6.153   0.729 -34.633  1.00  0.00     0.171 HD
ENDROOT
BRANCH   3   7
HETATM    7  C   UNL     1      -5.157  -0.089 -33.034  1.00  0.00     0.072 A 
HETATM    8  C   UNL     1      -5.051  -1.441 -33.416  1.00  0.00     0.096 A 
HETATM    9  C   UNL     1      -4.030  -2.254 -32.920  1.00  0.00     0.042 A 
HETATM   10  C   UNL     1      -3.121  -1.727 -32.006  1.00  0.00     0.045 A 
HETATM   11  C   UNL     1      -3.236  -0.397 -31.613  1.00  0.00     0.118 A 
HETATM   12  F   UNL     1      -2.351   0.103 -30.741  1.00  0.00    -0.206 F 
HETATM   13  C   UNL     1      -4.239   0.426 -32.121  1.00  0.00     0.074 A 
BRANCH   8  14
HETATM   14  O   UNL     1      -5.958  -1.921 -34.331  1.00  0.00    -0.340 OA
BRANCH  14  15
HETATM   15  C   UNL     1      -5.412  -3.008 -35.103  1.00  0.00     0.293 C 
BRANCH  15  16
HETATM   16  C   UNL     1      -6.241  -4.263 -34.885  1.00  0.00     0.408 C 
HETATM   17  F   UNL     1      -7.382  -3.986 -34.215  1.00  0.00    -0.169 F 
HETATM   18  F   UNL     1      -6.581  -4.845 -36.057  1.00  0.00    -0.169 F 
HETATM   19  F   UNL     1      -5.551  -5.174 -34.162  1.00  0.00    -0.169 F 
ENDBRANCH  15  16
ENDBRANCH  14  15
ENDBRANCH   8  14
ENDBRANCH   3   7
BRANCH   1  20
HETATM   20  C   UNL     1      -9.303   2.489 -33.694  1.00  0.00     0.086 A 
HETATM   21  C   UNL     1      -9.552   3.848 -33.767  1.00  0.00     0.052 A 
HETATM   22  C   UNL     1      -8.675   5.016 -34.018  1.00  0.00     0.072 C 
HETATM   23  N   UNL     1     -10.889   3.994 -33.531  1.00  0.00    -0.280 N 
HETATM   24  H   UNL     1     -11.429   4.851 -33.494  1.00  0.00     0.189 HD
HETATM   25  N   UNL     1     -11.533   2.841 -33.340  1.00  0.00    -0.177 NA
HETATM   26  C   UNL     1     -10.578   1.904 -33.442  1.00  0.00     0.079 A 
HETATM   27  C   UNL     1     -10.978   0.479 -33.332  1.00  0.00     0.075 C 
ENDBRANCH   1  20
TORSDOF 5
ENDMDL
MODEL 4
REMARK VINA RESULT:      -7.7      1.820      4.526
REMARK  5 active torsions:
REMARK  status: ('A' for Active; 'I' for Inactive)
REMARK    1  A    between atoms: C_8  and  N_9 
REMARK       I    between atoms: N_9  and  C_10 
REMARK       I    between atoms: C_10  and  N_11 
REMARK    2  A    between atoms: N_11  and  C_12 
REMARK    3  A    between atoms: C_13  and  O_14 
REMARK    4  A    between atoms: O_14  and  C_15 
REMARK    5  A    between atoms: C_15  and  C_16 
ROOT
HETATM    1  N   UNL     1      -9.396   0.742 -33.412  1.00  0.00    -0.305 N 
HETATM    2  C   UNL     1      -8.352   0.202 -34.140  1.00  0.00     0.325 C 
HETATM    3  N   UNL     1      -7.721  -0.789 -33.407  1.00  0.00    -0.306 N 
HETATM    4  O   UNL     1      -8.027   0.540 -35.270  1.00  0.00    -0.247 OA
HETATM    5  H   UNL     1      -9.781   0.157 -32.687  1.00  0.00     0.171 HD
HETATM    6  H   UNL     1      -7.891  -0.793 -32.410  1.00  0.00     0.171 HD
ENDROOT
BRANCH   3   7
HETATM    7  C   UNL     1      -6.696  -1.661 -33.837  1.00  0.00     0.072 A 
HETATM    8  C   UNL     1      -5.373  -1.317 -33.497  1.00  0.00     0.096 A 
HETATM    9  C   UNL     1      -4.301  -2.144 -33.840  1.00  0.00     0.042 A 
HETATM   10  C   UNL     1      -4.543  -3.312 -34.559  1.00  0.00     0.045 A 
HETATM   11  C   UNL     1      -5.847  -3.642 -34.913  1.00  0.00     0.118 A 
HETATM   12  F   UNL     1      -6.071  -4.772 -35.598  1.00  0.00    -0.206 F 
HETATM   13  C   UNL     1      -6.924  -2.833 -34.556  1.00  0.00     0.074 A 
BRANCH   8  14
HETATM   14  O   UNL     1      -5.175  -0.165 -32.774  1.00  0.00    -0.340 OA
BRANCH  14  15
HETATM   15  C   UNL     1      -3.783   0.199 -32.720  1.00  0.00     0.293 C 
BRANCH  15  16
HETATM   16  C   UNL     1      -3.360   0.411 -31.275  1.00  0.00     0.408 C 
HETATM   17  F   UNL     1      -2.238  -0.287 -30.986  1.00  0.00    -0.169 F 
HETATM   18  F   UNL     1      -3.115   1.714 -31.014  1.00  0.00    -0.169 F 
HETATM   19  F   UNL     1      -4.329  -0.001 -30.427  1.00  0.00    -0.169 F 
ENDBRANCH  15  16
ENDBRANCH  14  15
ENDBRANCH   8  14
ENDBRANCH   3   7
BRANCH   1  20
HETATM   20  C   UNL     1     -10.147   1.854 -33.752  1.00  0.00     0.086 A 
HETATM   21  C   UNL     1     -11.521   1.793 -33.898  1.00  0.00     0.052 A 
HETATM   22  C   UNL     1     -12.494   0.681 -33.780  1.00  0.00     0.072 C 
HETATM   23  N   UNL     1     -11.918   3.058 -34.225  1.00  0.00    -0.280 N 
HETATM   24  H   UNL     1     -12.855   3.391 -34.420  1.00  0.00     0.189 HD
HETATM   25  N   UNL     1     -10.918   3.942 -34.274  1.00  0.00    -0.177 NA
HETATM   26  C   UNL     1      -9.823   3.223 -33.981  1.00  0.00     0.079 A 
HETATM   27  C   UNL     1      -8.521   3.932 -33.895  1.00  0.00     0.075 C 
ENDBRANCH   1  20
TORSDOF 5
ENDMDL
MODEL 5
REMARK VINA RESULT:      -7.7      2.109      4.136
REMARK  5 active torsions:
REMARK  status: ('A' for Active; 'I' for Inactive)
REMARK    1  A    between atoms: C_8  and  N_9 
REMARK       I    between atoms: N_9  and  C_10 
REMARK       I    between atoms: C_10  and  N_11 
REMARK    2  A    between atoms: N_11  and  C_12 
REMARK    3  A    between atoms: C_13  and  O_14 
REMARK    4  A    between atoms: O_14  and  C_15 
REMARK    5  A    between atoms: C_15  and  C_16 
ROOT
HETATM    1  N   UNL     1      -9.051   2.018 -33.544  1.00  0.00    -0.305 N 
HETATM    2  C   UNL     1      -8.516   0.746 -33.450  1.00  0.00     0.325 C 
HETATM    3  N   UNL     1      -7.309   0.684 -34.124  1.00  0.00    -0.306 N 
HETATM    4  O   UNL     1      -9.026  -0.194 -32.856  1.00  0.00    -0.247 OA
HETATM    5  H   UNL     1      -8.396   2.762 -33.727  1.00  0.00     0.171 HD
HETATM    6  H   UNL     1      -7.125   1.422 -34.794  1.00  0.00     0.171 HD
ENDROOT
BRANCH   3   7
HETATM    7  C   UNL     1      -6.395  -0.392 -34.163  1.00  0.00     0.072 A 
HETATM    8  C   UNL     1      -5.235  -0.280 -33.373  1.00  0.00     0.096 A 
HETATM    9  C   UNL     1      -4.299  -1.316 -33.312  1.00  0.00     0.042 A 
HETATM   10  C   UNL     1      -4.503  -2.464 -34.072  1.00  0.00     0.045 A 
HETATM   11  C   UNL     1      -5.640  -2.568 -34.868  1.00  0.00     0.118 A 
HETATM   12  F   UNL     1      -5.831  -3.680 -35.589  1.00  0.00    -0.206 F 
HETATM   13  C   UNL     1      -6.588  -1.548 -34.917  1.00  0.00     0.074 A 
BRANCH   8  14
HETATM   14  O   UNL     1      -5.075   0.862 -32.624  1.00  0.00    -0.340 OA
BRANCH  14  15
HETATM   15  C   UNL     1      -4.786   0.561 -31.246  1.00  0.00     0.293 C 
BRANCH  15  16
HETATM   16  C   UNL     1      -6.069   0.597 -30.430  1.00  0.00     0.408 C 
HETATM   17  F   UNL     1      -6.852   1.637 -30.794  1.00  0.00    -0.169 F 
HETATM   18  F   UNL     1      -6.789  -0.536 -30.585  1.00  0.00    -0.169 F 
HETATM   19  F   UNL     1      -5.796   0.730 -29.112  1.00  0.00    -0.169 F 
ENDBRANCH  15  16
ENDBRANCH  14  15
ENDBRANCH   8  14
ENDBRANCH   3   7
BRANCH   1  20
HETATM   20  C   UNL     1     -10.314   2.412 -33.134  1.00  0.00     0.086 A 
HETATM   21  C   UNL     1     -10.513   3.138 -31.973  1.00  0.00     0.052 A 
HETATM   22  C   UNL     1      -9.585   3.639 -30.932  1.00  0.00     0.072 C 
HETATM   23  N   UNL     1     -11.859   3.350 -31.893  1.00  0.00    -0.280 N 
HETATM   24  H   UNL     1     -12.376   3.837 -31.170  1.00  0.00     0.189 HD
HETATM   25  N   UNL     1     -12.547   2.847 -32.921  1.00  0.00    -0.177 NA
HETATM   26  C   UNL     1     -11.615   2.271 -33.697  1.00  0.00     0.079 A 
HETATM   27  C   UNL     1     -12.050   1.654 -34.975  1.00  0.00     0.075 C 
ENDBRANCH   1  20
TORSDOF 5
ENDMDL
MODEL 6
REMARK VINA RESULT:      -7.6      1.958      2.566
REMARK  5 active torsions:
REMARK  status: ('A' for Active; 'I' for Inactive)
REMARK    1  A    between atoms: C_8  and  N_9 
REMARK       I    between atoms: N_9  and  C_10 
REMARK       I    between atoms: C_10  and  N_11 
REMARK    2  A    between atoms: N_11  and  C_12 
REMARK    3  A    between atoms: C_13  and  O_14 
REMARK    4  A    between atoms: O_14  and  C_15 
REMARK    5  A    between atoms: C_15  and  C_16 
ROOT
HETATM    1  N   UNL     1      -9.113   1.236 -32.163  1.00  0.00    -0.305 N 
HETATM    2  C   UNL     1      -7.742   1.231 -32.341  1.00  0.00     0.325 C 
HETATM    3  N   UNL     1      -7.207   0.033 -31.897  1.00  0.00    -0.306 N 
HETATM    4  O   UNL     1      -7.087   2.145 -32.823  1.00  0.00    -0.247 OA
HETATM    5  H   UNL     1      -9.557   0.333 -32.110  1.00  0.00     0.171 HD
HETATM    6  H   UNL     1      -7.787  -0.521 -31.280  1.00  0.00     0.171 HD
ENDROOT
BRANCH   3   7
HETATM    7  C   UNL     1      -5.872  -0.413 -32.016  1.00  0.00     0.072 A 
HETATM    8  C   UNL     1      -5.607  -1.403 -32.982  1.00  0.00     0.096 A 
HETATM    9  C   UNL     1      -4.309  -1.870 -33.201  1.00  0.00     0.042 A 
HETATM   10  C   UNL     1      -3.265  -1.370 -32.428  1.00  0.00     0.045 A 
HETATM   11  C   UNL     1      -3.528  -0.405 -31.460  1.00  0.00     0.118 A 
HETATM   12  F   UNL     1      -2.516   0.075 -30.726  1.00  0.00    -0.206 F 
HETATM   13  C   UNL     1      -4.817   0.081 -31.250  1.00  0.00     0.074 A 
BRANCH   8  14
HETATM   14  O   UNL     1      -6.661  -1.861 -33.737  1.00  0.00    -0.340 OA
BRANCH  14  15
HETATM   15  C   UNL     1      -6.212  -2.617 -34.878  1.00  0.00     0.293 C 
BRANCH  15  16
HETATM   16  C   UNL     1      -6.681  -4.058 -34.759  1.00  0.00     0.408 C 
HETATM   17  F   UNL     1      -5.696  -4.857 -34.290  1.00  0.00    -0.169 F 
HETATM   18  F   UNL     1      -7.738  -4.170 -33.924  1.00  0.00    -0.169 F 
HETATM   19  F   UNL     1      -7.060  -4.540 -35.964  1.00  0.00    -0.169 F 
ENDBRANCH  15  16
ENDBRANCH  14  15
ENDBRANCH   8  14
ENDBRANCH   3   7
BRANCH   1  20
HETATM   20  C   UNL     1      -9.962   2.316 -32.340  1.00  0.00     0.086 A 
HETATM   21  C   UNL     1     -10.885   2.361 -33.368  1.00  0.00     0.052 A 
HETATM   22  C   UNL     1     -11.208   1.421 -34.468  1.00  0.00     0.072 C 
HETATM   23  N   UNL     1     -11.540   3.551 -33.229  1.00  0.00    -0.280 N 
HETATM   24  H   UNL     1     -12.277   3.933 -33.811  1.00  0.00     0.189 HD
HETATM   25  N   UNL     1     -11.137   4.270 -32.178  1.00  0.00    -0.177 NA
HETATM   26  C   UNL     1     -10.172   3.526 -31.616  1.00  0.00     0.079 A 
HETATM   27  C   UNL     1      -9.541   4.023 -30.368  1.00  0.00     0.075 C 
ENDBRANCH   1  20
TORSDOF 5
ENDMDL
MODEL 7
REMARK VINA RESULT:      -7.6      1.802      4.377
REMARK  5 active torsions:
REMARK  status: ('A' for Active; 'I' for Inactive)
REMARK    1  A    between atoms: C_8  and  N_9 
REMARK       I    between atoms: N_9  and  C_10 
REMARK       I    between atoms: C_10  and  N_11 
REMARK    2  A    between atoms: N_11  and  C_12 
REMARK    3  A    between atoms: C_13  and  O_14 
REMARK    4  A    between atoms: O_14  and  C_15 
REMARK    5  A    between atoms: C_15  and  C_16 
ROOT
HETATM    1  N   UNL     1     -10.091   0.642 -33.171  1.00  0.00    -0.305 N 
HETATM    2  C   UNL     1      -8.950   0.326 -33.886  1.00  0.00     0.325 C 
HETATM    3  N   UNL     1      -8.132  -0.503 -33.137  1.00  0.00    -0.306 N 
HETATM    4  O   UNL     1      -8.694   0.713 -35.018  1.00  0.00    -0.247 OA
HETATM    5  H   UNL     1     -10.351  -0.003 -32.442  1.00  0.00     0.171 HD
HETATM    6  H   UNL     1      -8.306  -0.532 -32.141  1.00  0.00     0.171 HD
ENDROOT
BRANCH   3   7
HETATM    7  C   UNL     1      -6.943  -1.144 -33.550  1.00  0.00     0.072 A 
HETATM    8  C   UNL     1      -5.733  -0.666 -33.013  1.00  0.00     0.096 A 
HETATM    9  C   UNL     1      -4.513  -1.269 -33.329  1.00  0.00     0.042 A 
HETATM   10  C   UNL     1      -4.493  -2.342 -34.216  1.00  0.00     0.045 A 
HETATM   11  C   UNL     1      -5.686  -2.804 -34.763  1.00  0.00     0.118 A 
HETATM   12  F   UNL     1      -5.657  -3.842 -35.609  1.00  0.00    -0.206 F 
HETATM   13  C   UNL     1      -6.909  -2.220 -34.435  1.00  0.00     0.074 A 
BRANCH   8  14
HETATM   14  O   UNL     1      -5.794   0.385 -32.129  1.00  0.00    -0.340 OA
BRANCH  14  15
HETATM   15  C   UNL     1      -5.004   1.504 -32.574  1.00  0.00     0.293 C 
BRANCH  15  16
HETATM   16  C   UNL     1      -5.912   2.586 -33.137  1.00  0.00     0.408 C 
HETATM   17  F   UNL     1      -5.338   3.806 -33.041  1.00  0.00    -0.169 F 
HETATM   18  F   UNL     1      -6.201   2.366 -34.438  1.00  0.00    -0.169 F 
HETATM   19  F   UNL     1      -7.082   2.629 -32.460  1.00  0.00    -0.169 F 
ENDBRANCH  15  16
ENDBRANCH  14  15
ENDBRANCH   8  14
ENDBRANCH   3   7
BRANCH   1  20
HETATM   20  C   UNL     1     -11.056   1.569 -33.530  1.00  0.00     0.086 A 
HETATM   21  C   UNL     1     -12.377   1.210 -33.726  1.00  0.00     0.052 A 
HETATM   22  C   UNL     1     -13.086  -0.089 -33.651  1.00  0.00     0.072 C 
HETATM   23  N   UNL     1     -13.030   2.363 -34.057  1.00  0.00    -0.280 N 
HETATM   24  H   UNL     1     -14.011   2.486 -34.282  1.00  0.00     0.189 HD
HETATM   25  N   UNL     1     -12.247   3.445 -34.062  1.00  0.00    -0.177 NA
HETATM   26  C   UNL     1     -11.032   2.979 -33.736  1.00  0.00     0.079 A 
HETATM   27  C   UNL     1      -9.921   3.953 -33.598  1.00  0.00     0.075 C 
ENDBRANCH   1  20
TORSDOF 5
ENDMDL
MODEL 8
REMARK VINA RESULT:      -7.5      1.144      2.065
REMARK  5 active torsions:
REMARK  status: ('A' for Active; 'I' for Inactive)
REMARK    1  A    between atoms: C_8  and  N_9 
REMARK       I    between atoms: N_9  and  C_10 
REMARK       I    between atoms: C_10  and  N_11 
REMARK    2  A    between atoms: N_11  and  C_12 
REMARK    3  A    between atoms: C_13  and  O_14 
REMARK    4  A    between atoms: O_14  and  C_15 
REMARK    5  A    between atoms: C_15  and  C_16 
ROOT
HETATM    1  N   UNL     1     -10.334   1.144 -34.454  1.00  0.00    -0.305 N 
HETATM    2  C   UNL     1      -9.398   1.245 -33.442  1.00  0.00     0.325 C 
HETATM    3  N   UNL     1      -8.537   0.161 -33.478  1.00  0.00    -0.306 N 
HETATM    4  O   UNL     1      -9.329   2.157 -32.629  1.00  0.00    -0.247 OA
HETATM    5  H   UNL     1     -10.072   0.578 -35.246  1.00  0.00     0.171 HD
HETATM    6  H   UNL     1      -8.848  -0.648 -34.001  1.00  0.00     0.171 HD
ENDROOT
BRANCH   3   7
HETATM    7  C   UNL     1      -7.378  -0.046 -32.698  1.00  0.00     0.072 A 
HETATM    8  C   UNL     1      -6.364  -0.852 -33.253  1.00  0.00     0.096 A 
HETATM    9  C   UNL     1      -5.164  -1.073 -32.573  1.00  0.00     0.042 A 
HETATM   10  C   UNL     1      -4.982  -0.514 -31.311  1.00  0.00     0.045 A 
HETATM   11  C   UNL     1      -5.991   0.266 -30.754  1.00  0.00     0.118 A 
HETATM   12  F   UNL     1      -5.803   0.806 -29.542  1.00  0.00    -0.206 F 
HETATM   13  C   UNL     1      -7.182   0.509 -31.435  1.00  0.00     0.074 A 
BRANCH   8  14
HETATM   14  O   UNL     1      -6.574  -1.374 -34.507  1.00  0.00    -0.340 OA
BRANCH  14  15
HETATM   15  C   UNL     1      -6.992  -2.751 -34.449  1.00  0.00     0.293 C 
BRANCH  15  16
HETATM   16  C   UNL     1      -5.937  -3.639 -35.089  1.00  0.00     0.408 C 
HETATM   17  F   UNL     1      -5.121  -2.924 -35.896  1.00  0.00    -0.169 F 
HETATM   18  F   UNL     1      -5.168  -4.248 -34.159  1.00  0.00    -0.169 F 
HETATM   19  F   UNL     1      -6.513  -4.605 -35.840  1.00  0.00    -0.169 F 
ENDBRANCH  15  16
ENDBRANCH  14  15
ENDBRANCH   8  14
ENDBRANCH   3   7
BRANCH   1  20
HETATM   20  C   UNL     1     -11.445   1.953 -34.632  1.00  0.00     0.086 A 
HETATM   21  C   UNL     1     -12.725   1.509 -34.355  1.00  0.00     0.052 A 
HETATM   22  C   UNL     1     -13.254   0.212 -33.871  1.00  0.00     0.072 C 
HETATM   23  N   UNL     1     -13.552   2.559 -34.637  1.00  0.00    -0.280 N 
HETATM   24  H   UNL     1     -14.562   2.599 -34.565  1.00  0.00     0.189 HD
HETATM   25  N   UNL     1     -12.911   3.657 -35.046  1.00  0.00    -0.177 NA
HETATM   26  C   UNL     1     -11.615   3.307 -35.045  1.00  0.00     0.079 A 
HETATM   27  C   UNL     1     -10.610   4.337 -35.404  1.00  0.00     0.075 C 
ENDBRANCH   1  20
TORSDOF 5
ENDMDL
MODEL 9
REMARK VINA RESULT:      -7.4      3.855      7.065
REMARK  5 active torsions:
REMARK  status: ('A' for Active; 'I' for Inactive)
REMARK    1  A    between atoms: C_8  and  N_9 
REMARK       I    between atoms: N_9  and  C_10 
REMARK       I    between atoms: C_10  and  N_11 
REMARK    2  A    between atoms: N_11  and  C_12 
REMARK    3  A    between atoms: C_13  and  O_14 
REMARK    4  A    between atoms: O_14  and  C_15 
REMARK    5  A    between atoms: C_15  and  C_16 
ROOT
HETATM    1  N   UNL     1      -5.132  -1.709 -34.183  1.00  0.00    -0.305 N 
HETATM    2  C   UNL     1      -6.306  -1.080 -33.812  1.00  0.00     0.325 C 
HETATM    3  N   UNL     1      -6.151   0.295 -33.876  1.00  0.00    -0.306 N 
HETATM    4  O   UNL     1      -7.338  -1.645 -33.477  1.00  0.00    -0.247 OA
HETATM    5  H   UNL     1      -4.508  -1.175 -34.766  1.00  0.00     0.171 HD
HETATM    6  H   UNL     1      -5.201   0.644 -33.895  1.00  0.00     0.171 HD
ENDROOT
BRANCH   3   7
HETATM    7  C   UNL     1      -7.143   1.284 -33.696  1.00  0.00     0.072 A 
HETATM    8  C   UNL     1      -6.911   2.255 -32.702  1.00  0.00     0.096 A 
HETATM    9  C   UNL     1      -7.815   3.298 -32.487  1.00  0.00     0.042 A 
HETATM   10  C   UNL     1      -8.981   3.359 -33.246  1.00  0.00     0.045 A 
HETATM   11  C   UNL     1      -9.220   2.389 -34.215  1.00  0.00     0.118 A 
HETATM   12  F   UNL     1     -10.340   2.461 -34.946  1.00  0.00    -0.206 F 
HETATM   13  C   UNL     1      -8.312   1.358 -34.451  1.00  0.00     0.074 A 
BRANCH   8  14
HETATM   14  O   UNL     1      -5.743   2.171 -31.983  1.00  0.00    -0.340 OA
BRANCH  14  15
HETATM   15  C   UNL     1      -5.993   1.983 -30.577  1.00  0.00     0.293 C 
BRANCH  15  16
HETATM   16  C   UNL     1      -5.865   0.510 -30.224  1.00  0.00     0.408 C 
HETATM   17  F   UNL     1      -5.668   0.340 -28.897  1.00  0.00    -0.169 F 
HETATM   18  F   UNL     1      -6.973  -0.184 -30.570  1.00  0.00    -0.169 F 
HETATM   19  F   UNL     1      -4.816  -0.049 -30.869  1.00  0.00    -0.169 F 
ENDBRANCH  15  16
ENDBRANCH  14  15
ENDBRANCH   8  14
ENDBRANCH   3   7
BRANCH   1  20
HETATM   20  C   UNL     1      -4.860  -3.064 -34.088  1.00  0.00     0.086 A 
HETATM   21  C   UNL     1      -3.929  -3.563 -33.196  1.00  0.00     0.052 A 
HETATM   22  C   UNL     1      -3.034  -2.911 -32.210  1.00  0.00     0.072 C 
HETATM   23  N   UNL     1      -3.930  -4.917 -33.375  1.00  0.00    -0.280 N 
HETATM   24  H   UNL     1      -3.365  -5.613 -32.901  1.00  0.00     0.189 HD
HETATM   25  N   UNL     1      -4.806  -5.340 -34.289  1.00  0.00    -0.177 NA
HETATM   26  C   UNL     1      -5.391  -4.218 -34.735  1.00  0.00     0.079 A 
HETATM   27  C   UNL     1      -6.475  -4.344 -35.741  1.00  0.00     0.075 C 
ENDBRANCH   1  20
TORSDOF 5
ENDMDL
MODEL 10
REMARK VINA RESULT:      -7.4      1.747      4.057
REMARK  5 active torsions:
REMARK  status: ('A' for Active; 'I' for Inactive)
REMARK    1  A    between atoms: C_8  and  N_9 
REMARK       I    between atoms: N_9  and  C_10 
REMARK       I    between atoms: C_10  and  N_11 
REMARK    2  A    between atoms: N_11  and  C_12 
REMARK    3  A    between atoms: C_13  and  O_14 
REMARK    4  A    between atoms: O_14  and  C_15 
REMARK    5  A    between atoms: C_15  and  C_16 
ROOT
HETATM    1  N   UNL     1     -10.601   1.734 -34.758  1.00  0.00    -0.305 N 
HETATM    2  C   UNL     1      -9.702   0.927 -34.085  1.00  0.00     0.325 C 
HETATM    3  N   UNL     1      -8.588   0.693 -34.874  1.00  0.00    -0.306 N 
HETATM    4  O   UNL     1      -9.856   0.483 -32.956  1.00  0.00    -0.247 OA
HETATM    5  H   UNL     1     -10.218   2.312 -35.490  1.00  0.00     0.171 HD
HETATM    6  H   UNL     1      -8.688   0.873 -35.865  1.00  0.00     0.171 HD
ENDROOT
BRANCH   3   7
HETATM    7  C   UNL     1      -7.398   0.025 -34.510  1.00  0.00     0.072 A 
HETATM    8  C   UNL     1      -6.407   0.784 -33.857  1.00  0.00     0.096 A 
HETATM    9  C   UNL     1      -5.218   0.196 -33.419  1.00  0.00     0.042 A 
HETATM   10  C   UNL     1      -4.996  -1.157 -33.662  1.00  0.00     0.045 A 
HETATM   11  C   UNL     1      -5.966  -1.904 -34.325  1.00  0.00     0.118 A 
HETATM   12  F   UNL     1      -5.747  -3.206 -34.546  1.00  0.00    -0.206 F 
HETATM   13  C   UNL     1      -7.164  -1.329 -34.745  1.00  0.00     0.074 A 
BRANCH   8  14
HETATM   14  O   UNL     1      -6.669   2.113 -33.621  1.00  0.00    -0.340 OA
BRANCH  14  15
HETATM   15  C   UNL     1      -6.183   2.531 -32.331  1.00  0.00     0.293 C 
BRANCH  15  16
HETATM   16  C   UNL     1      -7.321   2.517 -31.323  1.00  0.00     0.408 C 
HETATM   17  F   UNL     1      -8.441   3.068 -31.841  1.00  0.00    -0.169 F 
HETATM   18  F   UNL     1      -7.622   1.259 -30.930  1.00  0.00    -0.169 F 
HETATM   19  F   UNL     1      -6.990   3.222 -30.217  1.00  0.00    -0.169 F 
ENDBRANCH  15  16
ENDBRANCH  14  15
ENDBRANCH   8  14
ENDBRANCH   3   7
BRANCH   1  20
HETATM   20  C   UNL     1     -11.888   2.047 -34.354  1.00  0.00     0.086 A 
HETATM   21  C   UNL     1     -12.368   3.344 -34.379  1.00  0.00     0.052 A 
HETATM   22  C   UNL     1     -11.751   4.635 -34.765  1.00  0.00     0.072 C 
HETATM   23  N   UNL     1     -13.654   3.274 -33.924  1.00  0.00    -0.280 N 
HETATM   24  H   UNL     1     -14.316   4.030 -33.795  1.00  0.00     0.189 HD
HETATM   25  N   UNL     1     -14.058   2.034 -33.635  1.00  0.00    -0.177 NA
HETATM   26  C   UNL     1     -12.989   1.265 -33.897  1.00  0.00     0.079 A 
HETATM   27  C   UNL     1     -13.124  -0.203 -33.729  1.00  0.00     0.075 C 
ENDBRANCH   1  20
TORSDOF 5
ENDMDL
