MODEL 1
REMARK VINA RESULT:      -8.9      0.000      0.000
REMARK  6 active torsions:
REMARK  status: ('A' for Active; 'I' for Inactive)
REMARK    1  A    between atoms: C_7  and  C_8 
REMARK    2  A    between atoms: C_12  and  S_13 
REMARK    3  A    between atoms: S_13  and  C_14 
REMARK    4  A    between atoms: C_14  and  C_15 
REMARK       I    between atoms: C_15  and  N_16 
REMARK    5  A    between atoms: N_16  and  C_17 
REMARK    6  A    between atoms: C_25  and  C_26 
REMARK       I    between atoms: C_26  and  N_27 
ROOT
HETATM    1  C   UNL     1      -8.866   3.702 -31.254  1.00  0.00     0.232 C 
HETATM    2  N   UNL     1      -9.648   3.739 -32.392  1.00  0.00    -0.320 N 
HETATM    3  O   UNL     1      -9.036   2.965 -30.283  1.00  0.00    -0.272 OA
HETATM    4  H   UNL     1      -9.350   4.383 -33.119  1.00  0.00     0.169 HD
ENDROOT
BRANCH   1   5
HETATM    5  C   UNL     1      -7.644   4.620 -31.260  1.00  0.00     0.185 C 
BRANCH   5   6
HETATM    6  S   UNL     1      -6.018   3.811 -31.144  1.00  0.00    -0.081 SA
BRANCH   6   7
HETATM    7  C   UNL     1      -6.168   2.608 -32.363  1.00  0.00     0.185 A 
HETATM    8  N   UNL     1      -6.478   2.910 -33.648  1.00  0.00    -0.253 N 
HETATM    9  N   UNL     1      -6.427   1.814 -34.419  1.00  0.00    -0.152 NA
HETATM   10  H   UNL     1      -6.700   3.809 -34.058  1.00  0.00     0.191 HD
HETATM   11  C   UNL     1      -6.111   0.853 -33.536  1.00  0.00     0.183 A 
HETATM   12  N   UNL     1      -5.934   1.329 -32.249  1.00  0.00    -0.201 NA
BRANCH  11  13
HETATM   13  C   UNL     1      -5.863  -0.551 -33.862  1.00  0.00     0.035 A 
HETATM   14  C   UNL     1      -4.633  -1.206 -33.681  1.00  0.00     0.049 A 
HETATM   15  C   UNL     1      -4.497  -2.566 -33.999  1.00  0.00     0.048 A 
HETATM   16 CL   UNL     1      -3.195  -0.419 -33.120  1.00  0.00    -0.083 Cl
HETATM   17  C   UNL     1      -5.579  -3.279 -34.507  1.00  0.00     0.035 A 
HETATM   18  C   UNL     1      -6.801  -2.649 -34.709  1.00  0.00     0.025 A 
HETATM   19 CL   UNL     1      -5.401  -4.945 -34.894  1.00  0.00    -0.084 Cl
HETATM   20  C   UNL     1      -6.940  -1.296 -34.390  1.00  0.00     0.019 A 
ENDBRANCH  11  13
ENDBRANCH   6   7
ENDBRANCH   5   6
ENDBRANCH   1   5
BRANCH   2  21
HETATM   21  C   UNL     1     -10.890   3.153 -32.595  1.00  0.00     0.093 A 
HETATM   22  S   UNL     1     -12.322   3.950 -32.149  1.00  0.00    -0.075 SA
HETATM   23  C   UNL     1     -13.294   2.738 -32.822  1.00  0.00    -0.008 A 
HETATM   24  C   UNL     1     -12.554   1.720 -33.389  1.00  0.00    -0.026 A 
HETATM   25  C   UNL     1     -14.789   2.826 -32.810  1.00  0.00     0.047 C 
HETATM   26  C   UNL     1     -13.217   0.537 -34.043  1.00  0.00     0.041 C 
HETATM   27  C   UNL     1     -11.134   1.926 -33.204  1.00  0.00     0.072 A 
HETATM   28  C   UNL     1     -14.707   0.793 -34.325  1.00  0.00     0.005 C 
HETATM   29  C   UNL     1     -15.408   1.458 -33.133  1.00  0.00     0.005 C 
BRANCH  27  30
HETATM   30  C   UNL     1     -10.095   0.987 -33.629  1.00  0.00     0.252 C 
HETATM   31  N   UNL     1      -9.520   1.253 -34.844  1.00  0.00    -0.366 N 
HETATM   32  H   UNL     1      -9.540   2.206 -35.185  1.00  0.00     0.159 HD
HETATM   33  H   UNL     1      -8.669   0.731 -35.018  1.00  0.00     0.159 HD
HETATM   34  O   UNL     1      -9.691   0.051 -32.950  1.00  0.00    -0.268 OA
ENDBRANCH  27  30
ENDBRANCH   2  21
TORSDOF 6
ENDMDL
MODEL 2
REMARK VINA RESULT:      -8.9      5.974      9.632
REMARK  6 active torsions:
REMARK  status: ('A' for Active; 'I' for Inactive)
REMARK    1  A    between atoms: C_7  and  C_8 
REMARK    2  A    between atoms: C_12  and  S_13 
REMARK    3  A    between atoms: S_13  and  C_14 
REMARK    4  A    between atoms: C_14  and  C_15 
REMARK       I    between atoms: C_15  and  N_16 
REMARK    5  A    between atoms: N_16  and  C_17 
REMARK    6  A    between atoms: C_25  and  C_26 
REMARK       I    between atoms: C_26  and  N_27 
ROOT
HETATM    1  C   UNL     1      -2.294   5.332 -32.281  1.00  0.00     0.232 C 
HETATM    2  N   UNL     1      -2.228   5.342 -30.901  1.00  0.00    -0.320 N 
HETATM    3  O   UNL     1      -1.601   6.005 -33.044  1.00  0.00    -0.272 OA
HETATM    4  H   UNL     1      -2.847   4.697 -30.419  1.00  0.00     0.169 HD
ENDROOT
BRANCH   1   5
HETATM    5  C   UNL     1      -3.277   4.333 -32.889  1.00  0.00     0.185 C 
BRANCH   5   6
HETATM    6  S   UNL     1      -4.814   4.035 -31.962  1.00  0.00    -0.081 SA
BRANCH   6   7
HETATM    7  C   UNL     1      -4.863   2.317 -31.960  1.00  0.00     0.185 A 
HETATM    8  N   UNL     1      -4.695   1.586 -30.830  1.00  0.00    -0.253 N 
HETATM    9  N   UNL     1      -4.885   0.282 -31.075  1.00  0.00    -0.152 NA
HETATM   10  H   UNL     1      -4.485   1.900 -29.890  1.00  0.00     0.191 HD
HETATM   11  C   UNL     1      -5.135   0.268 -32.395  1.00  0.00     0.183 A 
HETATM   12  N   UNL     1      -5.136   1.529 -32.964  1.00  0.00    -0.201 NA
BRANCH  11  13
HETATM   13  C   UNL     1      -5.479  -0.916 -33.182  1.00  0.00     0.035 A 
HETATM   14  C   UNL     1      -6.778  -1.233 -33.616  1.00  0.00     0.049 A 
HETATM   15  C   UNL     1      -7.008  -2.380 -34.392  1.00  0.00     0.048 A 
HETATM   16 CL   UNL     1      -8.184  -0.306 -33.211  1.00  0.00    -0.083 Cl
HETATM   17  C   UNL     1      -5.953  -3.222 -34.728  1.00  0.00     0.035 A 
HETATM   18  C   UNL     1      -4.664  -2.938 -34.297  1.00  0.00     0.025 A 
HETATM   19 CL   UNL     1      -6.248  -4.626 -35.677  1.00  0.00    -0.084 Cl
HETATM   20  C   UNL     1      -4.430  -1.794 -33.528  1.00  0.00     0.019 A 
ENDBRANCH  11  13
ENDBRANCH   6   7
ENDBRANCH   5   6
ENDBRANCH   1   5
BRANCH   2  21
HETATM   21  C   UNL     1      -1.562   6.245 -30.084  1.00  0.00     0.093 A 
HETATM   22  S   UNL     1      -2.339   7.640 -29.501  1.00  0.00    -0.075 SA
HETATM   23  C   UNL     1      -1.010   8.070 -28.544  1.00  0.00    -0.008 A 
HETATM   24  C   UNL     1       0.033   7.172 -28.652  1.00  0.00    -0.026 A 
HETATM   25  C   UNL     1      -1.028   9.284 -27.667  1.00  0.00     0.047 C 
HETATM   26  C   UNL     1       1.315   7.363 -27.887  1.00  0.00     0.041 C 
HETATM   27  C   UNL     1      -0.261   6.125 -29.606  1.00  0.00     0.072 A 
HETATM   28  C   UNL     1       1.167   8.394 -26.756  1.00  0.00     0.005 C 
HETATM   29  C   UNL     1       0.397   9.639 -27.216  1.00  0.00     0.005 C 
BRANCH  27  30
HETATM   30  C   UNL     1       0.671   5.067 -29.993  1.00  0.00     0.252 C 
HETATM   31  N   UNL     1       1.110   4.264 -28.971  1.00  0.00    -0.366 N 
HETATM   32  H   UNL     1       0.529   4.180 -28.146  1.00  0.00     0.159 HD
HETATM   33  H   UNL     1       1.572   3.418 -29.284  1.00  0.00     0.159 HD
HETATM   34  O   UNL     1       1.016   4.836 -31.145  1.00  0.00    -0.268 OA
ENDBRANCH  27  30
ENDBRANCH   2  21
TORSDOF 6
ENDMDL
MODEL 3
REMARK VINA RESULT:      -8.8      5.237      8.539
REMARK  6 active torsions:
REMARK  status: ('A' for Active; 'I' for Inactive)
REMARK    1  A    between atoms: C_7  and  C_8 
REMARK    2  A    between atoms: C_12  and  S_13 
REMARK    3  A    between atoms: S_13  and  C_14 
REMARK    4  A    between atoms: C_14  and  C_15 
REMARK       I    between atoms: C_15  and  N_16 
REMARK    5  A    between atoms: N_16  and  C_17 
REMARK    6  A    between atoms: C_25  and  C_26 
REMARK       I    between atoms: C_26  and  N_27 
ROOT
HETATM    1  C   UNL     1      -5.708   1.710 -31.971  1.00  0.00     0.232 C 
HETATM    2  N   UNL     1      -4.884   1.089 -32.890  1.00  0.00    -0.320 N 
HETATM    3  O   UNL     1      -6.536   1.153 -31.250  1.00  0.00    -0.272 OA
HETATM    4  H   UNL     1      -4.229   1.690 -33.381  1.00  0.00     0.169 HD
ENDROOT
BRANCH   1   5
HETATM    5  C   UNL     1      -5.499   3.215 -31.805  1.00  0.00     0.185 C 
BRANCH   5   6
HETATM    6  S   UNL     1      -4.878   4.116 -33.259  1.00  0.00    -0.081 SA
BRANCH   6   7
HETATM    7  C   UNL     1      -3.312   4.569 -32.714  1.00  0.00     0.185 A 
HETATM    8  N   UNL     1      -2.226   4.548 -33.524  1.00  0.00    -0.253 N 
HETATM    9  N   UNL     1      -1.153   5.047 -32.894  1.00  0.00    -0.152 NA
HETATM   10  H   UNL     1      -2.152   4.243 -34.488  1.00  0.00     0.191 HD
HETATM   11  C   UNL     1      -1.638   5.330 -31.674  1.00  0.00     0.183 A 
HETATM   12  N   UNL     1      -2.987   5.049 -31.544  1.00  0.00    -0.201 NA
BRANCH  11  13
HETATM   13  C   UNL     1      -0.891   5.967 -30.590  1.00  0.00     0.035 A 
HETATM   14  C   UNL     1      -0.994   7.325 -30.242  1.00  0.00     0.049 A 
HETATM   15  C   UNL     1      -0.256   7.842 -29.167  1.00  0.00     0.048 A 
HETATM   16 CL   UNL     1      -1.965   8.471 -31.106  1.00  0.00    -0.083 Cl
HETATM   17  C   UNL     1       0.595   7.016 -28.440  1.00  0.00     0.035 A 
HETATM   18  C   UNL     1       0.726   5.674 -28.774  1.00  0.00     0.025 A 
HETATM   19 CL   UNL     1       1.497   7.660 -27.124  1.00  0.00    -0.084 Cl
HETATM   20  C   UNL     1      -0.011   5.155 -29.842  1.00  0.00     0.019 A 
ENDBRANCH  11  13
ENDBRANCH   6   7
ENDBRANCH   5   6
ENDBRANCH   1   5
BRANCH   2  21
HETATM   21  C   UNL     1      -4.962  -0.212 -33.366  1.00  0.00     0.093 A 
HETATM   22  S   UNL     1      -3.765  -1.358 -32.989  1.00  0.00    -0.075 SA
HETATM   23  C   UNL     1      -4.617  -2.608 -33.750  1.00  0.00    -0.008 A 
HETATM   24  C   UNL     1      -5.810  -2.179 -34.297  1.00  0.00    -0.026 A 
HETATM   25  C   UNL     1      -4.106  -4.016 -33.769  1.00  0.00     0.047 C 
HETATM   26  C   UNL     1      -6.726  -3.126 -35.023  1.00  0.00     0.041 C 
HETATM   27  C   UNL     1      -5.992  -0.754 -34.129  1.00  0.00     0.072 A 
HETATM   28  C   UNL     1      -6.372  -4.598 -34.749  1.00  0.00     0.005 C 
HETATM   29  C   UNL     1      -4.860  -4.844 -34.820  1.00  0.00     0.005 C 
BRANCH  27  30
HETATM   30  C   UNL     1      -7.121   0.009 -34.661  1.00  0.00     0.252 C 
HETATM   31  N   UNL     1      -8.224   0.076 -33.849  1.00  0.00    -0.366 N 
HETATM   32  H   UNL     1      -8.092  -0.045 -32.852  1.00  0.00     0.159 HD
HETATM   33  H   UNL     1      -8.899   0.776 -34.132  1.00  0.00     0.159 HD
HETATM   34  O   UNL     1      -7.105   0.615 -35.725  1.00  0.00    -0.268 OA
ENDBRANCH  27  30
ENDBRANCH   2  21
TORSDOF 6
ENDMDL
MODEL 4
REMARK VINA RESULT:      -8.8      5.585      8.743
REMARK  6 active torsions:
REMARK  status: ('A' for Active; 'I' for Inactive)
REMARK    1  A    between atoms: C_7  and  C_8 
REMARK    2  A    between atoms: C_12  and  S_13 
REMARK    3  A    between atoms: S_13  and  C_14 
REMARK    4  A    between atoms: C_14  and  C_15 
REMARK       I    between atoms: C_15  and  N_16 
REMARK    5  A    between atoms: N_16  and  C_17 
REMARK    6  A    between atoms: C_25  and  C_26 
REMARK       I    between atoms: C_26  and  N_27 
ROOT
HETATM    1  C   UNL     1      -5.989   2.007 -32.218  1.00  0.00     0.232 C 
HETATM    2  N   UNL     1      -5.069   1.308 -32.974  1.00  0.00    -0.320 N 
HETATM    3  O   UNL     1      -6.831   1.515 -31.466  1.00  0.00    -0.272 OA
HETATM    4  H   UNL     1      -4.418   1.868 -33.516  1.00  0.00     0.169 HD
ENDROOT
BRANCH   1   5
HETATM    5  C   UNL     1      -5.882   3.530 -32.285  1.00  0.00     0.185 C 
BRANCH   5   6
HETATM    6  S   UNL     1      -5.161   4.229 -33.803  1.00  0.00    -0.081 SA
BRANCH   6   7
HETATM    7  C   UNL     1      -3.587   4.646 -33.251  1.00  0.00     0.185 A 
HETATM    8  N   UNL     1      -2.507   4.649 -34.069  1.00  0.00    -0.253 N 
HETATM    9  N   UNL     1      -1.425   5.113 -33.427  1.00  0.00    -0.152 NA
HETATM   10  H   UNL     1      -2.442   4.384 -35.045  1.00  0.00     0.191 HD
HETATM   11  C   UNL     1      -1.900   5.349 -32.193  1.00  0.00     0.183 A 
HETATM   12  N   UNL     1      -3.250   5.074 -32.065  1.00  0.00    -0.201 NA
BRANCH  11  13
HETATM   13  C   UNL     1      -1.141   5.934 -31.088  1.00  0.00     0.035 A 
HETATM   14  C   UNL     1      -1.192   7.289 -30.716  1.00  0.00     0.049 A 
HETATM   15  C   UNL     1      -0.446   7.755 -29.623  1.00  0.00     0.048 A 
HETATM   16 CL   UNL     1      -2.104   8.490 -31.569  1.00  0.00    -0.083 Cl
HETATM   17  C   UNL     1       0.362   6.881 -28.902  1.00  0.00     0.035 A 
HETATM   18  C   UNL     1       0.442   5.541 -29.260  1.00  0.00     0.025 A 
HETATM   19 CL   UNL     1       1.274   7.463 -27.565  1.00  0.00    -0.084 Cl
HETATM   20  C   UNL     1      -0.304   5.073 -30.346  1.00  0.00     0.019 A 
ENDBRANCH  11  13
ENDBRANCH   6   7
ENDBRANCH   5   6
ENDBRANCH   1   5
BRANCH   2  21
HETATM   21  C   UNL     1      -5.036  -0.055 -33.236  1.00  0.00     0.093 A 
HETATM   22  S   UNL     1      -6.004  -0.739 -34.453  1.00  0.00    -0.075 SA
HETATM   23  C   UNL     1      -5.310  -2.270 -34.249  1.00  0.00    -0.008 A 
HETATM   24  C   UNL     1      -4.344  -2.285 -33.263  1.00  0.00    -0.026 A 
HETATM   25  C   UNL     1      -5.710  -3.439 -35.095  1.00  0.00     0.047 C 
HETATM   26  C   UNL     1      -3.599  -3.545 -32.913  1.00  0.00     0.041 C 
HETATM   27  C   UNL     1      -4.220  -0.996 -32.617  1.00  0.00     0.072 A 
HETATM   28  C   UNL     1      -3.764  -4.632 -33.988  1.00  0.00     0.005 C 
HETATM   29  C   UNL     1      -5.218  -4.749 -34.463  1.00  0.00     0.005 C 
BRANCH  27  30
HETATM   30  C   UNL     1      -3.334  -0.713 -31.488  1.00  0.00     0.252 C 
HETATM   31  N   UNL     1      -2.036  -1.132 -31.636  1.00  0.00    -0.366 N 
HETATM   32  H   UNL     1      -1.674  -1.245 -32.575  1.00  0.00     0.159 HD
HETATM   33  H   UNL     1      -1.399  -0.741 -30.952  1.00  0.00     0.159 HD
HETATM   34  O   UNL     1      -3.667  -0.093 -30.486  1.00  0.00    -0.268 OA
ENDBRANCH  27  30
ENDBRANCH   2  21
TORSDOF 6
ENDMDL
MODEL 5
REMARK VINA RESULT:      -8.8      2.944      6.327
REMARK  6 active torsions:
REMARK  status: ('A' for Active; 'I' for Inactive)
REMARK    1  A    between atoms: C_7  and  C_8 
REMARK    2  A    between atoms: C_12  and  S_13 
REMARK    3  A    between atoms: S_13  and  C_14 
REMARK    4  A    between atoms: C_14  and  C_15 
REMARK       I    between atoms: C_15  and  N_16 
REMARK    5  A    between atoms: N_16  and  C_17 
REMARK    6  A    between atoms: C_25  and  C_26 
REMARK       I    between atoms: C_26  and  N_27 
ROOT
HETATM    1  C   UNL     1      -7.781   2.395 -31.476  1.00  0.00     0.232 C 
HETATM    2  N   UNL     1      -7.548   3.597 -32.114  1.00  0.00    -0.320 N 
HETATM    3  O   UNL     1      -6.928   1.667 -30.968  1.00  0.00    -0.272 OA
HETATM    4  H   UNL     1      -8.370   4.093 -32.447  1.00  0.00     0.169 HD
ENDROOT
BRANCH   1   5
HETATM    5  C   UNL     1      -9.249   1.992 -31.339  1.00  0.00     0.185 C 
BRANCH   5   6
HETATM    6  S   UNL     1     -10.129   1.583 -32.879  1.00  0.00    -0.081 SA
BRANCH   6   7
HETATM    7  C   UNL     1      -8.903   0.735 -33.736  1.00  0.00     0.185 A 
HETATM    8  N   UNL     1      -8.455   1.138 -34.950  1.00  0.00    -0.253 N 
HETATM    9  N   UNL     1      -7.428   0.375 -35.354  1.00  0.00    -0.152 NA
HETATM   10  H   UNL     1      -8.771   1.908 -35.526  1.00  0.00     0.191 HD
HETATM   11  C   UNL     1      -7.312  -0.510 -34.350  1.00  0.00     0.183 A 
HETATM   12  N   UNL     1      -8.217  -0.296 -33.325  1.00  0.00    -0.201 NA
BRANCH  11  13
HETATM   13  C   UNL     1      -6.287  -1.549 -34.249  1.00  0.00     0.035 A 
HETATM   14  C   UNL     1      -5.039  -1.378 -33.626  1.00  0.00     0.049 A 
HETATM   15  C   UNL     1      -4.128  -2.443 -33.554  1.00  0.00     0.048 A 
HETATM   16 CL   UNL     1      -4.492   0.124 -32.957  1.00  0.00    -0.083 Cl
HETATM   17  C   UNL     1      -4.448  -3.678 -34.108  1.00  0.00     0.035 A 
HETATM   18  C   UNL     1      -5.670  -3.867 -34.743  1.00  0.00     0.025 A 
HETATM   19 CL   UNL     1      -3.324  -4.976 -34.016  1.00  0.00    -0.084 Cl
HETATM   20  C   UNL     1      -6.581  -2.809 -34.813  1.00  0.00     0.019 A 
ENDBRANCH  11  13
ENDBRANCH   6   7
ENDBRANCH   5   6
ENDBRANCH   1   5
BRANCH   2  21
HETATM   21  C   UNL     1      -6.332   4.125 -32.525  1.00  0.00     0.093 A 
HETATM   22  S   UNL     1      -5.837   4.032 -34.148  1.00  0.00    -0.075 SA
HETATM   23  C   UNL     1      -4.454   4.964 -33.857  1.00  0.00    -0.008 A 
HETATM   24  C   UNL     1      -4.347   5.355 -32.538  1.00  0.00    -0.026 A 
HETATM   25  C   UNL     1      -3.501   5.327 -34.954  1.00  0.00     0.047 C 
HETATM   26  C   UNL     1      -3.190   6.190 -32.057  1.00  0.00     0.041 C 
HETATM   27  C   UNL     1      -5.418   4.811 -31.732  1.00  0.00     0.072 A 
HETATM   28  C   UNL     1      -2.417   6.831 -33.222  1.00  0.00     0.005 C 
HETATM   29  C   UNL     1      -2.177   5.836 -34.364  1.00  0.00     0.005 C 
BRANCH  27  30
HETATM   30  C   UNL     1      -5.542   4.987 -30.285  1.00  0.00     0.252 C 
HETATM   31  N   UNL     1      -5.187   3.903 -29.525  1.00  0.00    -0.366 N 
HETATM   32  H   UNL     1      -4.539   3.232 -29.921  1.00  0.00     0.159 HD
HETATM   33  H   UNL     1      -5.072   4.112 -28.540  1.00  0.00     0.159 HD
HETATM   34  O   UNL     1      -5.876   6.033 -29.742  1.00  0.00    -0.268 OA
ENDBRANCH  27  30
ENDBRANCH   2  21
TORSDOF 6
ENDMDL
MODEL 6
REMARK VINA RESULT:      -8.5      6.081      9.700
REMARK  6 active torsions:
REMARK  status: ('A' for Active; 'I' for Inactive)
REMARK    1  A    between atoms: C_7  and  C_8 
REMARK    2  A    between atoms: C_12  and  S_13 
REMARK    3  A    between atoms: S_13  and  C_14 
REMARK    4  A    between atoms: C_14  and  C_15 
REMARK       I    between atoms: C_15  and  N_16 
REMARK    5  A    between atoms: N_16  and  C_17 
REMARK    6  A    between atoms: C_25  and  C_26 
REMARK       I    between atoms: C_26  and  N_27 
ROOT
HETATM    1  C   UNL     1      -3.511   6.074 -31.029  1.00  0.00     0.232 C 
HETATM    2  N   UNL     1      -2.698   5.916 -29.924  1.00  0.00    -0.320 N 
HETATM    3  O   UNL     1      -3.525   7.045 -31.785  1.00  0.00    -0.272 OA
HETATM    4  H   UNL     1      -2.786   5.035 -29.426  1.00  0.00     0.169 HD
ENDROOT
BRANCH   1   5
HETATM    5  C   UNL     1      -4.415   4.887 -31.360  1.00  0.00     0.185 C 
BRANCH   5   6
HETATM    6  S   UNL     1      -5.592   4.374 -30.070  1.00  0.00    -0.081 SA
BRANCH   6   7
HETATM    7  C   UNL     1      -5.660   2.679 -30.350  1.00  0.00     0.185 A 
HETATM    8  N   UNL     1      -6.113   1.806 -29.417  1.00  0.00    -0.253 N 
HETATM    9  N   UNL     1      -6.168   0.563 -29.917  1.00  0.00    -0.152 NA
HETATM   10  H   UNL     1      -6.414   1.984 -28.467  1.00  0.00     0.191 HD
HETATM   11  C   UNL     1      -5.699   0.731 -31.165  1.00  0.00     0.183 A 
HETATM   12  N   UNL     1      -5.386   2.047 -31.459  1.00  0.00    -0.201 NA
BRANCH  11  13
HETATM   13  C   UNL     1      -5.605  -0.313 -32.185  1.00  0.00     0.035 A 
HETATM   14  C   UNL     1      -4.442  -1.051 -32.464  1.00  0.00     0.049 A 
HETATM   15  C   UNL     1      -4.454  -2.054 -33.445  1.00  0.00     0.048 A 
HETATM   16 CL   UNL     1      -2.915  -0.773 -31.693  1.00  0.00    -0.083 Cl
HETATM   17  C   UNL     1      -5.617  -2.321 -34.160  1.00  0.00     0.035 A 
HETATM   18  C   UNL     1      -6.775  -1.594 -33.914  1.00  0.00     0.025 A 
HETATM   19 CL   UNL     1      -5.620  -3.552 -35.362  1.00  0.00    -0.084 Cl
HETATM   20  C   UNL     1      -6.767  -0.597 -32.934  1.00  0.00     0.019 A 
ENDBRANCH  11  13
ENDBRANCH   6   7
ENDBRANCH   5   6
ENDBRANCH   1   5
BRANCH   2  21
HETATM   21  C   UNL     1      -1.912   6.873 -29.297  1.00  0.00     0.093 A 
HETATM   22  S   UNL     1      -2.613   8.181 -28.469  1.00  0.00    -0.075 SA
HETATM   23  C   UNL     1      -1.112   8.731 -27.914  1.00  0.00    -0.008 A 
HETATM   24  C   UNL     1      -0.065   7.940 -28.344  1.00  0.00    -0.026 A 
HETATM   25  C   UNL     1      -0.989   9.930 -27.025  1.00  0.00     0.047 C 
HETATM   26  C   UNL     1       1.359   8.248 -27.969  1.00  0.00     0.041 C 
HETATM   27  C   UNL     1      -0.523   6.877 -29.213  1.00  0.00     0.072 A 
HETATM   28  C   UNL     1       1.446   9.251 -26.806  1.00  0.00     0.005 C 
HETATM   29  C   UNL     1       0.467  10.418 -26.984  1.00  0.00     0.005 C 
BRANCH  27  30
HETATM   30  C   UNL     1       0.353   5.918 -29.886  1.00  0.00     0.252 C 
HETATM   31  N   UNL     1       0.766   4.857 -29.121  1.00  0.00    -0.366 N 
HETATM   32  H   UNL     1       0.193   4.585 -28.331  1.00  0.00     0.159 HD
HETATM   33  H   UNL     1       1.183   4.105 -29.655  1.00  0.00     0.159 HD
HETATM   34  O   UNL     1       0.670   5.982 -31.067  1.00  0.00    -0.268 OA
ENDBRANCH  27  30
ENDBRANCH   2  21
TORSDOF 6
ENDMDL
MODEL 7
REMARK VINA RESULT:      -8.5      3.398      7.295
REMARK  6 active torsions:
REMARK  status: ('A' for Active; 'I' for Inactive)
REMARK    1  A    between atoms: C_7  and  C_8 
REMARK    2  A    between atoms: C_12  and  S_13 
REMARK    3  A    between atoms: S_13  and  C_14 
REMARK    4  A    between atoms: C_14  and  C_15 
REMARK       I    between atoms: C_15  and  N_16 
REMARK    5  A    between atoms: N_16  and  C_17 
REMARK    6  A    between atoms: C_25  and  C_26 
REMARK       I    between atoms: C_26  and  N_27 
ROOT
HETATM    1  C   UNL     1      -6.124   1.855 -32.045  1.00  0.00     0.232 C 
HETATM    2  N   UNL     1      -5.256   1.288 -32.958  1.00  0.00    -0.320 N 
HETATM    3  O   UNL     1      -6.875   1.245 -31.284  1.00  0.00    -0.272 OA
HETATM    4  H   UNL     1      -4.677   1.934 -33.486  1.00  0.00     0.169 HD
ENDROOT
BRANCH   1   5
HETATM    5  C   UNL     1      -6.072   3.379 -31.941  1.00  0.00     0.185 C 
BRANCH   5   6
HETATM    6  S   UNL     1      -6.206   4.307 -33.501  1.00  0.00    -0.081 SA
BRANCH   6   7
HETATM    7  C   UNL     1      -7.913   4.379 -33.689  1.00  0.00     0.185 A 
HETATM    8  N   UNL     1      -8.551   5.497 -34.115  1.00  0.00    -0.253 N 
HETATM    9  N   UNL     1      -9.861   5.263 -34.280  1.00  0.00    -0.152 NA
HETATM   10  H   UNL     1      -8.167   6.410 -34.330  1.00  0.00     0.191 HD
HETATM   11  C   UNL     1      -9.976   3.979 -33.903  1.00  0.00     0.183 A 
HETATM   12  N   UNL     1      -8.770   3.406 -33.540  1.00  0.00    -0.201 NA
BRANCH  11  13
HETATM   13  C   UNL     1     -11.205   3.187 -33.949  1.00  0.00     0.035 A 
HETATM   14  C   UNL     1     -12.201   3.205 -32.958  1.00  0.00     0.049 A 
HETATM   15  C   UNL     1     -13.362   2.429 -33.103  1.00  0.00     0.048 A 
HETATM   16 CL   UNL     1     -12.081   4.109 -31.485  1.00  0.00    -0.083 Cl
HETATM   17  C   UNL     1     -13.532   1.625 -34.225  1.00  0.00     0.035 A 
HETATM   18  C   UNL     1     -12.554   1.579 -35.210  1.00  0.00     0.025 A 
HETATM   19 CL   UNL     1     -14.958   0.677 -34.391  1.00  0.00    -0.084 Cl
HETATM   20  C   UNL     1     -11.399   2.354 -35.072  1.00  0.00     0.019 A 
ENDBRANCH  11  13
ENDBRANCH   6   7
ENDBRANCH   5   6
ENDBRANCH   1   5
BRANCH   2  21
HETATM   21  C   UNL     1      -5.205  -0.033 -33.381  1.00  0.00     0.093 A 
HETATM   22  S   UNL     1      -3.930  -1.055 -32.917  1.00  0.00    -0.075 SA
HETATM   23  C   UNL     1      -4.642  -2.403 -33.653  1.00  0.00    -0.008 A 
HETATM   24  C   UNL     1      -5.846  -2.101 -34.257  1.00  0.00    -0.026 A 
HETATM   25  C   UNL     1      -4.013  -3.760 -33.596  1.00  0.00     0.047 C 
HETATM   26  C   UNL     1      -6.651  -3.151 -34.975  1.00  0.00     0.041 C 
HETATM   27  C   UNL     1      -6.155  -0.691 -34.155  1.00  0.00     0.072 A 
HETATM   28  C   UNL     1      -6.183  -4.575 -34.628  1.00  0.00     0.005 C 
HETATM   29  C   UNL     1      -4.653  -4.691 -34.636  1.00  0.00     0.005 C 
BRANCH  27  30
HETATM   30  C   UNL     1      -7.325  -0.050 -34.757  1.00  0.00     0.252 C 
HETATM   31  N   UNL     1      -8.426   0.050 -33.947  1.00  0.00    -0.366 N 
HETATM   32  H   UNL     1      -8.284   0.046 -32.944  1.00  0.00     0.159 HD
HETATM   33  H   UNL     1      -9.138   0.679 -34.299  1.00  0.00     0.159 HD
HETATM   34  O   UNL     1      -7.344   0.435 -35.882  1.00  0.00    -0.268 OA
ENDBRANCH  27  30
ENDBRANCH   2  21
TORSDOF 6
ENDMDL
MODEL 8
REMARK VINA RESULT:      -8.2      4.139      7.832
REMARK  6 active torsions:
REMARK  status: ('A' for Active; 'I' for Inactive)
REMARK    1  A    between atoms: C_7  and  C_8 
REMARK    2  A    between atoms: C_12  and  S_13 
REMARK    3  A    between atoms: S_13  and  C_14 
REMARK    4  A    between atoms: C_14  and  C_15 
REMARK       I    between atoms: C_15  and  N_16 
REMARK    5  A    between atoms: N_16  and  C_17 
REMARK    6  A    between atoms: C_25  and  C_26 
REMARK       I    between atoms: C_26  and  N_27 
ROOT
HETATM    1  C   UNL     1      -6.126   5.563 -31.213  1.00  0.00     0.232 C 
HETATM    2  N   UNL     1      -5.059   6.224 -31.790  1.00  0.00    -0.320 N 
HETATM    3  O   UNL     1      -6.192   5.174 -30.047  1.00  0.00    -0.272 OA
HETATM    4  H   UNL     1      -5.180   6.509 -32.757  1.00  0.00     0.169 HD
ENDROOT
BRANCH   1   5
HETATM    5  C   UNL     1      -7.350   5.375 -32.109  1.00  0.00     0.185 C 
BRANCH   5   6
HETATM    6  S   UNL     1      -7.056   4.639 -33.747  1.00  0.00    -0.081 SA
BRANCH   6   7
HETATM    7  C   UNL     1      -6.513   3.069 -33.303  1.00  0.00     0.185 A 
HETATM    8  N   UNL     1      -6.233   2.733 -32.020  1.00  0.00    -0.253 N 
HETATM    9  N   UNL     1      -5.935   1.429 -31.925  1.00  0.00    -0.152 NA
HETATM   10  H   UNL     1      -6.249   3.311 -31.189  1.00  0.00     0.191 HD
HETATM   11  C   UNL     1      -6.017   1.019 -33.202  1.00  0.00     0.183 A 
HETATM   12  N   UNL     1      -6.387   2.025 -34.076  1.00  0.00    -0.201 NA
BRANCH  11  13
HETATM   13  C   UNL     1      -5.846  -0.358 -33.664  1.00  0.00     0.035 A 
HETATM   14  C   UNL     1      -4.635  -1.070 -33.614  1.00  0.00     0.049 A 
HETATM   15  C   UNL     1      -4.573  -2.400 -34.057  1.00  0.00     0.048 A 
HETATM   16 CL   UNL     1      -3.137  -0.390 -33.070  1.00  0.00    -0.083 Cl
HETATM   17  C   UNL     1      -5.709  -3.024 -34.562  1.00  0.00     0.035 A 
HETATM   18  C   UNL     1      -6.914  -2.336 -34.637  1.00  0.00     0.025 A 
HETATM   19 CL   UNL     1      -5.622  -4.654 -35.105  1.00  0.00    -0.084 Cl
HETATM   20  C   UNL     1      -6.980  -1.012 -34.192  1.00  0.00     0.019 A 
ENDBRANCH  11  13
ENDBRANCH   6   7
ENDBRANCH   5   6
ENDBRANCH   1   5
BRANCH   2  21
HETATM   21  C   UNL     1      -3.778   6.385 -31.282  1.00  0.00     0.093 A 
HETATM   22  S   UNL     1      -3.325   7.809 -30.474  1.00  0.00    -0.075 SA
HETATM   23  C   UNL     1      -1.803   7.186 -30.071  1.00  0.00    -0.008 A 
HETATM   24  C   UNL     1      -1.616   5.901 -30.540  1.00  0.00    -0.026 A 
HETATM   25  C   UNL     1      -0.816   7.970 -29.263  1.00  0.00     0.047 C 
HETATM   26  C   UNL     1      -0.332   5.155 -30.298  1.00  0.00     0.041 C 
HETATM   27  C   UNL     1      -2.753   5.443 -31.310  1.00  0.00     0.072 A 
HETATM   28  C   UNL     1       0.523   5.815 -29.203  1.00  0.00     0.005 C 
HETATM   29  C   UNL     1       0.581   7.339 -29.366  1.00  0.00     0.005 C 
BRANCH  27  30
HETATM   30  C   UNL     1      -2.828   4.154 -31.996  1.00  0.00     0.252 C 
HETATM   31  N   UNL     1      -3.041   3.066 -31.189  1.00  0.00    -0.366 N 
HETATM   32  H   UNL     1      -3.493   3.215 -30.295  1.00  0.00     0.159 HD
HETATM   33  H   UNL     1      -3.304   2.227 -31.693  1.00  0.00     0.159 HD
HETATM   34  O   UNL     1      -2.774   4.014 -33.212  1.00  0.00    -0.268 OA
ENDBRANCH  27  30
ENDBRANCH   2  21
TORSDOF 6
ENDMDL
MODEL 9
REMARK VINA RESULT:      -8.0      5.349      8.627
REMARK  6 active torsions:
REMARK  status: ('A' for Active; 'I' for Inactive)
REMARK    1  A    between atoms: C_7  and  C_8 
REMARK    2  A    between atoms: C_12  and  S_13 
REMARK    3  A    between atoms: S_13  and  C_14 
REMARK    4  A    between atoms: C_14  and  C_15 
REMARK       I    between atoms: C_15  and  N_16 
REMARK    5  A    between atoms: N_16  and  C_17 
REMARK    6  A    between atoms: C_25  and  C_26 
REMARK       I    between atoms: C_26  and  N_27 
ROOT
HETATM    1  C   UNL     1      -5.826   2.769 -32.497  1.00  0.00     0.232 C 
HETATM    2  N   UNL     1      -5.909   1.484 -31.997  1.00  0.00    -0.320 N 
HETATM    3  O   UNL     1      -5.830   3.084 -33.686  1.00  0.00    -0.272 OA
HETATM    4  H   UNL     1      -5.929   1.398 -30.985  1.00  0.00     0.169 HD
ENDROOT
BRANCH   1   5
HETATM    5  C   UNL     1      -5.801   3.885 -31.453  1.00  0.00     0.185 C 
BRANCH   5   6
HETATM    6  S   UNL     1      -5.570   5.579 -32.077  1.00  0.00    -0.081 SA
BRANCH   6   7
HETATM    7  C   UNL     1      -3.911   5.836 -31.709  1.00  0.00     0.185 A 
HETATM    8  N   UNL     1      -2.941   5.792 -32.655  1.00  0.00    -0.253 N 
HETATM    9  N   UNL     1      -1.753   6.131 -32.134  1.00  0.00    -0.152 NA
HETATM   10  H   UNL     1      -3.019   5.573 -33.641  1.00  0.00     0.191 HD
HETATM   11  C   UNL     1      -2.053   6.341 -30.842  1.00  0.00     0.183 A 
HETATM   12  N   UNL     1      -3.396   6.172 -30.557  1.00  0.00    -0.201 NA
BRANCH  11  13
HETATM   13  C   UNL     1      -1.117   6.804 -29.817  1.00  0.00     0.035 A 
HETATM   14  C   UNL     1      -1.109   8.099 -29.272  1.00  0.00     0.049 A 
HETATM   15  C   UNL     1      -0.187   8.445 -28.272  1.00  0.00     0.048 A 
HETATM   16 CL   UNL     1      -2.160   9.373 -29.797  1.00  0.00    -0.083 Cl
HETATM   17  C   UNL     1       0.736   7.510 -27.817  1.00  0.00     0.035 A 
HETATM   18  C   UNL     1       0.759   6.228 -28.352  1.00  0.00     0.025 A 
HETATM   19 CL   UNL     1       1.863   7.944 -26.592  1.00  0.00    -0.084 Cl
HETATM   20  C   UNL     1      -0.160   5.879 -29.345  1.00  0.00     0.019 A 
ENDBRANCH  11  13
ENDBRANCH   6   7
ENDBRANCH   5   6
ENDBRANCH   1   5
BRANCH   2  21
HETATM   21  C   UNL     1      -5.780   0.287 -32.689  1.00  0.00     0.093 A 
HETATM   22  S   UNL     1      -4.326  -0.591 -32.660  1.00  0.00    -0.075 SA
HETATM   23  C   UNL     1      -4.998  -1.875 -33.536  1.00  0.00    -0.008 A 
HETATM   24  C   UNL     1      -6.322  -1.658 -33.861  1.00  0.00    -0.026 A 
HETATM   25  C   UNL     1      -4.210  -3.105 -33.866  1.00  0.00     0.047 C 
HETATM   26  C   UNL     1      -7.116  -2.671 -34.641  1.00  0.00     0.041 C 
HETATM   27  C   UNL     1      -6.774  -0.356 -33.419  1.00  0.00     0.072 A 
HETATM   28  C   UNL     1      -6.423  -4.044 -34.679  1.00  0.00     0.005 C 
HETATM   29  C   UNL     1      -4.920  -3.917 -34.960  1.00  0.00     0.005 C 
BRANCH  27  30
HETATM   30  C   UNL     1      -8.104   0.194 -33.676  1.00  0.00     0.252 C 
HETATM   31  N   UNL     1      -8.212   0.984 -34.791  1.00  0.00    -0.366 N 
HETATM   32  H   UNL     1      -7.544   0.848 -35.540  1.00  0.00     0.159 HD
HETATM   33  H   UNL     1      -9.168   1.173 -35.069  1.00  0.00     0.159 HD
HETATM   34  O   UNL     1      -9.097  -0.058 -33.004  1.00  0.00    -0.268 OA
ENDBRANCH  27  30
ENDBRANCH   2  21
TORSDOF 6
ENDMDL
MODEL 10
REMARK VINA RESULT:      -8.0      3.789      8.079
REMARK  6 active torsions:
REMARK  status: ('A' for Active; 'I' for Inactive)
REMARK    1  A    between atoms: C_7  and  C_8 
REMARK    2  A    between atoms: C_12  and  S_13 
REMARK    3  A    between atoms: S_13  and  C_14 
REMARK    4  A    between atoms: C_14  and  C_15 
REMARK       I    between atoms: C_15  and  N_16 
REMARK    5  A    between atoms: N_16  and  C_17 
REMARK    6  A    between atoms: C_25  and  C_26 
REMARK       I    between atoms: C_26  and  N_27 
ROOT
HETATM    1  C   UNL     1      -7.220   1.913 -31.907  1.00  0.00     0.232 C 
HETATM    2  N   UNL     1      -6.624   1.402 -33.044  1.00  0.00    -0.320 N 
HETATM    3  O   UNL     1      -7.385   1.313 -30.845  1.00  0.00    -0.272 OA
HETATM    4  H   UNL     1      -6.533   2.042 -33.827  1.00  0.00     0.169 HD
ENDROOT
BRANCH   1   5
HETATM    5  C   UNL     1      -7.637   3.381 -31.981  1.00  0.00     0.185 C 
BRANCH   5   6
HETATM    6  S   UNL     1      -8.099   4.015 -33.623  1.00  0.00    -0.081 SA
BRANCH   6   7
HETATM    7  C   UNL     1      -9.629   3.261 -33.841  1.00  0.00     0.185 A 
HETATM    8  N   UNL     1      -9.786   2.139 -34.585  1.00  0.00    -0.253 N 
HETATM    9  N   UNL     1     -11.048   1.691 -34.509  1.00  0.00    -0.152 NA
HETATM   10  H   UNL     1      -9.099   1.629 -35.128  1.00  0.00     0.191 HD
HETATM   11  C   UNL     1     -11.634   2.609 -33.723  1.00  0.00     0.183 A 
HETATM   12  N   UNL     1     -10.763   3.591 -33.287  1.00  0.00    -0.201 NA
BRANCH  11  13
HETATM   13  C   UNL     1     -13.020   2.568 -33.258  1.00  0.00     0.035 A 
HETATM   14  C   UNL     1     -13.824   1.415 -33.251  1.00  0.00     0.049 A 
HETATM   15  C   UNL     1     -15.138   1.466 -32.760  1.00  0.00     0.048 A 
HETATM   16 CL   UNL     1     -13.315  -0.120 -33.874  1.00  0.00    -0.083 Cl
HETATM   17  C   UNL     1     -15.661   2.664 -32.284  1.00  0.00     0.035 A 
HETATM   18  C   UNL     1     -14.892   3.820 -32.296  1.00  0.00     0.025 A 
HETATM   19 CL   UNL     1     -17.273   2.716 -31.687  1.00  0.00    -0.084 Cl
HETATM   20  C   UNL     1     -13.582   3.772 -32.780  1.00  0.00     0.019 A 
ENDBRANCH  11  13
ENDBRANCH   6   7
ENDBRANCH   5   6
ENDBRANCH   1   5
BRANCH   2  21
HETATM   21  C   UNL     1      -6.304   0.080 -33.321  1.00  0.00     0.093 A 
HETATM   22  S   UNL     1      -7.386  -0.929 -34.156  1.00  0.00    -0.075 SA
HETATM   23  C   UNL     1      -6.270  -2.201 -34.216  1.00  0.00    -0.008 A 
HETATM   24  C   UNL     1      -5.072  -1.883 -33.607  1.00  0.00    -0.026 A 
HETATM   25  C   UNL     1      -6.585  -3.498 -34.897  1.00  0.00     0.047 C 
HETATM   26  C   UNL     1      -3.938  -2.870 -33.543  1.00  0.00     0.041 C 
HETATM   27  C   UNL     1      -5.106  -0.561 -33.021  1.00  0.00     0.072 A 
HETATM   28  C   UNL     1      -4.136  -4.044 -34.517  1.00  0.00     0.005 C 
HETATM   29  C   UNL     1      -5.574  -4.577 -34.483  1.00  0.00     0.005 C 
BRANCH  27  30
HETATM   30  C   UNL     1      -4.017   0.034 -32.248  1.00  0.00     0.252 C 
HETATM   31  N   UNL     1      -3.614  -0.679 -31.148  1.00  0.00    -0.366 N 
HETATM   32  H   UNL     1      -3.785  -1.677 -31.137  1.00  0.00     0.159 HD
HETATM   33  H   UNL     1      -2.732  -0.369 -30.759  1.00  0.00     0.159 HD
HETATM   34  O   UNL     1      -3.431   1.064 -32.558  1.00  0.00    -0.268 OA
ENDBRANCH  27  30
ENDBRANCH   2  21
TORSDOF 6
ENDMDL
