MODEL 1
REMARK VINA RESULT:      -8.5      0.000      0.000
REMARK  5 active torsions:
REMARK  status: ('A' for Active; 'I' for Inactive)
REMARK    1  A    between atoms: C_4  and  N_5 
REMARK    2  A    between atoms: N_5  and  C_6 
REMARK    3  A    between atoms: C_6  and  C_7 
REMARK       I    between atoms: C_7  and  N_8 
REMARK    4  A    between atoms: N_8  and  N_9 
REMARK    5  A    between atoms: C_10  and  C_11 
ROOT
HETATM    1  C   UNL     1      -9.133   2.698 -34.169  1.00  0.00     0.250 C 
HETATM    2  N   UNL     1      -8.915   1.474 -34.795  1.00  0.00    -0.246 N 
HETATM    3  O   UNL     1      -8.326   3.321 -33.482  1.00  0.00    -0.270 OA
HETATM    4  H   UNL     1      -9.560   1.225 -35.543  1.00  0.00     0.192 HD
ENDROOT
BRANCH   2   5
HETATM    5  N   UNL     1      -7.748   0.748 -34.803  1.00  0.00    -0.184 NA
HETATM    6  C   UNL     1      -7.535  -0.125 -33.871  1.00  0.00     0.152 C 
BRANCH   6   7
HETATM    7  C   UNL     1      -6.287  -0.865 -33.859  1.00  0.00     0.011 A 
HETATM    8  C   UNL     1      -6.102  -2.243 -34.209  1.00  0.00     0.004 A 
HETATM    9  C   UNL     1      -4.746  -2.535 -34.059  1.00  0.00     0.043 A 
HETATM   10  C   UNL     1      -6.967  -3.275 -34.630  1.00  0.00     0.014 A 
HETATM   11  C   UNL     1      -4.211  -3.803 -34.312  1.00  0.00     0.030 A 
HETATM   12  N   UNL     1      -4.128  -1.381 -33.635  1.00  0.00    -0.364 N 
HETATM   13  C   UNL     1      -5.089  -4.808 -34.727  1.00  0.00     0.002 A 
HETATM   14  C   UNL     1      -6.449  -4.551 -34.885  1.00  0.00     0.001 A 
HETATM   15  H   UNL     1      -3.140  -1.297 -33.443  1.00  0.00     0.165 HD
HETATM   16  C   UNL     1      -5.045  -0.373 -33.505  1.00  0.00     0.102 A 
ENDBRANCH   6   7
ENDBRANCH   2   5
BRANCH   1  17
HETATM   17  C   UNL     1     -10.541   3.237 -34.436  1.00  0.00     0.197 C 
BRANCH  17  18
HETATM   18  N   UNL     1     -11.384   3.047 -33.245  1.00  0.00    -0.284 NA
HETATM   19  H   UNL     1     -10.851   2.614 -32.489  1.00  0.00     0.128 HD
BRANCH  18  20
HETATM   20  C   UNL     1     -12.593   2.350 -33.432  1.00  0.00     0.009 A 
HETATM   21  C   UNL     1     -13.779   2.671 -32.756  1.00  0.00     0.030 A 
HETATM   22  C   UNL     1     -14.949   1.911 -32.926  1.00  0.00    -0.060 A 
HETATM   23  C   UNL     1     -16.221   2.304 -32.236  1.00  0.00     0.048 C 
HETATM   24  C   UNL     1     -14.927   0.805 -33.779  1.00  0.00     0.007 A 
HETATM   25  C   UNL     1     -13.745   0.440 -34.418  1.00  0.00     0.002 A 
HETATM   26  C   UNL     1     -12.585   1.196 -34.227  1.00  0.00     0.023 A 
ENDBRANCH  18  20
ENDBRANCH  17  18
ENDBRANCH   1  17
TORSDOF 5
ENDMDL
MODEL 2
REMARK VINA RESULT:      -8.1      1.630      8.902
REMARK  5 active torsions:
REMARK  status: ('A' for Active; 'I' for Inactive)
REMARK    1  A    between atoms: C_4  and  N_5 
REMARK    2  A    between atoms: N_5  and  C_6 
REMARK    3  A    between atoms: C_6  and  C_7 
REMARK       I    between atoms: C_7  and  N_8 
REMARK    4  A    between atoms: N_8  and  N_9 
REMARK    5  A    between atoms: C_10  and  C_11 
ROOT
HETATM    1  C   UNL     1      -8.559   1.073 -32.269  1.00  0.00     0.250 C 
HETATM    2  N   UNL     1      -9.385   0.333 -33.112  1.00  0.00    -0.246 N 
HETATM    3  O   UNL     1      -8.922   1.825 -31.367  1.00  0.00    -0.270 OA
HETATM    4  H   UNL     1      -8.949  -0.442 -33.609  1.00  0.00     0.192 HD
ENDROOT
BRANCH   2   5
HETATM    5  N   UNL     1     -10.757   0.266 -33.072  1.00  0.00    -0.184 NA
HETATM    6  C   UNL     1     -11.455   1.055 -33.824  1.00  0.00     0.152 C 
BRANCH   6   7
HETATM    7  C   UNL     1     -12.904   1.010 -33.754  1.00  0.00     0.011 A 
HETATM    8  C   UNL     1     -13.760   1.937 -33.073  1.00  0.00     0.004 A 
HETATM    9  C   UNL     1     -15.075   1.514 -33.270  1.00  0.00     0.043 A 
HETATM   10  C   UNL     1     -13.537   3.093 -32.296  1.00  0.00     0.014 A 
HETATM   11  C   UNL     1     -16.177   2.191 -32.734  1.00  0.00     0.030 A 
HETATM   12  N   UNL     1     -15.023   0.376 -34.040  1.00  0.00    -0.364 N 
HETATM   13  C   UNL     1     -15.928   3.333 -31.968  1.00  0.00     0.002 A 
HETATM   14  C   UNL     1     -14.628   3.780 -31.749  1.00  0.00     0.001 A 
HETATM   15  H   UNL     1     -15.832  -0.150 -34.341  1.00  0.00     0.165 HD
HETATM   16  C   UNL     1     -13.724   0.059 -34.332  1.00  0.00     0.102 A 
ENDBRANCH   6   7
ENDBRANCH   2   5
BRANCH   1  17
HETATM   17  C   UNL     1      -7.077   0.846 -32.574  1.00  0.00     0.197 C 
BRANCH  17  18
HETATM   18  N   UNL     1      -6.920   0.331 -33.944  1.00  0.00    -0.284 NA
HETATM   19  H   UNL     1      -7.828   0.231 -34.400  1.00  0.00     0.128 HD
BRANCH  18  20
HETATM   20  C   UNL     1      -6.184  -0.861 -34.090  1.00  0.00     0.009 A 
HETATM   21  C   UNL     1      -6.716  -2.029 -34.655  1.00  0.00     0.030 A 
HETATM   22  C   UNL     1      -5.967  -3.216 -34.726  1.00  0.00    -0.060 A 
HETATM   23  C   UNL     1      -6.536  -4.439 -35.383  1.00  0.00     0.048 C 
HETATM   24  C   UNL     1      -4.667  -3.235 -34.215  1.00  0.00     0.007 A 
HETATM   25  C   UNL     1      -4.141  -2.101 -33.603  1.00  0.00     0.002 A 
HETATM   26  C   UNL     1      -4.904  -0.932 -33.526  1.00  0.00     0.023 A 
ENDBRANCH  18  20
ENDBRANCH  17  18
ENDBRANCH   1  17
TORSDOF 5
ENDMDL
MODEL 3
REMARK VINA RESULT:      -8.1      5.116      8.644
REMARK  5 active torsions:
REMARK  status: ('A' for Active; 'I' for Inactive)
REMARK    1  A    between atoms: C_4  and  N_5 
REMARK    2  A    between atoms: N_5  and  C_6 
REMARK    3  A    between atoms: C_6  and  C_7 
REMARK       I    between atoms: C_7  and  N_8 
REMARK    4  A    between atoms: N_8  and  N_9 
REMARK    5  A    between atoms: C_10  and  C_11 
ROOT
HETATM    1  C   UNL     1      -6.562   1.971 -32.090  1.00  0.00     0.250 C 
HETATM    2  N   UNL     1      -5.193   2.204 -31.996  1.00  0.00    -0.246 N 
HETATM    3  O   UNL     1      -7.432   2.808 -32.319  1.00  0.00    -0.270 OA
HETATM    4  H   UNL     1      -4.586   1.390 -32.083  1.00  0.00     0.192 HD
ENDROOT
BRANCH   2   5
HETATM    5  N   UNL     1      -4.546   3.402 -32.183  1.00  0.00    -0.184 NA
HETATM    6  C   UNL     1      -3.576   3.475 -33.037  1.00  0.00     0.152 C 
BRANCH   6   7
HETATM    7  C   UNL     1      -2.869   4.730 -33.207  1.00  0.00     0.011 A 
HETATM    8  C   UNL     1      -1.811   5.239 -32.384  1.00  0.00     0.004 A 
HETATM    9  C   UNL     1      -1.423   6.470 -32.913  1.00  0.00     0.043 A 
HETATM   10  C   UNL     1      -1.152   4.769 -31.228  1.00  0.00     0.014 A 
HETATM   11  C   UNL     1      -0.409   7.253 -32.348  1.00  0.00     0.030 A 
HETATM   12  N   UNL     1      -2.213   6.703 -34.015  1.00  0.00    -0.364 N 
HETATM   13  C   UNL     1       0.226   6.765 -31.203  1.00  0.00     0.002 A 
HETATM   14  C   UNL     1      -0.138   5.541 -30.648  1.00  0.00     0.001 A 
HETATM   15  H   UNL     1      -2.153   7.526 -34.599  1.00  0.00     0.165 HD
HETATM   16  C   UNL     1      -3.089   5.668 -34.198  1.00  0.00     0.102 A 
ENDBRANCH   6   7
ENDBRANCH   2   5
BRANCH   1  17
HETATM   17  C   UNL     1      -6.908   0.494 -31.883  1.00  0.00     0.197 C 
BRANCH  17  18
HETATM   18  N   UNL     1      -7.269  -0.122 -33.169  1.00  0.00    -0.284 NA
HETATM   19  H   UNL     1      -8.241  -0.435 -33.160  1.00  0.00     0.128 HD
BRANCH  18  20
HETATM   20  C   UNL     1      -6.440  -1.166 -33.624  1.00  0.00     0.009 A 
HETATM   21  C   UNL     1      -6.924  -2.287 -34.314  1.00  0.00     0.030 A 
HETATM   22  C   UNL     1      -6.071  -3.336 -34.698  1.00  0.00    -0.060 A 
HETATM   23  C   UNL     1      -6.598  -4.501 -35.483  1.00  0.00     0.048 C 
HETATM   24  C   UNL     1      -4.713  -3.266 -34.376  1.00  0.00     0.007 A 
HETATM   25  C   UNL     1      -4.225  -2.186 -33.646  1.00  0.00     0.002 A 
HETATM   26  C   UNL     1      -5.088  -1.157 -33.258  1.00  0.00     0.023 A 
ENDBRANCH  18  20
ENDBRANCH  17  18
ENDBRANCH   1  17
TORSDOF 5
ENDMDL
MODEL 4
REMARK VINA RESULT:      -8.0      7.118     10.150
REMARK  5 active torsions:
REMARK  status: ('A' for Active; 'I' for Inactive)
REMARK    1  A    between atoms: C_4  and  N_5 
REMARK    2  A    between atoms: N_5  and  C_6 
REMARK    3  A    between atoms: C_6  and  C_7 
REMARK       I    between atoms: C_7  and  N_8 
REMARK    4  A    between atoms: N_8  and  N_9 
REMARK    5  A    between atoms: C_10  and  C_11 
ROOT
HETATM    1  C   UNL     1      -2.200   4.538 -31.797  1.00  0.00     0.250 C 
HETATM    2  N   UNL     1      -2.951   3.461 -31.333  1.00  0.00    -0.246 N 
HETATM    3  O   UNL     1      -1.542   4.578 -32.834  1.00  0.00    -0.270 OA
HETATM    4  H   UNL     1      -3.652   3.668 -30.624  1.00  0.00     0.192 HD
ENDROOT
BRANCH   2   5
HETATM    5  N   UNL     1      -3.137   2.254 -31.964  1.00  0.00    -0.184 NA
HETATM    6  C   UNL     1      -3.660   1.268 -31.309  1.00  0.00     0.152 C 
BRANCH   6   7
HETATM    7  C   UNL     1      -3.823  -0.017 -31.964  1.00  0.00     0.011 A 
HETATM    8  C   UNL     1      -4.795  -0.354 -32.962  1.00  0.00     0.004 A 
HETATM    9  C   UNL     1      -4.588  -1.688 -33.314  1.00  0.00     0.043 A 
HETATM   10  C   UNL     1      -5.842   0.351 -33.593  1.00  0.00     0.014 A 
HETATM   11  C   UNL     1      -5.371  -2.351 -34.267  1.00  0.00     0.030 A 
HETATM   12  N   UNL     1      -3.532  -2.146 -32.561  1.00  0.00    -0.364 N 
HETATM   13  C   UNL     1      -6.401  -1.631 -34.876  1.00  0.00     0.002 A 
HETATM   14  C   UNL     1      -6.637  -0.298 -34.546  1.00  0.00     0.001 A 
HETATM   15  H   UNL     1      -3.160  -3.084 -32.606  1.00  0.00     0.165 HD
HETATM   16  C   UNL     1      -3.068  -1.153 -31.742  1.00  0.00     0.102 A 
ENDBRANCH   6   7
ENDBRANCH   2   5
BRANCH   1  17
HETATM   17  C   UNL     1      -2.279   5.741 -30.853  1.00  0.00     0.197 C 
BRANCH  17  18
HETATM   18  N   UNL     1      -1.089   5.778 -29.988  1.00  0.00    -0.284 NA
HETATM   19  H   UNL     1      -1.090   4.992 -29.337  1.00  0.00     0.128 HD
BRANCH  18  20
HETATM   20  C   UNL     1      -0.859   6.976 -29.283  1.00  0.00     0.009 A 
HETATM   21  C   UNL     1       0.361   7.280 -28.662  1.00  0.00     0.030 A 
HETATM   22  C   UNL     1       0.530   8.459 -27.916  1.00  0.00    -0.060 A 
HETATM   23  C   UNL     1       1.859   8.792 -27.305  1.00  0.00     0.048 C 
HETATM   24  C   UNL     1      -0.544   9.343 -27.783  1.00  0.00     0.007 A 
HETATM   25  C   UNL     1      -1.777   9.032 -28.349  1.00  0.00     0.002 A 
HETATM   26  C   UNL     1      -1.935   7.849 -29.075  1.00  0.00     0.023 A 
ENDBRANCH  18  20
ENDBRANCH  17  18
ENDBRANCH   1  17
TORSDOF 5
ENDMDL
MODEL 5
REMARK VINA RESULT:      -8.0      1.561      8.435
REMARK  5 active torsions:
REMARK  status: ('A' for Active; 'I' for Inactive)
REMARK    1  A    between atoms: C_4  and  N_5 
REMARK    2  A    between atoms: N_5  and  C_6 
REMARK    3  A    between atoms: C_6  and  C_7 
REMARK       I    between atoms: C_7  and  N_8 
REMARK    4  A    between atoms: N_8  and  N_9 
REMARK    5  A    between atoms: C_10  and  C_11 
ROOT
HETATM    1  C   UNL     1      -6.461   0.579 -31.693  1.00  0.00     0.250 C 
HETATM    2  N   UNL     1      -7.384   0.963 -32.662  1.00  0.00    -0.246 N 
HETATM    3  O   UNL     1      -6.602   0.663 -30.476  1.00  0.00    -0.270 OA
HETATM    4  H   UNL     1      -7.248   0.580 -33.597  1.00  0.00     0.192 HD
ENDROOT
BRANCH   2   5
HETATM    5  N   UNL     1      -8.644   1.469 -32.447  1.00  0.00    -0.184 NA
HETATM    6  C   UNL     1      -9.378   1.801 -33.460  1.00  0.00     0.152 C 
BRANCH   6   7
HETATM    7  C   UNL     1     -10.694   2.369 -33.231  1.00  0.00     0.011 A 
HETATM    8  C   UNL     1     -11.953   1.698 -33.367  1.00  0.00     0.004 A 
HETATM    9  C   UNL     1     -12.954   2.617 -33.046  1.00  0.00     0.043 A 
HETATM   10  C   UNL     1     -12.338   0.394 -33.745  1.00  0.00     0.014 A 
HETATM   11  C   UNL     1     -14.316   2.297 -33.079  1.00  0.00     0.030 A 
HETATM   12  N   UNL     1     -12.329   3.799 -32.726  1.00  0.00    -0.364 N 
HETATM   13  C   UNL     1     -14.669   0.999 -33.458  1.00  0.00     0.002 A 
HETATM   14  C   UNL     1     -13.697   0.058 -33.787  1.00  0.00     0.001 A 
HETATM   15  H   UNL     1     -12.808   4.645 -32.453  1.00  0.00     0.165 HD
HETATM   16  C   UNL     1     -10.972   3.665 -32.840  1.00  0.00     0.102 A 
ENDBRANCH   6   7
ENDBRANCH   2   5
BRANCH   1  17
HETATM   17  C   UNL     1      -5.187  -0.001 -32.313  1.00  0.00     0.197 C 
BRANCH  17  18
HETATM   18  N   UNL     1      -5.437  -0.380 -33.712  1.00  0.00    -0.284 NA
HETATM   19  H   UNL     1      -6.279   0.077 -34.066  1.00  0.00     0.128 HD
BRANCH  18  20
HETATM   20  C   UNL     1      -5.495  -1.759 -33.992  1.00  0.00     0.009 A 
HETATM   21  C   UNL     1      -4.408  -2.627 -33.814  1.00  0.00     0.030 A 
HETATM   22  C   UNL     1      -4.489  -3.985 -34.164  1.00  0.00    -0.060 A 
HETATM   23  C   UNL     1      -3.333  -4.908 -33.915  1.00  0.00     0.048 C 
HETATM   24  C   UNL     1      -5.676  -4.481 -34.709  1.00  0.00     0.007 A 
HETATM   25  C   UNL     1      -6.748  -3.623 -34.941  1.00  0.00     0.002 A 
HETATM   26  C   UNL     1      -6.647  -2.271 -34.603  1.00  0.00     0.023 A 
ENDBRANCH  18  20
ENDBRANCH  17  18
ENDBRANCH   1  17
TORSDOF 5
ENDMDL
MODEL 6
REMARK VINA RESULT:      -7.9      6.142      8.413
REMARK  5 active torsions:
REMARK  status: ('A' for Active; 'I' for Inactive)
REMARK    1  A    between atoms: C_4  and  N_5 
REMARK    2  A    between atoms: N_5  and  C_6 
REMARK    3  A    between atoms: C_6  and  C_7 
REMARK       I    between atoms: C_7  and  N_8 
REMARK    4  A    between atoms: N_8  and  N_9 
REMARK    5  A    between atoms: C_10  and  C_11 
ROOT
HETATM    1  C   UNL     1      -4.715   2.674 -31.804  1.00  0.00     0.250 C 
HETATM    2  N   UNL     1      -3.608   1.989 -32.297  1.00  0.00    -0.246 N 
HETATM    3  O   UNL     1      -5.693   2.179 -31.249  1.00  0.00    -0.270 OA
HETATM    4  H   UNL     1      -2.770   2.543 -32.469  1.00  0.00     0.192 HD
ENDROOT
BRANCH   2   5
HETATM    5  N   UNL     1      -3.373   0.637 -32.219  1.00  0.00    -0.184 NA
HETATM    6  C   UNL     1      -4.044  -0.170 -32.976  1.00  0.00     0.152 C 
BRANCH   6   7
HETATM    7  C   UNL     1      -3.822  -1.600 -32.867  1.00  0.00     0.011 A 
HETATM    8  C   UNL     1      -4.437  -2.627 -33.656  1.00  0.00     0.004 A 
HETATM    9  C   UNL     1      -3.932  -3.852 -33.216  1.00  0.00     0.043 A 
HETATM   10  C   UNL     1      -5.388  -2.630 -34.699  1.00  0.00     0.014 A 
HETATM   11  C   UNL     1      -4.326  -5.076 -33.769  1.00  0.00     0.030 A 
HETATM   12  N   UNL     1      -3.044  -3.582 -32.201  1.00  0.00    -0.364 N 
HETATM   13  C   UNL     1      -5.269  -5.050 -34.800  1.00  0.00     0.002 A 
HETATM   14  C   UNL     1      -5.795  -3.846 -35.261  1.00  0.00     0.001 A 
HETATM   15  H   UNL     1      -2.525  -4.284 -31.692  1.00  0.00     0.165 HD
HETATM   16  C   UNL     1      -2.974  -2.234 -31.978  1.00  0.00     0.102 A 
ENDBRANCH   6   7
ENDBRANCH   2   5
BRANCH   1  17
HETATM   17  C   UNL     1      -4.596   4.185 -32.018  1.00  0.00     0.197 C 
BRANCH  17  18
HETATM   18  N   UNL     1      -3.644   4.465 -33.104  1.00  0.00    -0.284 NA
HETATM   19  H   UNL     1      -3.299   3.596 -33.516  1.00  0.00     0.128 HD
BRANCH  18  20
HETATM   20  C   UNL     1      -2.556   5.303 -32.790  1.00  0.00     0.009 A 
HETATM   21  C   UNL     1      -1.474   4.894 -31.998  1.00  0.00     0.030 A 
HETATM   22  C   UNL     1      -0.438   5.781 -31.657  1.00  0.00    -0.060 A 
HETATM   23  C   UNL     1       0.737   5.310 -30.854  1.00  0.00     0.048 C 
HETATM   24  C   UNL     1      -0.493   7.102 -32.111  1.00  0.00     0.007 A 
HETATM   25  C   UNL     1      -1.585   7.539 -32.854  1.00  0.00     0.002 A 
HETATM   26  C   UNL     1      -2.616   6.650 -33.172  1.00  0.00     0.023 A 
ENDBRANCH  18  20
ENDBRANCH  17  18
ENDBRANCH   1  17
TORSDOF 5
ENDMDL
MODEL 7
REMARK VINA RESULT:      -7.9      6.709      9.922
REMARK  5 active torsions:
REMARK  status: ('A' for Active; 'I' for Inactive)
REMARK    1  A    between atoms: C_4  and  N_5 
REMARK    2  A    between atoms: N_5  and  C_6 
REMARK    3  A    between atoms: C_6  and  C_7 
REMARK       I    between atoms: C_7  and  N_8 
REMARK    4  A    between atoms: N_8  and  N_9 
REMARK    5  A    between atoms: C_10  and  C_11 
ROOT
HETATM    1  C   UNL     1      -2.627   4.659 -31.949  1.00  0.00     0.250 C 
HETATM    2  N   UNL     1      -2.918   3.572 -31.129  1.00  0.00    -0.246 N 
HETATM    3  O   UNL     1      -2.271   4.614 -33.124  1.00  0.00    -0.270 OA
HETATM    4  H   UNL     1      -3.460   3.768 -30.289  1.00  0.00     0.192 HD
ENDROOT
BRANCH   2   5
HETATM    5  N   UNL     1      -2.908   2.244 -31.486  1.00  0.00    -0.184 NA
HETATM    6  C   UNL     1      -3.980   1.709 -31.975  1.00  0.00     0.152 C 
BRANCH   6   7
HETATM    7  C   UNL     1      -3.980   0.299 -32.317  1.00  0.00     0.011 A 
HETATM    8  C   UNL     1      -4.862  -0.362 -33.233  1.00  0.00     0.004 A 
HETATM    9  C   UNL     1      -4.505  -1.711 -33.260  1.00  0.00     0.043 A 
HETATM   10  C   UNL     1      -5.943   0.060 -34.037  1.00  0.00     0.014 A 
HETATM   11  C   UNL     1      -5.169  -2.656 -34.051  1.00  0.00     0.030 A 
HETATM   12  N   UNL     1      -3.447  -1.866 -32.395  1.00  0.00    -0.364 N 
HETATM   13  C   UNL     1      -6.235  -2.211 -34.837  1.00  0.00     0.002 A 
HETATM   14  C   UNL     1      -6.620  -0.872 -34.832  1.00  0.00     0.001 A 
HETATM   15  H   UNL     1      -2.980  -2.743 -32.211  1.00  0.00     0.165 HD
HETATM   16  C   UNL     1      -3.127  -0.667 -31.818  1.00  0.00     0.102 A 
ENDBRANCH   6   7
ENDBRANCH   2   5
BRANCH   1  17
HETATM   17  C   UNL     1      -2.809   5.992 -31.219  1.00  0.00     0.197 C 
BRANCH  17  18
HETATM   18  N   UNL     1      -1.559   6.767 -31.270  1.00  0.00    -0.284 NA
HETATM   19  H   UNL     1      -0.982   6.471 -32.059  1.00  0.00     0.128 HD
BRANCH  18  20
HETATM   20  C   UNL     1      -0.781   6.788 -30.096  1.00  0.00     0.009 A 
HETATM   21  C   UNL     1      -0.567   7.947 -29.336  1.00  0.00     0.030 A 
HETATM   22  C   UNL     1       0.267   7.938 -28.204  1.00  0.00    -0.060 A 
HETATM   23  C   UNL     1       0.440   9.175 -27.374  1.00  0.00     0.048 C 
HETATM   24  C   UNL     1       0.903   6.751 -27.834  1.00  0.00     0.007 A 
HETATM   25  C   UNL     1       0.743   5.604 -28.606  1.00  0.00     0.002 A 
HETATM   26  C   UNL     1      -0.076   5.632 -29.738  1.00  0.00     0.023 A 
ENDBRANCH  18  20
ENDBRANCH  17  18
ENDBRANCH   1  17
TORSDOF 5
ENDMDL
MODEL 8
REMARK VINA RESULT:      -7.8      5.467      9.261
REMARK  5 active torsions:
REMARK  status: ('A' for Active; 'I' for Inactive)
REMARK    1  A    between atoms: C_4  and  N_5 
REMARK    2  A    between atoms: N_5  and  C_6 
REMARK    3  A    between atoms: C_6  and  C_7 
REMARK       I    between atoms: C_7  and  N_8 
REMARK    4  A    between atoms: N_8  and  N_9 
REMARK    5  A    between atoms: C_10  and  C_11 
ROOT
HETATM    1  C   UNL     1      -4.602   1.022 -32.568  1.00  0.00     0.250 C 
HETATM    2  N   UNL     1      -5.184   2.271 -32.772  1.00  0.00    -0.246 N 
HETATM    3  O   UNL     1      -3.410   0.795 -32.375  1.00  0.00    -0.270 OA
HETATM    4  H   UNL     1      -6.192   2.329 -32.637  1.00  0.00     0.192 HD
ENDROOT
BRANCH   2   5
HETATM    5  N   UNL     1      -4.549   3.490 -32.752  1.00  0.00    -0.184 NA
HETATM    6  C   UNL     1      -4.238   4.027 -31.616  1.00  0.00     0.152 C 
BRANCH   6   7
HETATM    7  C   UNL     1      -3.601   5.331 -31.595  1.00  0.00     0.011 A 
HETATM    8  C   UNL     1      -2.203   5.600 -31.430  1.00  0.00     0.004 A 
HETATM    9  C   UNL     1      -2.035   6.985 -31.476  1.00  0.00     0.043 A 
HETATM   10  C   UNL     1      -1.062   4.793 -31.234  1.00  0.00     0.014 A 
HETATM   11  C   UNL     1      -0.786   7.602 -31.341  1.00  0.00     0.030 A 
HETATM   12  N   UNL     1      -3.281   7.537 -31.663  1.00  0.00    -0.364 N 
HETATM   13  C   UNL     1       0.327   6.780 -31.148  1.00  0.00     0.002 A 
HETATM   14  C   UNL     1       0.195   5.394 -31.094  1.00  0.00     0.001 A 
HETATM   15  H   UNL     1      -3.464   8.528 -31.734  1.00  0.00     0.165 HD
HETATM   16  C   UNL     1      -4.231   6.554 -31.729  1.00  0.00     0.102 A 
ENDBRANCH   6   7
ENDBRANCH   2   5
BRANCH   1  17
HETATM   17  C   UNL     1      -5.637  -0.105 -32.597  1.00  0.00     0.197 C 
BRANCH  17  18
HETATM   18  N   UNL     1      -5.807  -0.595 -33.974  1.00  0.00    -0.284 NA
HETATM   19  H   UNL     1      -6.675  -0.242 -34.380  1.00  0.00     0.128 HD
BRANCH  18  20
HETATM   20  C   UNL     1      -5.729  -1.989 -34.162  1.00  0.00     0.009 A 
HETATM   21  C   UNL     1      -4.559  -2.730 -33.944  1.00  0.00     0.030 A 
HETATM   22  C   UNL     1      -4.508  -4.111 -34.202  1.00  0.00    -0.060 A 
HETATM   23  C   UNL     1      -3.263  -4.896 -33.911  1.00  0.00     0.048 C 
HETATM   24  C   UNL     1      -5.644  -4.757 -34.695  1.00  0.00     0.007 A 
HETATM   25  C   UNL     1      -6.798  -4.027 -34.966  1.00  0.00     0.002 A 
HETATM   26  C   UNL     1      -6.830  -2.652 -34.719  1.00  0.00     0.023 A 
ENDBRANCH  18  20
ENDBRANCH  17  18
ENDBRANCH   1  17
TORSDOF 5
ENDMDL
MODEL 9
REMARK VINA RESULT:      -7.8      7.230     10.532
REMARK  5 active torsions:
REMARK  status: ('A' for Active; 'I' for Inactive)
REMARK    1  A    between atoms: C_4  and  N_5 
REMARK    2  A    between atoms: N_5  and  C_6 
REMARK    3  A    between atoms: C_6  and  C_7 
REMARK       I    between atoms: C_7  and  N_8 
REMARK    4  A    between atoms: N_8  and  N_9 
REMARK    5  A    between atoms: C_10  and  C_11 
ROOT
HETATM    1  C   UNL     1      -1.392   4.768 -31.988  1.00  0.00     0.250 C 
HETATM    2  N   UNL     1      -2.240   3.993 -31.201  1.00  0.00    -0.246 N 
HETATM    3  O   UNL     1      -1.562   5.069 -33.168  1.00  0.00    -0.270 OA
HETATM    4  H   UNL     1      -2.116   4.065 -30.193  1.00  0.00     0.192 HD
ENDROOT
BRANCH   2   5
HETATM    5  N   UNL     1      -3.448   3.454 -31.575  1.00  0.00    -0.184 NA
HETATM    6  C   UNL     1      -3.555   2.172 -31.718  1.00  0.00     0.152 C 
BRANCH   6   7
HETATM    7  C   UNL     1      -4.820   1.606 -32.148  1.00  0.00     0.011 A 
HETATM    8  C   UNL     1      -5.017   0.352 -32.816  1.00  0.00     0.004 A 
HETATM    9  C   UNL     1      -6.387   0.206 -33.036  1.00  0.00     0.043 A 
HETATM   10  C   UNL     1      -4.153  -0.670 -33.264  1.00  0.00     0.014 A 
HETATM   11  C   UNL     1      -6.937  -0.911 -33.677  1.00  0.00     0.030 A 
HETATM   12  N   UNL     1      -7.001   1.325 -32.524  1.00  0.00    -0.364 N 
HETATM   13  C   UNL     1      -6.059  -1.907 -34.112  1.00  0.00     0.002 A 
HETATM   14  C   UNL     1      -4.686  -1.792 -33.910  1.00  0.00     0.001 A 
HETATM   15  H   UNL     1      -7.997   1.492 -32.544  1.00  0.00     0.165 HD
HETATM   16  C   UNL     1      -6.069   2.176 -31.993  1.00  0.00     0.102 A 
ENDBRANCH   6   7
ENDBRANCH   2   5
BRANCH   1  17
HETATM   17  C   UNL     1      -0.166   5.248 -31.209  1.00  0.00     0.197 C 
BRANCH  17  18
HETATM   18  N   UNL     1      -0.451   5.233 -29.765  1.00  0.00    -0.284 NA
HETATM   19  H   UNL     1      -1.401   4.902 -29.588  1.00  0.00     0.128 HD
BRANCH  18  20
HETATM   20  C   UNL     1      -0.231   6.435 -29.065  1.00  0.00     0.009 A 
HETATM   21  C   UNL     1       0.702   6.559 -28.025  1.00  0.00     0.030 A 
HETATM   22  C   UNL     1       0.848   7.761 -27.311  1.00  0.00    -0.060 A 
HETATM   23  C   UNL     1       1.889   7.890 -26.239  1.00  0.00     0.048 C 
HETATM   24  C   UNL     1       0.040   8.853 -27.639  1.00  0.00     0.007 A 
HETATM   25  C   UNL     1      -0.926   8.732 -28.633  1.00  0.00     0.002 A 
HETATM   26  C   UNL     1      -1.071   7.525 -29.324  1.00  0.00     0.023 A 
ENDBRANCH  18  20
ENDBRANCH  17  18
ENDBRANCH   1  17
TORSDOF 5
ENDMDL
MODEL 10
REMARK VINA RESULT:      -7.6      5.705      8.860
REMARK  5 active torsions:
REMARK  status: ('A' for Active; 'I' for Inactive)
REMARK    1  A    between atoms: C_4  and  N_5 
REMARK    2  A    between atoms: N_5  and  C_6 
REMARK    3  A    between atoms: C_6  and  C_7 
REMARK       I    between atoms: C_7  and  N_8 
REMARK    4  A    between atoms: N_8  and  N_9 
REMARK    5  A    between atoms: C_10  and  C_11 
ROOT
HETATM    1  C   UNL     1      -4.429   5.026 -33.770  1.00  0.00     0.250 C 
HETATM    2  N   UNL     1      -4.837   3.954 -32.981  1.00  0.00    -0.246 N 
HETATM    3  O   UNL     1      -4.687   5.198 -34.959  1.00  0.00    -0.270 OA
HETATM    4  H   UNL     1      -4.789   4.089 -31.972  1.00  0.00     0.192 HD
ENDROOT
BRANCH   2   5
HETATM    5  N   UNL     1      -5.642   2.908 -33.364  1.00  0.00    -0.184 NA
HETATM    6  C   UNL     1      -5.378   1.714 -32.939  1.00  0.00     0.152 C 
BRANCH   6   7
HETATM    7  C   UNL     1      -6.205   0.604 -33.373  1.00  0.00     0.011 A 
HETATM    8  C   UNL     1      -5.757  -0.703 -33.754  1.00  0.00     0.004 A 
HETATM    9  C   UNL     1      -6.885  -1.451 -34.094  1.00  0.00     0.043 A 
HETATM   10  C   UNL     1      -4.491  -1.319 -33.852  1.00  0.00     0.014 A 
HETATM   11  C   UNL     1      -6.812  -2.782 -34.522  1.00  0.00     0.030 A 
HETATM   12  N   UNL     1      -7.978  -0.632 -33.927  1.00  0.00    -0.364 N 
HETATM   13  C   UNL     1      -5.547  -3.367 -34.611  1.00  0.00     0.002 A 
HETATM   14  C   UNL     1      -4.400  -2.649 -34.282  1.00  0.00     0.001 A 
HETATM   15  H   UNL     1      -8.934  -0.910 -34.101  1.00  0.00     0.165 HD
HETATM   16  C   UNL     1      -7.582   0.606 -33.500  1.00  0.00     0.102 A 
ENDBRANCH   6   7
ENDBRANCH   2   5
BRANCH   1  17
HETATM   17  C   UNL     1      -3.591   6.034 -32.979  1.00  0.00     0.197 C 
BRANCH  17  18
HETATM   18  N   UNL     1      -3.281   5.493 -31.647  1.00  0.00    -0.284 NA
HETATM   19  H   UNL     1      -4.039   5.691 -30.990  1.00  0.00     0.128 HD
BRANCH  18  20
HETATM   20  C   UNL     1      -2.051   5.878 -31.079  1.00  0.00     0.009 A 
HETATM   21  C   UNL     1      -1.924   6.927 -30.158  1.00  0.00     0.030 A 
HETATM   22  C   UNL     1      -0.669   7.320 -29.661  1.00  0.00    -0.060 A 
HETATM   23  C   UNL     1      -0.560   8.409 -28.635  1.00  0.00     0.048 C 
HETATM   24  C   UNL     1       0.478   6.655 -30.103  1.00  0.00     0.007 A 
HETATM   25  C   UNL     1       0.376   5.646 -31.056  1.00  0.00     0.002 A 
HETATM   26  C   UNL     1      -0.877   5.278 -31.552  1.00  0.00     0.023 A 
ENDBRANCH  18  20
ENDBRANCH  17  18
ENDBRANCH   1  17
TORSDOF 5
ENDMDL
