MODEL 1
REMARK VINA RESULT:      -8.8      0.000      0.000
REMARK  3 active torsions:
REMARK  status: ('A' for Active; 'I' for Inactive)
REMARK    1  A    between atoms: C_7  and  C_10 
REMARK    2  A    between atoms: C_10  and  N_11 
REMARK    3  A    between atoms: N_11  and  C_12 
ROOT
HETATM    1  C   UNL     1      -6.297  -4.330 -35.049  1.00  0.00     0.002 A 
HETATM    2  C   UNL     1      -6.693  -3.005 -34.841  1.00  0.00     0.033 A 
HETATM    3  C   UNL     1      -5.835  -2.116 -34.163  1.00  0.00     0.075 A 
HETATM    4  C   UNL     1      -4.604  -2.584 -33.712  1.00  0.00     0.035 A 
HETATM    5  S   UNL     1      -3.775  -1.300 -32.928  1.00  0.00    -0.067 SA
HETATM    6  C   UNL     1      -5.097  -0.215 -33.238  1.00  0.00     0.121 A 
HETATM    7  C   UNL     1      -5.050   1.156 -32.804  1.00  0.00     0.095 C 
HETATM    8  C   UNL     1      -3.926   1.689 -32.106  1.00  0.00     0.103 C 
HETATM    9  N   UNL     1      -3.027   2.154 -31.535  1.00  0.00    -0.191 NA
HETATM   10  N   UNL     1      -6.098  -0.786 -33.889  1.00  0.00    -0.239 NA
HETATM   11  C   UNL     1      -4.194  -3.911 -33.914  1.00  0.00     0.021 A 
HETATM   12  C   UNL     1      -5.061  -4.775 -34.590  1.00  0.00     0.002 A 
ENDROOT
BRANCH   7  13
HETATM   13  C   UNL     1      -6.108   1.953 -33.072  1.00  0.00     0.114 C 
BRANCH  13  14
HETATM   14  N   UNL     1      -7.306   2.069 -32.398  1.00  0.00    -0.364 N 
HETATM   15  H   UNL     1      -7.263   2.453 -31.457  1.00  0.00     0.165 HD
BRANCH  14  16
HETATM   16  C   UNL     1      -8.604   1.741 -32.834  1.00  0.00     0.034 A 
HETATM   17  C   UNL     1      -9.407   2.592 -33.604  1.00  0.00     0.069 A 
HETATM   18  C   UNL     1     -10.686   2.199 -34.011  1.00  0.00     0.104 A 
HETATM   19  C   UNL     1     -11.197   0.958 -33.629  1.00  0.00     0.102 A 
HETATM   20  O   UNL     1     -11.388   3.094 -34.780  1.00  0.00    -0.346 OA
HETATM   21  O   UNL     1     -12.453   0.523 -33.963  1.00  0.00    -0.346 OA
HETATM   22  C   UNL     1     -10.411   0.092 -32.879  1.00  0.00     0.042 A 
HETATM   23  C   UNL     1     -13.271   1.604 -34.427  1.00  0.00     0.202 C 
HETATM   24  C   UNL     1     -12.509   2.468 -35.415  1.00  0.00     0.202 C 
HETATM   25  C   UNL     1      -9.127   0.483 -32.485  1.00  0.00     0.032 A 
ENDBRANCH  14  16
ENDBRANCH  13  14
ENDBRANCH   7  13
TORSDOF 3
ENDMDL
MODEL 2
REMARK VINA RESULT:      -8.5      3.229      7.094
REMARK  3 active torsions:
REMARK  status: ('A' for Active; 'I' for Inactive)
REMARK    1  A    between atoms: C_7  and  C_10 
REMARK    2  A    between atoms: C_10  and  N_11 
REMARK    3  A    between atoms: N_11  and  C_12 
ROOT
HETATM    1  C   UNL     1     -13.639  -0.005 -33.848  1.00  0.00     0.002 A 
HETATM    2  C   UNL     1     -12.293  -0.108 -33.483  1.00  0.00     0.033 A 
HETATM    3  C   UNL     1     -11.431   0.990 -33.676  1.00  0.00     0.075 A 
HETATM    4  C   UNL     1     -11.944   2.159 -34.230  1.00  0.00     0.035 A 
HETATM    5  S   UNL     1     -10.684   3.318 -34.349  1.00  0.00    -0.067 SA
HETATM    6  C   UNL     1      -9.546   2.199 -33.661  1.00  0.00     0.121 A 
HETATM    7  C   UNL     1      -8.169   2.568 -33.460  1.00  0.00     0.095 C 
HETATM    8  C   UNL     1      -7.675   3.858 -33.812  1.00  0.00     0.103 C 
HETATM    9  N   UNL     1      -7.239   4.900 -34.087  1.00  0.00    -0.191 NA
HETATM   10  N   UNL     1     -10.084   1.027 -33.362  1.00  0.00    -0.239 NA
HETATM   11  C   UNL     1     -13.294   2.275 -34.600  1.00  0.00     0.021 A 
HETATM   12  C   UNL     1     -14.131   1.174 -34.400  1.00  0.00     0.002 A 
ENDROOT
BRANCH   7  13
HETATM   13  C   UNL     1      -7.330   1.656 -32.922  1.00  0.00     0.114 C 
BRANCH  13  14
HETATM   14  N   UNL     1      -6.115   1.203 -33.392  1.00  0.00    -0.364 N 
HETATM   15  H   UNL     1      -5.408   1.910 -33.580  1.00  0.00     0.165 HD
BRANCH  14  16
HETATM   16  C   UNL     1      -5.697  -0.118 -33.641  1.00  0.00     0.034 A 
HETATM   17  C   UNL     1      -6.525  -1.111 -34.181  1.00  0.00     0.069 A 
HETATM   18  C   UNL     1      -6.042  -2.402 -34.411  1.00  0.00     0.104 A 
HETATM   19  C   UNL     1      -4.728  -2.734 -34.076  1.00  0.00     0.102 A 
HETATM   20  O   UNL     1      -6.924  -3.299 -34.962  1.00  0.00    -0.346 OA
HETATM   21  O   UNL     1      -4.200  -3.987 -34.242  1.00  0.00    -0.346 OA
HETATM   22  C   UNL     1      -3.886  -1.761 -33.553  1.00  0.00     0.042 A 
HETATM   23  C   UNL     1      -5.229  -4.961 -34.456  1.00  0.00     0.202 C 
HETATM   24  C   UNL     1      -6.245  -4.455 -35.465  1.00  0.00     0.202 C 
HETATM   25  C   UNL     1      -4.368  -0.465 -33.338  1.00  0.00     0.032 A 
ENDBRANCH  14  16
ENDBRANCH  13  14
ENDBRANCH   7  13
TORSDOF 3
ENDMDL
MODEL 3
REMARK VINA RESULT:      -8.2      4.158      6.480
REMARK  3 active torsions:
REMARK  status: ('A' for Active; 'I' for Inactive)
REMARK    1  A    between atoms: C_7  and  C_10 
REMARK    2  A    between atoms: C_10  and  N_11 
REMARK    3  A    between atoms: N_11  and  C_12 
ROOT
HETATM    1  C   UNL     1      -4.485  -2.838 -34.229  1.00  0.00     0.002 A 
HETATM    2  C   UNL     1      -4.329  -1.868 -33.233  1.00  0.00     0.033 A 
HETATM    3  C   UNL     1      -5.409  -1.027 -32.900  1.00  0.00     0.075 A 
HETATM    4  C   UNL     1      -6.616  -1.183 -33.577  1.00  0.00     0.035 A 
HETATM    5  S   UNL     1      -7.744  -0.038 -32.974  1.00  0.00    -0.067 SA
HETATM    6  C   UNL     1      -6.564   0.586 -31.861  1.00  0.00     0.121 A 
HETATM    7  C   UNL     1      -6.885   1.667 -30.966  1.00  0.00     0.095 C 
HETATM    8  C   UNL     1      -8.175   2.273 -30.948  1.00  0.00     0.103 C 
HETATM    9  N   UNL     1      -9.215   2.790 -30.907  1.00  0.00    -0.191 NA
HETATM   10  N   UNL     1      -5.396  -0.030 -31.941  1.00  0.00    -0.239 NA
HETATM   11  C   UNL     1      -6.786  -2.153 -34.578  1.00  0.00     0.021 A 
HETATM   12  C   UNL     1      -5.701  -2.977 -34.892  1.00  0.00     0.002 A 
ENDROOT
BRANCH   7  13
HETATM   13  C   UNL     1      -5.927   2.111 -30.124  1.00  0.00     0.114 C 
BRANCH  13  14
HETATM   14  N   UNL     1      -4.623   2.471 -30.397  1.00  0.00    -0.364 N 
HETATM   15  H   UNL     1      -3.895   1.873 -30.012  1.00  0.00     0.165 HD
BRANCH  14  16
HETATM   16  C   UNL     1      -4.143   3.556 -31.155  1.00  0.00     0.034 A 
HETATM   17  C   UNL     1      -3.178   3.438 -32.164  1.00  0.00     0.069 A 
HETATM   18  C   UNL     1      -2.753   4.558 -32.885  1.00  0.00     0.104 A 
HETATM   19  C   UNL     1      -3.263   5.823 -32.589  1.00  0.00     0.102 A 
HETATM   20  O   UNL     1      -1.819   4.337 -33.867  1.00  0.00    -0.346 OA
HETATM   21  O   UNL     1      -2.866   6.966 -33.232  1.00  0.00    -0.346 OA
HETATM   22  C   UNL     1      -4.232   5.960 -31.603  1.00  0.00     0.042 A 
HETATM   23  C   UNL     1      -1.652   6.757 -33.963  1.00  0.00     0.202 C 
HETATM   24  C   UNL     1      -1.717   5.460 -34.751  1.00  0.00     0.202 C 
HETATM   25  C   UNL     1      -4.666   4.835 -30.893  1.00  0.00     0.032 A 
ENDBRANCH  14  16
ENDBRANCH  13  14
ENDBRANCH   7  13
TORSDOF 3
ENDMDL
MODEL 4
REMARK VINA RESULT:      -8.1      3.927      7.512
REMARK  3 active torsions:
REMARK  status: ('A' for Active; 'I' for Inactive)
REMARK    1  A    between atoms: C_7  and  C_10 
REMARK    2  A    between atoms: C_10  and  N_11 
REMARK    3  A    between atoms: N_11  and  C_12 
ROOT
HETATM    1  C   UNL     1      -0.368   6.177 -32.287  1.00  0.00     0.002 A 
HETATM    2  C   UNL     1      -1.110   5.042 -31.948  1.00  0.00     0.033 A 
HETATM    3  C   UNL     1      -2.414   4.882 -32.456  1.00  0.00     0.075 A 
HETATM    4  C   UNL     1      -2.937   5.867 -33.289  1.00  0.00     0.035 A 
HETATM    5  S   UNL     1      -4.527   5.416 -33.755  1.00  0.00    -0.067 SA
HETATM    6  C   UNL     1      -4.418   3.952 -32.825  1.00  0.00     0.121 A 
HETATM    7  C   UNL     1      -5.514   3.021 -32.774  1.00  0.00     0.095 C 
HETATM    8  C   UNL     1      -6.733   3.251 -33.478  1.00  0.00     0.103 C 
HETATM    9  N   UNL     1      -7.739   3.407 -34.038  1.00  0.00    -0.191 NA
HETATM   10  N   UNL     1      -3.257   3.814 -32.204  1.00  0.00    -0.239 NA
HETATM   11  C   UNL     1      -2.202   7.011 -33.638  1.00  0.00     0.021 A 
HETATM   12  C   UNL     1      -0.909   7.149 -33.123  1.00  0.00     0.002 A 
ENDROOT
BRANCH   7  13
HETATM   13  C   UNL     1      -5.373   1.900 -32.033  1.00  0.00     0.114 C 
BRANCH  13  14
HETATM   14  N   UNL     1      -4.730   0.720 -32.350  1.00  0.00    -0.364 N 
HETATM   15  H   UNL     1      -3.754   0.646 -32.074  1.00  0.00     0.165 HD
BRANCH  14  16
HETATM   16  C   UNL     1      -5.241  -0.421 -32.998  1.00  0.00     0.034 A 
HETATM   17  C   UNL     1      -4.470  -1.546 -33.320  1.00  0.00     0.069 A 
HETATM   18  C   UNL     1      -5.044  -2.650 -33.957  1.00  0.00     0.104 A 
HETATM   19  C   UNL     1      -6.394  -2.638 -34.310  1.00  0.00     0.102 A 
HETATM   20  O   UNL     1      -4.212  -3.713 -34.213  1.00  0.00    -0.346 OA
HETATM   21  O   UNL     1      -7.013  -3.671 -34.965  1.00  0.00    -0.346 OA
HETATM   22  C   UNL     1      -7.179  -1.539 -33.985  1.00  0.00     0.042 A 
HETATM   23  C   UNL     1      -6.056  -4.571 -35.537  1.00  0.00     0.202 C 
HETATM   24  C   UNL     1      -4.957  -4.891 -34.539  1.00  0.00     0.202 C 
HETATM   25  C   UNL     1      -6.605  -0.441 -33.336  1.00  0.00     0.032 A 
ENDBRANCH  14  16
ENDBRANCH  13  14
ENDBRANCH   7  13
TORSDOF 3
ENDMDL
MODEL 5
REMARK VINA RESULT:      -8.1      4.530      7.393
REMARK  3 active torsions:
REMARK  status: ('A' for Active; 'I' for Inactive)
REMARK    1  A    between atoms: C_7  and  C_10 
REMARK    2  A    between atoms: C_10  and  N_11 
REMARK    3  A    between atoms: N_11  and  C_12 
ROOT
HETATM    1  C   UNL     1      -4.750  -3.817 -34.551  1.00  0.00     0.002 A 
HETATM    2  C   UNL     1      -4.370  -2.521 -34.187  1.00  0.00     0.033 A 
HETATM    3  C   UNL     1      -5.355  -1.534 -33.985  1.00  0.00     0.075 A 
HETATM    4  C   UNL     1      -6.694  -1.876 -34.154  1.00  0.00     0.035 A 
HETATM    5  S   UNL     1      -7.665  -0.494 -33.847  1.00  0.00    -0.067 SA
HETATM    6  C   UNL     1      -6.253   0.462 -33.511  1.00  0.00     0.121 A 
HETATM    7  C   UNL     1      -6.365   1.851 -33.151  1.00  0.00     0.095 C 
HETATM    8  C   UNL     1      -7.628   2.506 -33.051  1.00  0.00     0.103 C 
HETATM    9  N   UNL     1      -8.640   3.069 -32.961  1.00  0.00    -0.191 NA
HETATM   10  N   UNL     1      -5.124  -0.219 -33.625  1.00  0.00    -0.239 NA
HETATM   11  C   UNL     1      -7.089  -3.174 -34.519  1.00  0.00     0.021 A 
HETATM   12  C   UNL     1      -6.094  -4.137 -34.714  1.00  0.00     0.002 A 
ENDROOT
BRANCH   7  13
HETATM   13  C   UNL     1      -5.232   2.544 -32.902  1.00  0.00     0.114 C 
BRANCH  13  14
HETATM   14  N   UNL     1      -4.814   3.750 -33.426  1.00  0.00    -0.364 N 
HETATM   15  H   UNL     1      -5.408   4.167 -34.140  1.00  0.00     0.165 HD
BRANCH  14  16
HETATM   16  C   UNL     1      -3.672   4.509 -33.104  1.00  0.00     0.034 A 
HETATM   17  C   UNL     1      -2.751   4.150 -32.110  1.00  0.00     0.069 A 
HETATM   18  C   UNL     1      -1.633   4.947 -31.847  1.00  0.00     0.104 A 
HETATM   19  C   UNL     1      -1.431   6.134 -32.552  1.00  0.00     0.102 A 
HETATM   20  O   UNL     1      -0.778   4.501 -30.870  1.00  0.00    -0.346 OA
HETATM   21  O   UNL     1      -0.377   6.979 -32.323  1.00  0.00    -0.346 OA
HETATM   22  C   UNL     1      -2.324   6.500 -33.552  1.00  0.00     0.042 A 
HETATM   23  C   UNL     1       0.264   6.684 -31.076  1.00  0.00     0.202 C 
HETATM   24  C   UNL     1       0.478   5.188 -30.923  1.00  0.00     0.202 C 
HETATM   25  C   UNL     1      -3.435   5.694 -33.822  1.00  0.00     0.032 A 
ENDBRANCH  14  16
ENDBRANCH  13  14
ENDBRANCH   7  13
TORSDOF 3
ENDMDL
MODEL 6
REMARK VINA RESULT:      -7.9      3.567      6.080
REMARK  3 active torsions:
REMARK  status: ('A' for Active; 'I' for Inactive)
REMARK    1  A    between atoms: C_7  and  C_10 
REMARK    2  A    between atoms: C_10  and  N_11 
REMARK    3  A    between atoms: N_11  and  C_12 
ROOT
HETATM    1  C   UNL     1      -4.389  -2.444 -33.624  1.00  0.00     0.002 A 
HETATM    2  C   UNL     1      -4.633  -1.420 -32.703  1.00  0.00     0.033 A 
HETATM    3  C   UNL     1      -5.830  -0.682 -32.779  1.00  0.00     0.075 A 
HETATM    4  C   UNL     1      -6.749  -0.992 -33.778  1.00  0.00     0.035 A 
HETATM    5  S   UNL     1      -8.102   0.056 -33.634  1.00  0.00    -0.067 SA
HETATM    6  C   UNL     1      -7.383   0.848 -32.264  1.00  0.00     0.121 A 
HETATM    7  C   UNL     1      -8.056   1.928 -31.593  1.00  0.00     0.095 C 
HETATM    8  C   UNL     1      -9.335   2.398 -32.014  1.00  0.00     0.103 C 
HETATM    9  N   UNL     1     -10.377   2.805 -32.330  1.00  0.00    -0.191 NA
HETATM   10  N   UNL     1      -6.200   0.353 -31.938  1.00  0.00    -0.239 NA
HETATM   11  C   UNL     1      -6.517  -2.018 -34.708  1.00  0.00     0.021 A 
HETATM   12  C   UNL     1      -5.322  -2.738 -34.614  1.00  0.00     0.002 A 
ENDROOT
BRANCH   7  13
HETATM   13  C   UNL     1      -7.449   2.506 -30.534  1.00  0.00     0.114 C 
BRANCH  13  14
HETATM   14  N   UNL     1      -6.581   3.579 -30.503  1.00  0.00    -0.364 N 
HETATM   15  H   UNL     1      -6.786   4.311 -29.827  1.00  0.00     0.165 HD
BRANCH  14  16
HETATM   16  C   UNL     1      -5.425   3.806 -31.276  1.00  0.00     0.034 A 
HETATM   17  C   UNL     1      -5.350   4.750 -32.309  1.00  0.00     0.069 A 
HETATM   18  C   UNL     1      -4.166   4.930 -33.030  1.00  0.00     0.104 A 
HETATM   19  C   UNL     1      -3.044   4.148 -32.752  1.00  0.00     0.102 A 
HETATM   20  O   UNL     1      -4.184   5.893 -34.009  1.00  0.00    -0.346 OA
HETATM   21  O   UNL     1      -1.864   4.247 -33.442  1.00  0.00    -0.346 OA
HETATM   22  C   UNL     1      -3.094   3.217 -31.722  1.00  0.00     0.042 A 
HETATM   23  C   UNL     1      -2.037   4.971 -34.666  1.00  0.00     0.202 C 
HETATM   24  C   UNL     1      -2.858   6.227 -34.436  1.00  0.00     0.202 C 
HETATM   25  C   UNL     1      -4.275   3.049 -30.992  1.00  0.00     0.032 A 
ENDBRANCH  14  16
ENDBRANCH  13  14
ENDBRANCH   7  13
TORSDOF 3
ENDMDL
MODEL 7
REMARK VINA RESULT:      -7.8      3.967      7.304
REMARK  3 active torsions:
REMARK  status: ('A' for Active; 'I' for Inactive)
REMARK    1  A    between atoms: C_7  and  C_10 
REMARK    2  A    between atoms: C_10  and  N_11 
REMARK    3  A    between atoms: N_11  and  C_12 
ROOT
HETATM    1  C   UNL     1      -1.280   5.217 -33.150  1.00  0.00     0.002 A 
HETATM    2  C   UNL     1      -2.359   4.464 -33.622  1.00  0.00     0.033 A 
HETATM    3  C   UNL     1      -3.484   4.260 -32.798  1.00  0.00     0.075 A 
HETATM    4  C   UNL     1      -3.493   4.819 -31.524  1.00  0.00     0.035 A 
HETATM    5  S   UNL     1      -4.972   4.416 -30.750  1.00  0.00    -0.067 SA
HETATM    6  C   UNL     1      -5.500   3.531 -32.149  1.00  0.00     0.121 A 
HETATM    7  C   UNL     1      -6.780   2.874 -32.174  1.00  0.00     0.095 C 
HETATM    8  C   UNL     1      -7.672   2.917 -31.062  1.00  0.00     0.103 C 
HETATM    9  N   UNL     1      -8.422   2.932 -30.175  1.00  0.00    -0.191 NA
HETATM   10  N   UNL     1      -4.616   3.540 -33.135  1.00  0.00    -0.239 NA
HETATM   11  C   UNL     1      -2.417   5.579 -31.038  1.00  0.00     0.021 A 
HETATM   12  C   UNL     1      -1.311   5.768 -31.872  1.00  0.00     0.002 A 
ENDROOT
BRANCH   7  13
HETATM   13  C   UNL     1      -7.136   2.200 -33.289  1.00  0.00     0.114 C 
BRANCH  13  14
HETATM   14  N   UNL     1      -6.346   1.492 -34.171  1.00  0.00    -0.364 N 
HETATM   15  H   UNL     1      -5.985   2.004 -34.972  1.00  0.00     0.165 HD
BRANCH  14  16
HETATM   16  C   UNL     1      -5.946   0.142 -34.115  1.00  0.00     0.034 A 
HETATM   17  C   UNL     1      -4.843  -0.316 -33.382  1.00  0.00     0.069 A 
HETATM   18  C   UNL     1      -4.507  -1.673 -33.364  1.00  0.00     0.104 A 
HETATM   19  C   UNL     1      -5.251  -2.593 -34.104  1.00  0.00     0.102 A 
HETATM   20  O   UNL     1      -3.423  -2.026 -32.600  1.00  0.00    -0.346 OA
HETATM   21  O   UNL     1      -4.957  -3.931 -34.160  1.00  0.00    -0.346 OA
HETATM   22  C   UNL     1      -6.357  -2.162 -34.826  1.00  0.00     0.042 A 
HETATM   23  C   UNL     1      -3.635  -4.194 -33.673  1.00  0.00     0.202 C 
HETATM   24  C   UNL     1      -3.381  -3.441 -32.379  1.00  0.00     0.202 C 
HETATM   25  C   UNL     1      -6.699  -0.806 -34.831  1.00  0.00     0.032 A 
ENDBRANCH  14  16
ENDBRANCH  13  14
ENDBRANCH   7  13
TORSDOF 3
ENDMDL
MODEL 8
REMARK VINA RESULT:      -7.7      7.318     10.487
REMARK  3 active torsions:
REMARK  status: ('A' for Active; 'I' for Inactive)
REMARK    1  A    between atoms: C_7  and  C_10 
REMARK    2  A    between atoms: C_10  and  N_11 
REMARK    3  A    between atoms: N_11  and  C_12 
ROOT
HETATM    1  C   UNL     1      -5.148   0.774 -31.596  1.00  0.00     0.002 A 
HETATM    2  C   UNL     1      -3.982   1.436 -31.198  1.00  0.00     0.033 A 
HETATM    3  C   UNL     1      -3.631   2.659 -31.804  1.00  0.00     0.075 A 
HETATM    4  C   UNL     1      -4.460   3.182 -32.792  1.00  0.00     0.035 A 
HETATM    5  S   UNL     1      -3.796   4.664 -33.349  1.00  0.00    -0.067 SA
HETATM    6  C   UNL     1      -2.459   4.515 -32.248  1.00  0.00     0.121 A 
HETATM    7  C   UNL     1      -1.428   5.518 -32.191  1.00  0.00     0.095 C 
HETATM    8  C   UNL     1      -1.452   6.673 -33.026  1.00  0.00     0.103 C 
HETATM    9  N   UNL     1      -1.441   7.626 -33.692  1.00  0.00    -0.191 NA
HETATM   10  N   UNL     1      -2.512   3.418 -31.510  1.00  0.00    -0.239 NA
HETATM   11  C   UNL     1      -5.634   2.528 -33.200  1.00  0.00     0.021 A 
HETATM   12  C   UNL     1      -5.963   1.316 -32.585  1.00  0.00     0.002 A 
ENDROOT
BRANCH   7  13
HETATM   13  C   UNL     1      -0.413   5.348 -31.316  1.00  0.00     0.114 C 
BRANCH  13  14
HETATM   14  N   UNL     1      -0.434   5.385 -29.937  1.00  0.00    -0.364 N 
HETATM   15  H   UNL     1      -0.637   4.509 -29.461  1.00  0.00     0.165 HD
BRANCH  14  16
HETATM   16  C   UNL     1      -0.198   6.474 -29.075  1.00  0.00     0.034 A 
HETATM   17  C   UNL     1      -0.900   7.685 -29.138  1.00  0.00     0.069 A 
HETATM   18  C   UNL     1      -0.619   8.724 -28.245  1.00  0.00     0.104 A 
HETATM   19  C   UNL     1       0.390   8.581 -27.291  1.00  0.00     0.102 A 
HETATM   20  O   UNL     1      -1.374   9.864 -28.371  1.00  0.00    -0.346 OA
HETATM   21  O   UNL     1       0.740   9.569 -26.409  1.00  0.00    -0.346 OA
HETATM   22  C   UNL     1       1.087   7.382 -27.203  1.00  0.00     0.042 A 
HETATM   23  C   UNL     1       0.208  10.837 -26.809  1.00  0.00     0.202 C 
HETATM   24  C   UNL     1      -1.248  10.703 -27.218  1.00  0.00     0.202 C 
HETATM   25  C   UNL     1       0.795   6.340 -28.089  1.00  0.00     0.032 A 
ENDBRANCH  14  16
ENDBRANCH  13  14
ENDBRANCH   7  13
TORSDOF 3
ENDMDL
MODEL 9
REMARK VINA RESULT:      -7.5      2.058      2.888
REMARK  3 active torsions:
REMARK  status: ('A' for Active; 'I' for Inactive)
REMARK    1  A    between atoms: C_7  and  C_10 
REMARK    2  A    between atoms: C_10  and  N_11 
REMARK    3  A    between atoms: N_11  and  C_12 
ROOT
HETATM    1  C   UNL     1      -5.989  -3.086 -34.833  1.00  0.00     0.002 A 
HETATM    2  C   UNL     1      -7.030  -2.330 -34.285  1.00  0.00     0.033 A 
HETATM    3  C   UNL     1      -6.732  -1.213 -33.478  1.00  0.00     0.075 A 
HETATM    4  C   UNL     1      -5.399  -0.887 -33.246  1.00  0.00     0.035 A 
HETATM    5  S   UNL     1      -5.332   0.503 -32.242  1.00  0.00    -0.067 SA
HETATM    6  C   UNL     1      -7.067   0.582 -32.181  1.00  0.00     0.121 A 
HETATM    7  C   UNL     1      -7.739   1.613 -31.436  1.00  0.00     0.095 C 
HETATM    8  C   UNL     1      -7.021   2.613 -30.716  1.00  0.00     0.103 C 
HETATM    9  N   UNL     1      -6.467   3.443 -30.119  1.00  0.00    -0.191 NA
HETATM   10  N   UNL     1      -7.656  -0.380 -32.874  1.00  0.00    -0.239 NA
HETATM   11  C   UNL     1      -4.345  -1.638 -33.792  1.00  0.00     0.021 A 
HETATM   12  C   UNL     1      -4.663  -2.742 -34.589  1.00  0.00     0.002 A 
ENDROOT
BRANCH   7  13
HETATM   13  C   UNL     1      -9.090   1.623 -31.424  1.00  0.00     0.114 C 
BRANCH  13  14
HETATM   14  N   UNL     1      -9.974   1.303 -32.434  1.00  0.00    -0.364 N 
HETATM   15  H   UNL     1     -10.161   0.313 -32.578  1.00  0.00     0.165 HD
BRANCH  14  16
HETATM   16  C   UNL     1     -10.678   2.161 -33.301  1.00  0.00     0.034 A 
HETATM   17  C   UNL     1     -10.715   3.554 -33.161  1.00  0.00     0.069 A 
HETATM   18  C   UNL     1     -11.428   4.348 -34.064  1.00  0.00     0.104 A 
HETATM   19  C   UNL     1     -12.142   3.760 -35.109  1.00  0.00     0.102 A 
HETATM   20  O   UNL     1     -11.387   5.705 -33.855  1.00  0.00    -0.346 OA
HETATM   21  O   UNL     1     -12.889   4.473 -36.009  1.00  0.00    -0.346 OA
HETATM   22  C   UNL     1     -12.106   2.381 -35.275  1.00  0.00     0.042 A 
HETATM   23  C   UNL     1     -13.125   5.809 -35.546  1.00  0.00     0.202 C 
HETATM   24  C   UNL     1     -11.846   6.423 -35.006  1.00  0.00     0.202 C 
HETATM   25  C   UNL     1     -11.380   1.590 -34.378  1.00  0.00     0.032 A 
ENDBRANCH  14  16
ENDBRANCH  13  14
ENDBRANCH   7  13
TORSDOF 3
ENDMDL
MODEL 10
REMARK VINA RESULT:      -7.3      3.144      6.754
REMARK  3 active torsions:
REMARK  status: ('A' for Active; 'I' for Inactive)
REMARK    1  A    between atoms: C_7  and  C_10 
REMARK    2  A    between atoms: C_10  and  N_11 
REMARK    3  A    between atoms: N_11  and  C_12 
ROOT
HETATM    1  C   UNL     1      -9.705   3.751 -33.921  1.00  0.00     0.002 A 
HETATM    2  C   UNL     1      -8.732   2.853 -33.468  1.00  0.00     0.033 A 
HETATM    3  C   UNL     1      -7.426   3.312 -33.206  1.00  0.00     0.075 A 
HETATM    4  C   UNL     1      -7.133   4.658 -33.406  1.00  0.00     0.035 A 
HETATM    5  S   UNL     1      -5.485   4.933 -33.012  1.00  0.00    -0.067 SA
HETATM    6  C   UNL     1      -5.269   3.257 -32.605  1.00  0.00     0.121 A 
HETATM    7  C   UNL     1      -3.996   2.760 -32.153  1.00  0.00     0.095 C 
HETATM    8  C   UNL     1      -2.859   3.610 -32.018  1.00  0.00     0.103 C 
HETATM    9  N   UNL     1      -1.913   4.274 -31.896  1.00  0.00    -0.191 NA
HETATM   10  N   UNL     1      -6.370   2.539 -32.758  1.00  0.00    -0.239 NA
HETATM   11  C   UNL     1      -8.101   5.569 -33.859  1.00  0.00     0.021 A 
HETATM   12  C   UNL     1      -9.390   5.092 -34.112  1.00  0.00     0.002 A 
ENDROOT
BRANCH   7  13
HETATM   13  C   UNL     1      -3.888   1.448 -31.852  1.00  0.00     0.114 C 
BRANCH  13  14
HETATM   14  N   UNL     1      -3.522   0.393 -32.663  1.00  0.00    -0.364 N 
HETATM   15  H   UNL     1      -2.534   0.318 -32.894  1.00  0.00     0.165 HD
BRANCH  14  16
HETATM   16  C   UNL     1      -4.327  -0.621 -33.217  1.00  0.00     0.034 A 
HETATM   17  C   UNL     1      -3.860  -1.902 -33.536  1.00  0.00     0.069 A 
HETATM   18  C   UNL     1      -4.718  -2.865 -34.076  1.00  0.00     0.104 A 
HETATM   19  C   UNL     1      -6.053  -2.554 -34.335  1.00  0.00     0.102 A 
HETATM   20  O   UNL     1      -4.171  -4.098 -34.336  1.00  0.00    -0.346 OA
HETATM   21  O   UNL     1      -6.940  -3.437 -34.894  1.00  0.00    -0.346 OA
HETATM   22  C   UNL     1      -6.541  -1.293 -34.012  1.00  0.00     0.042 A 
HETATM   23  C   UNL     1      -6.261  -4.551 -35.486  1.00  0.00     0.202 C 
HETATM   24  C   UNL     1      -5.188  -5.083 -34.551  1.00  0.00     0.202 C 
HETATM   25  C   UNL     1      -5.683  -0.337 -33.459  1.00  0.00     0.032 A 
ENDBRANCH  14  16
ENDBRANCH  13  14
ENDBRANCH   7  13
TORSDOF 3
ENDMDL
