MODEL 1
REMARK VINA RESULT:      -8.9      0.000      0.000
REMARK  9 active torsions:
REMARK  status: ('A' for Active; 'I' for Inactive)
REMARK    1  A    between atoms: C_2  and  O_3 
REMARK    2  A    between atoms: O_3  and  C_4 
REMARK    3  A    between atoms: C_7  and  C_8 
REMARK       I    between atoms: C_8  and  N_9 
REMARK    4  A    between atoms: N_9  and  C_10 
REMARK    5  A    between atoms: C_10  and  N_11 
REMARK    6  A    between atoms: N_11  and  C_12 
REMARK    7  A    between atoms: C_15  and  N_16 
REMARK    8  A    between atoms: N_19  and  C_21 
REMARK    9  A    between atoms: C_21  and  C_22 
ROOT
HETATM    1  C   UNL     1      -3.489   3.092 -31.443  1.00  0.00     0.034 A 
HETATM    2  C   UNL     1      -3.635   1.937 -32.201  1.00  0.00     0.032 A 
HETATM    3  C   UNL     1      -4.904   1.425 -32.484  1.00  0.00     0.031 A 
HETATM    4  C   UNL     1      -6.075   2.036 -32.016  1.00  0.00     0.030 A 
HETATM    5  C   UNL     1      -5.905   3.140 -31.169  1.00  0.00     0.031 A 
HETATM    6  C   UNL     1      -4.630   3.656 -30.875  1.00  0.00     0.032 A 
ENDROOT
BRANCH   1   7
HETATM    7  N   UNL     1      -2.238   3.697 -31.207  1.00  0.00    -0.333 N 
HETATM    8  H   UNL     1      -1.577   3.166 -30.637  1.00  0.00     0.168 HD
BRANCH   7   9
HETATM    9  C   UNL     1      -1.863   5.005 -31.417  1.00  0.00     0.179 C 
HETATM   10  S   UNL     1      -2.031   5.950 -32.791  1.00  0.00    -0.040 SA
BRANCH   9  11
HETATM   11  N   UNL     1      -1.302   5.647 -30.333  1.00  0.00    -0.299 N 
HETATM   12  C   UNL     1      -0.068   5.471 -29.721  1.00  0.00     0.257 C 
HETATM   13  O   UNL     1       0.699   4.549 -29.975  1.00  0.00    -0.267 OA
HETATM   14  H   UNL     1      -1.931   6.328 -29.931  1.00  0.00     0.171 HD
BRANCH  12  15
HETATM   15  C   UNL     1       0.211   6.448 -28.629  1.00  0.00     0.032 A 
HETATM   16  C   UNL     1       0.886   7.632 -28.931  1.00  0.00     0.020 A 
HETATM   17  C   UNL     1       1.267   8.495 -27.897  1.00  0.00     0.038 A 
HETATM   18  C   UNL     1       0.984   8.180 -26.565  1.00  0.00     0.068 A 
HETATM   19  C   UNL     1       0.243   7.035 -26.273  1.00  0.00     0.038 A 
HETATM   20  C   UNL     1      -0.146   6.172 -27.301  1.00  0.00     0.020 A 
BRANCH  18  21
HETATM   21  O   UNL     1       1.464   9.062 -25.637  1.00  0.00    -0.352 OA
BRANCH  21  22
HETATM   22  C   UNL     1       2.791   8.814 -25.167  1.00  0.00     0.171 C 
HETATM   23  C   UNL     1       2.765   8.789 -23.651  1.00  0.00     0.034 C 
ENDBRANCH  21  22
ENDBRANCH  18  21
ENDBRANCH  12  15
ENDBRANCH   9  11
ENDBRANCH   7   9
ENDBRANCH   1   7
BRANCH   4  24
HETATM   24  N   UNL     1      -7.311   1.536 -32.372  1.00  0.00    -0.378 N 
HETATM   25  C   UNL     1      -7.498   0.455 -33.341  1.00  0.00     0.150 C 
HETATM   26  C   UNL     1      -8.628   0.848 -34.326  1.00  0.00     0.255 C 
HETATM   27  N   UNL     1      -9.899   1.297 -33.593  1.00  0.00    -0.064 N 
HETATM   28  H   UNL     1     -10.272   0.480 -33.091  1.00  0.00     0.280 HD
HETATM   29  C   UNL     1      -9.605   2.363 -32.536  1.00  0.00     0.255 C 
HETATM   30  C   UNL     1      -8.501   1.882 -31.582  1.00  0.00     0.150 C 
BRANCH  27  31
HETATM   31  C   UNL     1     -10.977   1.766 -34.538  1.00  0.00     0.276 C 
BRANCH  31  32
HETATM   32  C   UNL     1     -12.365   1.593 -34.002  1.00  0.00     0.006 A 
HETATM   33  C   UNL     1     -13.028   2.690 -33.445  1.00  0.00     0.124 A 
HETATM   34  F   UNL     1     -12.380   3.861 -33.357  1.00  0.00    -0.206 F 
HETATM   35  C   UNL     1     -14.325   2.588 -32.959  1.00  0.00     0.043 A 
HETATM   36  C   UNL     1     -14.981   1.362 -33.024  1.00  0.00     0.003 A 
HETATM   37  C   UNL     1     -14.335   0.252 -33.573  1.00  0.00     0.001 A 
HETATM   38  C   UNL     1     -13.033   0.364 -34.063  1.00  0.00     0.012 A 
ENDBRANCH  31  32
ENDBRANCH  27  31
ENDBRANCH   4  24
TORSDOF 9
ENDMDL
MODEL 2
REMARK VINA RESULT:      -8.9      4.799     11.892
REMARK  9 active torsions:
REMARK  status: ('A' for Active; 'I' for Inactive)
REMARK    1  A    between atoms: C_2  and  O_3 
REMARK    2  A    between atoms: O_3  and  C_4 
REMARK    3  A    between atoms: C_7  and  C_8 
REMARK       I    between atoms: C_8  and  N_9 
REMARK    4  A    between atoms: N_9  and  C_10 
REMARK    5  A    between atoms: C_10  and  N_11 
REMARK    6  A    between atoms: N_11  and  C_12 
REMARK    7  A    between atoms: C_15  and  N_16 
REMARK    8  A    between atoms: N_19  and  C_21 
REMARK    9  A    between atoms: C_21  and  C_22 
ROOT
HETATM    1  C   UNL     1      -6.495   5.161 -33.569  1.00  0.00     0.034 A 
HETATM    2  C   UNL     1      -5.313   4.836 -34.224  1.00  0.00     0.032 A 
HETATM    3  C   UNL     1      -4.078   5.214 -33.693  1.00  0.00     0.031 A 
HETATM    4  C   UNL     1      -3.969   5.937 -32.498  1.00  0.00     0.030 A 
HETATM    5  C   UNL     1      -5.173   6.344 -31.906  1.00  0.00     0.031 A 
HETATM    6  C   UNL     1      -6.421   5.973 -32.439  1.00  0.00     0.032 A 
ENDROOT
BRANCH   1   7
HETATM    7  N   UNL     1      -7.759   4.725 -34.015  1.00  0.00    -0.333 N 
HETATM    8  H   UNL     1      -8.350   5.428 -34.464  1.00  0.00     0.168 HD
BRANCH   7   9
HETATM    9  C   UNL     1      -8.422   3.557 -33.713  1.00  0.00     0.179 C 
HETATM   10  S   UNL     1     -10.016   3.332 -33.246  1.00  0.00    -0.040 SA
BRANCH   9  11
HETATM   11  N   UNL     1      -7.684   2.399 -33.847  1.00  0.00    -0.299 N 
HETATM   12  C   UNL     1      -7.224   1.507 -32.887  1.00  0.00     0.257 C 
HETATM   13  O   UNL     1      -7.279   1.711 -31.680  1.00  0.00    -0.267 OA
HETATM   14  H   UNL     1      -7.435   2.221 -34.810  1.00  0.00     0.171 HD
BRANCH  12  15
HETATM   15  C   UNL     1      -6.546   0.306 -33.452  1.00  0.00     0.032 A 
HETATM   16  C   UNL     1      -7.302  -0.638 -34.150  1.00  0.00     0.020 A 
HETATM   17  C   UNL     1      -6.703  -1.830 -34.572  1.00  0.00     0.038 A 
HETATM   18  C   UNL     1      -5.356  -2.087 -34.298  1.00  0.00     0.068 A 
HETATM   19  C   UNL     1      -4.584  -1.109 -33.670  1.00  0.00     0.038 A 
HETATM   20  C   UNL     1      -5.175   0.086 -33.250  1.00  0.00     0.020 A 
BRANCH  18  21
HETATM   21  O   UNL     1      -4.897  -3.311 -34.699  1.00  0.00    -0.352 OA
BRANCH  21  22
HETATM   22  C   UNL     1      -3.827  -3.861 -33.926  1.00  0.00     0.171 C 
HETATM   23  C   UNL     1      -4.150  -5.313 -33.628  1.00  0.00     0.034 C 
ENDBRANCH  21  22
ENDBRANCH  18  21
ENDBRANCH  12  15
ENDBRANCH   9  11
ENDBRANCH   7   9
ENDBRANCH   1   7
BRANCH   4  24
HETATM   24  N   UNL     1      -2.728   6.234 -31.974  1.00  0.00    -0.378 N 
HETATM   25  C   UNL     1      -1.481   5.640 -32.460  1.00  0.00     0.150 C 
HETATM   26  C   UNL     1      -0.634   5.180 -31.247  1.00  0.00     0.255 C 
HETATM   27  N   UNL     1      -0.466   6.295 -30.207  1.00  0.00    -0.064 N 
HETATM   28  H   UNL     1       0.096   7.041 -30.640  1.00  0.00     0.280 HD
HETATM   29  C   UNL     1      -1.805   6.925 -29.820  1.00  0.00     0.255 C 
HETATM   30  C   UNL     1      -2.564   7.384 -31.073  1.00  0.00     0.150 C 
BRANCH  27  31
HETATM   31  C   UNL     1       0.282   5.835 -28.981  1.00  0.00     0.276 C 
BRANCH  31  32
HETATM   32  C   UNL     1       0.590   6.937 -28.014  1.00  0.00     0.006 A 
HETATM   33  C   UNL     1       0.201   6.808 -26.678  1.00  0.00     0.124 A 
HETATM   34  F   UNL     1      -0.489   5.718 -26.308  1.00  0.00    -0.206 F 
HETATM   35  C   UNL     1       0.487   7.788 -25.737  1.00  0.00     0.043 A 
HETATM   36  C   UNL     1       1.175   8.932 -26.134  1.00  0.00     0.003 A 
HETATM   37  C   UNL     1       1.569   9.083 -27.465  1.00  0.00     0.001 A 
HETATM   38  C   UNL     1       1.282   8.090 -28.404  1.00  0.00     0.012 A 
ENDBRANCH  31  32
ENDBRANCH  27  31
ENDBRANCH   4  24
TORSDOF 9
ENDMDL
MODEL 3
REMARK VINA RESULT:      -8.6      5.047     11.568
REMARK  9 active torsions:
REMARK  status: ('A' for Active; 'I' for Inactive)
REMARK    1  A    between atoms: C_2  and  O_3 
REMARK    2  A    between atoms: O_3  and  C_4 
REMARK    3  A    between atoms: C_7  and  C_8 
REMARK       I    between atoms: C_8  and  N_9 
REMARK    4  A    between atoms: N_9  and  C_10 
REMARK    5  A    between atoms: C_10  and  N_11 
REMARK    6  A    between atoms: N_11  and  C_12 
REMARK    7  A    between atoms: C_15  and  N_16 
REMARK    8  A    between atoms: N_19  and  C_21 
REMARK    9  A    between atoms: C_21  and  C_22 
ROOT
HETATM    1  C   UNL     1      -6.697   4.377 -32.753  1.00  0.00     0.034 A 
HETATM    2  C   UNL     1      -5.907   4.211 -31.622  1.00  0.00     0.032 A 
HETATM    3  C   UNL     1      -4.574   4.629 -31.617  1.00  0.00     0.031 A 
HETATM    4  C   UNL     1      -3.973   5.218 -32.736  1.00  0.00     0.030 A 
HETATM    5  C   UNL     1      -4.754   5.284 -33.899  1.00  0.00     0.031 A 
HETATM    6  C   UNL     1      -6.095   4.859 -33.913  1.00  0.00     0.032 A 
ENDROOT
BRANCH   1   7
HETATM    7  N   UNL     1      -8.070   4.056 -32.779  1.00  0.00    -0.333 N 
HETATM    8  H   UNL     1      -8.667   4.558 -32.118  1.00  0.00     0.168 HD
BRANCH   7   9
HETATM    9  C   UNL     1      -8.691   2.988 -33.385  1.00  0.00     0.179 C 
HETATM   10  S   UNL     1     -10.206   2.906 -34.099  1.00  0.00    -0.040 SA
BRANCH   9  11
HETATM   11  N   UNL     1      -7.952   1.825 -33.452  1.00  0.00    -0.299 N 
HETATM   12  C   UNL     1      -7.954   0.707 -32.628  1.00  0.00     0.257 C 
HETATM   13  O   UNL     1      -8.545   0.647 -31.556  1.00  0.00    -0.267 OA
HETATM   14  H   UNL     1      -7.296   1.839 -34.220  1.00  0.00     0.171 HD
BRANCH  12  15
HETATM   15  C   UNL     1      -7.075  -0.398 -33.105  1.00  0.00     0.032 A 
HETATM   16  C   UNL     1      -5.750  -0.451 -32.669  1.00  0.00     0.020 A 
HETATM   17  C   UNL     1      -4.880  -1.405 -33.209  1.00  0.00     0.038 A 
HETATM   18  C   UNL     1      -5.325  -2.303 -34.184  1.00  0.00     0.068 A 
HETATM   19  C   UNL     1      -6.667  -2.298 -34.562  1.00  0.00     0.038 A 
HETATM   20  C   UNL     1      -7.542  -1.351 -34.022  1.00  0.00     0.020 A 
BRANCH  18  21
HETATM   21  O   UNL     1      -4.371  -3.145 -34.687  1.00  0.00    -0.352 OA
BRANCH  21  22
HETATM   22  C   UNL     1      -4.529  -4.529 -34.369  1.00  0.00     0.171 C 
HETATM   23  C   UNL     1      -3.446  -4.920 -33.381  1.00  0.00     0.034 C 
ENDBRANCH  21  22
ENDBRANCH  18  21
ENDBRANCH  12  15
ENDBRANCH   9  11
ENDBRANCH   7   9
ENDBRANCH   1   7
BRANCH   4  24
HETATM   24  N   UNL     1      -2.673   5.676 -32.668  1.00  0.00    -0.378 N 
HETATM   25  C   UNL     1      -1.506   4.793 -32.618  1.00  0.00     0.150 C 
HETATM   26  C   UNL     1      -0.545   5.289 -31.508  1.00  0.00     0.255 C 
HETATM   27  N   UNL     1      -0.230   6.784 -31.645  1.00  0.00    -0.064 N 
HETATM   28  H   UNL     1       0.303   6.910 -32.517  1.00  0.00     0.280 HD
HETATM   29  C   UNL     1      -1.499   7.627 -31.784  1.00  0.00     0.255 C 
HETATM   30  C   UNL     1      -2.377   7.093 -32.925  1.00  0.00     0.150 C 
BRANCH  27  31
HETATM   31  C   UNL     1       0.633   7.300 -30.521  1.00  0.00     0.276 C 
BRANCH  31  32
HETATM   32  C   UNL     1      -0.033   7.254 -29.180  1.00  0.00     0.006 A 
HETATM   33  C   UNL     1       0.295   6.232 -28.284  1.00  0.00     0.124 A 
HETATM   34  F   UNL     1       1.162   5.286 -28.673  1.00  0.00    -0.206 F 
HETATM   35  C   UNL     1      -0.274   6.162 -27.019  1.00  0.00     0.043 A 
HETATM   36  C   UNL     1      -1.198   7.129 -26.634  1.00  0.00     0.003 A 
HETATM   37  C   UNL     1      -1.543   8.156 -27.515  1.00  0.00     0.001 A 
HETATM   38  C   UNL     1      -0.963   8.223 -28.783  1.00  0.00     0.012 A 
ENDBRANCH  31  32
ENDBRANCH  27  31
ENDBRANCH   4  24
TORSDOF 9
ENDMDL
MODEL 4
REMARK VINA RESULT:      -8.4      5.100     12.098
REMARK  9 active torsions:
REMARK  status: ('A' for Active; 'I' for Inactive)
REMARK    1  A    between atoms: C_2  and  O_3 
REMARK    2  A    between atoms: O_3  and  C_4 
REMARK    3  A    between atoms: C_7  and  C_8 
REMARK       I    between atoms: C_8  and  N_9 
REMARK    4  A    between atoms: N_9  and  C_10 
REMARK    5  A    between atoms: C_10  and  N_11 
REMARK    6  A    between atoms: N_11  and  C_12 
REMARK    7  A    between atoms: C_15  and  N_16 
REMARK    8  A    between atoms: N_19  and  C_21 
REMARK    9  A    between atoms: C_21  and  C_22 
ROOT
HETATM    1  C   UNL     1      -5.108   5.245 -33.584  1.00  0.00     0.034 A 
HETATM    2  C   UNL     1      -3.873   4.670 -33.853  1.00  0.00     0.032 A 
HETATM    3  C   UNL     1      -2.732   5.075 -33.156  1.00  0.00     0.031 A 
HETATM    4  C   UNL     1      -2.773   6.073 -32.174  1.00  0.00     0.030 A 
HETATM    5  C   UNL     1      -4.007   6.713 -31.989  1.00  0.00     0.031 A 
HETATM    6  C   UNL     1      -5.158   6.315 -32.693  1.00  0.00     0.032 A 
ENDROOT
BRANCH   1   7
HETATM    7  N   UNL     1      -6.302   4.809 -34.194  1.00  0.00    -0.333 N 
HETATM    8  H   UNL     1      -6.635   5.360 -34.988  1.00  0.00     0.168 HD
BRANCH   7   9
HETATM    9  C   UNL     1      -7.224   3.901 -33.726  1.00  0.00     0.179 C 
HETATM   10  S   UNL     1      -8.772   4.166 -33.140  1.00  0.00    -0.040 SA
BRANCH   9  11
HETATM   11  N   UNL     1      -6.840   2.577 -33.778  1.00  0.00    -0.299 N 
HETATM   12  C   UNL     1      -6.445   1.712 -32.766  1.00  0.00     0.257 C 
HETATM   13  O   UNL     1      -6.216   2.064 -31.614  1.00  0.00    -0.267 OA
HETATM   14  H   UNL     1      -6.831   2.224 -34.725  1.00  0.00     0.171 HD
BRANCH  12  15
HETATM   15  C   UNL     1      -6.210   0.313 -33.223  1.00  0.00     0.032 A 
HETATM   16  C   UNL     1      -4.998  -0.310 -32.914  1.00  0.00     0.020 A 
HETATM   17  C   UNL     1      -4.714  -1.573 -33.447  1.00  0.00     0.038 A 
HETATM   18  C   UNL     1      -5.629  -2.214 -34.287  1.00  0.00     0.068 A 
HETATM   19  C   UNL     1      -6.868  -1.624 -34.531  1.00  0.00     0.038 A 
HETATM   20  C   UNL     1      -7.161  -0.366 -33.998  1.00  0.00     0.020 A 
BRANCH  18  21
HETATM   21  O   UNL     1      -5.214  -3.412 -34.802  1.00  0.00    -0.352 OA
BRANCH  21  22
HETATM   22  C   UNL     1      -3.970  -3.908 -34.304  1.00  0.00     0.171 C 
HETATM   23  C   UNL     1      -4.199  -5.299 -33.742  1.00  0.00     0.034 C 
ENDBRANCH  21  22
ENDBRANCH  18  21
ENDBRANCH  12  15
ENDBRANCH   9  11
ENDBRANCH   7   9
ENDBRANCH   1   7
BRANCH   4  24
HETATM   24  N   UNL     1      -1.636   6.399 -31.463  1.00  0.00    -0.378 N 
HETATM   25  C   UNL     1      -0.421   5.581 -31.462  1.00  0.00     0.150 C 
HETATM   26  C   UNL     1       0.078   5.419 -30.005  1.00  0.00     0.255 C 
HETATM   27  N   UNL     1       0.195   6.768 -29.283  1.00  0.00    -0.064 N 
HETATM   28  H   UNL     1       0.941   7.304 -29.748  1.00  0.00     0.280 HD
HETATM   29  C   UNL     1      -1.083   7.598 -29.408  1.00  0.00     0.255 C 
HETATM   30  C   UNL     1      -1.489   7.741 -30.882  1.00  0.00     0.150 C 
BRANCH  27  31
HETATM   31  C   UNL     1       0.596   6.618 -27.836  1.00  0.00     0.276 C 
BRANCH  31  32
HETATM   32  C   UNL     1       0.396   7.860 -27.024  1.00  0.00     0.006 A 
HETATM   33  C   UNL     1       1.214   8.971 -27.255  1.00  0.00     0.124 A 
HETATM   34  F   UNL     1       2.194   8.873 -28.165  1.00  0.00    -0.206 F 
HETATM   35  C   UNL     1       1.051  10.155 -26.548  1.00  0.00     0.043 A 
HETATM   36  C   UNL     1       0.053  10.238 -25.581  1.00  0.00     0.003 A 
HETATM   37  C   UNL     1      -0.772   9.139 -25.332  1.00  0.00     0.001 A 
HETATM   38  C   UNL     1      -0.605   7.954 -26.050  1.00  0.00     0.012 A 
ENDBRANCH  31  32
ENDBRANCH  27  31
ENDBRANCH   4  24
TORSDOF 9
ENDMDL
MODEL 5
REMARK VINA RESULT:      -8.4      7.427     10.284
REMARK  9 active torsions:
REMARK  status: ('A' for Active; 'I' for Inactive)
REMARK    1  A    between atoms: C_2  and  O_3 
REMARK    2  A    between atoms: O_3  and  C_4 
REMARK    3  A    between atoms: C_7  and  C_8 
REMARK       I    between atoms: C_8  and  N_9 
REMARK    4  A    between atoms: N_9  and  C_10 
REMARK    5  A    between atoms: C_10  and  N_11 
REMARK    6  A    between atoms: N_11  and  C_12 
REMARK    7  A    between atoms: C_15  and  N_16 
REMARK    8  A    between atoms: N_19  and  C_21 
REMARK    9  A    between atoms: C_21  and  C_22 
ROOT
HETATM    1  C   UNL     1      -8.664   5.970 -29.086  1.00  0.00     0.034 A 
HETATM    2  C   UNL     1      -7.518   5.271 -28.727  1.00  0.00     0.032 A 
HETATM    3  C   UNL     1      -7.229   4.033 -29.306  1.00  0.00     0.031 A 
HETATM    4  C   UNL     1      -8.070   3.439 -30.255  1.00  0.00     0.030 A 
HETATM    5  C   UNL     1      -9.270   4.109 -30.529  1.00  0.00     0.031 A 
HETATM    6  C   UNL     1      -9.572   5.353 -29.944  1.00  0.00     0.032 A 
ENDROOT
BRANCH   1   7
HETATM    7  N   UNL     1      -8.954   7.261 -28.599  1.00  0.00    -0.333 N 
HETATM    8  H   UNL     1      -8.255   7.684 -27.985  1.00  0.00     0.168 HD
BRANCH   7   9
HETATM    9  C   UNL     1     -10.153   7.939 -28.621  1.00  0.00     0.179 C 
HETATM   10  S   UNL     1     -10.859   8.805 -29.871  1.00  0.00    -0.040 SA
BRANCH   9  11
HETATM   11  N   UNL     1     -10.902   7.868 -27.465  1.00  0.00    -0.299 N 
HETATM   12  C   UNL     1     -10.620   8.311 -26.180  1.00  0.00     0.257 C 
HETATM   13  O   UNL     1      -9.524   8.724 -25.822  1.00  0.00    -0.267 OA
HETATM   14  H   UNL     1     -11.777   7.384 -27.612  1.00  0.00     0.171 HD
BRANCH  12  15
HETATM   15  C   UNL     1     -11.748   8.139 -25.220  1.00  0.00     0.032 A 
HETATM   16  C   UNL     1     -12.872   7.410 -25.612  1.00  0.00     0.020 A 
HETATM   17  C   UNL     1     -13.988   7.351 -24.771  1.00  0.00     0.038 A 
HETATM   18  C   UNL     1     -13.991   8.020 -23.542  1.00  0.00     0.068 A 
HETATM   19  C   UNL     1     -12.839   8.683 -23.119  1.00  0.00     0.038 A 
HETATM   20  C   UNL     1     -11.719   8.741 -23.953  1.00  0.00     0.020 A 
BRANCH  18  21
HETATM   21  O   UNL     1     -15.160   7.948 -22.836  1.00  0.00    -0.352 OA
BRANCH  21  22
HETATM   22  C   UNL     1     -16.360   7.955 -23.612  1.00  0.00     0.171 C 
HETATM   23  C   UNL     1     -17.453   8.621 -22.798  1.00  0.00     0.034 C 
ENDBRANCH  21  22
ENDBRANCH  18  21
ENDBRANCH  12  15
ENDBRANCH   9  11
ENDBRANCH   7   9
ENDBRANCH   1   7
BRANCH   4  24
HETATM   24  N   UNL     1      -7.714   2.246 -30.851  1.00  0.00    -0.378 N 
HETATM   25  C   UNL     1      -6.475   1.528 -30.548  1.00  0.00     0.150 C 
HETATM   26  C   UNL     1      -5.807   1.090 -31.875  1.00  0.00     0.255 C 
HETATM   27  N   UNL     1      -6.785   0.348 -32.795  1.00  0.00    -0.064 N 
HETATM   28  H   UNL     1      -7.034  -0.537 -32.332  1.00  0.00     0.280 HD
HETATM   29  C   UNL     1      -8.090   1.123 -32.988  1.00  0.00     0.255 C 
HETATM   30  C   UNL     1      -8.704   1.487 -31.628  1.00  0.00     0.150 C 
BRANCH  27  31
HETATM   31  C   UNL     1      -6.173  -0.006 -34.127  1.00  0.00     0.276 C 
BRANCH  31  32
HETATM   32  C   UNL     1      -5.931  -1.474 -34.307  1.00  0.00     0.006 A 
HETATM   33  C   UNL     1      -4.661  -1.998 -34.046  1.00  0.00     0.124 A 
HETATM   34  F   UNL     1      -3.677  -1.159 -33.690  1.00  0.00    -0.206 F 
HETATM   35  C   UNL     1      -4.393  -3.354 -34.171  1.00  0.00     0.043 A 
HETATM   36  C   UNL     1      -5.411  -4.215 -34.572  1.00  0.00     0.003 A 
HETATM   37  C   UNL     1      -6.685  -3.711 -34.843  1.00  0.00     0.001 A 
HETATM   38  C   UNL     1      -6.948  -2.347 -34.709  1.00  0.00     0.012 A 
ENDBRANCH  31  32
ENDBRANCH  27  31
ENDBRANCH   4  24
TORSDOF 9
ENDMDL
MODEL 6
REMARK VINA RESULT:      -8.4      3.706      5.194
REMARK  9 active torsions:
REMARK  status: ('A' for Active; 'I' for Inactive)
REMARK    1  A    between atoms: C_2  and  O_3 
REMARK    2  A    between atoms: O_3  and  C_4 
REMARK    3  A    between atoms: C_7  and  C_8 
REMARK       I    between atoms: C_8  and  N_9 
REMARK    4  A    between atoms: N_9  and  C_10 
REMARK    5  A    between atoms: C_10  and  N_11 
REMARK    6  A    between atoms: N_11  and  C_12 
REMARK    7  A    between atoms: C_15  and  N_16 
REMARK    8  A    between atoms: N_19  and  C_21 
REMARK    9  A    between atoms: C_21  and  C_22 
ROOT
HETATM    1  C   UNL     1      -3.973   4.266 -31.083  1.00  0.00     0.034 A 
HETATM    2  C   UNL     1      -3.520   2.972 -31.305  1.00  0.00     0.032 A 
HETATM    3  C   UNL     1      -4.362   2.009 -31.866  1.00  0.00     0.031 A 
HETATM    4  C   UNL     1      -5.687   2.293 -32.220  1.00  0.00     0.030 A 
HETATM    5  C   UNL     1      -6.158   3.573 -31.897  1.00  0.00     0.031 A 
HETATM    6  C   UNL     1      -5.317   4.545 -31.324  1.00  0.00     0.032 A 
ENDROOT
BRANCH   1   7
HETATM    7  N   UNL     1      -3.138   5.296 -30.604  1.00  0.00    -0.333 N 
HETATM    8  H   UNL     1      -3.590   6.030 -30.055  1.00  0.00     0.168 HD
BRANCH   7   9
HETATM    9  C   UNL     1      -1.847   5.598 -30.975  1.00  0.00     0.179 C 
HETATM   10  S   UNL     1      -1.117   5.468 -32.479  1.00  0.00    -0.040 SA
BRANCH   9  11
HETATM   11  N   UNL     1      -1.045   6.118 -29.981  1.00  0.00    -0.299 N 
HETATM   12  C   UNL     1      -0.857   7.430 -29.568  1.00  0.00     0.257 C 
HETATM   13  O   UNL     1      -1.291   8.407 -30.167  1.00  0.00    -0.267 OA
HETATM   14  H   UNL     1      -0.501   5.400 -29.521  1.00  0.00     0.171 HD
BRANCH  12  15
HETATM   15  C   UNL     1       0.024   7.569 -28.373  1.00  0.00     0.032 A 
HETATM   16  C   UNL     1      -0.274   6.842 -27.219  1.00  0.00     0.020 A 
HETATM   17  C   UNL     1       0.467   7.060 -26.052  1.00  0.00     0.038 A 
HETATM   18  C   UNL     1       1.500   8.003 -26.030  1.00  0.00     0.068 A 
HETATM   19  C   UNL     1       1.845   8.671 -27.204  1.00  0.00     0.038 A 
HETATM   20  C   UNL     1       1.113   8.454 -28.374  1.00  0.00     0.020 A 
BRANCH  18  21
HETATM   21  O   UNL     1       2.109   8.179 -24.818  1.00  0.00    -0.352 OA
BRANCH  21  22
HETATM   22  C   UNL     1       3.169   9.138 -24.785  1.00  0.00     0.171 C 
HETATM   23  C   UNL     1       2.776  10.254 -23.836  1.00  0.00     0.034 C 
ENDBRANCH  21  22
ENDBRANCH  18  21
ENDBRANCH  12  15
ENDBRANCH   9  11
ENDBRANCH   7   9
ENDBRANCH   1   7
BRANCH   4  24
HETATM   24  N   UNL     1      -6.465   1.331 -32.833  1.00  0.00    -0.378 N 
HETATM   25  C   UNL     1      -7.024   0.175 -32.131  1.00  0.00     0.150 C 
HETATM   26  C   UNL     1      -6.778  -1.099 -32.978  1.00  0.00     0.255 C 
HETATM   27  N   UNL     1      -7.246  -0.924 -34.429  1.00  0.00    -0.064 N 
HETATM   28  H   UNL     1      -8.270  -0.824 -34.414  1.00  0.00     0.280 HD
HETATM   29  C   UNL     1      -6.691   0.354 -35.061  1.00  0.00     0.255 C 
HETATM   30  C   UNL     1      -7.008   1.570 -34.178  1.00  0.00     0.150 C 
BRANCH  27  31
HETATM   31  C   UNL     1      -6.932  -2.124 -35.287  1.00  0.00     0.276 C 
BRANCH  31  32
HETATM   32  C   UNL     1      -5.837  -2.987 -34.739  1.00  0.00     0.006 A 
HETATM   33  C   UNL     1      -5.936  -4.377 -34.853  1.00  0.00     0.124 A 
HETATM   34  F   UNL     1      -7.039  -4.903 -35.405  1.00  0.00    -0.206 F 
HETATM   35  C   UNL     1      -4.936  -5.219 -34.386  1.00  0.00     0.043 A 
HETATM   36  C   UNL     1      -3.807  -4.667 -33.785  1.00  0.00     0.003 A 
HETATM   37  C   UNL     1      -3.691  -3.282 -33.657  1.00  0.00     0.001 A 
HETATM   38  C   UNL     1      -4.699  -2.442 -34.133  1.00  0.00     0.012 A 
ENDBRANCH  31  32
ENDBRANCH  27  31
ENDBRANCH   4  24
TORSDOF 9
ENDMDL
MODEL 7
REMARK VINA RESULT:      -8.2      4.422      5.480
REMARK  9 active torsions:
REMARK  status: ('A' for Active; 'I' for Inactive)
REMARK    1  A    between atoms: C_2  and  O_3 
REMARK    2  A    between atoms: O_3  and  C_4 
REMARK    3  A    between atoms: C_7  and  C_8 
REMARK       I    between atoms: C_8  and  N_9 
REMARK    4  A    between atoms: N_9  and  C_10 
REMARK    5  A    between atoms: C_10  and  N_11 
REMARK    6  A    between atoms: N_11  and  C_12 
REMARK    7  A    between atoms: C_15  and  N_16 
REMARK    8  A    between atoms: N_19  and  C_21 
REMARK    9  A    between atoms: C_21  and  C_22 
ROOT
HETATM    1  C   UNL     1      -5.106   5.854 -29.794  1.00  0.00     0.034 A 
HETATM    2  C   UNL     1      -4.282   5.342 -30.788  1.00  0.00     0.032 A 
HETATM    3  C   UNL     1      -4.427   4.022 -31.223  1.00  0.00     0.031 A 
HETATM    4  C   UNL     1      -5.388   3.160 -30.680  1.00  0.00     0.030 A 
HETATM    5  C   UNL     1      -6.141   3.661 -29.609  1.00  0.00     0.031 A 
HETATM    6  C   UNL     1      -5.995   4.987 -29.162  1.00  0.00     0.032 A 
ENDROOT
BRANCH   1   7
HETATM    7  N   UNL     1      -5.060   7.202 -29.384  1.00  0.00    -0.333 N 
HETATM    8  H   UNL     1      -5.913   7.580 -28.967  1.00  0.00     0.168 HD
BRANCH   7   9
HETATM    9  C   UNL     1      -4.122   8.162 -29.691  1.00  0.00     0.179 C 
HETATM   10  S   UNL     1      -4.188   9.383 -30.838  1.00  0.00    -0.040 SA
BRANCH   9  11
HETATM   11  N   UNL     1      -2.977   8.147 -28.922  1.00  0.00    -0.299 N 
HETATM   12  C   UNL     1      -1.738   7.566 -29.161  1.00  0.00     0.257 C 
HETATM   13  O   UNL     1      -1.509   6.798 -30.088  1.00  0.00    -0.267 OA
HETATM   14  H   UNL     1      -3.109   8.619 -28.038  1.00  0.00     0.171 HD
BRANCH  12  15
HETATM   15  C   UNL     1      -0.716   7.870 -28.120  1.00  0.00     0.032 A 
HETATM   16  C   UNL     1       0.554   8.294 -28.515  1.00  0.00     0.020 A 
HETATM   17  C   UNL     1       1.560   8.457 -27.555  1.00  0.00     0.038 A 
HETATM   18  C   UNL     1       1.306   8.194 -26.205  1.00  0.00     0.068 A 
HETATM   19  C   UNL     1       0.017   7.845 -25.804  1.00  0.00     0.038 A 
HETATM   20  C   UNL     1      -0.994   7.686 -26.757  1.00  0.00     0.020 A 
BRANCH  18  21
HETATM   21  O   UNL     1       2.381   8.322 -25.369  1.00  0.00    -0.352 OA
BRANCH  21  22
HETATM   22  C   UNL     1       2.474   9.558 -24.657  1.00  0.00     0.171 C 
HETATM   23  C   UNL     1       2.565   9.251 -23.174  1.00  0.00     0.034 C 
ENDBRANCH  21  22
ENDBRANCH  18  21
ENDBRANCH  12  15
ENDBRANCH   9  11
ENDBRANCH   7   9
ENDBRANCH   1   7
BRANCH   4  24
HETATM   24  N   UNL     1      -5.542   1.884 -31.184  1.00  0.00    -0.378 N 
HETATM   25  C   UNL     1      -5.363   0.671 -30.382  1.00  0.00     0.150 C 
HETATM   26  C   UNL     1      -4.495  -0.336 -31.177  1.00  0.00     0.255 C 
HETATM   27  N   UNL     1      -5.031  -0.562 -32.597  1.00  0.00    -0.064 N 
HETATM   28  H   UNL     1      -5.945  -1.027 -32.513  1.00  0.00     0.280 HD
HETATM   29  C   UNL     1      -5.276   0.756 -33.334  1.00  0.00     0.255 C 
HETATM   30  C   UNL     1      -6.171   1.680 -32.496  1.00  0.00     0.150 C 
BRANCH  27  31
HETATM   31  C   UNL     1      -4.146  -1.473 -33.412  1.00  0.00     0.276 C 
BRANCH  31  32
HETATM   32  C   UNL     1      -4.876  -2.622 -34.036  1.00  0.00     0.006 A 
HETATM   33  C   UNL     1      -4.330  -3.907 -33.959  1.00  0.00     0.124 A 
HETATM   34  F   UNL     1      -3.135  -4.066 -33.370  1.00  0.00    -0.206 F 
HETATM   35  C   UNL     1      -4.981  -5.009 -34.497  1.00  0.00     0.043 A 
HETATM   36  C   UNL     1      -6.206  -4.831 -35.134  1.00  0.00     0.003 A 
HETATM   37  C   UNL     1      -6.766  -3.556 -35.227  1.00  0.00     0.001 A 
HETATM   38  C   UNL     1      -6.109  -2.454 -34.679  1.00  0.00     0.012 A 
ENDBRANCH  31  32
ENDBRANCH  27  31
ENDBRANCH   4  24
TORSDOF 9
ENDMDL
MODEL 8
REMARK VINA RESULT:      -8.2      3.450      4.898
REMARK  9 active torsions:
REMARK  status: ('A' for Active; 'I' for Inactive)
REMARK    1  A    between atoms: C_2  and  O_3 
REMARK    2  A    between atoms: O_3  and  C_4 
REMARK    3  A    between atoms: C_7  and  C_8 
REMARK       I    between atoms: C_8  and  N_9 
REMARK    4  A    between atoms: N_9  and  C_10 
REMARK    5  A    between atoms: C_10  and  N_11 
REMARK    6  A    between atoms: N_11  and  C_12 
REMARK    7  A    between atoms: C_15  and  N_16 
REMARK    8  A    between atoms: N_19  and  C_21 
REMARK    9  A    between atoms: C_21  and  C_22 
ROOT
HETATM    1  C   UNL     1      -2.067   5.989 -31.668  1.00  0.00     0.034 A 
HETATM    2  C   UNL     1      -3.283   6.358 -31.107  1.00  0.00     0.032 A 
HETATM    3  C   UNL     1      -4.444   5.630 -31.381  1.00  0.00     0.031 A 
HETATM    4  C   UNL     1      -4.441   4.514 -32.229  1.00  0.00     0.030 A 
HETATM    5  C   UNL     1      -3.228   4.219 -32.865  1.00  0.00     0.031 A 
HETATM    6  C   UNL     1      -2.057   4.953 -32.600  1.00  0.00     0.032 A 
ENDROOT
BRANCH   1   7
HETATM    7  N   UNL     1      -0.854   6.635 -31.353  1.00  0.00    -0.333 N 
HETATM    8  H   UNL     1      -0.596   7.430 -31.940  1.00  0.00     0.168 HD
BRANCH   7   9
HETATM    9  C   UNL     1       0.162   6.202 -30.531  1.00  0.00     0.179 C 
HETATM   10  S   UNL     1       1.159   4.864 -30.691  1.00  0.00    -0.040 SA
BRANCH   9  11
HETATM   11  N   UNL     1       0.427   6.999 -29.437  1.00  0.00    -0.299 N 
HETATM   12  C   UNL     1      -0.346   7.282 -28.319  1.00  0.00     0.257 C 
HETATM   13  O   UNL     1      -1.524   6.965 -28.202  1.00  0.00    -0.267 OA
HETATM   14  H   UNL     1       1.327   7.454 -29.512  1.00  0.00     0.171 HD
BRANCH  12  15
HETATM   15  C   UNL     1       0.350   8.115 -27.297  1.00  0.00     0.032 A 
HETATM   16  C   UNL     1      -0.044   9.442 -27.116  1.00  0.00     0.020 A 
HETATM   17  C   UNL     1       0.685  10.270 -26.254  1.00  0.00     0.038 A 
HETATM   18  C   UNL     1       1.806   9.781 -25.576  1.00  0.00     0.068 A 
HETATM   19  C   UNL     1       2.151   8.436 -25.699  1.00  0.00     0.038 A 
HETATM   20  C   UNL     1       1.424   7.602 -26.554  1.00  0.00     0.020 A 
BRANCH  18  21
HETATM   21  O   UNL     1       2.478  10.698 -24.815  1.00  0.00    -0.352 OA
BRANCH  21  22
HETATM   22  C   UNL     1       2.808  10.285 -23.486  1.00  0.00     0.171 C 
HETATM   23  C   UNL     1       1.568  10.419 -22.622  1.00  0.00     0.034 C 
ENDBRANCH  21  22
ENDBRANCH  18  21
ENDBRANCH  12  15
ENDBRANCH   9  11
ENDBRANCH   7   9
ENDBRANCH   1   7
BRANCH   4  24
HETATM   24  N   UNL     1      -5.596   3.783 -32.421  1.00  0.00    -0.378 N 
HETATM   25  C   UNL     1      -6.591   3.552 -31.372  1.00  0.00     0.150 C 
HETATM   26  C   UNL     1      -6.986   2.053 -31.372  1.00  0.00     0.255 C 
HETATM   27  N   UNL     1      -7.382   1.563 -32.771  1.00  0.00    -0.064 N 
HETATM   28  H   UNL     1      -8.247   2.053 -33.038  1.00  0.00     0.280 HD
HETATM   29  C   UNL     1      -6.333   1.924 -33.824  1.00  0.00     0.255 C 
HETATM   30  C   UNL     1      -6.025   3.428 -33.781  1.00  0.00     0.150 C 
BRANCH  27  31
HETATM   31  C   UNL     1      -7.684   0.086 -32.803  1.00  0.00     0.276 C 
BRANCH  31  32
HETATM   32  C   UNL     1      -6.475  -0.772 -33.021  1.00  0.00     0.006 A 
HETATM   33  C   UNL     1      -6.374  -1.532 -34.190  1.00  0.00     0.124 A 
HETATM   34  F   UNL     1      -7.393  -1.513 -35.063  1.00  0.00    -0.206 F 
HETATM   35  C   UNL     1      -5.263  -2.321 -34.452  1.00  0.00     0.043 A 
HETATM   36  C   UNL     1      -4.223  -2.362 -33.526  1.00  0.00     0.003 A 
HETATM   37  C   UNL     1      -4.307  -1.614 -32.350  1.00  0.00     0.001 A 
HETATM   38  C   UNL     1      -5.425  -0.819 -32.096  1.00  0.00     0.012 A 
ENDBRANCH  31  32
ENDBRANCH  27  31
ENDBRANCH   4  24
TORSDOF 9
ENDMDL
MODEL 9
REMARK VINA RESULT:      -8.1      4.174      5.827
REMARK  9 active torsions:
REMARK  status: ('A' for Active; 'I' for Inactive)
REMARK    1  A    between atoms: C_2  and  O_3 
REMARK    2  A    between atoms: O_3  and  C_4 
REMARK    3  A    between atoms: C_7  and  C_8 
REMARK       I    between atoms: C_8  and  N_9 
REMARK    4  A    between atoms: N_9  and  C_10 
REMARK    5  A    between atoms: C_10  and  N_11 
REMARK    6  A    between atoms: N_11  and  C_12 
REMARK    7  A    between atoms: C_15  and  N_16 
REMARK    8  A    between atoms: N_19  and  C_21 
REMARK    9  A    between atoms: C_21  and  C_22 
ROOT
HETATM    1  C   UNL     1      -7.119   5.378 -28.989  1.00  0.00     0.034 A 
HETATM    2  C   UNL     1      -8.282   4.774 -29.450  1.00  0.00     0.032 A 
HETATM    3  C   UNL     1      -8.228   3.562 -30.144  1.00  0.00     0.031 A 
HETATM    4  C   UNL     1      -7.017   2.910 -30.413  1.00  0.00     0.030 A 
HETATM    5  C   UNL     1      -5.849   3.584 -30.030  1.00  0.00     0.031 A 
HETATM    6  C   UNL     1      -5.896   4.809 -29.338  1.00  0.00     0.032 A 
ENDROOT
BRANCH   1   7
HETATM    7  N   UNL     1      -7.127   6.552 -28.208  1.00  0.00    -0.333 N 
HETATM    8  H   UNL     1      -7.716   6.538 -27.373  1.00  0.00     0.168 HD
BRANCH   7   9
HETATM    9  C   UNL     1      -6.658   7.804 -28.533  1.00  0.00     0.179 C 
HETATM   10  S   UNL     1      -7.334   8.962 -29.541  1.00  0.00    -0.040 SA
BRANCH   9  11
HETATM   11  N   UNL     1      -5.484   8.182 -27.917  1.00  0.00    -0.299 N 
HETATM   12  C   UNL     1      -4.734   7.545 -26.937  1.00  0.00     0.257 C 
HETATM   13  O   UNL     1      -5.112   6.555 -26.321  1.00  0.00    -0.267 OA
HETATM   14  H   UNL     1      -5.164   9.086 -28.237  1.00  0.00     0.171 HD
BRANCH  12  15
HETATM   15  C   UNL     1      -3.455   8.236 -26.608  1.00  0.00     0.032 A 
HETATM   16  C   UNL     1      -2.670   8.746 -27.644  1.00  0.00     0.020 A 
HETATM   17  C   UNL     1      -1.408   9.280 -27.359  1.00  0.00     0.038 A 
HETATM   18  C   UNL     1      -0.925   9.304 -26.047  1.00  0.00     0.068 A 
HETATM   19  C   UNL     1      -1.741   8.865 -25.006  1.00  0.00     0.038 A 
HETATM   20  C   UNL     1      -3.005   8.335 -25.283  1.00  0.00     0.020 A 
BRANCH  18  21
HETATM   21  O   UNL     1       0.346   9.787 -25.898  1.00  0.00    -0.352 OA
BRANCH  21  22
HETATM   22  C   UNL     1       1.320   9.273 -26.810  1.00  0.00     0.171 C 
HETATM   23  C   UNL     1       1.875   7.981 -26.240  1.00  0.00     0.034 C 
ENDBRANCH  21  22
ENDBRANCH  18  21
ENDBRANCH  12  15
ENDBRANCH   9  11
ENDBRANCH   7   9
ENDBRANCH   1   7
BRANCH   4  24
HETATM   24  N   UNL     1      -7.012   1.682 -31.043  1.00  0.00    -0.378 N 
HETATM   25  C   UNL     1      -5.975   0.671 -30.834  1.00  0.00     0.150 C 
HETATM   26  C   UNL     1      -5.527   0.114 -32.209  1.00  0.00     0.255 C 
HETATM   27  N   UNL     1      -6.719  -0.336 -33.063  1.00  0.00    -0.064 N 
HETATM   28  H   UNL     1      -7.151  -1.143 -32.592  1.00  0.00     0.280 HD
HETATM   29  C   UNL     1      -7.799   0.744 -33.157  1.00  0.00     0.255 C 
HETATM   30  C   UNL     1      -8.210   1.214 -31.754  1.00  0.00     0.150 C 
BRANCH  27  31
HETATM   31  C   UNL     1      -6.305  -0.797 -34.438  1.00  0.00     0.276 C 
BRANCH  31  32
HETATM   32  C   UNL     1      -5.916  -2.243 -34.497  1.00  0.00     0.006 A 
HETATM   33  C   UNL     1      -4.586  -2.606 -34.271  1.00  0.00     0.124 A 
HETATM   34  F   UNL     1      -3.679  -1.641 -34.059  1.00  0.00    -0.206 F 
HETATM   35  C   UNL     1      -4.180  -3.934 -34.287  1.00  0.00     0.043 A 
HETATM   36  C   UNL     1      -5.120  -4.930 -34.540  1.00  0.00     0.003 A 
HETATM   37  C   UNL     1      -6.454  -4.588 -34.773  1.00  0.00     0.001 A 
HETATM   38  C   UNL     1      -6.855  -3.251 -34.750  1.00  0.00     0.012 A 
ENDBRANCH  31  32
ENDBRANCH  27  31
ENDBRANCH   4  24
TORSDOF 9
ENDMDL
MODEL 10
REMARK VINA RESULT:      -8.1      5.172      7.307
REMARK  9 active torsions:
REMARK  status: ('A' for Active; 'I' for Inactive)
REMARK    1  A    between atoms: C_2  and  O_3 
REMARK    2  A    between atoms: O_3  and  C_4 
REMARK    3  A    between atoms: C_7  and  C_8 
REMARK       I    between atoms: C_8  and  N_9 
REMARK    4  A    between atoms: N_9  and  C_10 
REMARK    5  A    between atoms: C_10  and  N_11 
REMARK    6  A    between atoms: N_11  and  C_12 
REMARK    7  A    between atoms: C_15  and  N_16 
REMARK    8  A    between atoms: N_19  and  C_21 
REMARK    9  A    between atoms: C_21  and  C_22 
ROOT
HETATM    1  C   UNL     1      -9.432   5.305 -30.243  1.00  0.00     0.034 A 
HETATM    2  C   UNL     1      -8.425   4.568 -29.633  1.00  0.00     0.032 A 
HETATM    3  C   UNL     1      -8.081   3.301 -30.111  1.00  0.00     0.031 A 
HETATM    4  C   UNL     1      -8.728   2.716 -31.207  1.00  0.00     0.030 A 
HETATM    5  C   UNL     1      -9.808   3.430 -31.745  1.00  0.00     0.031 A 
HETATM    6  C   UNL     1     -10.165   4.703 -31.263  1.00  0.00     0.032 A 
ENDROOT
BRANCH   1   7
HETATM    7  N   UNL     1      -9.755   6.622 -29.856  1.00  0.00    -0.333 N 
HETATM    8  H   UNL     1     -10.703   6.773 -29.505  1.00  0.00     0.168 HD
BRANCH   7   9
HETATM    9  C   UNL     1      -9.069   7.787 -30.115  1.00  0.00     0.179 C 
HETATM   10  S   UNL     1      -9.562   9.376 -29.914  1.00  0.00    -0.040 SA
BRANCH   9  11
HETATM   11  N   UNL     1      -7.777   7.631 -30.571  1.00  0.00    -0.299 N 
HETATM   12  C   UNL     1      -6.569   7.655 -29.885  1.00  0.00     0.257 C 
HETATM   13  O   UNL     1      -6.454   7.994 -28.713  1.00  0.00    -0.267 OA
HETATM   14  H   UNL     1      -7.742   7.510 -31.574  1.00  0.00     0.171 HD
BRANCH  12  15
HETATM   15  C   UNL     1      -5.385   7.335 -30.733  1.00  0.00     0.032 A 
HETATM   16  C   UNL     1      -5.229   6.038 -31.223  1.00  0.00     0.020 A 
HETATM   17  C   UNL     1      -4.058   5.693 -31.909  1.00  0.00     0.038 A 
HETATM   18  C   UNL     1      -3.043   6.634 -32.104  1.00  0.00     0.068 A 
HETATM   19  C   UNL     1      -3.235   7.949 -31.681  1.00  0.00     0.038 A 
HETATM   20  C   UNL     1      -4.403   8.301 -31.000  1.00  0.00     0.020 A 
BRANCH  18  21
HETATM   21  O   UNL     1      -1.919   6.166 -32.727  1.00  0.00    -0.352 OA
BRANCH  21  22
HETATM   22  C   UNL     1      -1.792   6.491 -34.113  1.00  0.00     0.171 C 
HETATM   23  C   UNL     1      -1.642   5.200 -34.896  1.00  0.00     0.034 C 
ENDBRANCH  21  22
ENDBRANCH  18  21
ENDBRANCH  12  15
ENDBRANCH   9  11
ENDBRANCH   7   9
ENDBRANCH   1   7
BRANCH   4  24
HETATM   24  N   UNL     1      -8.314   1.491 -31.689  1.00  0.00    -0.378 N 
HETATM   25  C   UNL     1      -7.081   0.828 -31.258  1.00  0.00     0.150 C 
HETATM   26  C   UNL     1      -6.324   0.309 -32.507  1.00  0.00     0.255 C 
HETATM   27  N   UNL     1      -7.230  -0.523 -33.424  1.00  0.00    -0.064 N 
HETATM   28  H   UNL     1      -7.489  -1.377 -32.911  1.00  0.00     0.280 HD
HETATM   29  C   UNL     1      -8.535   0.203 -33.753  1.00  0.00     0.255 C 
HETATM   30  C   UNL     1      -9.239   0.652 -32.463  1.00  0.00     0.150 C 
BRANCH  27  31
HETATM   31  C   UNL     1      -6.530  -0.961 -34.686  1.00  0.00     0.276 C 
BRANCH  31  32
HETATM   32  C   UNL     1      -5.979  -2.352 -34.618  1.00  0.00     0.006 A 
HETATM   33  C   UNL     1      -4.660  -2.550 -34.198  1.00  0.00     0.124 A 
HETATM   34  F   UNL     1      -3.905  -1.477 -33.917  1.00  0.00    -0.206 F 
HETATM   35  C   UNL     1      -4.112  -3.820 -34.092  1.00  0.00     0.043 A 
HETATM   36  C   UNL     1      -4.891  -4.927 -34.416  1.00  0.00     0.003 A 
HETATM   37  C   UNL     1      -6.209  -4.752 -34.842  1.00  0.00     0.001 A 
HETATM   38  C   UNL     1      -6.755  -3.472 -34.942  1.00  0.00     0.012 A 
ENDBRANCH  31  32
ENDBRANCH  27  31
ENDBRANCH   4  24
TORSDOF 9
ENDMDL
