MODEL 1
REMARK VINA RESULT:      -8.4      0.000      0.000
REMARK  7 active torsions:
REMARK  status: ('A' for Active; 'I' for Inactive)
REMARK    1  A    between atoms: C_4  and  C_5 
REMARK    2  A    between atoms: C_5  and  N_6 
REMARK       I    between atoms: N_6  and  C_7 
REMARK    3  A    between atoms: N_6  and  C_22 
REMARK    4  A    between atoms: C_7  and  C_8 
REMARK    5  A    between atoms: C_13  and  C_14 
REMARK    6  A    between atoms: C_15  and  O_16 
REMARK    7  A    between atoms: C_22  and  C_23 
ROOT
HETATM    1  N   UNL     1      -6.678   0.927 -32.986  1.00  0.00    -0.343 N 
HETATM    2  C   UNL     1      -7.746   1.110 -32.116  1.00  0.00     0.235 C 
HETATM    3  O   UNL     1      -7.827   0.476 -31.055  1.00  0.00    -0.272 OA
ENDROOT
BRANCH   2   4
HETATM    4  C   UNL     1      -8.831   2.107 -32.443  1.00  0.00     0.195 C 
HETATM    5  C   UNL     1     -10.087   1.461 -32.947  1.00  0.00     0.247 C 
HETATM    6  O   UNL     1     -10.194   0.479 -33.663  1.00  0.00    -0.271 OA
HETATM    7  N   UNL     1     -11.148   2.206 -32.459  1.00  0.00    -0.290 N 
HETATM    8  N   UNL     1     -10.761   3.156 -31.509  1.00  0.00    -0.228 NA
HETATM    9  H   UNL     1     -12.109   1.938 -32.648  1.00  0.00     0.183 HD
HETATM   10  C   UNL     1      -9.368   2.770 -31.162  1.00  0.00     0.134 C 
HETATM   11  H   UNL     1     -11.339   3.076 -30.667  1.00  0.00     0.147 HD
BRANCH  10  12
HETATM   12  C   UNL     1      -8.495   3.922 -30.710  1.00  0.00    -0.004 A 
HETATM   13  C   UNL     1      -7.481   3.763 -29.753  1.00  0.00     0.073 A 
HETATM   14  C   UNL     1      -6.676   4.840 -29.375  1.00  0.00     0.037 A 
HETATM   15  C   UNL     1      -6.857   6.094 -29.953  1.00  0.00     0.003 A 
HETATM   16  C   UNL     1      -7.846   6.273 -30.913  1.00  0.00     0.001 A 
HETATM   17  C   UNL     1      -8.652   5.197 -31.290  1.00  0.00     0.012 A 
BRANCH  13  18
HETATM   18  O   UNL     1      -7.193   2.586 -29.118  1.00  0.00    -0.360 OA
HETATM   19  H   UNL     1      -6.589   2.012 -29.626  1.00  0.00     0.217 HD
ENDBRANCH  13  18
ENDBRANCH  10  12
ENDBRANCH   2   4
BRANCH   1  20
HETATM   20  C   UNL     1      -5.672  -0.073 -32.610  1.00  0.00     0.164 C 
BRANCH  20  21
HETATM   21  C   UNL     1      -5.672  -1.283 -33.513  1.00  0.00    -0.040 A 
HETATM   22  C   UNL     1      -4.468  -1.922 -33.846  1.00  0.00     0.009 A 
HETATM   23  C   UNL     1      -4.472  -3.077 -34.630  1.00  0.00     0.001 A 
HETATM   24  C   UNL     1      -5.678  -3.607 -35.088  1.00  0.00     0.000 A 
HETATM   25  C   UNL     1      -6.880  -2.986 -34.760  1.00  0.00     0.001 A 
HETATM   26  C   UNL     1      -6.878  -1.836 -33.968  1.00  0.00     0.009 A 
ENDBRANCH  20  21
ENDBRANCH   1  20
BRANCH   1  27
HETATM   27  C   UNL     1      -6.247   1.921 -33.977  1.00  0.00     0.164 C 
BRANCH  27  28
HETATM   28  C   UNL     1      -5.586   3.173 -33.457  1.00  0.00    -0.040 A 
HETATM   29  C   UNL     1      -5.964   4.422 -33.983  1.00  0.00     0.009 A 
HETATM   30  C   UNL     1      -5.390   5.603 -33.510  1.00  0.00     0.001 A 
HETATM   31  C   UNL     1      -4.441   5.554 -32.493  1.00  0.00     0.000 A 
HETATM   32  C   UNL     1      -4.075   4.327 -31.944  1.00  0.00     0.001 A 
HETATM   33  C   UNL     1      -4.651   3.146 -32.416  1.00  0.00     0.009 A 
ENDBRANCH  27  28
ENDBRANCH   1  27
TORSDOF 7
ENDMDL
MODEL 2
REMARK VINA RESULT:      -8.3      2.632      4.277
REMARK  7 active torsions:
REMARK  status: ('A' for Active; 'I' for Inactive)
REMARK    1  A    between atoms: C_4  and  C_5 
REMARK    2  A    between atoms: C_5  and  N_6 
REMARK       I    between atoms: N_6  and  C_7 
REMARK    3  A    between atoms: N_6  and  C_22 
REMARK    4  A    between atoms: C_7  and  C_8 
REMARK    5  A    between atoms: C_13  and  C_14 
REMARK    6  A    between atoms: C_15  and  O_16 
REMARK    7  A    between atoms: C_22  and  C_23 
ROOT
HETATM    1  N   UNL     1      -5.084  -0.213 -33.359  1.00  0.00    -0.343 N 
HETATM    2  C   UNL     1      -4.747   0.302 -32.112  1.00  0.00     0.235 C 
HETATM    3  O   UNL     1      -3.703  -0.039 -31.537  1.00  0.00    -0.272 OA
ENDROOT
BRANCH   2   4
HETATM    4  C   UNL     1      -5.645   1.308 -31.436  1.00  0.00     0.195 C 
HETATM    5  C   UNL     1      -6.316   0.763 -30.211  1.00  0.00     0.247 C 
HETATM    6  O   UNL     1      -6.738  -0.366 -30.022  1.00  0.00    -0.271 OA
HETATM    7  N   UNL     1      -6.395   1.803 -29.298  1.00  0.00    -0.290 N 
HETATM    8  N   UNL     1      -5.666   2.931 -29.686  1.00  0.00    -0.228 NA
HETATM    9  H   UNL     1      -6.790   1.660 -28.373  1.00  0.00     0.183 HD
HETATM   10  C   UNL     1      -4.818   2.443 -30.806  1.00  0.00     0.134 C 
HETATM   11  H   UNL     1      -5.052   3.239 -28.926  1.00  0.00     0.147 HD
BRANCH  10  12
HETATM   12  C   UNL     1      -4.450   3.507 -31.818  1.00  0.00    -0.004 A 
HETATM   13  C   UNL     1      -3.144   4.009 -31.935  1.00  0.00     0.073 A 
HETATM   14  C   UNL     1      -2.829   4.972 -32.896  1.00  0.00     0.037 A 
HETATM   15  C   UNL     1      -3.806   5.445 -33.768  1.00  0.00     0.003 A 
HETATM   16  C   UNL     1      -5.103   4.953 -33.681  1.00  0.00     0.001 A 
HETATM   17  C   UNL     1      -5.419   3.991 -32.720  1.00  0.00     0.012 A 
BRANCH  13  18
HETATM   18  O   UNL     1      -2.092   3.623 -31.150  1.00  0.00    -0.360 OA
HETATM   19  H   UNL     1      -2.152   3.956 -30.234  1.00  0.00     0.217 HD
ENDBRANCH  13  18
ENDBRANCH  10  12
ENDBRANCH   2   4
BRANCH   1  20
HETATM   20  C   UNL     1      -4.171  -1.201 -33.945  1.00  0.00     0.164 C 
BRANCH  20  21
HETATM   21  C   UNL     1      -4.827  -2.534 -34.206  1.00  0.00    -0.040 A 
HETATM   22  C   UNL     1      -6.118  -2.598 -34.752  1.00  0.00     0.009 A 
HETATM   23  C   UNL     1      -6.702  -3.830 -35.052  1.00  0.00     0.001 A 
HETATM   24  C   UNL     1      -6.002  -5.012 -34.811  1.00  0.00     0.000 A 
HETATM   25  C   UNL     1      -4.718  -4.963 -34.275  1.00  0.00     0.001 A 
HETATM   26  C   UNL     1      -4.130  -3.731 -33.983  1.00  0.00     0.009 A 
ENDBRANCH  20  21
ENDBRANCH   1  20
BRANCH   1  27
HETATM   27  C   UNL     1      -5.994   0.450 -34.302  1.00  0.00     0.164 C 
BRANCH  27  28
HETATM   28  C   UNL     1      -7.422   0.649 -33.860  1.00  0.00    -0.040 A 
HETATM   29  C   UNL     1      -8.056   1.879 -34.110  1.00  0.00     0.009 A 
HETATM   30  C   UNL     1      -9.384   2.091 -33.735  1.00  0.00     0.001 A 
HETATM   31  C   UNL     1     -10.101   1.071 -33.117  1.00  0.00     0.000 A 
HETATM   32  C   UNL     1      -9.495  -0.162 -32.886  1.00  0.00     0.001 A 
HETATM   33  C   UNL     1      -8.167  -0.375 -33.264  1.00  0.00     0.009 A 
ENDBRANCH  27  28
ENDBRANCH   1  27
TORSDOF 7
ENDMDL
MODEL 3
REMARK VINA RESULT:      -8.2      2.389      4.323
REMARK  7 active torsions:
REMARK  status: ('A' for Active; 'I' for Inactive)
REMARK    1  A    between atoms: C_4  and  C_5 
REMARK    2  A    between atoms: C_5  and  N_6 
REMARK       I    between atoms: N_6  and  C_7 
REMARK    3  A    between atoms: N_6  and  C_22 
REMARK    4  A    between atoms: C_7  and  C_8 
REMARK    5  A    between atoms: C_13  and  C_14 
REMARK    6  A    between atoms: C_15  and  O_16 
REMARK    7  A    between atoms: C_22  and  C_23 
ROOT
HETATM    1  N   UNL     1      -7.255   0.001 -33.177  1.00  0.00    -0.343 N 
HETATM    2  C   UNL     1      -6.538   1.040 -32.595  1.00  0.00     0.235 C 
HETATM    3  O   UNL     1      -5.583   1.570 -33.181  1.00  0.00    -0.272 OA
ENDROOT
BRANCH   2   4
HETATM    4  C   UNL     1      -6.922   1.559 -31.231  1.00  0.00     0.195 C 
HETATM    5  C   UNL     1      -5.882   1.285 -30.186  1.00  0.00     0.247 C 
HETATM    6  O   UNL     1      -5.169   0.302 -30.072  1.00  0.00    -0.271 OA
HETATM    7  N   UNL     1      -5.877   2.372 -29.327  1.00  0.00    -0.290 N 
HETATM    8  N   UNL     1      -6.646   3.444 -29.792  1.00  0.00    -0.228 NA
HETATM    9  H   UNL     1      -5.225   2.425 -28.550  1.00  0.00     0.183 HD
HETATM   10  C   UNL     1      -6.921   3.098 -31.212  1.00  0.00     0.134 C 
HETATM   11  H   UNL     1      -6.101   4.311 -29.770  1.00  0.00     0.147 HD
BRANCH  10  12
HETATM   12  C   UNL     1      -8.212   3.674 -31.755  1.00  0.00    -0.004 A 
HETATM   13  C   UNL     1      -9.466   3.336 -31.220  1.00  0.00     0.073 A 
HETATM   14  C   UNL     1     -10.637   3.903 -31.725  1.00  0.00     0.037 A 
HETATM   15  C   UNL     1     -10.583   4.828 -32.765  1.00  0.00     0.003 A 
HETATM   16  C   UNL     1      -9.353   5.188 -33.302  1.00  0.00     0.001 A 
HETATM   17  C   UNL     1      -8.181   4.621 -32.798  1.00  0.00     0.012 A 
BRANCH  13  18
HETATM   18  O   UNL     1      -9.657   2.452 -30.193  1.00  0.00    -0.360 OA
HETATM   19  H   UNL     1     -10.597   2.340 -29.952  1.00  0.00     0.217 HD
ENDBRANCH  13  18
ENDBRANCH  10  12
ENDBRANCH   2   4
BRANCH   1  20
HETATM   20  C   UNL     1      -6.810  -0.462 -34.496  1.00  0.00     0.164 C 
BRANCH  20  21
HETATM   21  C   UNL     1      -6.216  -1.849 -34.469  1.00  0.00    -0.040 A 
HETATM   22  C   UNL     1      -6.981  -2.959 -34.856  1.00  0.00     0.009 A 
HETATM   23  C   UNL     1      -6.414  -4.235 -34.891  1.00  0.00     0.001 A 
HETATM   24  C   UNL     1      -5.078  -4.415 -34.540  1.00  0.00     0.000 A 
HETATM   25  C   UNL     1      -4.305  -3.321 -34.159  1.00  0.00     0.001 A 
HETATM   26  C   UNL     1      -4.868  -2.044 -34.133  1.00  0.00     0.009 A 
ENDBRANCH  20  21
ENDBRANCH   1  20
BRANCH   1  27
HETATM   27  C   UNL     1      -8.632  -0.352 -32.809  1.00  0.00     0.164 C 
BRANCH  27  28
HETATM   28  C   UNL     1      -9.744   0.421 -33.474  1.00  0.00    -0.040 A 
HETATM   29  C   UNL     1     -11.077   0.168 -33.101  1.00  0.00     0.009 A 
HETATM   30  C   UNL     1     -12.129   0.880 -33.678  1.00  0.00     0.001 A 
HETATM   31  C   UNL     1     -11.864   1.864 -34.626  1.00  0.00     0.000 A 
HETATM   32  C   UNL     1     -10.548   2.143 -34.987  1.00  0.00     0.001 A 
HETATM   33  C   UNL     1      -9.494   1.433 -34.407  1.00  0.00     0.009 A 
ENDBRANCH  27  28
ENDBRANCH   1  27
TORSDOF 7
ENDMDL
MODEL 4
REMARK VINA RESULT:      -8.2      2.496      5.374
REMARK  7 active torsions:
REMARK  status: ('A' for Active; 'I' for Inactive)
REMARK    1  A    between atoms: C_4  and  C_5 
REMARK    2  A    between atoms: C_5  and  N_6 
REMARK       I    between atoms: N_6  and  C_7 
REMARK    3  A    between atoms: N_6  and  C_22 
REMARK    4  A    between atoms: C_7  and  C_8 
REMARK    5  A    between atoms: C_13  and  C_14 
REMARK    6  A    between atoms: C_15  and  O_16 
REMARK    7  A    between atoms: C_22  and  C_23 
ROOT
HETATM    1  N   UNL     1      -9.015   1.337 -33.743  1.00  0.00    -0.343 N 
HETATM    2  C   UNL     1      -8.695   2.421 -32.935  1.00  0.00     0.235 C 
HETATM    3  O   UNL     1      -9.166   2.534 -31.794  1.00  0.00    -0.272 OA
ENDROOT
BRANCH   2   4
HETATM    4  C   UNL     1      -7.746   3.485 -33.430  1.00  0.00     0.195 C 
HETATM    5  C   UNL     1      -8.451   4.707 -33.939  1.00  0.00     0.247 C 
HETATM    6  O   UNL     1      -9.504   4.769 -34.552  1.00  0.00    -0.271 OA
HETATM    7  N   UNL     1      -7.666   5.797 -33.597  1.00  0.00    -0.290 N 
HETATM    8  N   UNL     1      -6.619   5.469 -32.731  1.00  0.00    -0.228 NA
HETATM    9  H   UNL     1      -7.960   6.744 -33.814  1.00  0.00     0.183 HD
HETATM   10  C   UNL     1      -6.956   4.100 -32.261  1.00  0.00     0.134 C 
HETATM   11  H   UNL     1      -6.614   6.097 -31.921  1.00  0.00     0.147 HD
BRANCH  10  12
HETATM   12  C   UNL     1      -5.756   3.257 -31.881  1.00  0.00    -0.004 A 
HETATM   13  C   UNL     1      -5.797   2.327 -30.830  1.00  0.00     0.073 A 
HETATM   14  C   UNL     1      -4.681   1.547 -30.520  1.00  0.00     0.037 A 
HETATM   15  C   UNL     1      -3.507   1.668 -31.259  1.00  0.00     0.003 A 
HETATM   16  C   UNL     1      -3.447   2.572 -32.313  1.00  0.00     0.001 A 
HETATM   17  C   UNL     1      -4.562   3.354 -32.623  1.00  0.00     0.012 A 
BRANCH  13  18
HETATM   18  O   UNL     1      -6.887   2.103 -30.035  1.00  0.00    -0.360 OA
HETATM   19  H   UNL     1      -7.597   2.762 -30.159  1.00  0.00     0.217 HD
ENDBRANCH  13  18
ENDBRANCH  10  12
ENDBRANCH   2   4
BRANCH   1  20
HETATM   20  C   UNL     1      -9.959   0.353 -33.200  1.00  0.00     0.164 C 
BRANCH  20  21
HETATM   21  C   UNL     1     -11.386   0.605 -33.622  1.00  0.00    -0.040 A 
HETATM   22  C   UNL     1     -11.716   1.740 -34.378  1.00  0.00     0.009 A 
HETATM   23  C   UNL     1     -13.025   1.942 -34.820  1.00  0.00     0.001 A 
HETATM   24  C   UNL     1     -14.017   1.013 -34.513  1.00  0.00     0.000 A 
HETATM   25  C   UNL     1     -13.703  -0.121 -33.768  1.00  0.00     0.001 A 
HETATM   26  C   UNL     1     -12.393  -0.329 -33.333  1.00  0.00     0.009 A 
ENDBRANCH  20  21
ENDBRANCH   1  20
BRANCH   1  27
HETATM   27  C   UNL     1      -8.182   0.870 -34.859  1.00  0.00     0.164 C 
BRANCH  27  28
HETATM   28  C   UNL     1      -7.134  -0.170 -34.550  1.00  0.00    -0.040 A 
HETATM   29  C   UNL     1      -5.943   0.220 -33.910  1.00  0.00     0.009 A 
HETATM   30  C   UNL     1      -4.962  -0.719 -33.589  1.00  0.00     0.001 A 
HETATM   31  C   UNL     1      -5.162  -2.063 -33.889  1.00  0.00     0.000 A 
HETATM   32  C   UNL     1      -6.347  -2.468 -34.499  1.00  0.00     0.001 A 
HETATM   33  C   UNL     1      -7.331  -1.529 -34.818  1.00  0.00     0.009 A 
ENDBRANCH  27  28
ENDBRANCH   1  27
TORSDOF 7
ENDMDL
MODEL 5
REMARK VINA RESULT:      -8.0      2.167      6.010
REMARK  7 active torsions:
REMARK  status: ('A' for Active; 'I' for Inactive)
REMARK    1  A    between atoms: C_4  and  C_5 
REMARK    2  A    between atoms: C_5  and  N_6 
REMARK       I    between atoms: N_6  and  C_7 
REMARK    3  A    between atoms: N_6  and  C_22 
REMARK    4  A    between atoms: C_7  and  C_8 
REMARK    5  A    between atoms: C_13  and  C_14 
REMARK    6  A    between atoms: C_15  and  O_16 
REMARK    7  A    between atoms: C_22  and  C_23 
ROOT
HETATM    1  N   UNL     1      -6.016   4.186 -32.984  1.00  0.00    -0.343 N 
HETATM    2  C   UNL     1      -7.204   4.796 -32.595  1.00  0.00     0.235 C 
HETATM    3  O   UNL     1      -7.742   5.662 -33.299  1.00  0.00    -0.272 OA
ENDROOT
BRANCH   2   4
HETATM    4  C   UNL     1      -7.876   4.399 -31.304  1.00  0.00     0.195 C 
HETATM    5  C   UNL     1      -7.973   5.529 -30.324  1.00  0.00     0.247 C 
HETATM    6  O   UNL     1      -7.165   6.419 -30.116  1.00  0.00    -0.271 OA
HETATM    7  N   UNL     1      -9.177   5.378 -29.653  1.00  0.00    -0.290 N 
HETATM    8  N   UNL     1      -9.999   4.397 -30.215  1.00  0.00    -0.228 NA
HETATM    9  H   UNL     1      -9.476   6.052 -28.954  1.00  0.00     0.183 HD
HETATM   10  C   UNL     1      -9.371   4.112 -31.532  1.00  0.00     0.134 C 
HETATM   11  H   UNL     1     -10.940   4.769 -30.379  1.00  0.00     0.147 HD
BRANCH  10  12
HETATM   12  C   UNL     1      -9.608   2.707 -32.045  1.00  0.00    -0.004 A 
HETATM   13  C   UNL     1     -10.367   2.449 -33.197  1.00  0.00     0.073 A 
HETATM   14  C   UNL     1     -10.547   1.144 -33.660  1.00  0.00     0.037 A 
HETATM   15  C   UNL     1      -9.964   0.070 -32.991  1.00  0.00     0.003 A 
HETATM   16  C   UNL     1      -9.197   0.302 -31.855  1.00  0.00     0.001 A 
HETATM   17  C   UNL     1      -9.017   1.607 -31.391  1.00  0.00     0.012 A 
BRANCH  13  18
HETATM   18  O   UNL     1     -10.983   3.410 -33.951  1.00  0.00    -0.360 OA
HETATM   19  H   UNL     1     -11.760   3.078 -34.439  1.00  0.00     0.217 HD
ENDBRANCH  13  18
ENDBRANCH  10  12
ENDBRANCH   2   4
BRANCH   1  20
HETATM   20  C   UNL     1      -5.412   4.638 -34.242  1.00  0.00     0.164 C 
BRANCH  20  21
HETATM   21  C   UNL     1      -4.092   5.344 -34.048  1.00  0.00    -0.040 A 
HETATM   22  C   UNL     1      -3.902   6.212 -32.963  1.00  0.00     0.009 A 
HETATM   23  C   UNL     1      -2.663   6.817 -32.747  1.00  0.00     0.001 A 
HETATM   24  C   UNL     1      -1.600   6.560 -33.611  1.00  0.00     0.000 A 
HETATM   25  C   UNL     1      -1.773   5.696 -34.689  1.00  0.00     0.001 A 
HETATM   26  C   UNL     1      -3.009   5.083 -34.900  1.00  0.00     0.009 A 
ENDBRANCH  20  21
ENDBRANCH   1  20
BRANCH   1  27
HETATM   27  C   UNL     1      -5.571   2.873 -32.500  1.00  0.00     0.164 C 
BRANCH  27  28
HETATM   28  C   UNL     1      -5.973   1.667 -33.311  1.00  0.00    -0.040 A 
HETATM   29  C   UNL     1      -5.589   0.385 -32.877  1.00  0.00     0.009 A 
HETATM   30  C   UNL     1      -5.962  -0.756 -33.589  1.00  0.00     0.001 A 
HETATM   31  C   UNL     1      -6.736  -0.633 -34.739  1.00  0.00     0.000 A 
HETATM   32  C   UNL     1      -7.146   0.628 -35.168  1.00  0.00     0.001 A 
HETATM   33  C   UNL     1      -6.775   1.769 -34.453  1.00  0.00     0.009 A 
ENDBRANCH  27  28
ENDBRANCH   1  27
TORSDOF 7
ENDMDL
MODEL 6
REMARK VINA RESULT:      -7.8      2.802      6.474
REMARK  7 active torsions:
REMARK  status: ('A' for Active; 'I' for Inactive)
REMARK    1  A    between atoms: C_4  and  C_5 
REMARK    2  A    between atoms: C_5  and  N_6 
REMARK       I    between atoms: N_6  and  C_7 
REMARK    3  A    between atoms: N_6  and  C_22 
REMARK    4  A    between atoms: C_7  and  C_8 
REMARK    5  A    between atoms: C_13  and  C_14 
REMARK    6  A    between atoms: C_15  and  O_16 
REMARK    7  A    between atoms: C_22  and  C_23 
ROOT
HETATM    1  N   UNL     1      -3.986   3.959 -32.674  1.00  0.00    -0.343 N 
HETATM    2  C   UNL     1      -5.090   4.290 -33.450  1.00  0.00     0.235 C 
HETATM    3  O   UNL     1      -4.969   4.597 -34.644  1.00  0.00    -0.272 OA
ENDROOT
BRANCH   2   4
HETATM    4  C   UNL     1      -6.475   4.267 -32.850  1.00  0.00     0.195 C 
HETATM    5  C   UNL     1      -7.037   5.638 -32.621  1.00  0.00     0.247 C 
HETATM    6  O   UNL     1      -6.446   6.645 -32.267  1.00  0.00    -0.271 OA
HETATM    7  N   UNL     1      -8.397   5.563 -32.873  1.00  0.00    -0.290 N 
HETATM    8  N   UNL     1      -8.783   4.350 -33.451  1.00  0.00    -0.228 NA
HETATM    9  H   UNL     1      -8.989   6.387 -32.811  1.00  0.00     0.183 HD
HETATM   10  C   UNL     1      -7.499   3.724 -33.862  1.00  0.00     0.134 C 
HETATM   11  H   UNL     1      -9.346   4.517 -34.291  1.00  0.00     0.147 HD
BRANCH  10  12
HETATM   12  C   UNL     1      -7.525   2.210 -33.888  1.00  0.00    -0.004 A 
HETATM   13  C   UNL     1      -8.288   1.458 -32.981  1.00  0.00     0.073 A 
HETATM   14  C   UNL     1      -8.311   0.063 -33.046  1.00  0.00     0.037 A 
HETATM   15  C   UNL     1      -7.584  -0.610 -34.024  1.00  0.00     0.003 A 
HETATM   16  C   UNL     1      -6.831   0.113 -34.942  1.00  0.00     0.001 A 
HETATM   17  C   UNL     1      -6.806   1.508 -34.877  1.00  0.00     0.012 A 
BRANCH  13  18
HETATM   18  O   UNL     1      -9.053   1.994 -31.981  1.00  0.00    -0.360 OA
HETATM   19  H   UNL     1      -8.527   2.316 -31.224  1.00  0.00     0.217 HD
ENDBRANCH  13  18
ENDBRANCH  10  12
ENDBRANCH   2   4
BRANCH   1  20
HETATM   20  C   UNL     1      -2.670   4.023 -33.321  1.00  0.00     0.164 C 
BRANCH  20  21
HETATM   21  C   UNL     1      -1.794   5.126 -32.778  1.00  0.00    -0.040 A 
HETATM   22  C   UNL     1      -1.902   6.432 -33.278  1.00  0.00     0.009 A 
HETATM   23  C   UNL     1      -1.137   7.465 -32.734  1.00  0.00     0.001 A 
HETATM   24  C   UNL     1      -0.257   7.205 -31.685  1.00  0.00     0.000 A 
HETATM   25  C   UNL     1      -0.144   5.915 -31.175  1.00  0.00     0.001 A 
HETATM   26  C   UNL     1      -0.916   4.883 -31.711  1.00  0.00     0.009 A 
ENDBRANCH  20  21
ENDBRANCH   1  20
BRANCH   1  27
HETATM   27  C   UNL     1      -4.054   3.149 -31.451  1.00  0.00     0.164 C 
BRANCH  27  28
HETATM   28  C   UNL     1      -4.288   1.669 -31.616  1.00  0.00    -0.040 A 
HETATM   29  C   UNL     1      -5.274   1.036 -30.838  1.00  0.00     0.009 A 
HETATM   30  C   UNL     1      -5.534  -0.328 -30.980  1.00  0.00     0.001 A 
HETATM   31  C   UNL     1      -4.821  -1.077 -31.912  1.00  0.00     0.000 A 
HETATM   32  C   UNL     1      -3.859  -0.459 -32.707  1.00  0.00     0.001 A 
HETATM   33  C   UNL     1      -3.601   0.906 -32.568  1.00  0.00     0.009 A 
ENDBRANCH  27  28
ENDBRANCH   1  27
TORSDOF 7
ENDMDL
MODEL 7
REMARK VINA RESULT:      -7.8      3.460      6.669
REMARK  7 active torsions:
REMARK  status: ('A' for Active; 'I' for Inactive)
REMARK    1  A    between atoms: C_4  and  C_5 
REMARK    2  A    between atoms: C_5  and  N_6 
REMARK       I    between atoms: N_6  and  C_7 
REMARK    3  A    between atoms: N_6  and  C_22 
REMARK    4  A    between atoms: C_7  and  C_8 
REMARK    5  A    between atoms: C_13  and  C_14 
REMARK    6  A    between atoms: C_15  and  O_16 
REMARK    7  A    between atoms: C_22  and  C_23 
ROOT
HETATM    1  N   UNL     1      -4.584   3.345 -31.236  1.00  0.00    -0.343 N 
HETATM    2  C   UNL     1      -4.571   4.523 -31.974  1.00  0.00     0.235 C 
HETATM    3  O   UNL     1      -5.245   5.505 -31.631  1.00  0.00    -0.272 OA
ENDROOT
BRANCH   2   4
HETATM    4  C   UNL     1      -3.715   4.635 -33.211  1.00  0.00     0.195 C 
HETATM    5  C   UNL     1      -4.515   4.626 -34.480  1.00  0.00     0.247 C 
HETATM    6  O   UNL     1      -5.526   3.989 -34.729  1.00  0.00    -0.271 OA
HETATM    7  N   UNL     1      -3.880   5.483 -35.364  1.00  0.00    -0.290 N 
HETATM    8  N   UNL     1      -2.862   6.232 -34.767  1.00  0.00    -0.228 NA
HETATM    9  H   UNL     1      -4.262   5.661 -36.288  1.00  0.00     0.183 HD
HETATM   10  C   UNL     1      -3.076   6.032 -33.309  1.00  0.00     0.134 C 
HETATM   11  H   UNL     1      -2.979   7.228 -34.978  1.00  0.00     0.147 HD
BRANCH  10  12
HETATM   12  C   UNL     1      -1.818   6.141 -32.473  1.00  0.00    -0.004 A 
HETATM   13  C   UNL     1      -1.245   7.379 -32.140  1.00  0.00     0.073 A 
HETATM   14  C   UNL     1      -0.099   7.448 -31.346  1.00  0.00     0.037 A 
HETATM   15  C   UNL     1       0.493   6.286 -30.857  1.00  0.00     0.003 A 
HETATM   16  C   UNL     1      -0.064   5.049 -31.162  1.00  0.00     0.001 A 
HETATM   17  C   UNL     1      -1.209   4.979 -31.957  1.00  0.00     0.012 A 
BRANCH  13  18
HETATM   18  O   UNL     1      -1.731   8.592 -32.545  1.00  0.00    -0.360 OA
HETATM   19  H   UNL     1      -1.712   8.711 -33.514  1.00  0.00     0.217 HD
ENDBRANCH  13  18
ENDBRANCH  10  12
ENDBRANCH   2   4
BRANCH   1  20
HETATM   20  C   UNL     1      -5.456   3.305 -30.056  1.00  0.00     0.164 C 
BRANCH  20  21
HETATM   21  C   UNL     1      -6.917   3.155 -30.402  1.00  0.00    -0.040 A 
HETATM   22  C   UNL     1      -7.373   2.022 -31.092  1.00  0.00     0.009 A 
HETATM   23  C   UNL     1      -8.733   1.853 -31.358  1.00  0.00     0.001 A 
HETATM   24  C   UNL     1      -9.652   2.813 -30.938  1.00  0.00     0.000 A 
HETATM   25  C   UNL     1      -9.214   3.940 -30.247  1.00  0.00     0.001 A 
HETATM   26  C   UNL     1      -7.856   4.106 -29.972  1.00  0.00     0.009 A 
ENDBRANCH  20  21
ENDBRANCH   1  20
BRANCH   1  27
HETATM   27  C   UNL     1      -3.511   2.344 -31.268  1.00  0.00     0.164 C 
BRANCH  27  28
HETATM   28  C   UNL     1      -3.834   1.005 -31.880  1.00  0.00    -0.040 A 
HETATM   29  C   UNL     1      -3.259  -0.159 -31.337  1.00  0.00     0.009 A 
HETATM   30  C   UNL     1      -3.553  -1.417 -31.864  1.00  0.00     0.001 A 
HETATM   31  C   UNL     1      -4.438  -1.533 -32.932  1.00  0.00     0.000 A 
HETATM   32  C   UNL     1      -5.035  -0.392 -33.465  1.00  0.00     0.001 A 
HETATM   33  C   UNL     1      -4.743   0.867 -32.936  1.00  0.00     0.009 A 
ENDBRANCH  27  28
ENDBRANCH   1  27
TORSDOF 7
ENDMDL
MODEL 8
REMARK VINA RESULT:      -7.7      3.324      4.620
REMARK  7 active torsions:
REMARK  status: ('A' for Active; 'I' for Inactive)
REMARK    1  A    between atoms: C_4  and  C_5 
REMARK    2  A    between atoms: C_5  and  N_6 
REMARK       I    between atoms: N_6  and  C_7 
REMARK    3  A    between atoms: N_6  and  C_22 
REMARK    4  A    between atoms: C_7  and  C_8 
REMARK    5  A    between atoms: C_13  and  C_14 
REMARK    6  A    between atoms: C_15  and  O_16 
REMARK    7  A    between atoms: C_22  and  C_23 
ROOT
HETATM    1  N   UNL     1      -3.734   3.382 -31.997  1.00  0.00    -0.343 N 
HETATM    2  C   UNL     1      -4.726   4.213 -31.487  1.00  0.00     0.235 C 
HETATM    3  O   UNL     1      -5.305   3.946 -30.424  1.00  0.00    -0.272 OA
ENDROOT
BRANCH   2   4
HETATM    4  C   UNL     1      -5.109   5.476 -32.217  1.00  0.00     0.195 C 
HETATM    5  C   UNL     1      -6.343   5.316 -33.055  1.00  0.00     0.247 C 
HETATM    6  O   UNL     1      -6.699   4.341 -33.695  1.00  0.00    -0.271 OA
HETATM    7  N   UNL     1      -7.032   6.517 -32.990  1.00  0.00    -0.290 N 
HETATM    8  N   UNL     1      -6.514   7.398 -32.036  1.00  0.00    -0.228 NA
HETATM    9  H   UNL     1      -7.925   6.636 -33.461  1.00  0.00     0.183 HD
HETATM   10  C   UNL     1      -5.594   6.552 -31.230  1.00  0.00     0.134 C 
HETATM   11  H   UNL     1      -7.260   7.741 -31.423  1.00  0.00     0.147 HD
BRANCH  10  12
HETATM   12  C   UNL     1      -4.441   7.308 -30.603  1.00  0.00    -0.004 A 
HETATM   13  C   UNL     1      -3.931   6.980 -29.337  1.00  0.00     0.073 A 
HETATM   14  C   UNL     1      -2.850   7.680 -28.796  1.00  0.00     0.037 A 
HETATM   15  C   UNL     1      -2.248   8.712 -29.511  1.00  0.00     0.003 A 
HETATM   16  C   UNL     1      -2.726   9.046 -30.772  1.00  0.00     0.001 A 
HETATM   17  C   UNL     1      -3.808   8.348 -31.313  1.00  0.00     0.012 A 
BRANCH  13  18
HETATM   18  O   UNL     1      -4.423   5.985 -28.537  1.00  0.00    -0.360 OA
HETATM   19  H   UNL     1      -3.822   5.219 -28.463  1.00  0.00     0.217 HD
ENDBRANCH  13  18
ENDBRANCH  10  12
ENDBRANCH   2   4
BRANCH   1  20
HETATM   20  C   UNL     1      -3.429   2.162 -31.241  1.00  0.00     0.164 C 
BRANCH  20  21
HETATM   21  C   UNL     1      -3.802   0.899 -31.978  1.00  0.00    -0.040 A 
HETATM   22  C   UNL     1      -3.099  -0.293 -31.748  1.00  0.00     0.009 A 
HETATM   23  C   UNL     1      -3.482  -1.476 -32.383  1.00  0.00     0.001 A 
HETATM   24  C   UNL     1      -4.571  -1.482 -33.252  1.00  0.00     0.000 A 
HETATM   25  C   UNL     1      -5.282  -0.307 -33.485  1.00  0.00     0.001 A 
HETATM   26  C   UNL     1      -4.906   0.874 -32.844  1.00  0.00     0.009 A 
ENDBRANCH  20  21
ENDBRANCH   1  20
BRANCH   1  27
HETATM   27  C   UNL     1      -2.696   3.824 -32.937  1.00  0.00     0.164 C 
BRANCH  27  28
HETATM   28  C   UNL     1      -1.724   4.870 -32.450  1.00  0.00    -0.040 A 
HETATM   29  C   UNL     1      -1.449   5.986 -33.261  1.00  0.00     0.009 A 
HETATM   30  C   UNL     1      -0.572   6.984 -32.833  1.00  0.00     0.001 A 
HETATM   31  C   UNL     1       0.031   6.888 -31.583  1.00  0.00     0.000 A 
HETATM   32  C   UNL     1      -0.250   5.801 -30.758  1.00  0.00     0.001 A 
HETATM   33  C   UNL     1      -1.130   4.804 -31.185  1.00  0.00     0.009 A 
ENDBRANCH  27  28
ENDBRANCH   1  27
TORSDOF 7
ENDMDL
MODEL 9
REMARK VINA RESULT:      -7.7      5.562      9.104
REMARK  7 active torsions:
REMARK  status: ('A' for Active; 'I' for Inactive)
REMARK    1  A    between atoms: C_4  and  C_5 
REMARK    2  A    between atoms: C_5  and  N_6 
REMARK       I    between atoms: N_6  and  C_7 
REMARK    3  A    between atoms: N_6  and  C_22 
REMARK    4  A    between atoms: C_7  and  C_8 
REMARK    5  A    between atoms: C_13  and  C_14 
REMARK    6  A    between atoms: C_15  and  O_16 
REMARK    7  A    between atoms: C_22  and  C_23 
ROOT
HETATM    1  N   UNL     1      -1.096   6.088 -30.239  1.00  0.00    -0.343 N 
HETATM    2  C   UNL     1      -1.177   5.552 -31.519  1.00  0.00     0.235 C 
HETATM    3  O   UNL     1      -0.336   4.742 -31.932  1.00  0.00    -0.272 OA
ENDROOT
BRANCH   2   4
HETATM    4  C   UNL     1      -2.313   5.938 -32.434  1.00  0.00     0.195 C 
HETATM    5  C   UNL     1      -1.872   6.789 -33.588  1.00  0.00     0.247 C 
HETATM    6  O   UNL     1      -1.014   7.656 -33.600  1.00  0.00    -0.271 OA
HETATM    7  N   UNL     1      -2.646   6.422 -34.677  1.00  0.00    -0.290 N 
HETATM    8  N   UNL     1      -3.412   5.276 -34.446  1.00  0.00    -0.228 NA
HETATM    9  H   UNL     1      -2.504   6.847 -35.589  1.00  0.00     0.183 HD
HETATM   10  C   UNL     1      -2.844   4.710 -33.195  1.00  0.00     0.134 C 
HETATM   11  H   UNL     1      -3.276   4.596 -35.201  1.00  0.00     0.147 HD
BRANCH  10  12
HETATM   12  C   UNL     1      -3.830   3.912 -32.367  1.00  0.00    -0.004 A 
HETATM   13  C   UNL     1      -5.163   4.318 -32.193  1.00  0.00     0.073 A 
HETATM   14  C   UNL     1      -6.055   3.548 -31.445  1.00  0.00     0.037 A 
HETATM   15  C   UNL     1      -5.642   2.350 -30.867  1.00  0.00     0.003 A 
HETATM   16  C   UNL     1      -4.331   1.920 -31.037  1.00  0.00     0.001 A 
HETATM   17  C   UNL     1      -3.437   2.691 -31.783  1.00  0.00     0.012 A 
BRANCH  13  18
HETATM   18  O   UNL     1      -5.698   5.464 -32.714  1.00  0.00    -0.360 OA
HETATM   19  H   UNL     1      -6.386   5.861 -32.147  1.00  0.00     0.217 HD
ENDBRANCH  13  18
ENDBRANCH  10  12
ENDBRANCH   2   4
BRANCH   1  20
HETATM   20  C   UNL     1       0.047   5.680 -29.414  1.00  0.00     0.164 C 
BRANCH  20  21
HETATM   21  C   UNL     1       0.472   6.737 -28.424  1.00  0.00    -0.040 A 
HETATM   22  C   UNL     1       0.322   6.522 -27.046  1.00  0.00     0.009 A 
HETATM   23  C   UNL     1       0.771   7.473 -26.127  1.00  0.00     0.001 A 
HETATM   24  C   UNL     1       1.376   8.647 -26.575  1.00  0.00     0.000 A 
HETATM   25  C   UNL     1       1.536   8.870 -27.940  1.00  0.00     0.001 A 
HETATM   26  C   UNL     1       1.096   7.916 -28.859  1.00  0.00     0.009 A 
ENDBRANCH  20  21
ENDBRANCH   1  20
BRANCH   1  27
HETATM   27  C   UNL     1      -2.241   6.645 -29.508  1.00  0.00     0.164 C 
BRANCH  27  28
HETATM   28  C   UNL     1      -2.336   8.148 -29.417  1.00  0.00    -0.040 A 
HETATM   29  C   UNL     1      -2.421   8.758 -28.152  1.00  0.00     0.009 A 
HETATM   30  C   UNL     1      -2.488  10.146 -28.028  1.00  0.00     0.001 A 
HETATM   31  C   UNL     1      -2.457  10.946 -29.167  1.00  0.00     0.000 A 
HETATM   32  C   UNL     1      -2.348  10.358 -30.425  1.00  0.00     0.001 A 
HETATM   33  C   UNL     1      -2.278   8.969 -30.548  1.00  0.00     0.009 A 
ENDBRANCH  27  28
ENDBRANCH   1  27
TORSDOF 7
ENDMDL
MODEL 10
REMARK VINA RESULT:      -7.5      1.919      5.136
REMARK  7 active torsions:
REMARK  status: ('A' for Active; 'I' for Inactive)
REMARK    1  A    between atoms: C_4  and  C_5 
REMARK    2  A    between atoms: C_5  and  N_6 
REMARK       I    between atoms: N_6  and  C_7 
REMARK    3  A    between atoms: N_6  and  C_22 
REMARK    4  A    between atoms: C_7  and  C_8 
REMARK    5  A    between atoms: C_13  and  C_14 
REMARK    6  A    between atoms: C_15  and  O_16 
REMARK    7  A    between atoms: C_22  and  C_23 
ROOT
HETATM    1  N   UNL     1      -7.392   1.279 -32.166  1.00  0.00    -0.343 N 
HETATM    2  C   UNL     1      -8.691   1.727 -31.956  1.00  0.00     0.235 C 
HETATM    3  O   UNL     1      -9.018   2.276 -30.894  1.00  0.00    -0.272 OA
ENDROOT
BRANCH   2   4
HETATM    4  C   UNL     1      -9.734   1.568 -33.034  1.00  0.00     0.195 C 
HETATM    5  C   UNL     1     -10.503   0.286 -32.920  1.00  0.00     0.247 C 
HETATM    6  O   UNL     1     -10.095  -0.809 -32.570  1.00  0.00    -0.271 OA
HETATM    7  N   UNL     1     -11.804   0.561 -33.310  1.00  0.00    -0.290 N 
HETATM    8  N   UNL     1     -12.053   1.927 -33.472  1.00  0.00    -0.228 NA
HETATM    9  H   UNL     1     -12.522  -0.158 -33.285  1.00  0.00     0.183 HD
HETATM   10  C   UNL     1     -10.876   2.583 -32.844  1.00  0.00     0.134 C 
HETATM   11  H   UNL     1     -12.892   2.202 -32.953  1.00  0.00     0.147 HD
BRANCH  10  12
HETATM   12  C   UNL     1     -10.534   3.939 -33.426  1.00  0.00    -0.004 A 
HETATM   13  C   UNL     1     -10.563   4.190 -34.807  1.00  0.00     0.073 A 
HETATM   14  C   UNL     1     -10.267   5.457 -35.312  1.00  0.00     0.037 A 
HETATM   15  C   UNL     1      -9.948   6.504 -34.450  1.00  0.00     0.003 A 
HETATM   16  C   UNL     1      -9.926   6.284 -33.079  1.00  0.00     0.001 A 
HETATM   17  C   UNL     1     -10.220   5.016 -32.572  1.00  0.00     0.012 A 
BRANCH  13  18
HETATM   18  O   UNL     1     -10.870   3.255 -35.758  1.00  0.00    -0.360 OA
HETATM   19  H   UNL     1     -11.801   3.293 -36.049  1.00  0.00     0.217 HD
ENDBRANCH  13  18
ENDBRANCH  10  12
ENDBRANCH   2   4
BRANCH   1  20
HETATM   20  C   UNL     1      -6.438   1.451 -31.064  1.00  0.00     0.164 C 
BRANCH  20  21
HETATM   21  C   UNL     1      -5.404   2.517 -31.335  1.00  0.00    -0.040 A 
HETATM   22  C   UNL     1      -5.779   3.865 -31.429  1.00  0.00     0.009 A 
HETATM   23  C   UNL     1      -4.816   4.858 -31.618  1.00  0.00     0.001 A 
HETATM   24  C   UNL     1      -3.468   4.515 -31.715  1.00  0.00     0.000 A 
HETATM   25  C   UNL     1      -3.081   3.180 -31.617  1.00  0.00     0.001 A 
HETATM   26  C   UNL     1      -4.042   2.188 -31.419  1.00  0.00     0.009 A 
ENDBRANCH  20  21
ENDBRANCH   1  20
BRANCH   1  27
HETATM   27  C   UNL     1      -6.800   1.071 -33.493  1.00  0.00     0.164 C 
BRANCH  27  28
HETATM   28  C   UNL     1      -6.281  -0.310 -33.809  1.00  0.00    -0.040 A 
HETATM   29  C   UNL     1      -7.149  -1.257 -34.384  1.00  0.00     0.009 A 
HETATM   30  C   UNL     1      -6.698  -2.537 -34.711  1.00  0.00     0.001 A 
HETATM   31  C   UNL     1      -5.370  -2.884 -34.480  1.00  0.00     0.000 A 
HETATM   32  C   UNL     1      -4.493  -1.950 -33.935  1.00  0.00     0.001 A 
HETATM   33  C   UNL     1      -4.943  -0.668 -33.611  1.00  0.00     0.009 A 
ENDBRANCH  27  28
ENDBRANCH   1  27
TORSDOF 7
ENDMDL
