MODEL 1
REMARK VINA RESULT:      -8.1      0.000      0.000
REMARK  5 active torsions:
REMARK  status: ('A' for Active; 'I' for Inactive)
REMARK    1  A    between atoms: C_3  and  O_4 
REMARK    2  A    between atoms: O_4  and  C_5 
REMARK    3  A    between atoms: C_6  and  N_7 
REMARK       I    between atoms: N_7  and  C_8 
REMARK       I    between atoms: C_8  and  N_9 
REMARK    4  A    between atoms: N_9  and  C_10 
REMARK    5  A    between atoms: C_11  and  C_12 
ROOT
HETATM    1  C   UNL     1      -4.132   0.301 -30.585  1.00  0.00     0.014 C 
HETATM    2  C   UNL     1      -3.668  -0.232 -31.555  1.00  0.00    -0.091 C 
HETATM    3  C   UNL     1      -3.097  -0.883 -32.740  1.00  0.00     0.268 C 
ENDROOT
BRANCH   3   4
HETATM    4  O   UNL     1      -4.077  -0.901 -33.784  1.00  0.00    -0.337 OA
BRANCH   4   5
HETATM    5  C   UNL     1      -4.627  -2.138 -33.988  1.00  0.00     0.099 A 
HETATM    6  C   UNL     1      -5.851  -2.232 -34.667  1.00  0.00     0.070 A 
HETATM    7  C   UNL     1      -6.332  -3.502 -35.022  1.00  0.00     0.035 A 
HETATM    8  C   UNL     1      -5.662  -4.657 -34.620  1.00  0.00     0.044 A 
HETATM    9  C   UNL     1      -4.497  -4.543 -33.876  1.00  0.00     0.119 A 
HETATM   10  F   UNL     1      -3.860  -5.649 -33.472  1.00  0.00    -0.206 F 
HETATM   11  C   UNL     1      -3.970  -3.298 -33.559  1.00  0.00     0.081 A 
BRANCH   6  12
HETATM   12  N   UNL     1      -6.629  -1.140 -35.093  1.00  0.00    -0.306 N 
HETATM   13  C   UNL     1      -7.192  -0.086 -34.432  1.00  0.00     0.325 C 
HETATM   14  N   UNL     1      -7.052  -0.006 -33.079  1.00  0.00    -0.305 N 
HETATM   15  O   UNL     1      -7.907   0.654 -35.116  1.00  0.00    -0.247 OA
HETATM   16  H   UNL     1      -6.221  -0.403 -32.645  1.00  0.00     0.171 HD
HETATM   17  H   UNL     1      -7.066  -1.221 -36.003  1.00  0.00     0.171 HD
BRANCH  14  18
HETATM   18  C   UNL     1      -7.862   0.753 -32.241  1.00  0.00     0.086 A 
HETATM   19  C   UNL     1      -7.561   2.004 -31.602  1.00  0.00     0.133 A 
HETATM   20  N   UNL     1      -8.602   2.407 -30.841  1.00  0.00    -0.171 NA
HETATM   21  N   UNL     1      -9.519   1.442 -30.988  1.00  0.00    -0.286 N 
HETATM   22  H   UNL     1     -10.397   1.531 -30.490  1.00  0.00     0.188 HD
HETATM   23  C   UNL     1      -9.128   0.437 -31.811  1.00  0.00     0.141 A 
BRANCH  19  24
HETATM   24  C   UNL     1      -6.337   2.815 -31.707  1.00  0.00     0.089 A 
HETATM   25  N   UNL     1      -5.691   2.811 -32.902  1.00  0.00    -0.259 NA
HETATM   26  C   UNL     1      -4.579   3.573 -33.003  1.00  0.00     0.117 A 
HETATM   27  C   UNL     1      -4.068   4.345 -31.974  1.00  0.00     0.019 A 
HETATM   28  C   UNL     1      -4.734   4.334 -30.756  1.00  0.00     0.004 A 
HETATM   29  C   UNL     1      -5.881   3.559 -30.617  1.00  0.00     0.034 A 
ENDBRANCH  19  24
ENDBRANCH  14  18
ENDBRANCH   6  12
ENDBRANCH   4   5
ENDBRANCH   3   4
TORSDOF 5
ENDMDL
MODEL 2
REMARK VINA RESULT:      -7.4      3.103      4.516
REMARK  5 active torsions:
REMARK  status: ('A' for Active; 'I' for Inactive)
REMARK    1  A    between atoms: C_3  and  O_4 
REMARK    2  A    between atoms: O_4  and  C_5 
REMARK    3  A    between atoms: C_6  and  N_7 
REMARK       I    between atoms: N_7  and  C_8 
REMARK       I    between atoms: C_8  and  N_9 
REMARK    4  A    between atoms: N_9  and  C_10 
REMARK    5  A    between atoms: C_11  and  C_12 
ROOT
HETATM    1  C   UNL     1      -3.343   3.451 -31.418  1.00  0.00     0.014 C 
HETATM    2  C   UNL     1      -3.381   2.337 -31.863  1.00  0.00    -0.091 C 
HETATM    3  C   UNL     1      -3.424   0.977 -32.412  1.00  0.00     0.268 C 
ENDROOT
BRANCH   3   4
HETATM    4  O   UNL     1      -4.494   0.254 -31.791  1.00  0.00    -0.337 OA
BRANCH   4   5
HETATM    5  C   UNL     1      -5.082  -0.661 -32.623  1.00  0.00     0.099 A 
HETATM    6  C   UNL     1      -6.479  -0.663 -32.746  1.00  0.00     0.070 A 
HETATM    7  C   UNL     1      -7.071  -1.485 -33.720  1.00  0.00     0.035 A 
HETATM    8  C   UNL     1      -6.297  -2.360 -34.480  1.00  0.00     0.044 A 
HETATM    9  C   UNL     1      -4.925  -2.403 -34.281  1.00  0.00     0.119 A 
HETATM   10  F   UNL     1      -4.180  -3.255 -34.997  1.00  0.00    -0.206 F 
HETATM   11  C   UNL     1      -4.309  -1.562 -33.365  1.00  0.00     0.081 A 
BRANCH   6  12
HETATM   12  N   UNL     1      -7.361   0.150 -32.012  1.00  0.00    -0.306 N 
HETATM   13  C   UNL     1      -7.934   1.364 -32.264  1.00  0.00     0.325 C 
HETATM   14  N   UNL     1      -7.627   2.009 -33.424  1.00  0.00    -0.305 N 
HETATM   15  O   UNL     1      -8.598   1.844 -31.339  1.00  0.00    -0.247 OA
HETATM   16  H   UNL     1      -7.385   1.458 -34.245  1.00  0.00     0.171 HD
HETATM   17  H   UNL     1      -7.440  -0.045 -31.021  1.00  0.00     0.171 HD
BRANCH  14  18
HETATM   18  C   UNL     1      -7.805   3.370 -33.645  1.00  0.00     0.086 A 
HETATM   19  C   UNL     1      -8.948   4.043 -34.196  1.00  0.00     0.133 A 
HETATM   20  N   UNL     1      -8.719   5.373 -34.277  1.00  0.00    -0.171 NA
HETATM   21  N   UNL     1      -7.475   5.528 -33.806  1.00  0.00    -0.286 N 
HETATM   22  H   UNL     1      -7.083   6.462 -33.782  1.00  0.00     0.188 HD
HETATM   23  C   UNL     1      -6.888   4.369 -33.416  1.00  0.00     0.141 A 
BRANCH  19  24
HETATM   24  C   UNL     1     -10.233   3.466 -34.623  1.00  0.00     0.089 A 
HETATM   25  N   UNL     1     -10.546   2.232 -34.150  1.00  0.00    -0.259 NA
HETATM   26  C   UNL     1     -11.736   1.712 -34.525  1.00  0.00     0.117 A 
HETATM   27  C   UNL     1     -12.639   2.354 -35.355  1.00  0.00     0.019 A 
HETATM   28  C   UNL     1     -12.302   3.611 -35.838  1.00  0.00     0.004 A 
HETATM   29  C   UNL     1     -11.084   4.176 -35.471  1.00  0.00     0.034 A 
ENDBRANCH  19  24
ENDBRANCH  14  18
ENDBRANCH   6  12
ENDBRANCH   4   5
ENDBRANCH   3   4
TORSDOF 5
ENDMDL
MODEL 3
REMARK VINA RESULT:      -7.3      3.225      6.634
REMARK  5 active torsions:
REMARK  status: ('A' for Active; 'I' for Inactive)
REMARK    1  A    between atoms: C_3  and  O_4 
REMARK    2  A    between atoms: O_4  and  C_5 
REMARK    3  A    between atoms: C_6  and  N_7 
REMARK       I    between atoms: N_7  and  C_8 
REMARK       I    between atoms: C_8  and  N_9 
REMARK    4  A    between atoms: N_9  and  C_10 
REMARK    5  A    between atoms: C_11  and  C_12 
ROOT
HETATM    1  C   UNL     1      -7.412   5.123 -28.818  1.00  0.00     0.014 C 
HETATM    2  C   UNL     1      -8.018   4.842 -29.814  1.00  0.00    -0.091 C 
HETATM    3  C   UNL     1      -8.764   4.498 -31.031  1.00  0.00     0.268 C 
ENDROOT
BRANCH   3   4
HETATM    4  O   UNL     1      -7.946   3.668 -31.864  1.00  0.00    -0.337 OA
BRANCH   4   5
HETATM    5  C   UNL     1      -8.601   2.560 -32.332  1.00  0.00     0.099 A 
HETATM    6  C   UNL     1      -8.446   1.344 -31.651  1.00  0.00     0.070 A 
HETATM    7  C   UNL     1      -9.244   0.251 -32.027  1.00  0.00     0.035 A 
HETATM    8  C   UNL     1     -10.100   0.337 -33.125  1.00  0.00     0.044 A 
HETATM    9  C   UNL     1     -10.174   1.525 -33.837  1.00  0.00     0.119 A 
HETATM   10  F   UNL     1     -10.981   1.607 -34.903  1.00  0.00    -0.206 F 
HETATM   11  C   UNL     1      -9.438   2.638 -33.452  1.00  0.00     0.081 A 
BRANCH   6  12
HETATM   12  N   UNL     1      -7.592   1.131 -30.554  1.00  0.00    -0.306 N 
HETATM   13  C   UNL     1      -6.266   0.818 -30.455  1.00  0.00     0.325 C 
HETATM   14  N   UNL     1      -5.548   0.624 -31.597  1.00  0.00    -0.305 N 
HETATM   15  O   UNL     1      -5.850   0.606 -29.312  1.00  0.00    -0.247 OA
HETATM   16  H   UNL     1      -5.820   1.125 -32.441  1.00  0.00     0.171 HD
HETATM   17  H   UNL     1      -8.035   0.943 -29.662  1.00  0.00     0.171 HD
BRANCH  14  18
HETATM   18  C   UNL     1      -4.339  -0.058 -31.668  1.00  0.00     0.086 A 
HETATM   19  C   UNL     1      -4.023  -1.239 -32.423  1.00  0.00     0.133 A 
HETATM   20  N   UNL     1      -2.743  -1.612 -32.201  1.00  0.00    -0.171 NA
HETATM   21  N   UNL     1      -2.276  -0.707 -31.331  1.00  0.00    -0.286 N 
HETATM   22  H   UNL     1      -1.319  -0.797 -31.009  1.00  0.00     0.188 HD
HETATM   23  C   UNL     1      -3.184   0.238 -30.983  1.00  0.00     0.141 A 
BRANCH  19  24
HETATM   24  C   UNL     1      -4.886  -1.995 -33.344  1.00  0.00     0.089 A 
HETATM   25  N   UNL     1      -4.382  -3.146 -33.863  1.00  0.00    -0.259 NA
HETATM   26  C   UNL     1      -5.184  -3.851 -34.691  1.00  0.00     0.117 A 
HETATM   27  C   UNL     1      -6.470  -3.473 -35.038  1.00  0.00     0.019 A 
HETATM   28  C   UNL     1      -6.969  -2.293 -34.507  1.00  0.00     0.004 A 
HETATM   29  C   UNL     1      -6.169  -1.541 -33.651  1.00  0.00     0.034 A 
ENDBRANCH  19  24
ENDBRANCH  14  18
ENDBRANCH   6  12
ENDBRANCH   4   5
ENDBRANCH   3   4
TORSDOF 5
ENDMDL
MODEL 4
REMARK VINA RESULT:      -7.3      3.035      5.976
REMARK  5 active torsions:
REMARK  status: ('A' for Active; 'I' for Inactive)
REMARK    1  A    between atoms: C_3  and  O_4 
REMARK    2  A    between atoms: O_4  and  C_5 
REMARK    3  A    between atoms: C_6  and  N_7 
REMARK       I    between atoms: N_7  and  C_8 
REMARK       I    between atoms: C_8  and  N_9 
REMARK    4  A    between atoms: N_9  and  C_10 
REMARK    5  A    between atoms: C_11  and  C_12 
ROOT
HETATM    1  C   UNL     1      -6.749  -3.221 -34.778  1.00  0.00     0.014 C 
HETATM    2  C   UNL     1      -7.111  -2.082 -34.667  1.00  0.00    -0.091 C 
HETATM    3  C   UNL     1      -7.552  -0.689 -34.534  1.00  0.00     0.268 C 
ENDROOT
BRANCH   3   4
HETATM    4  O   UNL     1      -7.980  -0.458 -33.187  1.00  0.00    -0.337 OA
BRANCH   4   5
HETATM    5  C   UNL     1      -8.873   0.574 -33.073  1.00  0.00     0.099 A 
HETATM    6  C   UNL     1      -8.804   1.408 -31.946  1.00  0.00     0.070 A 
HETATM    7  C   UNL     1      -9.605   2.560 -31.908  1.00  0.00     0.035 A 
HETATM    8  C   UNL     1     -10.529   2.821 -32.919  1.00  0.00     0.044 A 
HETATM    9  C   UNL     1     -10.641   1.937 -33.982  1.00  0.00     0.119 A 
HETATM   10  F   UNL     1     -11.540   2.174 -34.947  1.00  0.00    -0.206 F 
HETATM   11  C   UNL     1      -9.822   0.820 -34.072  1.00  0.00     0.081 A 
BRANCH   6  12
HETATM   12  N   UNL     1      -7.937   1.227 -30.854  1.00  0.00    -0.306 N 
HETATM   13  C   UNL     1      -6.760   1.818 -30.494  1.00  0.00     0.325 C 
HETATM   14  N   UNL     1      -6.221   2.766 -31.311  1.00  0.00    -0.305 N 
HETATM   15  O   UNL     1      -6.204   1.340 -29.500  1.00  0.00    -0.247 OA
HETATM   16  H   UNL     1      -6.844   3.337 -31.880  1.00  0.00     0.171 HD
HETATM   17  H   UNL     1      -8.039   0.366 -30.330  1.00  0.00     0.171 HD
BRANCH  14  18
HETATM   18  C   UNL     1      -4.889   3.164 -31.294  1.00  0.00     0.086 A 
HETATM   19  C   UNL     1      -3.717   2.371 -31.540  1.00  0.00     0.133 A 
HETATM   20  N   UNL     1      -2.602   3.121 -31.399  1.00  0.00    -0.171 NA
HETATM   21  N   UNL     1      -3.055   4.336 -31.067  1.00  0.00    -0.286 N 
HETATM   22  H   UNL     1      -2.379   5.073 -30.900  1.00  0.00     0.188 HD
HETATM   23  C   UNL     1      -4.407   4.416 -30.992  1.00  0.00     0.141 A 
BRANCH  19  24
HETATM   24  C   UNL     1      -3.635   0.949 -31.913  1.00  0.00     0.089 A 
HETATM   25  N   UNL     1      -4.370   0.545 -32.981  1.00  0.00    -0.259 NA
HETATM   26  C   UNL     1      -4.277  -0.756 -33.336  1.00  0.00     0.117 A 
HETATM   27  C   UNL     1      -3.489  -1.687 -32.681  1.00  0.00     0.019 A 
HETATM   28  C   UNL     1      -2.750  -1.262 -31.586  1.00  0.00     0.004 A 
HETATM   29  C   UNL     1      -2.823   0.071 -31.193  1.00  0.00     0.034 A 
ENDBRANCH  19  24
ENDBRANCH  14  18
ENDBRANCH   6  12
ENDBRANCH   4   5
ENDBRANCH   3   4
TORSDOF 5
ENDMDL
MODEL 5
REMARK VINA RESULT:      -7.3      4.152      7.188
REMARK  5 active torsions:
REMARK  status: ('A' for Active; 'I' for Inactive)
REMARK    1  A    between atoms: C_3  and  O_4 
REMARK    2  A    between atoms: O_4  and  C_5 
REMARK    3  A    between atoms: C_6  and  N_7 
REMARK       I    between atoms: N_7  and  C_8 
REMARK       I    between atoms: C_8  and  N_9 
REMARK    4  A    between atoms: N_9  and  C_10 
REMARK    5  A    between atoms: C_11  and  C_12 
ROOT
HETATM    1  C   UNL     1      -7.491   0.098 -35.238  1.00  0.00     0.014 C 
HETATM    2  C   UNL     1      -6.923   0.916 -34.567  1.00  0.00    -0.091 C 
HETATM    3  C   UNL     1      -6.227   1.918 -33.751  1.00  0.00     0.268 C 
ENDROOT
BRANCH   3   4
HETATM    4  O   UNL     1      -6.026   1.392 -32.434  1.00  0.00    -0.337 OA
BRANCH   4   5
HETATM    5  C   UNL     1      -6.553   2.185 -31.449  1.00  0.00     0.099 A 
HETATM    6  C   UNL     1      -5.685   2.974 -30.678  1.00  0.00     0.070 A 
HETATM    7  C   UNL     1      -6.235   3.908 -29.785  1.00  0.00     0.035 A 
HETATM    8  C   UNL     1      -7.613   3.982 -29.588  1.00  0.00     0.044 A 
HETATM    9  C   UNL     1      -8.448   3.132 -30.300  1.00  0.00     0.119 A 
HETATM   10  F   UNL     1      -9.771   3.187 -30.100  1.00  0.00    -0.206 F 
HETATM   11  C   UNL     1      -7.934   2.238 -31.229  1.00  0.00     0.081 A 
BRANCH   6  12
HETATM   12  N   UNL     1      -4.282   2.962 -30.767  1.00  0.00    -0.306 N 
HETATM   13  C   UNL     1      -3.381   3.795 -31.365  1.00  0.00     0.325 C 
HETATM   14  N   UNL     1      -3.842   4.869 -32.066  1.00  0.00    -0.305 N 
HETATM   15  O   UNL     1      -2.203   3.426 -31.326  1.00  0.00    -0.247 OA
HETATM   16  H   UNL     1      -4.721   5.299 -31.787  1.00  0.00     0.171 HD
HETATM   17  H   UNL     1      -3.821   2.083 -30.561  1.00  0.00     0.171 HD
BRANCH  14  18
HETATM   18  C   UNL     1      -3.111   5.563 -33.025  1.00  0.00     0.086 A 
HETATM   19  C   UNL     1      -2.025   6.482 -32.827  1.00  0.00     0.133 A 
HETATM   20  N   UNL     1      -1.599   6.971 -34.013  1.00  0.00    -0.171 NA
HETATM   21  N   UNL     1      -2.394   6.390 -34.920  1.00  0.00    -0.286 N 
HETATM   22  H   UNL     1      -2.259   6.621 -35.898  1.00  0.00     0.188 HD
HETATM   23  C   UNL     1      -3.309   5.543 -34.385  1.00  0.00     0.141 A 
BRANCH  19  24
HETATM   24  C   UNL     1      -1.386   6.886 -31.564  1.00  0.00     0.089 A 
HETATM   25  N   UNL     1      -2.196   7.367 -30.585  1.00  0.00    -0.259 NA
HETATM   26  C   UNL     1      -1.611   7.718 -29.419  1.00  0.00     0.117 A 
HETATM   27  C   UNL     1      -0.253   7.620 -29.169  1.00  0.00     0.019 A 
HETATM   28  C   UNL     1       0.564   7.135 -30.180  1.00  0.00     0.004 A 
HETATM   29  C   UNL     1      -0.006   6.765 -31.395  1.00  0.00     0.034 A 
ENDBRANCH  19  24
ENDBRANCH  14  18
ENDBRANCH   6  12
ENDBRANCH   4   5
ENDBRANCH   3   4
TORSDOF 5
ENDMDL
MODEL 6
REMARK VINA RESULT:      -7.3      3.275      6.729
REMARK  5 active torsions:
REMARK  status: ('A' for Active; 'I' for Inactive)
REMARK    1  A    between atoms: C_3  and  O_4 
REMARK    2  A    between atoms: O_4  and  C_5 
REMARK    3  A    between atoms: C_6  and  N_7 
REMARK       I    between atoms: N_7  and  C_8 
REMARK       I    between atoms: C_8  and  N_9 
REMARK    4  A    between atoms: N_9  and  C_10 
REMARK    5  A    between atoms: C_11  and  C_12 
ROOT
HETATM    1  C   UNL     1      -7.930   4.909 -29.405  1.00  0.00     0.014 C 
HETATM    2  C   UNL     1      -7.260   5.439 -30.248  1.00  0.00    -0.091 C 
HETATM    3  C   UNL     1      -6.443   6.091 -31.278  1.00  0.00     0.268 C 
ENDROOT
BRANCH   3   4
HETATM    4  O   UNL     1      -6.020   5.111 -32.233  1.00  0.00    -0.337 OA
BRANCH   4   5
HETATM    5  C   UNL     1      -4.662   5.075 -32.405  1.00  0.00     0.099 A 
HETATM    6  C   UNL     1      -3.914   4.129 -31.688  1.00  0.00     0.070 A 
HETATM    7  C   UNL     1      -2.550   3.979 -31.985  1.00  0.00     0.035 A 
HETATM    8  C   UNL     1      -1.923   4.823 -32.901  1.00  0.00     0.044 A 
HETATM    9  C   UNL     1      -2.664   5.808 -33.537  1.00  0.00     0.119 A 
HETATM   10  F   UNL     1      -2.062   6.632 -34.404  1.00  0.00    -0.206 F 
HETATM   11  C   UNL     1      -4.026   5.941 -33.302  1.00  0.00     0.081 A 
BRANCH   6  12
HETATM   12  N   UNL     1      -4.431   3.249 -30.720  1.00  0.00    -0.306 N 
HETATM   13  C   UNL     1      -5.405   2.293 -30.758  1.00  0.00     0.325 C 
HETATM   14  N   UNL     1      -6.091   2.098 -31.919  1.00  0.00    -0.305 N 
HETATM   15  O   UNL     1      -5.675   1.760 -29.677  1.00  0.00    -0.247 OA
HETATM   16  H   UNL     1      -5.626   2.288 -32.805  1.00  0.00     0.171 HD
HETATM   17  H   UNL     1      -4.240   3.476 -29.751  1.00  0.00     0.171 HD
BRANCH  14  18
HETATM   18  C   UNL     1      -7.327   1.468 -32.014  1.00  0.00     0.086 A 
HETATM   19  C   UNL     1      -7.639   0.198 -32.608  1.00  0.00     0.133 A 
HETATM   20  N   UNL     1      -8.966  -0.048 -32.525  1.00  0.00    -0.171 NA
HETATM   21  N   UNL     1      -9.469   1.030 -31.912  1.00  0.00    -0.286 N 
HETATM   22  H   UNL     1     -10.469   1.068 -31.748  1.00  0.00     0.188 HD
HETATM   23  C   UNL     1      -8.538   1.961 -31.586  1.00  0.00     0.141 A 
BRANCH  19  24
HETATM   24  C   UNL     1      -6.723  -0.773 -33.227  1.00  0.00     0.089 A 
HETATM   25  N   UNL     1      -5.440  -0.788 -32.780  1.00  0.00    -0.259 NA
HETATM   26  C   UNL     1      -4.605  -1.694 -33.333  1.00  0.00     0.117 A 
HETATM   27  C   UNL     1      -4.976  -2.595 -34.318  1.00  0.00     0.019 A 
HETATM   28  C   UNL     1      -6.287  -2.564 -34.771  1.00  0.00     0.004 A 
HETATM   29  C   UNL     1      -7.173  -1.641 -34.222  1.00  0.00     0.034 A 
ENDBRANCH  19  24
ENDBRANCH  14  18
ENDBRANCH   6  12
ENDBRANCH   4   5
ENDBRANCH   3   4
TORSDOF 5
ENDMDL
MODEL 7
REMARK VINA RESULT:      -7.1      3.257      6.183
REMARK  5 active torsions:
REMARK  status: ('A' for Active; 'I' for Inactive)
REMARK    1  A    between atoms: C_3  and  O_4 
REMARK    2  A    between atoms: O_4  and  C_5 
REMARK    3  A    between atoms: C_6  and  N_7 
REMARK       I    between atoms: N_7  and  C_8 
REMARK       I    between atoms: C_8  and  N_9 
REMARK    4  A    between atoms: N_9  and  C_10 
REMARK    5  A    between atoms: C_11  and  C_12 
ROOT
HETATM    1  C   UNL     1      -2.671  -0.851 -31.892  1.00  0.00     0.014 C 
HETATM    2  C   UNL     1      -3.137   0.229 -32.128  1.00  0.00    -0.091 C 
HETATM    3  C   UNL     1      -3.709   1.549 -32.421  1.00  0.00     0.268 C 
ENDROOT
BRANCH   3   4
HETATM    4  O   UNL     1      -3.023   2.540 -31.647  1.00  0.00    -0.337 OA
BRANCH   4   5
HETATM    5  C   UNL     1      -3.003   3.772 -32.244  1.00  0.00     0.099 A 
HETATM    6  C   UNL     1      -3.645   4.844 -31.604  1.00  0.00     0.070 A 
HETATM    7  C   UNL     1      -3.485   6.137 -32.127  1.00  0.00     0.035 A 
HETATM    8  C   UNL     1      -2.789   6.345 -33.318  1.00  0.00     0.044 A 
HETATM    9  C   UNL     1      -2.235   5.258 -33.979  1.00  0.00     0.119 A 
HETATM   10  F   UNL     1      -1.582   5.450 -35.132  1.00  0.00    -0.206 F 
HETATM   11  C   UNL     1      -2.331   3.977 -33.454  1.00  0.00     0.081 A 
BRANCH   6  12
HETATM   12  N   UNL     1      -4.398   4.750 -30.420  1.00  0.00    -0.306 N 
HETATM   13  C   UNL     1      -5.521   4.049 -30.086  1.00  0.00     0.325 C 
HETATM   14  N   UNL     1      -6.124   3.279 -31.036  1.00  0.00    -0.305 N 
HETATM   15  O   UNL     1      -5.980   4.278 -28.962  1.00  0.00    -0.247 OA
HETATM   16  H   UNL     1      -5.554   2.871 -31.774  1.00  0.00     0.171 HD
HETATM   17  H   UNL     1      -4.257   5.481 -29.732  1.00  0.00     0.171 HD
BRANCH  14  18
HETATM   18  C   UNL     1      -7.440   2.835 -30.978  1.00  0.00     0.086 A 
HETATM   19  C   UNL     1      -8.067   1.798 -31.750  1.00  0.00     0.133 A 
HETATM   20  N   UNL     1      -9.373   1.687 -31.418  1.00  0.00    -0.171 NA
HETATM   21  N   UNL     1      -9.562   2.624 -30.481  1.00  0.00    -0.286 N 
HETATM   22  H   UNL     1     -10.489   2.730 -30.086  1.00  0.00     0.188 HD
HETATM   23  C   UNL     1      -8.445   3.334 -30.182  1.00  0.00     0.141 A 
BRANCH  19  24
HETATM   24  C   UNL     1      -7.463   0.919 -32.764  1.00  0.00     0.089 A 
HETATM   25  N   UNL     1      -6.961  -0.269 -32.336  1.00  0.00    -0.259 NA
HETATM   26  C   UNL     1      -6.426  -1.084 -33.272  1.00  0.00     0.117 A 
HETATM   27  C   UNL     1      -6.359  -0.782 -34.621  1.00  0.00     0.019 A 
HETATM   28  C   UNL     1      -6.869   0.438 -35.043  1.00  0.00     0.004 A 
HETATM   29  C   UNL     1      -7.426   1.302 -34.106  1.00  0.00     0.034 A 
ENDBRANCH  19  24
ENDBRANCH  14  18
ENDBRANCH   6  12
ENDBRANCH   4   5
ENDBRANCH   3   4
TORSDOF 5
ENDMDL
MODEL 8
REMARK VINA RESULT:      -6.9      3.000      4.744
REMARK  5 active torsions:
REMARK  status: ('A' for Active; 'I' for Inactive)
REMARK    1  A    between atoms: C_3  and  O_4 
REMARK    2  A    between atoms: O_4  and  C_5 
REMARK    3  A    between atoms: C_6  and  N_7 
REMARK       I    between atoms: N_7  and  C_8 
REMARK       I    between atoms: C_8  and  N_9 
REMARK    4  A    between atoms: N_9  and  C_10 
REMARK    5  A    between atoms: C_11  and  C_12 
ROOT
HETATM    1  C   UNL     1      -3.055   3.630 -32.668  1.00  0.00     0.014 C 
HETATM    2  C   UNL     1      -3.366   2.494 -32.441  1.00  0.00    -0.091 C 
HETATM    3  C   UNL     1      -3.743   1.103 -32.165  1.00  0.00     0.268 C 
ENDROOT
BRANCH   3   4
HETATM    4  O   UNL     1      -5.151   1.039 -31.911  1.00  0.00    -0.337 OA
BRANCH   4   5
HETATM    5  C   UNL     1      -5.853   0.418 -32.909  1.00  0.00     0.099 A 
HETATM    6  C   UNL     1      -6.544   1.206 -33.842  1.00  0.00     0.070 A 
HETATM    7  C   UNL     1      -7.123   0.581 -34.958  1.00  0.00     0.035 A 
HETATM    8  C   UNL     1      -7.105  -0.807 -35.088  1.00  0.00     0.044 A 
HETATM    9  C   UNL     1      -6.490  -1.573 -34.109  1.00  0.00     0.119 A 
HETATM   10  F   UNL     1      -6.486  -2.908 -34.220  1.00  0.00    -0.206 F 
HETATM   11  C   UNL     1      -5.861  -0.977 -33.024  1.00  0.00     0.081 A 
BRANCH   6  12
HETATM   12  N   UNL     1      -6.657   2.607 -33.796  1.00  0.00    -0.306 N 
HETATM   13  C   UNL     1      -7.369   3.457 -32.999  1.00  0.00     0.325 C 
HETATM   14  N   UNL     1      -8.189   2.934 -32.045  1.00  0.00    -0.305 N 
HETATM   15  O   UNL     1      -7.307   4.653 -33.303  1.00  0.00    -0.247 OA
HETATM   16  H   UNL     1      -7.948   2.037 -31.627  1.00  0.00     0.171 HD
HETATM   17  H   UNL     1      -6.353   3.115 -34.619  1.00  0.00     0.171 HD
BRANCH  14  18
HETATM   18  C   UNL     1      -9.238   3.616 -31.440  1.00  0.00     0.086 A 
HETATM   19  C   UNL     1     -10.601   3.731 -31.882  1.00  0.00     0.133 A 
HETATM   20  N   UNL     1     -11.308   4.507 -31.030  1.00  0.00    -0.171 NA
HETATM   21  N   UNL     1     -10.422   4.874 -30.096  1.00  0.00    -0.286 N 
HETATM   22  H   UNL     1     -10.736   5.479 -29.346  1.00  0.00     0.188 HD
HETATM   23  C   UNL     1      -9.178   4.370 -30.292  1.00  0.00     0.141 A 
BRANCH  19  24
HETATM   24  C   UNL     1     -11.236   3.121 -33.061  1.00  0.00     0.089 A 
HETATM   25  N   UNL     1     -10.697   1.963 -33.526  1.00  0.00    -0.259 NA
HETATM   26  C   UNL     1     -11.295   1.393 -34.596  1.00  0.00     0.117 A 
HETATM   27  C   UNL     1     -12.405   1.914 -35.237  1.00  0.00     0.019 A 
HETATM   28  C   UNL     1     -12.940   3.101 -34.756  1.00  0.00     0.004 A 
HETATM   29  C   UNL     1     -12.349   3.715 -33.656  1.00  0.00     0.034 A 
ENDBRANCH  19  24
ENDBRANCH  14  18
ENDBRANCH   6  12
ENDBRANCH   4   5
ENDBRANCH   3   4
TORSDOF 5
ENDMDL
MODEL 9
REMARK VINA RESULT:      -6.9      2.527      4.574
REMARK  5 active torsions:
REMARK  status: ('A' for Active; 'I' for Inactive)
REMARK    1  A    between atoms: C_3  and  O_4 
REMARK    2  A    between atoms: O_4  and  C_5 
REMARK    3  A    between atoms: C_6  and  N_7 
REMARK       I    between atoms: N_7  and  C_8 
REMARK       I    between atoms: C_8  and  N_9 
REMARK    4  A    between atoms: N_9  and  C_10 
REMARK    5  A    between atoms: C_11  and  C_12 
ROOT
HETATM    1  C   UNL     1     -10.919   1.232 -33.603  1.00  0.00     0.014 C 
HETATM    2  C   UNL     1      -9.775   0.930 -33.806  1.00  0.00    -0.091 C 
HETATM    3  C   UNL     1      -8.377   0.562 -34.058  1.00  0.00     0.268 C 
ENDROOT
BRANCH   3   4
HETATM    4  O   UNL     1      -7.963  -0.405 -33.085  1.00  0.00    -0.337 OA
BRANCH   4   5
HETATM    5  C   UNL     1      -6.795  -1.038 -33.416  1.00  0.00     0.099 A 
HETATM    6  C   UNL     1      -5.650  -0.794 -32.643  1.00  0.00     0.070 A 
HETATM    7  C   UNL     1      -4.500  -1.565 -32.876  1.00  0.00     0.035 A 
HETATM    8  C   UNL     1      -4.457  -2.484 -33.924  1.00  0.00     0.044 A 
HETATM    9  C   UNL     1      -5.573  -2.647 -34.731  1.00  0.00     0.119 A 
HETATM   10  F   UNL     1      -5.530  -3.515 -35.750  1.00  0.00    -0.206 F 
HETATM   11  C   UNL     1      -6.742  -1.939 -34.487  1.00  0.00     0.081 A 
BRANCH   6  12
HETATM   12  N   UNL     1      -5.567   0.128 -31.584  1.00  0.00    -0.306 N 
HETATM   13  C   UNL     1      -5.300   1.466 -31.536  1.00  0.00     0.325 C 
HETATM   14  N   UNL     1      -5.014   2.123 -32.696  1.00  0.00    -0.305 N 
HETATM   15  O   UNL     1      -5.211   1.954 -30.405  1.00  0.00    -0.247 OA
HETATM   16  H   UNL     1      -5.423   1.787 -33.566  1.00  0.00     0.171 HD
HETATM   17  H   UNL     1      -5.456  -0.257 -30.654  1.00  0.00     0.171 HD
BRANCH  14  18
HETATM   18  C   UNL     1      -4.359   3.347 -32.773  1.00  0.00     0.086 A 
HETATM   19  C   UNL     1      -4.927   4.653 -32.966  1.00  0.00     0.133 A 
HETATM   20  N   UNL     1      -3.952   5.588 -33.016  1.00  0.00    -0.171 NA
HETATM   21  N   UNL     1      -2.815   4.895 -32.870  1.00  0.00    -0.286 N 
HETATM   22  H   UNL     1      -1.938   5.402 -32.886  1.00  0.00     0.188 HD
HETATM   23  C   UNL     1      -3.002   3.560 -32.721  1.00  0.00     0.141 A 
BRANCH  19  24
HETATM   24  C   UNL     1      -6.345   5.026 -33.087  1.00  0.00     0.089 A 
HETATM   25  N   UNL     1      -7.158   4.165 -33.754  1.00  0.00    -0.259 NA
HETATM   26  C   UNL     1      -8.465   4.499 -33.846  1.00  0.00     0.117 A 
HETATM   27  C   UNL     1      -9.013   5.651 -33.310  1.00  0.00     0.019 A 
HETATM   28  C   UNL     1      -8.170   6.524 -32.638  1.00  0.00     0.004 A 
HETATM   29  C   UNL     1      -6.819   6.212 -32.525  1.00  0.00     0.034 A 
ENDBRANCH  19  24
ENDBRANCH  14  18
ENDBRANCH   6  12
ENDBRANCH   4   5
ENDBRANCH   3   4
TORSDOF 5
ENDMDL
MODEL 10
REMARK VINA RESULT:      -6.9     14.098     15.520
REMARK  5 active torsions:
REMARK  status: ('A' for Active; 'I' for Inactive)
REMARK    1  A    between atoms: C_3  and  O_4 
REMARK    2  A    between atoms: O_4  and  C_5 
REMARK    3  A    between atoms: C_6  and  N_7 
REMARK       I    between atoms: N_7  and  C_8 
REMARK       I    between atoms: C_8  and  N_9 
REMARK    4  A    between atoms: N_9  and  C_10 
REMARK    5  A    between atoms: C_11  and  C_12 
ROOT
HETATM    1  C   UNL     1      -5.314 -14.035 -42.027  1.00  0.00     0.014 C 
HETATM    2  C   UNL     1      -5.637 -13.137 -41.300  1.00  0.00    -0.091 C 
HETATM    3  C   UNL     1      -6.029 -12.034 -40.414  1.00  0.00     0.268 C 
ENDROOT
BRANCH   3   4
HETATM    4  O   UNL     1      -6.794 -12.559 -39.322  1.00  0.00    -0.337 OA
BRANCH   4   5
HETATM    5  C   UNL     1      -8.118 -12.738 -39.627  1.00  0.00     0.099 A 
HETATM    6  C   UNL     1      -8.727 -13.961 -39.305  1.00  0.00     0.070 A 
HETATM    7  C   UNL     1     -10.116 -14.086 -39.464  1.00  0.00     0.035 A 
HETATM    8  C   UNL     1     -10.866 -13.054 -40.028  1.00  0.00     0.044 A 
HETATM    9  C   UNL     1     -10.229 -11.885 -40.418  1.00  0.00     0.119 A 
HETATM   10  F   UNL     1     -10.942 -10.899 -40.976  1.00  0.00    -0.206 F 
HETATM   11  C   UNL     1      -8.865 -11.715 -40.221  1.00  0.00     0.081 A 
BRANCH   6  12
HETATM   12  N   UNL     1      -8.068 -15.079 -38.763  1.00  0.00    -0.306 N 
HETATM   13  C   UNL     1      -7.428 -15.295 -37.576  1.00  0.00     0.325 C 
HETATM   14  N   UNL     1      -7.331 -14.270 -36.684  1.00  0.00    -0.305 N 
HETATM   15  O   UNL     1      -6.866 -16.390 -37.464  1.00  0.00    -0.247 OA
HETATM   16  H   UNL     1      -8.061 -13.561 -36.666  1.00  0.00     0.171 HD
HETATM   17  H   UNL     1      -7.796 -15.806 -39.414  1.00  0.00     0.171 HD
BRANCH  14  18
HETATM   18  C   UNL     1      -6.409 -14.208 -35.645  1.00  0.00     0.086 A 
HETATM   19  C   UNL     1      -4.992 -13.982 -35.720  1.00  0.00     0.133 A 
HETATM   20  N   UNL     1      -4.441 -14.025 -34.487  1.00  0.00    -0.171 NA
HETATM   21  N   UNL     1      -5.470 -14.278 -33.669  1.00  0.00    -0.286 N 
HETATM   22  H   UNL     1      -5.286 -14.364 -32.676  1.00  0.00     0.188 HD
HETATM   23  C   UNL     1      -6.662 -14.395 -34.306  1.00  0.00     0.141 A 
BRANCH  19  24
HETATM   24  C   UNL     1      -4.169 -13.717 -36.911  1.00  0.00     0.089 A 
HETATM   25  N   UNL     1      -3.871 -12.420 -37.183  1.00  0.00    -0.259 NA
HETATM   26  C   UNL     1      -3.097 -12.180 -38.265  1.00  0.00     0.117 A 
HETATM   27  C   UNL     1      -2.601 -13.165 -39.101  1.00  0.00     0.019 A 
HETATM   28  C   UNL     1      -2.920 -14.485 -38.817  1.00  0.00     0.004 A 
HETATM   29  C   UNL     1      -3.716 -14.768 -37.710  1.00  0.00     0.034 A 
ENDBRANCH  19  24
ENDBRANCH  14  18
ENDBRANCH   6  12
ENDBRANCH   4   5
ENDBRANCH   3   4
TORSDOF 5
ENDMDL
