MODEL 1
REMARK VINA RESULT:      -8.9      0.000      0.000
REMARK  6 active torsions:
REMARK  status: ('A' for Active; 'I' for Inactive)
REMARK    1  A    between atoms: C_2  and  O_3 
REMARK    2  A    between atoms: O_3  and  C_4 
REMARK    3  A    between atoms: C_13  and  C_14 
REMARK       I    between atoms: C_14  and  N_15 
REMARK    4  A    between atoms: N_15  and  N_16 
REMARK       I    between atoms: N_16  and  C_17 
REMARK    5  A    between atoms: C_17  and  C_18 
REMARK    6  A    between atoms: C_18  and  C_19 
ROOT
HETATM    1  C   UNL     1     -11.024   1.428 -33.859  1.00  0.00     0.069 A 
HETATM    2  C   UNL     1     -10.075   2.426 -34.081  1.00  0.00     0.050 A 
HETATM    3  C   UNL     1      -8.773   2.317 -33.562  1.00  0.00    -0.004 A 
HETATM    4  C   UNL     1      -8.404   1.191 -32.801  1.00  0.00     0.068 A 
HETATM    5  N   UNL     1      -7.185   1.008 -32.284  1.00  0.00    -0.240 NA
HETATM    6  C   UNL     1      -6.292   1.986 -32.534  1.00  0.00     0.111 A 
HETATM    7  C   UNL     1      -6.518   3.150 -33.254  1.00  0.00     0.028 A 
HETATM    8  C   UNL     1      -7.814   3.313 -33.788  1.00  0.00     0.030 A 
HETATM    9  S   UNL     1      -4.699   1.873 -31.950  1.00  0.00    -0.062 SA
HETATM   10  C   UNL     1      -4.260   3.388 -32.628  1.00  0.00     0.103 A 
HETATM   11  C   UNL     1      -5.333   3.956 -33.294  1.00  0.00     0.062 A 
HETATM   12  N   UNL     1      -5.270   5.151 -33.923  1.00  0.00    -0.397 N 
HETATM   13  C   UNL     1      -9.368   0.218 -32.581  1.00  0.00     0.035 A 
HETATM   14  C   UNL     1     -10.668   0.322 -33.098  1.00  0.00     0.039 A 
HETATM   15  H   UNL     1      -4.440   5.742 -33.835  1.00  0.00     0.156 HD
HETATM   16  H   UNL     1      -6.087   5.642 -34.271  1.00  0.00     0.156 HD
ENDROOT
BRANCH  10  17
HETATM   17  C   UNL     1      -2.922   3.940 -32.457  1.00  0.00     0.279 C 
HETATM   18  N   UNL     1      -2.497   4.138 -31.154  1.00  0.00    -0.263 N 
HETATM   19  H   UNL     1      -3.085   3.944 -30.345  1.00  0.00     0.190 HD
HETATM   20  O   UNL     1      -2.180   4.229 -33.401  1.00  0.00    -0.265 OA
BRANCH  18  21
HETATM   21  N   UNL     1      -1.273   4.769 -30.921  1.00  0.00    -0.267 N 
HETATM   22  C   UNL     1      -1.279   6.086 -30.510  1.00  0.00     0.240 C 
HETATM   23  O   UNL     1      -2.315   6.736 -30.377  1.00  0.00    -0.272 OA
HETATM   24  H   UNL     1      -0.447   4.173 -30.873  1.00  0.00     0.190 HD
BRANCH  22  25
HETATM   25  C   UNL     1       0.099   6.684 -30.308  1.00  0.00     0.143 C 
BRANCH  25  26
HETATM   26  C   UNL     1       0.401   7.036 -28.873  1.00  0.00    -0.049 A 
HETATM   27  C   UNL     1      -0.055   6.224 -27.825  1.00  0.00     0.007 A 
HETATM   28  C   UNL     1       0.248   6.544 -26.500  1.00  0.00     0.001 A 
HETATM   29  C   UNL     1       1.008   7.676 -26.210  1.00  0.00     0.000 A 
HETATM   30  C   UNL     1       1.466   8.490 -27.244  1.00  0.00     0.001 A 
HETATM   31  C   UNL     1       1.165   8.173 -28.569  1.00  0.00     0.007 A 
ENDBRANCH  25  26
ENDBRANCH  22  25
ENDBRANCH  18  21
ENDBRANCH  10  17
BRANCH   1  32
HETATM   32  O   UNL     1     -12.242   1.657 -34.432  1.00  0.00    -0.351 OA
BRANCH  32  33
HETATM   33  C   UNL     1     -13.322   1.982 -33.558  1.00  0.00     0.171 C 
HETATM   34  C   UNL     1     -14.402   0.931 -33.737  1.00  0.00     0.034 C 
ENDBRANCH  32  33
ENDBRANCH   1  32
TORSDOF 6
ENDMDL
MODEL 2
REMARK VINA RESULT:      -8.8      4.095     11.941
REMARK  6 active torsions:
REMARK  status: ('A' for Active; 'I' for Inactive)
REMARK    1  A    between atoms: C_2  and  O_3 
REMARK    2  A    between atoms: O_3  and  C_4 
REMARK    3  A    between atoms: C_13  and  C_14 
REMARK       I    between atoms: C_14  and  N_15 
REMARK    4  A    between atoms: N_15  and  N_16 
REMARK       I    between atoms: N_16  and  C_17 
REMARK    5  A    between atoms: C_17  and  C_18 
REMARK    6  A    between atoms: C_18  and  C_19 
ROOT
HETATM    1  C   UNL     1       2.335   9.780 -24.753  1.00  0.00     0.069 A 
HETATM    2  C   UNL     1       2.320   8.570 -25.446  1.00  0.00     0.050 A 
HETATM    3  C   UNL     1       1.413   8.350 -26.499  1.00  0.00    -0.004 A 
HETATM    4  C   UNL     1       0.500   9.354 -26.871  1.00  0.00     0.068 A 
HETATM    5  N   UNL     1      -0.383   9.226 -27.867  1.00  0.00    -0.240 NA
HETATM    6  C   UNL     1      -0.357   8.050 -28.523  1.00  0.00     0.111 A 
HETATM    7  C   UNL     1       0.476   6.973 -28.259  1.00  0.00     0.028 A 
HETATM    8  C   UNL     1       1.398   7.139 -27.204  1.00  0.00     0.030 A 
HETATM    9  S   UNL     1      -1.415   7.760 -29.823  1.00  0.00    -0.062 SA
HETATM   10  C   UNL     1      -0.804   6.174 -30.068  1.00  0.00     0.103 A 
HETATM   11  C   UNL     1       0.201   5.890 -29.159  1.00  0.00     0.062 A 
HETATM   12  N   UNL     1       0.861   4.711 -29.123  1.00  0.00    -0.397 N 
HETATM   13  C   UNL     1       0.524  10.543 -26.158  1.00  0.00     0.035 A 
HETATM   14  C   UNL     1       1.426  10.768 -25.108  1.00  0.00     0.039 A 
HETATM   15  H   UNL     1       0.559   3.928 -29.709  1.00  0.00     0.156 HD
HETATM   16  H   UNL     1       1.479   4.440 -28.366  1.00  0.00     0.156 HD
ENDROOT
BRANCH  10  17
HETATM   17  C   UNL     1      -1.345   5.301 -31.101  1.00  0.00     0.279 C 
HETATM   18  N   UNL     1      -2.714   5.093 -31.081  1.00  0.00    -0.263 N 
HETATM   19  H   UNL     1      -3.324   5.493 -30.370  1.00  0.00     0.190 HD
HETATM   20  O   UNL     1      -0.649   4.757 -31.966  1.00  0.00    -0.265 OA
BRANCH  18  21
HETATM   21  N   UNL     1      -3.282   4.178 -31.972  1.00  0.00    -0.267 N 
HETATM   22  C   UNL     1      -4.410   3.490 -31.578  1.00  0.00     0.240 C 
HETATM   23  O   UNL     1      -4.913   3.621 -30.463  1.00  0.00    -0.272 OA
HETATM   24  H   UNL     1      -2.955   4.209 -32.937  1.00  0.00     0.190 HD
BRANCH  22  25
HETATM   25  C   UNL     1      -4.933   2.507 -32.606  1.00  0.00     0.143 C 
BRANCH  25  26
HETATM   26  C   UNL     1      -4.474   1.088 -32.376  1.00  0.00    -0.049 A 
HETATM   27  C   UNL     1      -5.193   0.008 -32.907  1.00  0.00     0.007 A 
HETATM   28  C   UNL     1      -4.750  -1.300 -32.710  1.00  0.00     0.001 A 
HETATM   29  C   UNL     1      -3.587  -1.543 -31.982  1.00  0.00     0.000 A 
HETATM   30  C   UNL     1      -2.864  -0.477 -31.449  1.00  0.00     0.001 A 
HETATM   31  C   UNL     1      -3.305   0.833 -31.644  1.00  0.00     0.007 A 
ENDBRANCH  25  26
ENDBRANCH  22  25
ENDBRANCH  18  21
ENDBRANCH  10  17
BRANCH   1  32
HETATM   32  O   UNL     1       3.274   9.862 -23.765  1.00  0.00    -0.351 OA
BRANCH  32  33
HETATM   33  C   UNL     1       3.869   8.640 -23.328  1.00  0.00     0.171 C 
HETATM   34  C   UNL     1       3.372   8.355 -21.922  1.00  0.00     0.034 C 
ENDBRANCH  32  33
ENDBRANCH   1  32
TORSDOF 6
ENDMDL
MODEL 3
REMARK VINA RESULT:      -8.6      7.424      9.476
REMARK  6 active torsions:
REMARK  status: ('A' for Active; 'I' for Inactive)
REMARK    1  A    between atoms: C_2  and  O_3 
REMARK    2  A    between atoms: O_3  and  C_4 
REMARK    3  A    between atoms: C_13  and  C_14 
REMARK       I    between atoms: C_14  and  N_15 
REMARK    4  A    between atoms: N_15  and  N_16 
REMARK       I    between atoms: N_16  and  C_17 
REMARK    5  A    between atoms: C_17  and  C_18 
REMARK    6  A    between atoms: C_18  and  C_19 
ROOT
HETATM    1  C   UNL     1     -17.462   4.665 -31.488  1.00  0.00     0.069 A 
HETATM    2  C   UNL     1     -16.152   5.059 -31.761  1.00  0.00     0.050 A 
HETATM    3  C   UNL     1     -15.202   4.136 -32.235  1.00  0.00    -0.004 A 
HETATM    4  C   UNL     1     -15.560   2.790 -32.439  1.00  0.00     0.068 A 
HETATM    5  N   UNL     1     -14.720   1.857 -32.897  1.00  0.00    -0.240 NA
HETATM    6  C   UNL     1     -13.468   2.279 -33.165  1.00  0.00     0.111 A 
HETATM    7  C   UNL     1     -12.975   3.565 -33.001  1.00  0.00     0.028 A 
HETATM    8  C   UNL     1     -13.887   4.527 -32.518  1.00  0.00     0.030 A 
HETATM    9  S   UNL     1     -12.302   1.200 -33.770  1.00  0.00    -0.062 SA
HETATM   10  C   UNL     1     -11.089   2.414 -33.819  1.00  0.00     0.103 A 
HETATM   11  C   UNL     1     -11.593   3.627 -33.378  1.00  0.00     0.062 A 
HETATM   12  N   UNL     1     -10.856   4.758 -33.311  1.00  0.00    -0.397 N 
HETATM   13  C   UNL     1     -16.864   2.418 -32.147  1.00  0.00     0.035 A 
HETATM   14  C   UNL     1     -17.815   3.335 -31.675  1.00  0.00     0.039 A 
HETATM   15  H   UNL     1      -9.848   4.734 -33.485  1.00  0.00     0.156 HD
HETATM   16  H   UNL     1     -11.170   5.602 -32.843  1.00  0.00     0.156 HD
ENDROOT
BRANCH  10  17
HETATM   17  C   UNL     1      -9.731   2.118 -34.256  1.00  0.00     0.279 C 
HETATM   18  N   UNL     1      -9.490   0.826 -34.691  1.00  0.00    -0.263 N 
HETATM   19  H   UNL     1     -10.202   0.098 -34.684  1.00  0.00     0.190 HD
HETATM   20  O   UNL     1      -8.818   2.951 -34.251  1.00  0.00    -0.265 OA
BRANCH  18  21
HETATM   21  N   UNL     1      -8.185   0.445 -35.016  1.00  0.00    -0.267 N 
HETATM   22  C   UNL     1      -7.449  -0.245 -34.076  1.00  0.00     0.240 C 
HETATM   23  O   UNL     1      -7.880  -0.505 -32.953  1.00  0.00    -0.272 OA
HETATM   24  H   UNL     1      -7.913   0.518 -35.995  1.00  0.00     0.190 HD
BRANCH  22  25
HETATM   25  C   UNL     1      -6.041  -0.592 -34.517  1.00  0.00     0.143 C 
BRANCH  25  26
HETATM   26  C   UNL     1      -5.765  -2.074 -34.553  1.00  0.00    -0.049 A 
HETATM   27  C   UNL     1      -4.504  -2.576 -34.200  1.00  0.00     0.007 A 
HETATM   28  C   UNL     1      -4.262  -3.951 -34.214  1.00  0.00     0.001 A 
HETATM   29  C   UNL     1      -5.274  -4.836 -34.581  1.00  0.00     0.000 A 
HETATM   30  C   UNL     1      -6.531  -4.347 -34.934  1.00  0.00     0.001 A 
HETATM   31  C   UNL     1      -6.776  -2.973 -34.921  1.00  0.00     0.007 A 
ENDBRANCH  25  26
ENDBRANCH  22  25
ENDBRANCH  18  21
ENDBRANCH  10  17
BRANCH   1  32
HETATM   32  O   UNL     1     -18.281   5.665 -31.047  1.00  0.00    -0.351 OA
BRANCH  32  33
HETATM   33  C   UNL     1     -18.214   5.999 -29.661  1.00  0.00     0.171 C 
HETATM   34  C   UNL     1     -19.202   5.118 -28.920  1.00  0.00     0.034 C 
ENDBRANCH  32  33
ENDBRANCH   1  32
TORSDOF 6
ENDMDL
MODEL 4
REMARK VINA RESULT:      -8.6      3.364     10.862
REMARK  6 active torsions:
REMARK  status: ('A' for Active; 'I' for Inactive)
REMARK    1  A    between atoms: C_2  and  O_3 
REMARK    2  A    between atoms: O_3  and  C_4 
REMARK    3  A    between atoms: C_13  and  C_14 
REMARK       I    between atoms: C_14  and  N_15 
REMARK    4  A    between atoms: N_15  and  N_16 
REMARK       I    between atoms: N_16  and  C_17 
REMARK    5  A    between atoms: C_17  and  C_18 
REMARK    6  A    between atoms: C_18  and  C_19 
ROOT
HETATM    1  C   UNL     1      -0.499   8.820 -28.230  1.00  0.00     0.069 A 
HETATM    2  C   UNL     1      -1.768   8.496 -28.709  1.00  0.00     0.050 A 
HETATM    3  C   UNL     1      -1.963   7.387 -29.551  1.00  0.00    -0.004 A 
HETATM    4  C   UNL     1      -0.872   6.581 -29.930  1.00  0.00     0.068 A 
HETATM    5  N   UNL     1      -0.978   5.505 -30.716  1.00  0.00    -0.240 NA
HETATM    6  C   UNL     1      -2.222   5.216 -31.146  1.00  0.00     0.111 A 
HETATM    7  C   UNL     1      -3.381   5.924 -30.863  1.00  0.00     0.028 A 
HETATM    8  C   UNL     1      -3.237   7.052 -30.030  1.00  0.00     0.030 A 
HETATM    9  S   UNL     1      -2.502   3.864 -32.139  1.00  0.00    -0.062 SA
HETATM   10  C   UNL     1      -4.185   4.189 -32.239  1.00  0.00     0.103 A 
HETATM   11  C   UNL     1      -4.510   5.320 -31.510  1.00  0.00     0.062 A 
HETATM   12  N   UNL     1      -5.767   5.807 -31.413  1.00  0.00    -0.397 N 
HETATM   13  C   UNL     1       0.382   6.931 -29.453  1.00  0.00     0.035 A 
HETATM   14  C   UNL     1       0.583   8.035 -28.612  1.00  0.00     0.039 A 
HETATM   15  H   UNL     1      -6.524   5.411 -31.978  1.00  0.00     0.156 HD
HETATM   16  H   UNL     1      -5.985   6.716 -31.018  1.00  0.00     0.156 HD
ENDROOT
BRANCH  10  17
HETATM   17  C   UNL     1      -5.077   3.349 -33.028  1.00  0.00     0.279 C 
HETATM   18  N   UNL     1      -5.028   1.988 -32.777  1.00  0.00    -0.263 N 
HETATM   19  H   UNL     1      -4.387   1.573 -32.104  1.00  0.00     0.190 HD
HETATM   20  O   UNL     1      -5.849   3.793 -33.885  1.00  0.00    -0.265 OA
BRANCH  18  21
HETATM   21  N   UNL     1      -5.773   1.117 -33.576  1.00  0.00    -0.267 N 
HETATM   22  C   UNL     1      -6.322  -0.005 -32.990  1.00  0.00     0.240 C 
HETATM   23  O   UNL     1      -6.151  -0.287 -31.805  1.00  0.00    -0.272 OA
HETATM   24  H   UNL     1      -6.041   1.452 -34.500  1.00  0.00     0.190 HD
BRANCH  22  25
HETATM   25  C   UNL     1      -7.090  -0.896 -33.946  1.00  0.00     0.143 C 
BRANCH  25  26
HETATM   26  C   UNL     1      -6.395  -2.199 -34.251  1.00  0.00    -0.049 A 
HETATM   27  C   UNL     1      -5.002  -2.309 -34.143  1.00  0.00     0.007 A 
HETATM   28  C   UNL     1      -4.367  -3.525 -34.405  1.00  0.00     0.001 A 
HETATM   29  C   UNL     1      -5.116  -4.640 -34.776  1.00  0.00     0.000 A 
HETATM   30  C   UNL     1      -6.502  -4.541 -34.887  1.00  0.00     0.001 A 
HETATM   31  C   UNL     1      -7.140  -3.328 -34.626  1.00  0.00     0.007 A 
ENDBRANCH  25  26
ENDBRANCH  22  25
ENDBRANCH  18  21
ENDBRANCH  10  17
BRANCH   1  32
HETATM   32  O   UNL     1      -0.456   9.912 -27.411  1.00  0.00    -0.351 OA
BRANCH  32  33
HETATM   33  C   UNL     1       0.150   9.741 -26.130  1.00  0.00     0.171 C 
HETATM   34  C   UNL     1      -0.933   9.328 -25.151  1.00  0.00     0.034 C 
ENDBRANCH  32  33
ENDBRANCH   1  32
TORSDOF 6
ENDMDL
MODEL 5
REMARK VINA RESULT:      -8.6      2.959      4.068
REMARK  6 active torsions:
REMARK  status: ('A' for Active; 'I' for Inactive)
REMARK    1  A    between atoms: C_2  and  O_3 
REMARK    2  A    between atoms: O_3  and  C_4 
REMARK    3  A    between atoms: C_13  and  C_14 
REMARK       I    between atoms: C_14  and  N_15 
REMARK    4  A    between atoms: N_15  and  N_16 
REMARK       I    between atoms: N_16  and  C_17 
REMARK    5  A    between atoms: C_17  and  C_18 
REMARK    6  A    between atoms: C_18  and  C_19 
ROOT
HETATM    1  C   UNL     1      -6.959  -1.267 -34.415  1.00  0.00     0.069 A 
HETATM    2  C   UNL     1      -5.946  -0.767 -33.598  1.00  0.00     0.050 A 
HETATM    3  C   UNL     1      -5.749   0.618 -33.454  1.00  0.00    -0.004 A 
HETATM    4  C   UNL     1      -6.576   1.529 -34.138  1.00  0.00     0.068 A 
HETATM    5  N   UNL     1      -6.460   2.857 -34.044  1.00  0.00    -0.240 NA
HETATM    6  C   UNL     1      -5.479   3.301 -33.233  1.00  0.00     0.111 A 
HETATM    7  C   UNL     1      -4.587   2.524 -32.509  1.00  0.00     0.028 A 
HETATM    8  C   UNL     1      -4.736   1.126 -32.629  1.00  0.00     0.030 A 
HETATM    9  S   UNL     1      -5.232   4.968 -33.007  1.00  0.00    -0.062 SA
HETATM   10  C   UNL     1      -3.909   4.708 -31.944  1.00  0.00     0.103 A 
HETATM   11  C   UNL     1      -3.678   3.353 -31.772  1.00  0.00     0.062 A 
HETATM   12  N   UNL     1      -2.696   2.860 -30.986  1.00  0.00    -0.397 N 
HETATM   13  C   UNL     1      -7.568   1.009 -34.956  1.00  0.00     0.035 A 
HETATM   14  C   UNL     1      -7.769  -0.372 -35.103  1.00  0.00     0.039 A 
HETATM   15  H   UNL     1      -2.003   3.484 -30.565  1.00  0.00     0.156 HD
HETATM   16  H   UNL     1      -2.422   1.883 -30.982  1.00  0.00     0.156 HD
ENDROOT
BRANCH  10  17
HETATM   17  C   UNL     1      -3.168   5.819 -31.364  1.00  0.00     0.279 C 
HETATM   18  N   UNL     1      -3.916   6.899 -30.925  1.00  0.00    -0.263 N 
HETATM   19  H   UNL     1      -4.928   6.947 -31.023  1.00  0.00     0.190 HD
HETATM   20  O   UNL     1      -1.937   5.833 -31.253  1.00  0.00    -0.265 OA
BRANCH  18  21
HETATM   21  N   UNL     1      -3.261   8.044 -30.463  1.00  0.00    -0.267 N 
HETATM   22  C   UNL     1      -3.133   8.224 -29.102  1.00  0.00     0.240 C 
HETATM   23  O   UNL     1      -3.603   7.438 -28.280  1.00  0.00    -0.272 OA
HETATM   24  H   UNL     1      -2.739   8.587 -31.150  1.00  0.00     0.190 HD
BRANCH  22  25
HETATM   25  C   UNL     1      -2.429   9.507 -28.705  1.00  0.00     0.143 C 
BRANCH  25  26
HETATM   26  C   UNL     1      -1.022   9.295 -28.203  1.00  0.00    -0.049 A 
HETATM   27  C   UNL     1      -0.221   8.272 -28.731  1.00  0.00     0.007 A 
HETATM   28  C   UNL     1       1.088   8.096 -28.278  1.00  0.00     0.001 A 
HETATM   29  C   UNL     1       1.608   8.938 -27.297  1.00  0.00     0.000 A 
HETATM   30  C   UNL     1       0.820   9.958 -26.766  1.00  0.00     0.001 A 
HETATM   31  C   UNL     1      -0.489  10.137 -27.216  1.00  0.00     0.007 A 
ENDBRANCH  25  26
ENDBRANCH  22  25
ENDBRANCH  18  21
ENDBRANCH  10  17
BRANCH   1  32
HETATM   32  O   UNL     1      -7.047  -2.629 -34.453  1.00  0.00    -0.351 OA
BRANCH  32  33
HETATM   33  C   UNL     1      -5.836  -3.353 -34.667  1.00  0.00     0.171 C 
HETATM   34  C   UNL     1      -6.166  -4.584 -35.491  1.00  0.00     0.034 C 
ENDBRANCH  32  33
ENDBRANCH   1  32
TORSDOF 6
ENDMDL
MODEL 6
REMARK VINA RESULT:      -8.4      1.743      2.742
REMARK  6 active torsions:
REMARK  status: ('A' for Active; 'I' for Inactive)
REMARK    1  A    between atoms: C_2  and  O_3 
REMARK    2  A    between atoms: O_3  and  C_4 
REMARK    3  A    between atoms: C_13  and  C_14 
REMARK       I    between atoms: C_14  and  N_15 
REMARK    4  A    between atoms: N_15  and  N_16 
REMARK       I    between atoms: N_16  and  C_17 
REMARK    5  A    between atoms: C_17  and  C_18 
REMARK    6  A    between atoms: C_18  and  C_19 
ROOT
HETATM    1  C   UNL     1     -12.373   2.296 -35.142  1.00  0.00     0.069 A 
HETATM    2  C   UNL     1     -11.256   1.702 -34.556  1.00  0.00     0.050 A 
HETATM    3  C   UNL     1     -10.088   2.445 -34.306  1.00  0.00    -0.004 A 
HETATM    4  C   UNL     1     -10.027   3.810 -34.648  1.00  0.00     0.068 A 
HETATM    5  N   UNL     1      -8.959   4.585 -34.432  1.00  0.00    -0.240 NA
HETATM    6  C   UNL     1      -7.906   3.979 -33.850  1.00  0.00     0.111 A 
HETATM    7  C   UNL     1      -7.822   2.647 -33.472  1.00  0.00     0.028 A 
HETATM    8  C   UNL     1      -8.964   1.856 -33.711  1.00  0.00     0.030 A 
HETATM    9  S   UNL     1      -6.489   4.852 -33.502  1.00  0.00    -0.062 SA
HETATM   10  C   UNL     1      -5.706   3.472 -32.846  1.00  0.00     0.103 A 
HETATM   11  C   UNL     1      -6.538   2.366 -32.897  1.00  0.00     0.062 A 
HETATM   12  N   UNL     1      -6.178   1.143 -32.448  1.00  0.00    -0.397 N 
HETATM   13  C   UNL     1     -11.145   4.375 -35.243  1.00  0.00     0.035 A 
HETATM   14  C   UNL     1     -12.312   3.639 -35.494  1.00  0.00     0.039 A 
HETATM   15  H   UNL     1      -5.217   0.961 -32.148  1.00  0.00     0.156 HD
HETATM   16  H   UNL     1      -6.717   0.302 -32.628  1.00  0.00     0.156 HD
ENDROOT
BRANCH  10  17
HETATM   17  C   UNL     1      -4.338   3.537 -32.347  1.00  0.00     0.279 C 
HETATM   18  N   UNL     1      -3.462   4.350 -33.048  1.00  0.00    -0.263 N 
HETATM   19  H   UNL     1      -3.732   4.857 -33.889  1.00  0.00     0.190 HD
HETATM   20  O   UNL     1      -3.946   2.915 -31.355  1.00  0.00    -0.265 OA
BRANCH  18  21
HETATM   21  N   UNL     1      -2.111   4.369 -32.692  1.00  0.00    -0.267 N 
HETATM   22  C   UNL     1      -1.537   5.577 -32.357  1.00  0.00     0.240 C 
HETATM   23  O   UNL     1      -2.155   6.641 -32.395  1.00  0.00    -0.272 OA
HETATM   24  H   UNL     1      -1.670   3.470 -32.504  1.00  0.00     0.190 HD
BRANCH  22  25
HETATM   25  C   UNL     1      -0.064   5.494 -32.009  1.00  0.00     0.143 C 
BRANCH  25  26
HETATM   26  C   UNL     1       0.257   5.978 -30.617  1.00  0.00    -0.049 A 
HETATM   27  C   UNL     1       0.322   7.350 -30.333  1.00  0.00     0.007 A 
HETATM   28  C   UNL     1       0.598   7.791 -29.038  1.00  0.00     0.001 A 
HETATM   29  C   UNL     1       0.811   6.868 -28.015  1.00  0.00     0.000 A 
HETATM   30  C   UNL     1       0.750   5.502 -28.287  1.00  0.00     0.001 A 
HETATM   31  C   UNL     1       0.474   5.058 -29.580  1.00  0.00     0.007 A 
ENDBRANCH  25  26
ENDBRANCH  22  25
ENDBRANCH  18  21
ENDBRANCH  10  17
BRANCH   1  32
HETATM   32  O   UNL     1     -13.441   1.463 -35.315  1.00  0.00    -0.351 OA
BRANCH  32  33
HETATM   33  C   UNL     1     -13.834   0.669 -34.196  1.00  0.00     0.171 C 
HETATM   34  C   UNL     1     -14.736   1.515 -33.315  1.00  0.00     0.034 C 
ENDBRANCH  32  33
ENDBRANCH   1  32
TORSDOF 6
ENDMDL
MODEL 7
REMARK VINA RESULT:      -8.3      3.398      4.650
REMARK  6 active torsions:
REMARK  status: ('A' for Active; 'I' for Inactive)
REMARK    1  A    between atoms: C_2  and  O_3 
REMARK    2  A    between atoms: O_3  and  C_4 
REMARK    3  A    between atoms: C_13  and  C_14 
REMARK       I    between atoms: C_14  and  N_15 
REMARK    4  A    between atoms: N_15  and  N_16 
REMARK       I    between atoms: N_16  and  C_17 
REMARK    5  A    between atoms: C_17  and  C_18 
REMARK    6  A    between atoms: C_18  and  C_19 
ROOT
HETATM    1  C   UNL     1      -5.664  -2.707 -34.545  1.00  0.00     0.069 A 
HETATM    2  C   UNL     1      -4.791  -1.822 -33.913  1.00  0.00     0.050 A 
HETATM    3  C   UNL     1      -5.269  -0.652 -33.295  1.00  0.00    -0.004 A 
HETATM    4  C   UNL     1      -6.644  -0.352 -33.308  1.00  0.00     0.068 A 
HETATM    5  N   UNL     1      -7.176   0.732 -32.734  1.00  0.00    -0.240 NA
HETATM    6  C   UNL     1      -6.303   1.555 -32.120  1.00  0.00     0.111 A 
HETATM    7  C   UNL     1      -4.928   1.392 -32.039  1.00  0.00     0.028 A 
HETATM    8  C   UNL     1      -4.398   0.238 -32.653  1.00  0.00     0.030 A 
HETATM    9  S   UNL     1      -6.846   2.962 -31.334  1.00  0.00    -0.062 SA
HETATM   10  C   UNL     1      -5.255   3.412 -30.871  1.00  0.00     0.103 A 
HETATM   11  C   UNL     1      -4.333   2.480 -31.318  1.00  0.00     0.062 A 
HETATM   12  N   UNL     1      -3.004   2.583 -31.095  1.00  0.00    -0.397 N 
HETATM   13  C   UNL     1      -7.491  -1.240 -33.955  1.00  0.00     0.035 A 
HETATM   14  C   UNL     1      -7.021  -2.408 -34.571  1.00  0.00     0.039 A 
HETATM   15  H   UNL     1      -2.611   3.428 -30.673  1.00  0.00     0.156 HD
HETATM   16  H   UNL     1      -2.314   1.996 -31.552  1.00  0.00     0.156 HD
ENDROOT
BRANCH  10  17
HETATM   17  C   UNL     1      -4.996   4.639 -30.130  1.00  0.00     0.279 C 
HETATM   18  N   UNL     1      -3.767   5.242 -30.343  1.00  0.00    -0.263 N 
HETATM   19  H   UNL     1      -3.056   4.847 -30.956  1.00  0.00     0.190 HD
HETATM   20  O   UNL     1      -5.805   5.144 -29.345  1.00  0.00    -0.265 OA
BRANCH  18  21
HETATM   21  N   UNL     1      -3.410   6.357 -29.580  1.00  0.00    -0.267 N 
HETATM   22  C   UNL     1      -2.419   7.190 -30.057  1.00  0.00     0.240 C 
HETATM   23  O   UNL     1      -1.814   6.971 -31.106  1.00  0.00    -0.272 OA
HETATM   24  H   UNL     1      -4.030   6.610 -28.812  1.00  0.00     0.190 HD
BRANCH  22  25
HETATM   25  C   UNL     1      -2.090   8.355 -29.146  1.00  0.00     0.143 C 
BRANCH  25  26
HETATM   26  C   UNL     1      -0.941   8.085 -28.208  1.00  0.00    -0.049 A 
HETATM   27  C   UNL     1      -1.164   7.511 -26.949  1.00  0.00     0.007 A 
HETATM   28  C   UNL     1      -0.093   7.243 -26.095  1.00  0.00     0.001 A 
HETATM   29  C   UNL     1       1.209   7.544 -26.489  1.00  0.00     0.000 A 
HETATM   30  C   UNL     1       1.442   8.116 -27.739  1.00  0.00     0.001 A 
HETATM   31  C   UNL     1       0.374   8.385 -28.595  1.00  0.00     0.007 A 
ENDBRANCH  25  26
ENDBRANCH  22  25
ENDBRANCH  18  21
ENDBRANCH  10  17
BRANCH   1  32
HETATM   32  O   UNL     1      -5.068  -3.809 -35.090  1.00  0.00    -0.351 OA
BRANCH  32  33
HETATM   33  C   UNL     1      -4.849  -4.924 -34.227  1.00  0.00     0.171 C 
HETATM   34  C   UNL     1      -3.389  -4.917 -33.814  1.00  0.00     0.034 C 
ENDBRANCH  32  33
ENDBRANCH   1  32
TORSDOF 6
ENDMDL
MODEL 8
REMARK VINA RESULT:      -8.3      3.391      4.175
REMARK  6 active torsions:
REMARK  status: ('A' for Active; 'I' for Inactive)
REMARK    1  A    between atoms: C_2  and  O_3 
REMARK    2  A    between atoms: O_3  and  C_4 
REMARK    3  A    between atoms: C_13  and  C_14 
REMARK       I    between atoms: C_14  and  N_15 
REMARK    4  A    between atoms: N_15  and  N_16 
REMARK       I    between atoms: N_16  and  C_17 
REMARK    5  A    between atoms: C_17  and  C_18 
REMARK    6  A    between atoms: C_18  and  C_19 
ROOT
HETATM    1  C   UNL     1      -6.088  -1.926 -34.222  1.00  0.00     0.069 A 
HETATM    2  C   UNL     1      -6.512  -0.625 -33.952  1.00  0.00     0.050 A 
HETATM    3  C   UNL     1      -5.650   0.307 -33.347  1.00  0.00    -0.004 A 
HETATM    4  C   UNL     1      -4.337  -0.062 -32.999  1.00  0.00     0.068 A 
HETATM    5  N   UNL     1      -3.455   0.768 -32.432  1.00  0.00    -0.240 NA
HETATM    6  C   UNL     1      -3.897   2.020 -32.202  1.00  0.00     0.111 A 
HETATM    7  C   UNL     1      -5.161   2.517 -32.481  1.00  0.00     0.028 A 
HETATM    8  C   UNL     1      -6.068   1.618 -33.080  1.00  0.00     0.030 A 
HETATM    9  S   UNL     1      -2.873   3.184 -31.502  1.00  0.00    -0.062 SA
HETATM   10  C   UNL     1      -4.093   4.391 -31.534  1.00  0.00     0.103 A 
HETATM   11  C   UNL     1      -5.263   3.891 -32.082  1.00  0.00     0.062 A 
HETATM   12  N   UNL     1      -6.388   4.625 -32.230  1.00  0.00    -0.397 N 
HETATM   13  C   UNL     1      -3.942  -1.365 -33.263  1.00  0.00     0.035 A 
HETATM   14  C   UNL     1      -4.797  -2.298 -33.867  1.00  0.00     0.039 A 
HETATM   15  H   UNL     1      -6.452   5.566 -31.833  1.00  0.00     0.156 HD
HETATM   16  H   UNL     1      -7.287   4.224 -32.479  1.00  0.00     0.156 HD
ENDROOT
BRANCH  10  17
HETATM   17  C   UNL     1      -3.855   5.730 -31.011  1.00  0.00     0.279 C 
HETATM   18  N   UNL     1      -2.765   5.879 -30.169  1.00  0.00    -0.263 N 
HETATM   19  H   UNL     1      -2.169   5.101 -29.892  1.00  0.00     0.190 HD
HETATM   20  O   UNL     1      -4.566   6.703 -31.281  1.00  0.00    -0.265 OA
BRANCH  18  21
HETATM   21  N   UNL     1      -2.547   7.109 -29.543  1.00  0.00    -0.267 N 
HETATM   22  C   UNL     1      -1.314   7.711 -29.688  1.00  0.00     0.240 C 
HETATM   23  O   UNL     1      -0.390   7.191 -30.313  1.00  0.00    -0.272 OA
HETATM   24  H   UNL     1      -3.365   7.595 -29.179  1.00  0.00     0.190 HD
BRANCH  22  25
HETATM   25  C   UNL     1      -1.171   9.028 -28.952  1.00  0.00     0.143 C 
BRANCH  25  26
HETATM   26  C   UNL     1      -0.294   8.946 -27.728  1.00  0.00    -0.049 A 
HETATM   27  C   UNL     1       1.079   8.690 -27.847  1.00  0.00     0.007 A 
HETATM   28  C   UNL     1       1.889   8.637 -26.711  1.00  0.00     0.001 A 
HETATM   29  C   UNL     1       1.337   8.841 -25.448  1.00  0.00     0.000 A 
HETATM   30  C   UNL     1      -0.027   9.096 -25.318  1.00  0.00     0.001 A 
HETATM   31  C   UNL     1      -0.840   9.149 -26.451  1.00  0.00     0.007 A 
ENDBRANCH  25  26
ENDBRANCH  22  25
ENDBRANCH  18  21
ENDBRANCH  10  17
BRANCH   1  32
HETATM   32  O   UNL     1      -7.022  -2.720 -34.824  1.00  0.00    -0.351 OA
BRANCH  32  33
HETATM   33  C   UNL     1      -6.970  -4.117 -34.536  1.00  0.00     0.171 C 
HETATM   34  C   UNL     1      -6.344  -4.818 -35.728  1.00  0.00     0.034 C 
ENDBRANCH  32  33
ENDBRANCH   1  32
TORSDOF 6
ENDMDL
MODEL 9
REMARK VINA RESULT:      -8.2      3.405     11.075
REMARK  6 active torsions:
REMARK  status: ('A' for Active; 'I' for Inactive)
REMARK    1  A    between atoms: C_2  and  O_3 
REMARK    2  A    between atoms: O_3  and  C_4 
REMARK    3  A    between atoms: C_13  and  C_14 
REMARK       I    between atoms: C_14  and  N_15 
REMARK    4  A    between atoms: N_15  and  N_16 
REMARK       I    between atoms: N_16  and  C_17 
REMARK    5  A    between atoms: C_17  and  C_18 
REMARK    6  A    between atoms: C_18  and  C_19 
ROOT
HETATM    1  C   UNL     1       0.107  10.221 -26.773  1.00  0.00     0.069 A 
HETATM    2  C   UNL     1      -0.971   9.681 -27.474  1.00  0.00     0.050 A 
HETATM    3  C   UNL     1      -0.802   8.570 -28.319  1.00  0.00    -0.004 A 
HETATM    4  C   UNL     1       0.467   7.981 -28.473  1.00  0.00     0.068 A 
HETATM    5  N   UNL     1       0.706   6.918 -29.247  1.00  0.00    -0.240 NA
HETATM    6  C   UNL     1      -0.363   6.416 -29.896  1.00  0.00     0.111 A 
HETATM    7  C   UNL     1      -1.663   6.897 -29.847  1.00  0.00     0.028 A 
HETATM    8  C   UNL     1      -1.883   8.019 -29.020  1.00  0.00     0.030 A 
HETATM    9  S   UNL     1      -0.204   5.052 -30.900  1.00  0.00    -0.062 SA
HETATM   10  C   UNL     1      -1.869   5.069 -31.318  1.00  0.00     0.103 A 
HETATM   11  C   UNL     1      -2.524   6.110 -30.682  1.00  0.00     0.062 A 
HETATM   12  N   UNL     1      -3.844   6.360 -30.829  1.00  0.00    -0.397 N 
HETATM   13  C   UNL     1       1.527   8.544 -27.778  1.00  0.00     0.035 A 
HETATM   14  C   UNL     1       1.364   9.651 -26.933  1.00  0.00     0.039 A 
HETATM   15  H   UNL     1      -4.397   5.844 -31.518  1.00  0.00     0.156 HD
HETATM   16  H   UNL     1      -4.292   7.208 -30.497  1.00  0.00     0.156 HD
ENDROOT
BRANCH  10  17
HETATM   17  C   UNL     1      -2.432   4.095 -32.245  1.00  0.00     0.279 C 
HETATM   18  N   UNL     1      -3.082   3.010 -31.682  1.00  0.00    -0.263 N 
HETATM   19  H   UNL     1      -3.146   2.864 -30.676  1.00  0.00     0.190 HD
HETATM   20  O   UNL     1      -2.352   4.200 -33.473  1.00  0.00    -0.265 OA
BRANCH  18  21
HETATM   21  N   UNL     1      -3.544   1.983 -32.510  1.00  0.00    -0.267 N 
HETATM   22  C   UNL     1      -3.519   0.690 -32.030  1.00  0.00     0.240 C 
HETATM   23  O   UNL     1      -3.072   0.401 -30.921  1.00  0.00    -0.272 OA
HETATM   24  H   UNL     1      -4.059   2.259 -33.345  1.00  0.00     0.190 HD
BRANCH  22  25
HETATM   25  C   UNL     1      -4.019  -0.350 -33.012  1.00  0.00     0.143 C 
BRANCH  25  26
HETATM   26  C   UNL     1      -5.514  -0.327 -33.210  1.00  0.00    -0.049 A 
HETATM   27  C   UNL     1      -6.372  -0.012 -32.147  1.00  0.00     0.007 A 
HETATM   28  C   UNL     1      -7.753   0.030 -32.343  1.00  0.00     0.001 A 
HETATM   29  C   UNL     1      -8.290  -0.242 -33.600  1.00  0.00     0.000 A 
HETATM   30  C   UNL     1      -7.446  -0.557 -34.664  1.00  0.00     0.001 A 
HETATM   31  C   UNL     1      -6.065  -0.600 -34.471  1.00  0.00     0.007 A 
ENDBRANCH  25  26
ENDBRANCH  22  25
ENDBRANCH  18  21
ENDBRANCH  10  17
BRANCH   1  32
HETATM   32  O   UNL     1      -0.202  11.289 -25.979  1.00  0.00    -0.351 OA
BRANCH  32  33
HETATM   33  C   UNL     1      -0.997  11.031 -24.822  1.00  0.00     0.171 C 
HETATM   34  C   UNL     1      -0.060  10.792 -23.653  1.00  0.00     0.034 C 
ENDBRANCH  32  33
ENDBRANCH   1  32
TORSDOF 6
ENDMDL
MODEL 10
REMARK VINA RESULT:      -7.7      6.356     11.142
REMARK  6 active torsions:
REMARK  status: ('A' for Active; 'I' for Inactive)
REMARK    1  A    between atoms: C_2  and  O_3 
REMARK    2  A    between atoms: O_3  and  C_4 
REMARK    3  A    between atoms: C_13  and  C_14 
REMARK       I    between atoms: C_14  and  N_15 
REMARK    4  A    between atoms: N_15  and  N_16 
REMARK       I    between atoms: N_16  and  C_17 
REMARK    5  A    between atoms: C_17  and  C_18 
REMARK    6  A    between atoms: C_18  and  C_19 
ROOT
HETATM    1  C   UNL     1      -4.818  -2.251 -34.188  1.00  0.00     0.069 A 
HETATM    2  C   UNL     1      -6.050  -1.763 -34.624  1.00  0.00     0.050 A 
HETATM    3  C   UNL     1      -6.640  -0.639 -34.017  1.00  0.00    -0.004 A 
HETATM    4  C   UNL     1      -5.992   0.014 -32.951  1.00  0.00     0.068 A 
HETATM    5  N   UNL     1      -6.481   1.093 -32.331  1.00  0.00    -0.240 NA
HETATM    6  C   UNL     1      -7.665   1.543 -32.790  1.00  0.00     0.111 A 
HETATM    7  C   UNL     1      -8.417   0.996 -33.819  1.00  0.00     0.028 A 
HETATM    8  C   UNL     1      -7.874  -0.140 -34.454  1.00  0.00     0.030 A 
HETATM    9  S   UNL     1      -8.393   2.918 -32.104  1.00  0.00    -0.062 SA
HETATM   10  C   UNL     1      -9.751   2.819 -33.151  1.00  0.00     0.103 A 
HETATM   11  C   UNL     1      -9.627   1.742 -34.013  1.00  0.00     0.062 A 
HETATM   12  N   UNL     1     -10.552   1.426 -34.946  1.00  0.00    -0.397 N 
HETATM   13  C   UNL     1      -4.776  -0.498 -32.525  1.00  0.00     0.035 A 
HETATM   14  C   UNL     1      -4.182  -1.617 -33.128  1.00  0.00     0.039 A 
HETATM   15  H   UNL     1     -11.449   1.917 -34.977  1.00  0.00     0.156 HD
HETATM   16  H   UNL     1     -10.545   0.555 -35.466  1.00  0.00     0.156 HD
ENDROOT
BRANCH  10  17
HETATM   17  C   UNL     1     -10.853   3.768 -33.061  1.00  0.00     0.279 C 
HETATM   18  N   UNL     1     -11.974   3.348 -32.364  1.00  0.00    -0.263 N 
HETATM   19  H   UNL     1     -12.056   2.419 -31.956  1.00  0.00     0.190 HD
HETATM   20  O   UNL     1     -10.824   4.894 -33.568  1.00  0.00    -0.265 OA
BRANCH  18  21
HETATM   21  N   UNL     1     -13.108   4.164 -32.337  1.00  0.00    -0.267 N 
HETATM   22  C   UNL     1     -13.682   4.451 -31.116  1.00  0.00     0.240 C 
HETATM   23  O   UNL     1     -13.259   3.990 -30.057  1.00  0.00    -0.272 OA
HETATM   24  H   UNL     1     -13.338   4.665 -33.194  1.00  0.00     0.190 HD
BRANCH  22  25
HETATM   25  C   UNL     1     -14.920   5.323 -31.198  1.00  0.00     0.143 C 
BRANCH  25  26
HETATM   26  C   UNL     1     -16.129   4.608 -31.747  1.00  0.00    -0.049 A 
HETATM   27  C   UNL     1     -16.140   3.212 -31.871  1.00  0.00     0.007 A 
HETATM   28  C   UNL     1     -17.270   2.555 -32.360  1.00  0.00     0.001 A 
HETATM   29  C   UNL     1     -18.399   3.284 -32.728  1.00  0.00     0.000 A 
HETATM   30  C   UNL     1     -18.399   4.674 -32.608  1.00  0.00     0.001 A 
HETATM   31  C   UNL     1     -17.270   5.333 -32.121  1.00  0.00     0.007 A 
ENDBRANCH  25  26
ENDBRANCH  22  25
ENDBRANCH  18  21
ENDBRANCH  10  17
BRANCH   1  32
HETATM   32  O   UNL     1      -4.356  -3.337 -34.875  1.00  0.00    -0.351 OA
BRANCH  32  33
HETATM   33  C   UNL     1      -4.600  -4.621 -34.301  1.00  0.00     0.171 C 
HETATM   34  C   UNL     1      -3.413  -4.976 -33.425  1.00  0.00     0.034 C 
ENDBRANCH  32  33
ENDBRANCH   1  32
TORSDOF 6
ENDMDL
