MODEL 1
REMARK VINA RESULT:      -8.8      0.000      0.000
REMARK  6 active torsions:
REMARK  status: ('A' for Active; 'I' for Inactive)
REMARK    1  A    between atoms: C_2  and  N_3 
REMARK       I    between atoms: N_3  and  C_4 
REMARK    2  A    between atoms: C_4  and  C_5 
REMARK    3  A    between atoms: C_5  and  O_6 
REMARK    4  A    between atoms: O_6  and  C_7 
REMARK    5  A    between atoms: C_9  and  N_10 
REMARK       I    between atoms: N_10  and  C_11 
REMARK    6  A    between atoms: C_11  and  C_12 
ROOT
HETATM    1  N   UNL     1      -4.246   1.634 -32.467  1.00  0.00    -0.322 N 
HETATM    2  C   UNL     1      -4.911   0.521 -32.948  1.00  0.00     0.277 C 
HETATM    3  O   UNL     1      -5.984   0.517 -33.543  1.00  0.00    -0.266 OA
HETATM    4  H   UNL     1      -3.392   1.409 -31.963  1.00  0.00     0.169 HD
ENDROOT
BRANCH   1   5
HETATM    5  C   UNL     1      -4.639   2.981 -32.552  1.00  0.00     0.037 A 
HETATM    6  C   UNL     1      -4.080   3.891 -33.449  1.00  0.00     0.066 A 
HETATM    7  C   UNL     1      -4.530   5.215 -33.507  1.00  0.00     0.071 A 
HETATM    8  C   UNL     1      -5.537   5.644 -32.647  1.00  0.00     0.037 A 
HETATM    9  C   UNL     1      -6.094   4.744 -31.737  1.00  0.00     0.005 A 
HETATM   10  C   UNL     1      -5.646   3.421 -31.688  1.00  0.00     0.029 A 
BRANCH   7  11
HETATM   11  O   UNL     1      -3.884   5.983 -34.433  1.00  0.00    -0.342 OA
BRANCH  11  12
HETATM   12  C   UNL     1      -2.496   5.732 -34.638  1.00  0.00     0.278 C 
BRANCH  12  13
HETATM   13  C   UNL     1      -1.685   6.661 -33.732  1.00  0.00     0.241 C 
HETATM   14  N   UNL     1      -1.057   6.017 -32.687  1.00  0.00    -0.360 N 
HETATM   15  H   UNL     1      -1.332   5.052 -32.524  1.00  0.00     0.162 HD
HETATM   16  O   UNL     1      -1.575   7.863 -33.958  1.00  0.00    -0.271 OA
BRANCH  14  17
HETATM   17  C   UNL     1      -0.312   6.714 -31.666  1.00  0.00     0.118 C 
HETATM   18  C   UNL     1       0.621   5.777 -30.920  1.00  0.00     0.026 C 
ENDBRANCH  14  17
ENDBRANCH  12  13
ENDBRANCH  11  12
ENDBRANCH   7  11
ENDBRANCH   1   5
BRANCH   2  19
HETATM   19  C   UNL     1      -4.191  -0.728 -32.641  1.00  0.00     0.157 A 
HETATM   20  N   UNL     1      -3.220  -0.773 -31.700  1.00  0.00    -0.168 NA
HETATM   21  N   UNL     1      -2.811  -2.055 -31.726  1.00  0.00    -0.277 N 
HETATM   22  H   UNL     1      -2.063  -2.334 -31.102  1.00  0.00     0.189 HD
HETATM   23  C   UNL     1      -3.487  -2.849 -32.611  1.00  0.00     0.063 A 
HETATM   24  C   UNL     1      -4.402  -2.009 -33.232  1.00  0.00     0.029 A 
HETATM   25  C   UNL     1      -3.375  -4.209 -32.911  1.00  0.00     0.032 A 
HETATM   26  C   UNL     1      -5.264  -2.546 -34.207  1.00  0.00     0.023 A 
HETATM   27  C   UNL     1      -5.187  -3.913 -34.525  1.00  0.00    -0.061 A 
HETATM   28  C   UNL     1      -4.245  -4.724 -33.881  1.00  0.00     0.009 A 
HETATM   29  C   UNL     1      -6.119  -4.481 -35.556  1.00  0.00     0.048 C 
ENDBRANCH   2  19
TORSDOF 6
ENDMDL
MODEL 2
REMARK VINA RESULT:      -8.7      5.398      7.949
REMARK  6 active torsions:
REMARK  status: ('A' for Active; 'I' for Inactive)
REMARK    1  A    between atoms: C_2  and  N_3 
REMARK       I    between atoms: N_3  and  C_4 
REMARK    2  A    between atoms: C_4  and  C_5 
REMARK    3  A    between atoms: C_5  and  O_6 
REMARK    4  A    between atoms: O_6  and  C_7 
REMARK    5  A    between atoms: C_9  and  N_10 
REMARK       I    between atoms: N_10  and  C_11 
REMARK    6  A    between atoms: C_11  and  C_12 
ROOT
HETATM    1  N   UNL     1      -7.608   0.558 -32.953  1.00  0.00    -0.322 N 
HETATM    2  C   UNL     1      -6.452   0.883 -33.641  1.00  0.00     0.277 C 
HETATM    3  O   UNL     1      -6.297   1.845 -34.386  1.00  0.00    -0.266 OA
HETATM    4  H   UNL     1      -7.535  -0.308 -32.426  1.00  0.00     0.169 HD
ENDROOT
BRANCH   1   5
HETATM    5  C   UNL     1      -8.835   1.242 -32.954  1.00  0.00     0.037 A 
HETATM    6  C   UNL     1      -9.953   0.817 -33.672  1.00  0.00     0.066 A 
HETATM    7  C   UNL     1     -11.159   1.525 -33.614  1.00  0.00     0.071 A 
HETATM    8  C   UNL     1     -11.248   2.682 -32.847  1.00  0.00     0.037 A 
HETATM    9  C   UNL     1     -10.131   3.124 -32.135  1.00  0.00     0.005 A 
HETATM   10  C   UNL     1      -8.931   2.409 -32.189  1.00  0.00     0.029 A 
BRANCH   7  11
HETATM   11  O   UNL     1     -12.159   0.985 -34.372  1.00  0.00    -0.342 OA
BRANCH  11  12
HETATM   12  C   UNL     1     -13.092   0.133 -33.713  1.00  0.00     0.278 C 
BRANCH  12  13
HETATM   13  C   UNL     1     -14.448   0.839 -33.650  1.00  0.00     0.241 C 
HETATM   14  N   UNL     1     -14.672   1.519 -32.471  1.00  0.00    -0.360 N 
HETATM   15  H   UNL     1     -14.014   1.338 -31.717  1.00  0.00     0.162 HD
HETATM   16  O   UNL     1     -15.234   0.832 -34.593  1.00  0.00    -0.271 OA
BRANCH  14  17
HETATM   17  C   UNL     1     -15.918   2.182 -32.169  1.00  0.00     0.118 C 
HETATM   18  C   UNL     1     -15.724   3.677 -31.992  1.00  0.00     0.026 C 
ENDBRANCH  14  17
ENDBRANCH  12  13
ENDBRANCH  11  12
ENDBRANCH   7  11
ENDBRANCH   1   5
BRANCH   2  19
HETATM   19  C   UNL     1      -5.376  -0.097 -33.405  1.00  0.00     0.157 A 
HETATM   20  N   UNL     1      -4.272   0.221 -32.691  1.00  0.00    -0.168 NA
HETATM   21  N   UNL     1      -3.543  -0.911 -32.711  1.00  0.00    -0.277 N 
HETATM   22  H   UNL     1      -2.645  -0.913 -32.242  1.00  0.00     0.189 HD
HETATM   23  C   UNL     1      -4.131  -1.953 -33.373  1.00  0.00     0.063 A 
HETATM   24  C   UNL     1      -5.338  -1.454 -33.844  1.00  0.00     0.029 A 
HETATM   25  C   UNL     1      -3.713  -3.268 -33.592  1.00  0.00     0.032 A 
HETATM   26  C   UNL     1      -6.189  -2.307 -34.572  1.00  0.00     0.023 A 
HETATM   27  C   UNL     1      -5.805  -3.640 -34.801  1.00  0.00    -0.061 A 
HETATM   28  C   UNL     1      -4.576  -4.102 -34.315  1.00  0.00     0.009 A 
HETATM   29  C   UNL     1      -6.723  -4.549 -35.566  1.00  0.00     0.048 C 
ENDBRANCH   2  19
TORSDOF 6
ENDMDL
MODEL 3
REMARK VINA RESULT:      -8.5      4.188      6.755
REMARK  6 active torsions:
REMARK  status: ('A' for Active; 'I' for Inactive)
REMARK    1  A    between atoms: C_2  and  N_3 
REMARK       I    between atoms: N_3  and  C_4 
REMARK    2  A    between atoms: C_4  and  C_5 
REMARK    3  A    between atoms: C_5  and  O_6 
REMARK    4  A    between atoms: O_6  and  C_7 
REMARK    5  A    between atoms: C_9  and  N_10 
REMARK       I    between atoms: N_10  and  C_11 
REMARK    6  A    between atoms: C_11  and  C_12 
ROOT
HETATM    1  N   UNL     1      -6.194   0.229 -31.490  1.00  0.00    -0.322 N 
HETATM    2  C   UNL     1      -5.147   0.255 -32.395  1.00  0.00     0.277 C 
HETATM    3  O   UNL     1      -4.883   1.166 -33.173  1.00  0.00    -0.266 OA
HETATM    4  H   UNL     1      -6.259  -0.644 -30.972  1.00  0.00     0.169 HD
ENDROOT
BRANCH   1   5
HETATM    5  C   UNL     1      -7.166   1.218 -31.264  1.00  0.00     0.037 A 
HETATM    6  C   UNL     1      -8.395   1.256 -31.922  1.00  0.00     0.066 A 
HETATM    7  C   UNL     1      -9.336   2.251 -31.637  1.00  0.00     0.071 A 
HETATM    8  C   UNL     1      -9.042   3.235 -30.697  1.00  0.00     0.037 A 
HETATM    9  C   UNL     1      -7.809   3.214 -30.042  1.00  0.00     0.005 A 
HETATM   10  C   UNL     1      -6.876   2.213 -30.325  1.00  0.00     0.029 A 
BRANCH   7  11
HETATM   11  O   UNL     1     -10.488   2.154 -32.364  1.00  0.00    -0.342 OA
BRANCH  11  12
HETATM   12  C   UNL     1     -10.362   2.061 -33.781  1.00  0.00     0.278 C 
BRANCH  12  13
HETATM   13  C   UNL     1     -11.637   1.436 -34.351  1.00  0.00     0.241 C 
HETATM   14  N   UNL     1     -12.387   0.745 -33.422  1.00  0.00    -0.360 N 
HETATM   15  H   UNL     1     -11.941   0.573 -32.524  1.00  0.00     0.162 HD
HETATM   16  O   UNL     1     -11.973   1.588 -35.522  1.00  0.00    -0.271 OA
BRANCH  14  17
HETATM   17  C   UNL     1     -13.581   0.009 -33.764  1.00  0.00     0.118 C 
HETATM   18  C   UNL     1     -14.802   0.911 -33.787  1.00  0.00     0.026 C 
ENDBRANCH  14  17
ENDBRANCH  12  13
ENDBRANCH  11  12
ENDBRANCH   7  11
ENDBRANCH   1   5
BRANCH   2  19
HETATM   19  C   UNL     1      -4.354  -0.987 -32.356  1.00  0.00     0.157 A 
HETATM   20  N   UNL     1      -3.285  -1.119 -31.538  1.00  0.00    -0.168 NA
HETATM   21  N   UNL     1      -2.836  -2.361 -31.800  1.00  0.00    -0.277 N 
HETATM   22  H   UNL     1      -2.014  -2.690 -31.306  1.00  0.00     0.189 HD
HETATM   23  C   UNL     1      -3.576  -3.050 -32.719  1.00  0.00     0.063 A 
HETATM   24  C   UNL     1      -4.584  -2.177 -33.108  1.00  0.00     0.029 A 
HETATM   25  C   UNL     1      -3.451  -4.345 -33.232  1.00  0.00     0.032 A 
HETATM   26  C   UNL     1      -5.529  -2.608 -34.059  1.00  0.00     0.023 A 
HETATM   27  C   UNL     1      -5.438  -3.909 -34.586  1.00  0.00    -0.061 A 
HETATM   28  C   UNL     1      -4.404  -4.756 -34.173  1.00  0.00     0.009 A 
HETATM   29  C   UNL     1      -6.458  -4.367 -35.589  1.00  0.00     0.048 C 
ENDBRANCH   2  19
TORSDOF 6
ENDMDL
MODEL 4
REMARK VINA RESULT:      -8.5      2.663      3.997
REMARK  6 active torsions:
REMARK  status: ('A' for Active; 'I' for Inactive)
REMARK    1  A    between atoms: C_2  and  N_3 
REMARK       I    between atoms: N_3  and  C_4 
REMARK    2  A    between atoms: C_4  and  C_5 
REMARK    3  A    between atoms: C_5  and  O_6 
REMARK    4  A    between atoms: O_6  and  C_7 
REMARK    5  A    between atoms: C_9  and  N_10 
REMARK       I    between atoms: N_10  and  C_11 
REMARK    6  A    between atoms: C_11  and  C_12 
ROOT
HETATM    1  N   UNL     1      -2.635   3.202 -32.702  1.00  0.00    -0.322 N 
HETATM    2  C   UNL     1      -3.538   2.663 -31.803  1.00  0.00     0.277 C 
HETATM    3  O   UNL     1      -4.158   3.278 -30.941  1.00  0.00    -0.266 OA
HETATM    4  H   UNL     1      -2.198   2.507 -33.302  1.00  0.00     0.169 HD
ENDROOT
BRANCH   1   5
HETATM    5  C   UNL     1      -2.236   4.543 -32.829  1.00  0.00     0.037 A 
HETATM    6  C   UNL     1      -1.379   5.180 -31.931  1.00  0.00     0.066 A 
HETATM    7  C   UNL     1      -0.994   6.512 -32.122  1.00  0.00     0.071 A 
HETATM    8  C   UNL     1      -1.486   7.226 -33.210  1.00  0.00     0.037 A 
HETATM    9  C   UNL     1      -2.355   6.602 -34.108  1.00  0.00     0.005 A 
HETATM   10  C   UNL     1      -2.729   5.270 -33.917  1.00  0.00     0.029 A 
BRANCH   7  11
HETATM   11  O   UNL     1      -0.155   6.993 -31.159  1.00  0.00    -0.342 OA
BRANCH  11  12
HETATM   12  C   UNL     1       0.403   6.050 -30.246  1.00  0.00     0.278 C 
BRANCH  12  13
HETATM   13  C   UNL     1       0.393   6.656 -28.841  1.00  0.00     0.241 C 
HETATM   14  N   UNL     1      -0.217   5.863 -27.892  1.00  0.00    -0.360 N 
HETATM   15  H   UNL     1      -0.740   5.065 -28.244  1.00  0.00     0.162 HD
HETATM   16  O   UNL     1       0.928   7.732 -28.589  1.00  0.00    -0.271 OA
BRANCH  14  17
HETATM   17  C   UNL     1      -0.411   6.280 -26.524  1.00  0.00     0.118 C 
HETATM   18  C   UNL     1      -1.859   6.649 -26.255  1.00  0.00     0.026 C 
ENDBRANCH  14  17
ENDBRANCH  12  13
ENDBRANCH  11  12
ENDBRANCH   7  11
ENDBRANCH   1   5
BRANCH   2  19
HETATM   19  C   UNL     1      -3.674   1.204 -31.964  1.00  0.00     0.157 A 
HETATM   20  N   UNL     1      -2.891   0.340 -31.279  1.00  0.00    -0.168 NA
HETATM   21  N   UNL     1      -3.307  -0.869 -31.701  1.00  0.00    -0.277 N 
HETATM   22  H   UNL     1      -2.849  -1.693 -31.330  1.00  0.00     0.189 HD
HETATM   23  C   UNL     1      -4.338  -0.833 -32.599  1.00  0.00     0.063 A 
HETATM   24  C   UNL     1      -4.605   0.515 -32.797  1.00  0.00     0.029 A 
HETATM   25  C   UNL     1      -5.047  -1.853 -33.241  1.00  0.00     0.032 A 
HETATM   26  C   UNL     1      -5.640   0.881 -33.679  1.00  0.00     0.023 A 
HETATM   27  C   UNL     1      -6.380  -0.119 -34.333  1.00  0.00    -0.061 A 
HETATM   28  C   UNL     1      -6.075  -1.467 -34.111  1.00  0.00     0.009 A 
HETATM   29  C   UNL     1      -7.492   0.278 -35.261  1.00  0.00     0.048 C 
ENDBRANCH   2  19
TORSDOF 6
ENDMDL
MODEL 5
REMARK VINA RESULT:      -8.5      5.924      8.273
REMARK  6 active torsions:
REMARK  status: ('A' for Active; 'I' for Inactive)
REMARK    1  A    between atoms: C_2  and  N_3 
REMARK       I    between atoms: N_3  and  C_4 
REMARK    2  A    between atoms: C_4  and  C_5 
REMARK    3  A    between atoms: C_5  and  O_6 
REMARK    4  A    between atoms: O_6  and  C_7 
REMARK    5  A    between atoms: C_9  and  N_10 
REMARK       I    between atoms: N_10  and  C_11 
REMARK    6  A    between atoms: C_11  and  C_12 
ROOT
HETATM    1  N   UNL     1      -8.974   1.538 -34.186  1.00  0.00    -0.322 N 
HETATM    2  C   UNL     1      -8.641   0.810 -33.058  1.00  0.00     0.277 C 
HETATM    3  O   UNL     1      -9.398   0.501 -32.143  1.00  0.00    -0.266 OA
HETATM    4  H   UNL     1      -8.183   1.721 -34.798  1.00  0.00     0.169 HD
ENDROOT
BRANCH   1   5
HETATM    5  C   UNL     1     -10.227   2.073 -34.531  1.00  0.00     0.037 A 
HETATM    6  C   UNL     1     -11.383   1.304 -34.665  1.00  0.00     0.066 A 
HETATM    7  C   UNL     1     -12.610   1.895 -34.985  1.00  0.00     0.071 A 
HETATM    8  C   UNL     1     -12.684   3.269 -35.194  1.00  0.00     0.037 A 
HETATM    9  C   UNL     1     -11.530   4.047 -35.076  1.00  0.00     0.005 A 
HETATM   10  C   UNL     1     -10.309   3.452 -34.748  1.00  0.00     0.029 A 
BRANCH   7  11
HETATM   11  O   UNL     1     -13.646   1.012 -35.082  1.00  0.00    -0.342 OA
BRANCH  11  12
HETATM   12  C   UNL     1     -14.114   0.415 -33.875  1.00  0.00     0.278 C 
BRANCH  12  13
HETATM   13  C   UNL     1     -14.887   1.464 -33.072  1.00  0.00     0.241 C 
HETATM   14  N   UNL     1     -14.104   2.191 -32.200  1.00  0.00    -0.360 N 
HETATM   15  H   UNL     1     -13.159   1.848 -32.052  1.00  0.00     0.162 HD
HETATM   16  O   UNL     1     -16.087   1.660 -33.238  1.00  0.00    -0.271 OA
BRANCH  14  17
HETATM   17  C   UNL     1     -14.644   3.171 -31.288  1.00  0.00     0.118 C 
HETATM   18  C   UNL     1     -13.582   4.159 -30.840  1.00  0.00     0.026 C 
ENDBRANCH  14  17
ENDBRANCH  12  13
ENDBRANCH  11  12
ENDBRANCH   7  11
ENDBRANCH   1   5
BRANCH   2  19
HETATM   19  C   UNL     1      -7.213   0.443 -33.040  1.00  0.00     0.157 A 
HETATM   20  N   UNL     1      -6.281   1.251 -32.485  1.00  0.00    -0.168 NA
HETATM   21  N   UNL     1      -5.128   0.583 -32.675  1.00  0.00    -0.277 N 
HETATM   22  H   UNL     1      -4.267   1.006 -32.348  1.00  0.00     0.189 HD
HETATM   23  C   UNL     1      -5.268  -0.628 -33.295  1.00  0.00     0.063 A 
HETATM   24  C   UNL     1      -6.627  -0.753 -33.551  1.00  0.00     0.029 A 
HETATM   25  C   UNL     1      -4.333  -1.607 -33.645  1.00  0.00     0.032 A 
HETATM   26  C   UNL     1      -7.095  -1.919 -34.187  1.00  0.00     0.023 A 
HETATM   27  C   UNL     1      -6.183  -2.929 -34.542  1.00  0.00    -0.061 A 
HETATM   28  C   UNL     1      -4.820  -2.761 -34.272  1.00  0.00     0.009 A 
HETATM   29  C   UNL     1      -6.690  -4.176 -35.207  1.00  0.00     0.048 C 
ENDBRANCH   2  19
TORSDOF 6
ENDMDL
MODEL 6
REMARK VINA RESULT:      -8.4      2.494      3.148
REMARK  6 active torsions:
REMARK  status: ('A' for Active; 'I' for Inactive)
REMARK    1  A    between atoms: C_2  and  N_3 
REMARK       I    between atoms: N_3  and  C_4 
REMARK    2  A    between atoms: C_4  and  C_5 
REMARK    3  A    between atoms: C_5  and  O_6 
REMARK    4  A    between atoms: O_6  and  C_7 
REMARK    5  A    between atoms: C_9  and  N_10 
REMARK       I    between atoms: N_10  and  C_11 
REMARK    6  A    between atoms: C_11  and  C_12 
ROOT
HETATM    1  N   UNL     1      -5.193   1.863 -32.870  1.00  0.00    -0.322 N 
HETATM    2  C   UNL     1      -5.010   0.539 -32.513  1.00  0.00     0.277 C 
HETATM    3  O   UNL     1      -4.248   0.120 -31.648  1.00  0.00    -0.266 OA
HETATM    4  H   UNL     1      -5.840   1.988 -33.645  1.00  0.00     0.169 HD
ENDROOT
BRANCH   1   5
HETATM    5  C   UNL     1      -4.564   2.999 -32.333  1.00  0.00     0.037 A 
HETATM    6  C   UNL     1      -3.179   3.164 -32.290  1.00  0.00     0.066 A 
HETATM    7  C   UNL     1      -2.607   4.329 -31.766  1.00  0.00     0.071 A 
HETATM    8  C   UNL     1      -3.425   5.335 -31.260  1.00  0.00     0.037 A 
HETATM    9  C   UNL     1      -4.812   5.175 -31.286  1.00  0.00     0.005 A 
HETATM   10  C   UNL     1      -5.378   4.013 -31.817  1.00  0.00     0.029 A 
BRANCH   7  11
HETATM   11  O   UNL     1      -1.243   4.340 -31.792  1.00  0.00    -0.342 OA
BRANCH  11  12
HETATM   12  C   UNL     1      -0.590   5.535 -31.369  1.00  0.00     0.278 C 
BRANCH  12  13
HETATM   13  C   UNL     1       0.063   5.287 -30.007  1.00  0.00     0.241 C 
HETATM   14  N   UNL     1      -0.418   6.096 -28.999  1.00  0.00    -0.360 N 
HETATM   15  H   UNL     1      -1.007   6.873 -29.290  1.00  0.00     0.162 HD
HETATM   16  O   UNL     1       0.903   4.408 -29.834  1.00  0.00    -0.271 OA
BRANCH  14  17
HETATM   17  C   UNL     1       0.118   6.087 -27.659  1.00  0.00     0.118 C 
HETATM   18  C   UNL     1       1.025   7.279 -27.414  1.00  0.00     0.026 C 
ENDBRANCH  14  17
ENDBRANCH  12  13
ENDBRANCH  11  12
ENDBRANCH   7  11
ENDBRANCH   1   5
BRANCH   2  19
HETATM   19  C   UNL     1      -5.836  -0.371 -33.327  1.00  0.00     0.157 A 
HETATM   20  N   UNL     1      -7.033   0.014 -33.826  1.00  0.00    -0.168 NA
HETATM   21  N   UNL     1      -7.468  -1.076 -34.486  1.00  0.00    -0.277 N 
HETATM   22  H   UNL     1      -8.371  -1.034 -34.942  1.00  0.00     0.189 HD
HETATM   23  C   UNL     1      -6.602  -2.134 -34.467  1.00  0.00     0.063 A 
HETATM   24  C   UNL     1      -5.517  -1.707 -33.712  1.00  0.00     0.029 A 
HETATM   25  C   UNL     1      -6.677  -3.407 -35.040  1.00  0.00     0.032 A 
HETATM   26  C   UNL     1      -4.437  -2.588 -33.515  1.00  0.00     0.023 A 
HETATM   27  C   UNL     1      -4.475  -3.872 -34.087  1.00  0.00    -0.061 A 
HETATM   28  C   UNL     1      -5.590  -4.267 -34.835  1.00  0.00     0.009 A 
HETATM   29  C   UNL     1      -3.313  -4.801 -33.884  1.00  0.00     0.048 C 
ENDBRANCH   2  19
TORSDOF 6
ENDMDL
MODEL 7
REMARK VINA RESULT:      -8.3      2.932      4.282
REMARK  6 active torsions:
REMARK  status: ('A' for Active; 'I' for Inactive)
REMARK    1  A    between atoms: C_2  and  N_3 
REMARK       I    between atoms: N_3  and  C_4 
REMARK    2  A    between atoms: C_4  and  C_5 
REMARK    3  A    between atoms: C_5  and  O_6 
REMARK    4  A    between atoms: O_6  and  C_7 
REMARK    5  A    between atoms: C_9  and  N_10 
REMARK       I    between atoms: N_10  and  C_11 
REMARK    6  A    between atoms: C_11  and  C_12 
ROOT
HETATM    1  N   UNL     1      -3.867   3.254 -32.773  1.00  0.00    -0.322 N 
HETATM    2  C   UNL     1      -3.973   1.965 -32.282  1.00  0.00     0.277 C 
HETATM    3  O   UNL     1      -3.111   1.353 -31.660  1.00  0.00    -0.266 OA
HETATM    4  H   UNL     1      -4.684   3.555 -33.300  1.00  0.00     0.169 HD
ENDROOT
BRANCH   1   5
HETATM    5  C   UNL     1      -2.774   4.131 -32.672  1.00  0.00     0.037 A 
HETATM    6  C   UNL     1      -2.099   4.384 -31.478  1.00  0.00     0.066 A 
HETATM    7  C   UNL     1      -0.999   5.249 -31.440  1.00  0.00     0.071 A 
HETATM    8  C   UNL     1      -0.578   5.886 -32.604  1.00  0.00     0.037 A 
HETATM    9  C   UNL     1      -1.256   5.650 -33.802  1.00  0.00     0.005 A 
HETATM   10  C   UNL     1      -2.348   4.779 -33.835  1.00  0.00     0.029 A 
BRANCH   7  11
HETATM   11  O   UNL     1      -0.446   5.395 -30.201  1.00  0.00    -0.342 OA
BRANCH  11  12
HETATM   12  C   UNL     1       0.249   6.611 -29.933  1.00  0.00     0.278 C 
BRANCH  12  13
HETATM   13  C   UNL     1       0.350   6.800 -28.418  1.00  0.00     0.241 C 
HETATM   14  N   UNL     1      -0.490   5.979 -27.694  1.00  0.00    -0.360 N 
HETATM   15  H   UNL     1      -1.196   5.477 -28.226  1.00  0.00     0.162 HD
HETATM   16  O   UNL     1       1.147   7.582 -27.907  1.00  0.00    -0.271 OA
BRANCH  14  17
HETATM   17  C   UNL     1      -0.616   6.053 -26.257  1.00  0.00     0.118 C 
HETATM   18  C   UNL     1      -2.020   6.453 -25.842  1.00  0.00     0.026 C 
ENDBRANCH  14  17
ENDBRANCH  12  13
ENDBRANCH  11  12
ENDBRANCH   7  11
ENDBRANCH   1   5
BRANCH   2  19
HETATM   19  C   UNL     1      -5.273   1.353 -32.613  1.00  0.00     0.157 A 
HETATM   20  N   UNL     1      -6.438   2.006 -32.401  1.00  0.00    -0.168 NA
HETATM   21  N   UNL     1      -7.373   1.130 -32.813  1.00  0.00    -0.277 N 
HETATM   22  H   UNL     1      -8.348   1.395 -32.737  1.00  0.00     0.189 HD
HETATM   23  C   UNL     1      -6.874  -0.042 -33.310  1.00  0.00     0.063 A 
HETATM   24  C   UNL     1      -5.494   0.069 -33.194  1.00  0.00     0.029 A 
HETATM   25  C   UNL     1      -7.505  -1.169 -33.844  1.00  0.00     0.032 A 
HETATM   26  C   UNL     1      -4.686  -0.996 -33.637  1.00  0.00     0.023 A 
HETATM   27  C   UNL     1      -5.289  -2.140 -34.190  1.00  0.00    -0.061 A 
HETATM   28  C   UNL     1      -6.683  -2.215 -34.283  1.00  0.00     0.009 A 
HETATM   29  C   UNL     1      -4.420  -3.266 -34.674  1.00  0.00     0.048 C 
ENDBRANCH   2  19
TORSDOF 6
ENDMDL
MODEL 8
REMARK VINA RESULT:      -8.3      1.966      2.298
REMARK  6 active torsions:
REMARK  status: ('A' for Active; 'I' for Inactive)
REMARK    1  A    between atoms: C_2  and  N_3 
REMARK       I    between atoms: N_3  and  C_4 
REMARK    2  A    between atoms: C_4  and  C_5 
REMARK    3  A    between atoms: C_5  and  O_6 
REMARK    4  A    between atoms: O_6  and  C_7 
REMARK    5  A    between atoms: C_9  and  N_10 
REMARK       I    between atoms: N_10  and  C_11 
REMARK    6  A    between atoms: C_11  and  C_12 
ROOT
HETATM    1  N   UNL     1      -3.607   1.145 -32.357  1.00  0.00    -0.322 N 
HETATM    2  C   UNL     1      -4.554   0.150 -32.522  1.00  0.00     0.277 C 
HETATM    3  O   UNL     1      -5.756   0.315 -32.701  1.00  0.00    -0.266 OA
HETATM    4  H   UNL     1      -2.673   0.788 -32.175  1.00  0.00     0.169 HD
ENDROOT
BRANCH   1   5
HETATM    5  C   UNL     1      -3.805   2.537 -32.359  1.00  0.00     0.037 A 
HETATM    6  C   UNL     1      -2.912   3.442 -31.787  1.00  0.00     0.066 A 
HETATM    7  C   UNL     1      -3.148   4.821 -31.842  1.00  0.00     0.071 A 
HETATM    8  C   UNL     1      -4.298   5.303 -32.458  1.00  0.00     0.037 A 
HETATM    9  C   UNL     1      -5.206   4.404 -33.022  1.00  0.00     0.005 A 
HETATM   10  C   UNL     1      -4.961   3.029 -32.972  1.00  0.00     0.029 A 
BRANCH   7  11
HETATM   11  O   UNL     1      -2.185   5.575 -31.236  1.00  0.00    -0.342 OA
BRANCH  11  12
HETATM   12  C   UNL     1      -0.825   5.242 -31.506  1.00  0.00     0.278 C 
BRANCH  12  13
HETATM   13  C   UNL     1      -0.061   5.174 -30.182  1.00  0.00     0.241 C 
HETATM   14  N   UNL     1      -0.575   5.988 -29.194  1.00  0.00    -0.360 N 
HETATM   15  H   UNL     1      -1.276   6.663 -29.489  1.00  0.00     0.162 HD
HETATM   16  O   UNL     1       0.894   4.420 -30.016  1.00  0.00    -0.271 OA
BRANCH  14  17
HETATM   17  C   UNL     1       0.042   6.139 -27.898  1.00  0.00     0.118 C 
HETATM   18  C   UNL     1       0.950   7.356 -27.854  1.00  0.00     0.026 C 
ENDBRANCH  14  17
ENDBRANCH  12  13
ENDBRANCH  11  12
ENDBRANCH   7  11
ENDBRANCH   1   5
BRANCH   2  19
HETATM   19  C   UNL     1      -3.961  -1.196 -32.431  1.00  0.00     0.157 A 
HETATM   20  N   UNL     1      -2.958  -1.472 -31.567  1.00  0.00    -0.168 NA
HETATM   21  N   UNL     1      -2.694  -2.773 -31.791  1.00  0.00    -0.277 N 
HETATM   22  H   UNL     1      -1.952  -3.212 -31.258  1.00  0.00     0.189 HD
HETATM   23  C   UNL     1      -3.493  -3.361 -32.731  1.00  0.00     0.063 A 
HETATM   24  C   UNL     1      -4.340  -2.353 -33.175  1.00  0.00     0.029 A 
HETATM   25  C   UNL     1      -3.546  -4.670 -33.219  1.00  0.00     0.032 A 
HETATM   26  C   UNL     1      -5.301  -2.656 -34.159  1.00  0.00     0.023 A 
HETATM   27  C   UNL     1      -5.388  -3.966 -34.663  1.00  0.00    -0.061 A 
HETATM   28  C   UNL     1      -4.512  -4.952 -34.193  1.00  0.00     0.009 A 
HETATM   29  C   UNL     1      -6.425  -4.286 -35.701  1.00  0.00     0.048 C 
ENDBRANCH   2  19
TORSDOF 6
ENDMDL
MODEL 9
REMARK VINA RESULT:      -7.9      5.425      6.846
REMARK  6 active torsions:
REMARK  status: ('A' for Active; 'I' for Inactive)
REMARK    1  A    between atoms: C_2  and  N_3 
REMARK       I    between atoms: N_3  and  C_4 
REMARK    2  A    between atoms: C_4  and  C_5 
REMARK    3  A    between atoms: C_5  and  O_6 
REMARK    4  A    between atoms: O_6  and  C_7 
REMARK    5  A    between atoms: C_9  and  N_10 
REMARK       I    between atoms: N_10  and  C_11 
REMARK    6  A    between atoms: C_11  and  C_12 
ROOT
HETATM    1  N   UNL     1      -9.068   1.101 -33.844  1.00  0.00    -0.322 N 
HETATM    2  C   UNL     1      -8.523   0.607 -32.673  1.00  0.00     0.277 C 
HETATM    3  O   UNL     1      -9.106   0.468 -31.603  1.00  0.00    -0.266 OA
HETATM    4  H   UNL     1      -8.396   1.175 -34.604  1.00  0.00     0.169 HD
ENDROOT
BRANCH   1   5
HETATM    5  C   UNL     1     -10.383   1.543 -34.066  1.00  0.00     0.037 A 
HETATM    6  C   UNL     1     -10.697   2.814 -34.548  1.00  0.00     0.066 A 
HETATM    7  C   UNL     1     -12.026   3.192 -34.775  1.00  0.00     0.071 A 
HETATM    8  C   UNL     1     -13.057   2.299 -34.501  1.00  0.00     0.037 A 
HETATM    9  C   UNL     1     -12.754   1.029 -34.006  1.00  0.00     0.005 A 
HETATM   10  C   UNL     1     -11.426   0.654 -33.788  1.00  0.00     0.029 A 
BRANCH   7  11
HETATM   11  O   UNL     1     -12.171   4.466 -35.245  1.00  0.00    -0.342 OA
BRANCH  11  12
HETATM   12  C   UNL     1     -11.033   5.322 -35.177  1.00  0.00     0.278 C 
BRANCH  12  13
HETATM   13  C   UNL     1     -11.433   6.716 -35.665  1.00  0.00     0.241 C 
HETATM   14  N   UNL     1     -10.363   7.530 -35.975  1.00  0.00    -0.360 N 
HETATM   15  H   UNL     1      -9.447   7.197 -35.686  1.00  0.00     0.162 HD
HETATM   16  O   UNL     1     -12.606   7.047 -35.808  1.00  0.00    -0.271 OA
BRANCH  14  17
HETATM   17  C   UNL     1     -10.513   8.910 -36.372  1.00  0.00     0.118 C 
HETATM   18  C   UNL     1     -10.175   9.106 -37.839  1.00  0.00     0.026 C 
ENDBRANCH  14  17
ENDBRANCH  12  13
ENDBRANCH  11  12
ENDBRANCH   7  11
ENDBRANCH   1   5
BRANCH   2  19
HETATM   19  C   UNL     1      -7.096   0.270 -32.828  1.00  0.00     0.157 A 
HETATM   20  N   UNL     1      -6.122   1.074 -32.344  1.00  0.00    -0.168 NA
HETATM   21  N   UNL     1      -4.985   0.439 -32.689  1.00  0.00    -0.277 N 
HETATM   22  H   UNL     1      -4.101   0.867 -32.441  1.00  0.00     0.189 HD
HETATM   23  C   UNL     1      -5.173  -0.747 -33.341  1.00  0.00     0.063 A 
HETATM   24  C   UNL     1      -6.550  -0.892 -33.451  1.00  0.00     0.029 A 
HETATM   25  C   UNL     1      -4.267  -1.691 -33.833  1.00  0.00     0.032 A 
HETATM   26  C   UNL     1      -7.066  -2.040 -34.082  1.00  0.00     0.023 A 
HETATM   27  C   UNL     1      -6.182  -3.015 -34.578  1.00  0.00    -0.061 A 
HETATM   28  C   UNL     1      -4.801  -2.829 -34.453  1.00  0.00     0.009 A 
HETATM   29  C   UNL     1      -6.739  -4.244 -35.236  1.00  0.00     0.048 C 
ENDBRANCH   2  19
TORSDOF 6
ENDMDL
MODEL 10
REMARK VINA RESULT:      -7.8      2.366      8.415
REMARK  6 active torsions:
REMARK  status: ('A' for Active; 'I' for Inactive)
REMARK    1  A    between atoms: C_2  and  N_3 
REMARK       I    between atoms: N_3  and  C_4 
REMARK    2  A    between atoms: C_4  and  C_5 
REMARK    3  A    between atoms: C_5  and  O_6 
REMARK    4  A    between atoms: O_6  and  C_7 
REMARK    5  A    between atoms: C_9  and  N_10 
REMARK       I    between atoms: N_10  and  C_11 
REMARK    6  A    between atoms: C_11  and  C_12 
ROOT
HETATM    1  N   UNL     1      -5.271   3.379 -32.940  1.00  0.00    -0.322 N 
HETATM    2  C   UNL     1      -3.905   3.258 -32.753  1.00  0.00     0.277 C 
HETATM    3  O   UNL     1      -3.319   2.282 -32.299  1.00  0.00    -0.266 OA
HETATM    4  H   UNL     1      -5.553   4.293 -33.288  1.00  0.00     0.169 HD
ENDROOT
BRANCH   1   5
HETATM    5  C   UNL     1      -6.270   2.431 -32.660  1.00  0.00     0.037 A 
HETATM    6  C   UNL     1      -6.466   1.274 -33.413  1.00  0.00     0.066 A 
HETATM    7  C   UNL     1      -7.461   0.351 -33.072  1.00  0.00     0.071 A 
HETATM    8  C   UNL     1      -8.285   0.593 -31.976  1.00  0.00     0.037 A 
HETATM    9  C   UNL     1      -8.105   1.755 -31.223  1.00  0.00     0.005 A 
HETATM   10  C   UNL     1      -7.105   2.670 -31.564  1.00  0.00     0.029 A 
BRANCH   7  11
HETATM   11  O   UNL     1      -7.530  -0.728 -33.905  1.00  0.00    -0.342 OA
BRANCH  11  12
HETATM   12  C   UNL     1      -6.350  -1.077 -34.624  1.00  0.00     0.278 C 
BRANCH  12  13
HETATM   13  C   UNL     1      -6.144  -2.590 -34.533  1.00  0.00     0.241 C 
HETATM   14  N   UNL     1      -4.831  -2.968 -34.345  1.00  0.00    -0.360 N 
HETATM   15  H   UNL     1      -4.133  -2.238 -34.463  1.00  0.00     0.162 HD
HETATM   16  O   UNL     1      -7.082  -3.382 -34.577  1.00  0.00    -0.271 OA
BRANCH  14  17
HETATM   17  C   UNL     1      -4.404  -4.346 -34.317  1.00  0.00     0.118 C 
HETATM   18  C   UNL     1      -3.387  -4.591 -33.216  1.00  0.00     0.026 C 
ENDBRANCH  14  17
ENDBRANCH  12  13
ENDBRANCH  11  12
ENDBRANCH   7  11
ENDBRANCH   1   5
BRANCH   2  19
HETATM   19  C   UNL     1      -3.184   4.483 -33.145  1.00  0.00     0.157 A 
HETATM   20  N   UNL     1      -3.517   5.176 -34.258  1.00  0.00    -0.168 NA
HETATM   21  N   UNL     1      -2.639   6.197 -34.271  1.00  0.00    -0.277 N 
HETATM   22  H   UNL     1      -2.683   6.860 -35.036  1.00  0.00     0.189 HD
HETATM   23  C   UNL     1      -1.778   6.219 -33.209  1.00  0.00     0.063 A 
HETATM   24  C   UNL     1      -2.107   5.105 -32.447  1.00  0.00     0.029 A 
HETATM   25  C   UNL     1      -0.758   7.108 -32.858  1.00  0.00     0.032 A 
HETATM   26  C   UNL     1      -1.388   4.855 -31.262  1.00  0.00     0.023 A 
HETATM   27  C   UNL     1      -0.363   5.736 -30.874  1.00  0.00    -0.061 A 
HETATM   28  C   UNL     1      -0.058   6.844 -31.674  1.00  0.00     0.009 A 
HETATM   29  C   UNL     1       0.390   5.472 -29.602  1.00  0.00     0.048 C 
ENDBRANCH   2  19
TORSDOF 6
ENDMDL
