MODEL 1
REMARK VINA RESULT:      -8.9      0.000      0.000
REMARK  8 active torsions:
REMARK  status: ('A' for Active; 'I' for Inactive)
REMARK    1  A    between atoms: O_2  and  C_3 
REMARK    2  A    between atoms: C_4  and  N_5 
REMARK       I    between atoms: N_5  and  C_6 
REMARK       I    between atoms: C_6  and  N_7 
REMARK    3  A    between atoms: N_7  and  C_8 
REMARK    4  A    between atoms: C_11  and  C_12 
REMARK    5  A    between atoms: C_12  and  C_13 
REMARK       I    between atoms: C_13  and  N_14 
REMARK    6  A    between atoms: N_14  and  C_15 
REMARK    7  A    between atoms: C_18  and  O_19 
REMARK    8  A    between atoms: O_19  and  C_20 
ROOT
HETATM    1  C   UNL     1      -4.138   6.825 -29.928  1.00  0.00     0.174 A 
HETATM    2  S   UNL     1      -4.787   7.598 -31.305  1.00  0.00    -0.062 SA
HETATM    3  C   UNL     1      -6.143   6.551 -31.228  1.00  0.00     0.081 A 
HETATM    4  C   UNL     1      -6.012   5.674 -30.165  1.00  0.00     0.052 A 
HETATM    5  N   UNL     1      -4.867   5.874 -29.404  1.00  0.00    -0.228 NA
ENDROOT
BRANCH   4   6
HETATM    6  C   UNL     1      -6.947   4.595 -29.727  1.00  0.00     0.163 C 
BRANCH   6   7
HETATM    7  C   UNL     1      -6.662   3.256 -30.387  1.00  0.00     0.227 C 
HETATM    8  N   UNL     1      -7.254   3.113 -31.634  1.00  0.00    -0.327 N 
HETATM    9  H   UNL     1      -7.803   3.893 -31.974  1.00  0.00     0.169 HD
HETATM   10  O   UNL     1      -5.966   2.418 -29.819  1.00  0.00    -0.273 OA
BRANCH   8  11
HETATM   11  C   UNL     1      -7.160   2.001 -32.501  1.00  0.00     0.034 A 
HETATM   12  C   UNL     1      -6.569   2.046 -33.766  1.00  0.00     0.032 A 
HETATM   13  C   UNL     1      -6.528   0.906 -34.574  1.00  0.00     0.039 A 
HETATM   14  C   UNL     1      -7.065  -0.294 -34.117  1.00  0.00     0.076 A 
HETATM   15  C   UNL     1      -7.676  -0.353 -32.866  1.00  0.00     0.039 A 
HETATM   16  C   UNL     1      -7.708   0.788 -32.056  1.00  0.00     0.032 A 
BRANCH  14  17
HETATM   17  O   UNL     1      -7.062  -1.358 -34.983  1.00  0.00    -0.311 OA
BRANCH  17  18
HETATM   18  C   UNL     1      -6.237  -2.430 -34.718  1.00  0.00     0.076 A 
HETATM   19  C   UNL     1      -6.781  -3.685 -35.003  1.00  0.00     0.037 A 
HETATM   20  C   UNL     1      -6.023  -4.842 -34.811  1.00  0.00     0.003 A 
HETATM   21  C   UNL     1      -4.716  -4.745 -34.338  1.00  0.00     0.000 A 
HETATM   22  C   UNL     1      -4.164  -3.493 -34.067  1.00  0.00     0.003 A 
HETATM   23  C   UNL     1      -4.919  -2.334 -34.266  1.00  0.00     0.037 A 
ENDBRANCH  17  18
ENDBRANCH  14  17
ENDBRANCH   8  11
ENDBRANCH   6   7
ENDBRANCH   4   6
BRANCH   1  24
HETATM   24  N   UNL     1      -2.941   7.343 -29.521  1.00  0.00    -0.287 N 
HETATM   25  C   UNL     1      -1.752   6.705 -29.498  1.00  0.00     0.326 C 
HETATM   26  N   UNL     1      -1.460   5.667 -30.317  1.00  0.00    -0.306 N 
HETATM   27  O   UNL     1      -0.920   7.039 -28.648  1.00  0.00    -0.247 OA
HETATM   28  H   UNL     1      -0.763   5.051 -29.924  1.00  0.00     0.171 HD
HETATM   29  H   UNL     1      -2.991   8.179 -28.961  1.00  0.00     0.172 HD
BRANCH  26  30
HETATM   30  C   UNL     1      -1.772   5.456 -31.678  1.00  0.00     0.069 A 
HETATM   31  C   UNL     1      -2.563   4.404 -32.174  1.00  0.00     0.095 A 
HETATM   32  C   UNL     1      -2.774   4.275 -33.552  1.00  0.00     0.039 A 
HETATM   33  C   UNL     1      -2.259   5.223 -34.437  1.00  0.00     0.003 A 
HETATM   34  C   UNL     1      -1.534   6.305 -33.947  1.00  0.00     0.002 A 
HETATM   35  C   UNL     1      -1.299   6.423 -32.575  1.00  0.00     0.032 A 
BRANCH  31  36
HETATM   36  O   UNL     1      -3.136   3.506 -31.311  1.00  0.00    -0.354 OA
HETATM   37  C   UNL     1      -3.345   2.229 -31.912  1.00  0.00     0.210 C 
ENDBRANCH  31  36
ENDBRANCH  26  30
ENDBRANCH   1  24
TORSDOF 8
ENDMDL
MODEL 2
REMARK VINA RESULT:      -8.7      2.813      4.547
REMARK  8 active torsions:
REMARK  status: ('A' for Active; 'I' for Inactive)
REMARK    1  A    between atoms: O_2  and  C_3 
REMARK    2  A    between atoms: C_4  and  N_5 
REMARK       I    between atoms: N_5  and  C_6 
REMARK       I    between atoms: C_6  and  N_7 
REMARK    3  A    between atoms: N_7  and  C_8 
REMARK    4  A    between atoms: C_11  and  C_12 
REMARK    5  A    between atoms: C_12  and  C_13 
REMARK       I    between atoms: C_13  and  N_14 
REMARK    6  A    between atoms: N_14  and  C_15 
REMARK    7  A    between atoms: C_18  and  O_19 
REMARK    8  A    between atoms: O_19  and  C_20 
ROOT
HETATM    1  C   UNL     1      -3.052   7.193 -26.671  1.00  0.00     0.174 A 
HETATM    2  S   UNL     1      -3.107   8.874 -26.379  1.00  0.00    -0.062 SA
HETATM    3  C   UNL     1      -3.676   9.114 -27.979  1.00  0.00     0.081 A 
HETATM    4  C   UNL     1      -3.781   7.901 -28.637  1.00  0.00     0.052 A 
HETATM    5  N   UNL     1      -3.453   6.802 -27.854  1.00  0.00    -0.228 NA
ENDROOT
BRANCH   4   6
HETATM    6  C   UNL     1      -4.227   7.636 -30.038  1.00  0.00     0.163 C 
BRANCH   6   7
HETATM    7  C   UNL     1      -5.222   6.491 -30.139  1.00  0.00     0.227 C 
HETATM    8  N   UNL     1      -4.676   5.323 -30.651  1.00  0.00    -0.327 N 
HETATM    9  H   UNL     1      -3.694   5.345 -30.900  1.00  0.00     0.169 HD
HETATM   10  O   UNL     1      -6.389   6.648 -29.786  1.00  0.00    -0.273 OA
BRANCH   8  11
HETATM   11  C   UNL     1      -5.334   4.087 -30.846  1.00  0.00     0.034 A 
HETATM   12  C   UNL     1      -5.611   3.181 -29.820  1.00  0.00     0.032 A 
HETATM   13  C   UNL     1      -6.253   1.970 -30.093  1.00  0.00     0.039 A 
HETATM   14  C   UNL     1      -6.636   1.660 -31.395  1.00  0.00     0.076 A 
HETATM   15  C   UNL     1      -6.350   2.543 -32.435  1.00  0.00     0.039 A 
HETATM   16  C   UNL     1      -5.714   3.759 -32.156  1.00  0.00     0.032 A 
BRANCH  14  17
HETATM   17  O   UNL     1      -7.194   0.426 -31.613  1.00  0.00    -0.311 OA
BRANCH  17  18
HETATM   18  C   UNL     1      -6.587  -0.430 -32.507  1.00  0.00     0.076 A 
HETATM   19  C   UNL     1      -7.376  -0.813 -33.595  1.00  0.00     0.037 A 
HETATM   20  C   UNL     1      -6.855  -1.647 -34.585  1.00  0.00     0.003 A 
HETATM   21  C   UNL     1      -5.539  -2.097 -34.491  1.00  0.00     0.000 A 
HETATM   22  C   UNL     1      -4.743  -1.706 -33.415  1.00  0.00     0.003 A 
HETATM   23  C   UNL     1      -5.262  -0.864 -32.427  1.00  0.00     0.037 A 
ENDBRANCH  17  18
ENDBRANCH  14  17
ENDBRANCH   8  11
ENDBRANCH   6   7
ENDBRANCH   4   6
BRANCH   1  24
HETATM   24  N   UNL     1      -2.634   6.462 -25.597  1.00  0.00    -0.287 N 
HETATM   25  C   UNL     1      -1.655   5.531 -25.586  1.00  0.00     0.326 C 
HETATM   26  N   UNL     1      -0.630   5.535 -26.469  1.00  0.00    -0.306 N 
HETATM   27  O   UNL     1      -1.738   4.600 -24.779  1.00  0.00    -0.247 OA
HETATM   28  H   UNL     1      -0.247   4.612 -26.618  1.00  0.00     0.171 HD
HETATM   29  H   UNL     1      -3.264   6.431 -24.812  1.00  0.00     0.172 HD
BRANCH  26  30
HETATM   30  C   UNL     1       0.123   6.606 -26.998  1.00  0.00     0.069 A 
HETATM   31  C   UNL     1       0.178   6.964 -28.357  1.00  0.00     0.095 A 
HETATM   32  C   UNL     1       0.991   8.026 -28.770  1.00  0.00     0.039 A 
HETATM   33  C   UNL     1       1.698   8.779 -27.833  1.00  0.00     0.003 A 
HETATM   34  C   UNL     1       1.594   8.474 -26.479  1.00  0.00     0.002 A 
HETATM   35  C   UNL     1       0.805   7.399 -26.065  1.00  0.00     0.032 A 
BRANCH  31  36
HETATM   36  O   UNL     1      -0.569   6.279 -29.281  1.00  0.00    -0.354 OA
HETATM   37  C   UNL     1      -0.097   6.472 -30.614  1.00  0.00     0.210 C 
ENDBRANCH  31  36
ENDBRANCH  26  30
ENDBRANCH   1  24
TORSDOF 8
ENDMDL
MODEL 3
REMARK VINA RESULT:      -8.6      2.367      4.454
REMARK  8 active torsions:
REMARK  status: ('A' for Active; 'I' for Inactive)
REMARK    1  A    between atoms: O_2  and  C_3 
REMARK    2  A    between atoms: C_4  and  N_5 
REMARK       I    between atoms: N_5  and  C_6 
REMARK       I    between atoms: C_6  and  N_7 
REMARK    3  A    between atoms: N_7  and  C_8 
REMARK    4  A    between atoms: C_11  and  C_12 
REMARK    5  A    between atoms: C_12  and  C_13 
REMARK       I    between atoms: C_13  and  N_14 
REMARK    6  A    between atoms: N_14  and  C_15 
REMARK    7  A    between atoms: C_18  and  O_19 
REMARK    8  A    between atoms: O_19  and  C_20 
ROOT
HETATM    1  C   UNL     1      -3.318   7.950 -29.538  1.00  0.00     0.174 A 
HETATM    2  S   UNL     1      -2.858   9.549 -29.921  1.00  0.00    -0.062 SA
HETATM    3  C   UNL     1      -2.258   8.995 -31.428  1.00  0.00     0.081 A 
HETATM    4  C   UNL     1      -2.438   7.627 -31.542  1.00  0.00     0.052 A 
HETATM    5  N   UNL     1      -3.085   7.049 -30.458  1.00  0.00    -0.228 NA
ENDROOT
BRANCH   4   6
HETATM    6  C   UNL     1      -2.063   6.729 -32.675  1.00  0.00     0.163 C 
BRANCH   6   7
HETATM    7  C   UNL     1      -2.410   5.271 -32.420  1.00  0.00     0.227 C 
HETATM    8  N   UNL     1      -3.774   5.015 -32.418  1.00  0.00    -0.327 N 
HETATM    9  H   UNL     1      -4.390   5.803 -32.583  1.00  0.00     0.169 HD
HETATM   10  O   UNL     1      -1.521   4.443 -32.236  1.00  0.00    -0.273 OA
BRANCH   8  11
HETATM   11  C   UNL     1      -4.407   3.766 -32.231  1.00  0.00     0.034 A 
HETATM   12  C   UNL     1      -4.276   2.991 -31.076  1.00  0.00     0.032 A 
HETATM   13  C   UNL     1      -4.921   1.755 -30.970  1.00  0.00     0.039 A 
HETATM   14  C   UNL     1      -5.716   1.290 -32.014  1.00  0.00     0.076 A 
HETATM   15  C   UNL     1      -5.842   2.040 -33.182  1.00  0.00     0.039 A 
HETATM   16  C   UNL     1      -5.201   3.281 -33.281  1.00  0.00     0.032 A 
BRANCH  14  17
HETATM   17  O   UNL     1      -6.262   0.039 -31.884  1.00  0.00    -0.311 OA
BRANCH  17  18
HETATM   18  C   UNL     1      -6.065  -0.882 -32.890  1.00  0.00     0.076 A 
HETATM   19  C   UNL     1      -4.766  -1.386 -32.990  1.00  0.00     0.037 A 
HETATM   20  C   UNL     1      -4.456  -2.354 -33.948  1.00  0.00     0.003 A 
HETATM   21  C   UNL     1      -5.450  -2.824 -34.805  1.00  0.00     0.000 A 
HETATM   22  C   UNL     1      -6.751  -2.336 -34.698  1.00  0.00     0.003 A 
HETATM   23  C   UNL     1      -7.064  -1.372 -33.735  1.00  0.00     0.037 A 
ENDBRANCH  17  18
ENDBRANCH  14  17
ENDBRANCH   8  11
ENDBRANCH   6   7
ENDBRANCH   4   6
BRANCH   1  24
HETATM   24  N   UNL     1      -3.921   7.829 -28.319  1.00  0.00    -0.287 N 
HETATM   25  C   UNL     1      -3.534   7.026 -27.304  1.00  0.00     0.326 C 
HETATM   26  N   UNL     1      -2.255   6.614 -27.141  1.00  0.00    -0.306 N 
HETATM   27  O   UNL     1      -4.397   6.596 -26.532  1.00  0.00    -0.247 OA
HETATM   28  H   UNL     1      -2.193   5.737 -26.644  1.00  0.00     0.171 HD
HETATM   29  H   UNL     1      -4.865   8.172 -28.258  1.00  0.00     0.172 HD
BRANCH  26  30
HETATM   30  C   UNL     1      -1.038   7.307 -27.320  1.00  0.00     0.069 A 
HETATM   31  C   UNL     1      -0.079   7.018 -28.307  1.00  0.00     0.095 A 
HETATM   32  C   UNL     1       1.112   7.752 -28.365  1.00  0.00     0.039 A 
HETATM   33  C   UNL     1       1.328   8.816 -27.490  1.00  0.00     0.003 A 
HETATM   34  C   UNL     1       0.353   9.152 -26.555  1.00  0.00     0.002 A 
HETATM   35  C   UNL     1      -0.825   8.406 -26.477  1.00  0.00     0.032 A 
BRANCH  31  36
HETATM   36  O   UNL     1      -0.310   6.022 -29.222  1.00  0.00    -0.354 OA
HETATM   37  C   UNL     1       0.777   5.102 -29.311  1.00  0.00     0.210 C 
ENDBRANCH  31  36
ENDBRANCH  26  30
ENDBRANCH   1  24
TORSDOF 8
ENDMDL
MODEL 4
REMARK VINA RESULT:      -8.6      0.831      1.809
REMARK  8 active torsions:
REMARK  status: ('A' for Active; 'I' for Inactive)
REMARK    1  A    between atoms: O_2  and  C_3 
REMARK    2  A    between atoms: C_4  and  N_5 
REMARK       I    between atoms: N_5  and  C_6 
REMARK       I    between atoms: C_6  and  N_7 
REMARK    3  A    between atoms: N_7  and  C_8 
REMARK    4  A    between atoms: C_11  and  C_12 
REMARK    5  A    between atoms: C_12  and  C_13 
REMARK       I    between atoms: C_13  and  N_14 
REMARK    6  A    between atoms: N_14  and  C_15 
REMARK    7  A    between atoms: C_18  and  O_19 
REMARK    8  A    between atoms: O_19  and  C_20 
ROOT
HETATM    1  C   UNL     1      -4.296   6.849 -29.824  1.00  0.00     0.174 A 
HETATM    2  S   UNL     1      -5.213   7.675 -31.002  1.00  0.00    -0.062 SA
HETATM    3  C   UNL     1      -6.437   6.483 -30.857  1.00  0.00     0.081 A 
HETATM    4  C   UNL     1      -6.067   5.527 -29.926  1.00  0.00     0.052 A 
HETATM    5  N   UNL     1      -4.845   5.777 -29.314  1.00  0.00    -0.228 NA
ENDROOT
BRANCH   4   6
HETATM    6  C   UNL     1      -6.819   4.314 -29.486  1.00  0.00     0.163 C 
BRANCH   6   7
HETATM    7  C   UNL     1      -6.469   3.073 -30.291  1.00  0.00     0.227 C 
HETATM    8  N   UNL     1      -7.329   2.839 -31.355  1.00  0.00    -0.327 N 
HETATM    9  H   UNL     1      -8.084   3.499 -31.490  1.00  0.00     0.169 HD
HETATM   10  O   UNL     1      -5.504   2.380 -29.977  1.00  0.00    -0.273 OA
BRANCH   8  11
HETATM   11  C   UNL     1      -7.256   1.785 -32.294  1.00  0.00     0.034 A 
HETATM   12  C   UNL     1      -7.682   0.480 -32.035  1.00  0.00     0.032 A 
HETATM   13  C   UNL     1      -7.563  -0.515 -33.011  1.00  0.00     0.039 A 
HETATM   14  C   UNL     1      -7.030  -0.209 -34.259  1.00  0.00     0.076 A 
HETATM   15  C   UNL     1      -6.581   1.083 -34.529  1.00  0.00     0.039 A 
HETATM   16  C   UNL     1      -6.709   2.079 -33.553  1.00  0.00     0.032 A 
BRANCH  14  17
HETATM   17  O   UNL     1      -6.869  -1.241 -35.149  1.00  0.00    -0.311 OA
BRANCH  17  18
HETATM   18  C   UNL     1      -6.097  -2.322 -34.782  1.00  0.00     0.076 A 
HETATM   19  C   UNL     1      -6.667  -3.573 -35.030  1.00  0.00     0.037 A 
HETATM   20  C   UNL     1      -5.962  -4.741 -34.735  1.00  0.00     0.003 A 
HETATM   21  C   UNL     1      -4.679  -4.660 -34.196  1.00  0.00     0.000 A 
HETATM   22  C   UNL     1      -4.100  -3.413 -33.961  1.00  0.00     0.003 A 
HETATM   23  C   UNL     1      -4.803  -2.243 -34.263  1.00  0.00     0.037 A 
ENDBRANCH  17  18
ENDBRANCH  14  17
ENDBRANCH   8  11
ENDBRANCH   6   7
ENDBRANCH   4   6
BRANCH   1  24
HETATM   24  N   UNL     1      -3.107   7.454 -29.530  1.00  0.00    -0.287 N 
HETATM   25  C   UNL     1      -1.907   6.850 -29.392  1.00  0.00     0.326 C 
HETATM   26  N   UNL     1      -1.601   5.679 -29.998  1.00  0.00    -0.306 N 
HETATM   27  O   UNL     1      -1.079   7.354 -28.626  1.00  0.00    -0.247 OA
HETATM   28  H   UNL     1      -0.893   5.160 -29.498  1.00  0.00     0.171 HD
HETATM   29  H   UNL     1      -3.168   8.381 -29.141  1.00  0.00     0.172 HD
BRANCH  26  30
HETATM   30  C   UNL     1      -1.913   5.206 -31.291  1.00  0.00     0.069 A 
HETATM   31  C   UNL     1      -1.551   5.837 -32.494  1.00  0.00     0.095 A 
HETATM   32  C   UNL     1      -1.950   5.291 -33.720  1.00  0.00     0.039 A 
HETATM   33  C   UNL     1      -2.649   4.085 -33.762  1.00  0.00     0.003 A 
HETATM   34  C   UNL     1      -2.951   3.419 -32.578  1.00  0.00     0.002 A 
HETATM   35  C   UNL     1      -2.578   3.973 -31.351  1.00  0.00     0.032 A 
BRANCH  31  36
HETATM   36  O   UNL     1      -0.800   6.985 -32.472  1.00  0.00    -0.354 OA
HETATM   37  C   UNL     1      -1.581   8.151 -32.726  1.00  0.00     0.210 C 
ENDBRANCH  31  36
ENDBRANCH  26  30
ENDBRANCH   1  24
TORSDOF 8
ENDMDL
MODEL 5
REMARK VINA RESULT:      -8.6      2.446      4.765
REMARK  8 active torsions:
REMARK  status: ('A' for Active; 'I' for Inactive)
REMARK    1  A    between atoms: O_2  and  C_3 
REMARK    2  A    between atoms: C_4  and  N_5 
REMARK       I    between atoms: N_5  and  C_6 
REMARK       I    between atoms: C_6  and  N_7 
REMARK    3  A    between atoms: N_7  and  C_8 
REMARK    4  A    between atoms: C_11  and  C_12 
REMARK    5  A    between atoms: C_12  and  C_13 
REMARK       I    between atoms: C_13  and  N_14 
REMARK    6  A    between atoms: N_14  and  C_15 
REMARK    7  A    between atoms: C_18  and  O_19 
REMARK    8  A    between atoms: O_19  and  C_20 
ROOT
HETATM    1  C   UNL     1      -3.177   7.552 -29.715  1.00  0.00     0.174 A 
HETATM    2  S   UNL     1      -3.151   8.985 -30.642  1.00  0.00    -0.062 SA
HETATM    3  C   UNL     1      -2.162   8.196 -31.799  1.00  0.00     0.081 A 
HETATM    4  C   UNL     1      -1.907   6.894 -31.403  1.00  0.00     0.052 A 
HETATM    5  N   UNL     1      -2.533   6.530 -30.218  1.00  0.00    -0.228 NA
ENDROOT
BRANCH   4   6
HETATM    6  C   UNL     1      -1.093   5.852 -32.098  1.00  0.00     0.163 C 
BRANCH   6   7
HETATM    7  C   UNL     1      -1.937   4.731 -32.683  1.00  0.00     0.227 C 
HETATM    8  N   UNL     1      -2.715   4.071 -31.743  1.00  0.00    -0.327 N 
HETATM    9  H   UNL     1      -2.648   4.390 -30.784  1.00  0.00     0.169 HD
HETATM   10  O   UNL     1      -1.889   4.479 -33.885  1.00  0.00    -0.273 OA
BRANCH   8  11
HETATM   11  C   UNL     1      -3.615   3.006 -31.977  1.00  0.00     0.034 A 
HETATM   12  C   UNL     1      -4.719   3.091 -32.828  1.00  0.00     0.032 A 
HETATM   13  C   UNL     1      -5.574   1.998 -32.997  1.00  0.00     0.039 A 
HETATM   14  C   UNL     1      -5.325   0.805 -32.325  1.00  0.00     0.076 A 
HETATM   15  C   UNL     1      -4.240   0.708 -31.456  1.00  0.00     0.039 A 
HETATM   16  C   UNL     1      -3.380   1.802 -31.295  1.00  0.00     0.032 A 
BRANCH  14  17
HETATM   17  O   UNL     1      -6.240  -0.206 -32.471  1.00  0.00    -0.311 OA
BRANCH  17  18
HETATM   18  C   UNL     1      -5.930  -1.272 -33.289  1.00  0.00     0.076 A 
HETATM   19  C   UNL     1      -7.016  -1.853 -33.948  1.00  0.00     0.037 A 
HETATM   20  C   UNL     1      -6.819  -2.915 -34.832  1.00  0.00     0.003 A 
HETATM   21  C   UNL     1      -5.531  -3.395 -35.063  1.00  0.00     0.000 A 
HETATM   22  C   UNL     1      -4.442  -2.808 -34.420  1.00  0.00     0.003 A 
HETATM   23  C   UNL     1      -4.638  -1.740 -33.540  1.00  0.00     0.037 A 
ENDBRANCH  17  18
ENDBRANCH  14  17
ENDBRANCH   8  11
ENDBRANCH   6   7
ENDBRANCH   4   6
BRANCH   1  24
HETATM   24  N   UNL     1      -3.919   7.650 -28.573  1.00  0.00    -0.287 N 
HETATM   25  C   UNL     1      -3.665   7.047 -27.392  1.00  0.00     0.326 C 
HETATM   26  N   UNL     1      -2.419   6.679 -27.009  1.00  0.00    -0.306 N 
HETATM   27  O   UNL     1      -4.618   6.758 -26.661  1.00  0.00    -0.247 OA
HETATM   28  H   UNL     1      -2.429   5.906 -26.358  1.00  0.00     0.171 HD
HETATM   29  H   UNL     1      -4.859   7.993 -28.686  1.00  0.00     0.172 HD
BRANCH  26  30
HETATM   30  C   UNL     1      -1.179   7.334 -27.167  1.00  0.00     0.069 A 
HETATM   31  C   UNL     1      -0.974   8.719 -27.042  1.00  0.00     0.095 A 
HETATM   32  C   UNL     1       0.299   9.262 -27.258  1.00  0.00     0.039 A 
HETATM   33  C   UNL     1       1.384   8.430 -27.532  1.00  0.00     0.003 A 
HETATM   34  C   UNL     1       1.201   7.051 -27.588  1.00  0.00     0.002 A 
HETATM   35  C   UNL     1      -0.071   6.508 -27.399  1.00  0.00     0.032 A 
BRANCH  31  36
HETATM   36  O   UNL     1      -2.016   9.544 -26.701  1.00  0.00    -0.354 OA
HETATM   37  C   UNL     1      -1.969   9.946 -25.334  1.00  0.00     0.210 C 
ENDBRANCH  31  36
ENDBRANCH  26  30
ENDBRANCH   1  24
TORSDOF 8
ENDMDL
MODEL 6
REMARK VINA RESULT:      -8.5      3.437      6.393
REMARK  8 active torsions:
REMARK  status: ('A' for Active; 'I' for Inactive)
REMARK    1  A    between atoms: O_2  and  C_3 
REMARK    2  A    between atoms: C_4  and  N_5 
REMARK       I    between atoms: N_5  and  C_6 
REMARK       I    between atoms: C_6  and  N_7 
REMARK    3  A    between atoms: N_7  and  C_8 
REMARK    4  A    between atoms: C_11  and  C_12 
REMARK    5  A    between atoms: C_12  and  C_13 
REMARK       I    between atoms: C_13  and  N_14 
REMARK    6  A    between atoms: N_14  and  C_15 
REMARK    7  A    between atoms: C_18  and  O_19 
REMARK    8  A    between atoms: O_19  and  C_20 
ROOT
HETATM    1  C   UNL     1     -10.166   4.618 -32.298  1.00  0.00     0.174 A 
HETATM    2  S   UNL     1     -10.711   4.077 -30.774  1.00  0.00    -0.062 SA
HETATM    3  C   UNL     1      -9.123   4.271 -30.158  1.00  0.00     0.081 A 
HETATM    4  C   UNL     1      -8.276   4.728 -31.152  1.00  0.00     0.052 A 
HETATM    5  N   UNL     1      -8.905   4.958 -32.369  1.00  0.00    -0.228 NA
ENDROOT
BRANCH   4   6
HETATM    6  C   UNL     1      -6.816   5.031 -31.066  1.00  0.00     0.163 C 
BRANCH   6   7
HETATM    7  C   UNL     1      -5.951   4.000 -31.775  1.00  0.00     0.227 C 
HETATM    8  N   UNL     1      -5.952   2.756 -31.160  1.00  0.00    -0.327 N 
HETATM    9  H   UNL     1      -6.513   2.657 -30.323  1.00  0.00     0.169 HD
HETATM   10  O   UNL     1      -5.331   4.303 -32.792  1.00  0.00    -0.273 OA
BRANCH   8  11
HETATM   11  C   UNL     1      -5.269   1.595 -31.586  1.00  0.00     0.034 A 
HETATM   12  C   UNL     1      -4.152   1.611 -32.425  1.00  0.00     0.032 A 
HETATM   13  C   UNL     1      -3.538   0.417 -32.817  1.00  0.00     0.039 A 
HETATM   14  C   UNL     1      -4.028  -0.803 -32.361  1.00  0.00     0.076 A 
HETATM   15  C   UNL     1      -5.154  -0.840 -31.540  1.00  0.00     0.039 A 
HETATM   16  C   UNL     1      -5.761   0.358 -31.142  1.00  0.00     0.032 A 
BRANCH  14  17
HETATM   17  O   UNL     1      -3.432  -1.942 -32.838  1.00  0.00    -0.311 OA
BRANCH  17  18
HETATM   18  C   UNL     1      -4.180  -2.819 -33.593  1.00  0.00     0.076 A 
HETATM   19  C   UNL     1      -3.819  -4.165 -33.477  1.00  0.00     0.037 A 
HETATM   20  C   UNL     1      -4.530  -5.148 -34.165  1.00  0.00     0.003 A 
HETATM   21  C   UNL     1      -5.611  -4.789 -34.969  1.00  0.00     0.000 A 
HETATM   22  C   UNL     1      -5.985  -3.450 -35.076  1.00  0.00     0.003 A 
HETATM   23  C   UNL     1      -5.277  -2.465 -34.381  1.00  0.00     0.037 A 
ENDBRANCH  17  18
ENDBRANCH  14  17
ENDBRANCH   8  11
ENDBRANCH   6   7
ENDBRANCH   4   6
BRANCH   1  24
HETATM   24  N   UNL     1     -11.147   4.668 -33.246  1.00  0.00    -0.287 N 
HETATM   25  C   UNL     1     -11.064   4.221 -34.517  1.00  0.00     0.326 C 
HETATM   26  N   UNL     1     -10.219   3.232 -34.893  1.00  0.00    -0.306 N 
HETATM   27  O   UNL     1     -11.738   4.784 -35.385  1.00  0.00    -0.247 OA
HETATM   28  H   UNL     1      -9.961   3.295 -35.868  1.00  0.00     0.171 HD
HETATM   29  H   UNL     1     -11.901   5.310 -33.066  1.00  0.00     0.172 HD
BRANCH  26  30
HETATM   30  C   UNL     1      -9.858   2.035 -34.238  1.00  0.00     0.069 A 
HETATM   31  C   UNL     1     -10.737   1.210 -33.515  1.00  0.00     0.095 A 
HETATM   32  C   UNL     1     -10.256   0.062 -32.873  1.00  0.00     0.039 A 
HETATM   33  C   UNL     1      -8.917  -0.309 -33.002  1.00  0.00     0.003 A 
HETATM   34  C   UNL     1      -8.056   0.465 -33.774  1.00  0.00     0.002 A 
HETATM   35  C   UNL     1      -8.526   1.625 -34.394  1.00  0.00     0.032 A 
BRANCH  31  36
HETATM   36  O   UNL     1     -12.071   1.522 -33.439  1.00  0.00    -0.354 OA
HETATM   37  C   UNL     1     -12.909   0.422 -33.788  1.00  0.00     0.210 C 
ENDBRANCH  31  36
ENDBRANCH  26  30
ENDBRANCH   1  24
TORSDOF 8
ENDMDL
MODEL 7
REMARK VINA RESULT:      -8.4      4.389      7.592
REMARK  8 active torsions:
REMARK  status: ('A' for Active; 'I' for Inactive)
REMARK    1  A    between atoms: O_2  and  C_3 
REMARK    2  A    between atoms: C_4  and  N_5 
REMARK       I    between atoms: N_5  and  C_6 
REMARK       I    between atoms: C_6  and  N_7 
REMARK    3  A    between atoms: N_7  and  C_8 
REMARK    4  A    between atoms: C_11  and  C_12 
REMARK    5  A    between atoms: C_12  and  C_13 
REMARK       I    between atoms: C_13  and  N_14 
REMARK    6  A    between atoms: N_14  and  C_15 
REMARK    7  A    between atoms: C_18  and  O_19 
REMARK    8  A    between atoms: O_19  and  C_20 
ROOT
HETATM    1  C   UNL     1     -12.474   4.654 -32.975  1.00  0.00     0.174 A 
HETATM    2  S   UNL     1     -13.364   3.679 -31.893  1.00  0.00    -0.062 SA
HETATM    3  C   UNL     1     -12.239   4.059 -30.656  1.00  0.00     0.081 A 
HETATM    4  C   UNL     1     -11.252   4.897 -31.146  1.00  0.00     0.052 A 
HETATM    5  N   UNL     1     -11.427   5.259 -32.476  1.00  0.00    -0.228 NA
ENDROOT
BRANCH   4   6
HETATM    6  C   UNL     1     -10.077   5.472 -30.427  1.00  0.00     0.163 C 
BRANCH   6   7
HETATM    7  C   UNL     1      -8.845   4.584 -30.494  1.00  0.00     0.227 C 
HETATM    8  N   UNL     1      -8.771   3.820 -31.650  1.00  0.00    -0.327 N 
HETATM    9  H   UNL     1      -9.524   3.926 -32.320  1.00  0.00     0.169 HD
HETATM   10  O   UNL     1      -8.027   4.584 -29.576  1.00  0.00    -0.273 OA
BRANCH   8  11
HETATM   11  C   UNL     1      -7.745   2.919 -32.013  1.00  0.00     0.034 A 
HETATM   12  C   UNL     1      -6.918   3.087 -33.126  1.00  0.00     0.032 A 
HETATM   13  C   UNL     1      -5.933   2.143 -33.431  1.00  0.00     0.039 A 
HETATM   14  C   UNL     1      -5.758   1.028 -32.617  1.00  0.00     0.076 A 
HETATM   15  C   UNL     1      -6.587   0.833 -31.513  1.00  0.00     0.039 A 
HETATM   16  C   UNL     1      -7.567   1.785 -31.206  1.00  0.00     0.032 A 
BRANCH  14  17
HETATM   17  O   UNL     1      -4.827   0.099 -33.007  1.00  0.00    -0.311 OA
BRANCH  17  18
HETATM   18  C   UNL     1      -5.255  -1.045 -33.645  1.00  0.00     0.076 A 
HETATM   19  C   UNL     1      -4.328  -2.090 -33.681  1.00  0.00     0.037 A 
HETATM   20  C   UNL     1      -4.664  -3.311 -34.268  1.00  0.00     0.003 A 
HETATM   21  C   UNL     1      -5.932  -3.492 -34.815  1.00  0.00     0.000 A 
HETATM   22  C   UNL     1      -6.866  -2.458 -34.767  1.00  0.00     0.003 A 
HETATM   23  C   UNL     1      -6.533  -1.237 -34.174  1.00  0.00     0.037 A 
ENDBRANCH  17  18
ENDBRANCH  14  17
ENDBRANCH   8  11
ENDBRANCH   6   7
ENDBRANCH   4   6
BRANCH   1  24
HETATM   24  N   UNL     1     -13.009   4.711 -34.230  1.00  0.00    -0.287 N 
HETATM   25  C   UNL     1     -12.455   4.233 -35.365  1.00  0.00     0.326 C 
HETATM   26  N   UNL     1     -11.564   3.214 -35.375  1.00  0.00    -0.306 N 
HETATM   27  O   UNL     1     -12.721   4.796 -36.432  1.00  0.00    -0.247 OA
HETATM   28  H   UNL     1     -10.947   3.250 -36.173  1.00  0.00     0.171 HD
HETATM   29  H   UNL     1     -13.752   5.377 -34.363  1.00  0.00     0.172 HD
BRANCH  26  30
HETATM   30  C   UNL     1     -11.525   2.022 -34.620  1.00  0.00     0.069 A 
HETATM   31  C   UNL     1     -12.622   1.175 -34.386  1.00  0.00     0.095 A 
HETATM   32  C   UNL     1     -12.472   0.035 -33.587  1.00  0.00     0.039 A 
HETATM   33  C   UNL     1     -11.220  -0.306 -33.073  1.00  0.00     0.003 A 
HETATM   34  C   UNL     1     -10.115   0.490 -33.358  1.00  0.00     0.002 A 
HETATM   35  C   UNL     1     -10.266   1.642 -34.133  1.00  0.00     0.032 A 
BRANCH  31  36
HETATM   36  O   UNL     1     -13.843   1.457 -34.944  1.00  0.00    -0.354 OA
HETATM   37  C   UNL     1     -14.910   0.763 -34.301  1.00  0.00     0.210 C 
ENDBRANCH  31  36
ENDBRANCH  26  30
ENDBRANCH   1  24
TORSDOF 8
ENDMDL
MODEL 8
REMARK VINA RESULT:      -8.3      1.962      3.321
REMARK  8 active torsions:
REMARK  status: ('A' for Active; 'I' for Inactive)
REMARK    1  A    between atoms: O_2  and  C_3 
REMARK    2  A    between atoms: C_4  and  N_5 
REMARK       I    between atoms: N_5  and  C_6 
REMARK       I    between atoms: C_6  and  N_7 
REMARK    3  A    between atoms: N_7  and  C_8 
REMARK    4  A    between atoms: C_11  and  C_12 
REMARK    5  A    between atoms: C_12  and  C_13 
REMARK       I    between atoms: C_13  and  N_14 
REMARK    6  A    between atoms: N_14  and  C_15 
REMARK    7  A    between atoms: C_18  and  O_19 
REMARK    8  A    between atoms: O_19  and  C_20 
ROOT
HETATM    1  C   UNL     1      -5.039   5.892 -32.828  1.00  0.00     0.174 A 
HETATM    2  S   UNL     1      -5.124   7.206 -31.742  1.00  0.00    -0.062 SA
HETATM    3  C   UNL     1      -6.835   7.105 -31.785  1.00  0.00     0.081 A 
HETATM    4  C   UNL     1      -7.234   6.082 -32.628  1.00  0.00     0.052 A 
HETATM    5  N   UNL     1      -6.182   5.370 -33.190  1.00  0.00    -0.228 NA
ENDROOT
BRANCH   4   6
HETATM    6  C   UNL     1      -8.620   5.641 -32.967  1.00  0.00     0.163 C 
BRANCH   6   7
HETATM    7  C   UNL     1      -8.656   4.328 -33.732  1.00  0.00     0.227 C 
HETATM    8  N   UNL     1      -7.861   3.337 -33.174  1.00  0.00    -0.327 N 
HETATM    9  H   UNL     1      -7.348   3.577 -32.335  1.00  0.00     0.169 HD
HETATM   10  O   UNL     1      -9.344   4.217 -34.744  1.00  0.00    -0.273 OA
BRANCH   8  11
HETATM   11  C   UNL     1      -7.701   2.011 -33.638  1.00  0.00     0.034 A 
HETATM   12  C   UNL     1      -6.835   1.646 -34.671  1.00  0.00     0.032 A 
HETATM   13  C   UNL     1      -6.742   0.314 -35.086  1.00  0.00     0.039 A 
HETATM   14  C   UNL     1      -7.505  -0.667 -34.460  1.00  0.00     0.076 A 
HETATM   15  C   UNL     1      -8.389  -0.319 -33.441  1.00  0.00     0.039 A 
HETATM   16  C   UNL     1      -8.474   1.015 -33.022  1.00  0.00     0.032 A 
BRANCH  14  17
HETATM   17  O   UNL     1      -7.428  -1.943 -34.959  1.00  0.00    -0.311 OA
BRANCH  17  18
HETATM   18  C   UNL     1      -6.349  -2.728 -34.616  1.00  0.00     0.076 A 
HETATM   19  C   UNL     1      -6.463  -4.079 -34.955  1.00  0.00     0.037 A 
HETATM   20  C   UNL     1      -5.416  -4.964 -34.690  1.00  0.00     0.003 A 
HETATM   21  C   UNL     1      -4.248  -4.497 -34.091  1.00  0.00     0.000 A 
HETATM   22  C   UNL     1      -4.123  -3.146 -33.765  1.00  0.00     0.003 A 
HETATM   23  C   UNL     1      -5.168  -2.259 -34.036  1.00  0.00     0.037 A 
ENDBRANCH  17  18
ENDBRANCH  14  17
ENDBRANCH   8  11
ENDBRANCH   6   7
ENDBRANCH   4   6
BRANCH   1  24
HETATM   24  N   UNL     1      -3.762   5.522 -33.144  1.00  0.00    -0.287 N 
HETATM   25  C   UNL     1      -2.839   5.010 -32.302  1.00  0.00     0.326 C 
HETATM   26  N   UNL     1      -3.167   4.330 -31.179  1.00  0.00    -0.306 N 
HETATM   27  O   UNL     1      -1.646   5.232 -32.533  1.00  0.00    -0.247 OA
HETATM   28  H   UNL     1      -2.447   4.385 -30.472  1.00  0.00     0.171 HD
HETATM   29  H   UNL     1      -3.399   5.888 -34.009  1.00  0.00     0.172 HD
BRANCH  26  30
HETATM   30  C   UNL     1      -4.193   3.390 -30.941  1.00  0.00     0.069 A 
HETATM   31  C   UNL     1      -5.296   3.591 -30.093  1.00  0.00     0.095 A 
HETATM   32  C   UNL     1      -6.233   2.569 -29.907  1.00  0.00     0.039 A 
HETATM   33  C   UNL     1      -6.119   1.370 -30.611  1.00  0.00     0.003 A 
HETATM   34  C   UNL     1      -5.068   1.190 -31.505  1.00  0.00     0.002 A 
HETATM   35  C   UNL     1      -4.116   2.197 -31.674  1.00  0.00     0.032 A 
BRANCH  31  36
HETATM   36  O   UNL     1      -5.461   4.792 -29.450  1.00  0.00    -0.354 OA
HETATM   37  C   UNL     1      -6.782   4.957 -28.938  1.00  0.00     0.210 C 
ENDBRANCH  31  36
ENDBRANCH  26  30
ENDBRANCH   1  24
TORSDOF 8
ENDMDL
MODEL 9
REMARK VINA RESULT:      -8.3      1.312      2.058
REMARK  8 active torsions:
REMARK  status: ('A' for Active; 'I' for Inactive)
REMARK    1  A    between atoms: O_2  and  C_3 
REMARK    2  A    between atoms: C_4  and  N_5 
REMARK       I    between atoms: N_5  and  C_6 
REMARK       I    between atoms: C_6  and  N_7 
REMARK    3  A    between atoms: N_7  and  C_8 
REMARK    4  A    between atoms: C_11  and  C_12 
REMARK    5  A    between atoms: C_12  and  C_13 
REMARK       I    between atoms: C_13  and  N_14 
REMARK    6  A    between atoms: N_14  and  C_15 
REMARK    7  A    between atoms: C_18  and  O_19 
REMARK    8  A    between atoms: O_19  and  C_20 
ROOT
HETATM    1  C   UNL     1      -2.744   7.339 -29.932  1.00  0.00     0.174 A 
HETATM    2  S   UNL     1      -3.163   8.388 -31.212  1.00  0.00    -0.062 SA
HETATM    3  C   UNL     1      -4.815   8.003 -30.962  1.00  0.00     0.081 A 
HETATM    4  C   UNL     1      -4.943   7.095 -29.925  1.00  0.00     0.052 A 
HETATM    5  N   UNL     1      -3.741   6.754 -29.319  1.00  0.00    -0.228 NA
ENDROOT
BRANCH   4   6
HETATM    6  C   UNL     1      -6.188   6.484 -29.370  1.00  0.00     0.163 C 
BRANCH   6   7
HETATM    7  C   UNL     1      -6.859   5.520 -30.335  1.00  0.00     0.227 C 
HETATM    8  N   UNL     1      -6.231   4.286 -30.417  1.00  0.00    -0.327 N 
HETATM    9  H   UNL     1      -5.409   4.150 -29.841  1.00  0.00     0.169 HD
HETATM   10  O   UNL     1      -7.862   5.862 -30.958  1.00  0.00    -0.273 OA
BRANCH   8  11
HETATM   11  C   UNL     1      -6.623   3.180 -31.204  1.00  0.00     0.034 A 
HETATM   12  C   UNL     1      -7.102   1.979 -30.676  1.00  0.00     0.032 A 
HETATM   13  C   UNL     1      -7.456   0.921 -31.519  1.00  0.00     0.039 A 
HETATM   14  C   UNL     1      -7.347   1.060 -32.899  1.00  0.00     0.076 A 
HETATM   15  C   UNL     1      -6.852   2.244 -33.443  1.00  0.00     0.039 A 
HETATM   16  C   UNL     1      -6.506   3.305 -32.597  1.00  0.00     0.032 A 
BRANCH  14  17
HETATM   17  O   UNL     1      -7.638  -0.036 -33.671  1.00  0.00    -0.311 OA
BRANCH  17  18
HETATM   18  C   UNL     1      -6.639  -0.947 -33.936  1.00  0.00     0.076 A 
HETATM   19  C   UNL     1      -5.394  -0.646 -33.378  1.00  0.00     0.037 A 
HETATM   20  C   UNL     1      -4.315  -1.516 -33.547  1.00  0.00     0.003 A 
HETATM   21  C   UNL     1      -4.482  -2.695 -34.271  1.00  0.00     0.000 A 
HETATM   22  C   UNL     1      -5.727  -3.008 -34.816  1.00  0.00     0.003 A 
HETATM   23  C   UNL     1      -6.809  -2.140 -34.641  1.00  0.00     0.037 A 
ENDBRANCH  17  18
ENDBRANCH  14  17
ENDBRANCH   8  11
ENDBRANCH   6   7
ENDBRANCH   4   6
BRANCH   1  24
HETATM   24  N   UNL     1      -1.403   7.285 -29.683  1.00  0.00    -0.287 N 
HETATM   25  C   UNL     1      -0.624   6.182 -29.695  1.00  0.00     0.326 C 
HETATM   26  N   UNL     1      -0.922   5.081 -30.424  1.00  0.00    -0.306 N 
HETATM   27  O   UNL     1       0.366   6.152 -28.957  1.00  0.00    -0.247 OA
HETATM   28  H   UNL     1      -0.527   4.239 -30.030  1.00  0.00     0.171 HD
HETATM   29  H   UNL     1      -1.010   8.082 -29.210  1.00  0.00     0.172 HD
BRANCH  26  30
HETATM   30  C   UNL     1      -1.458   4.959 -31.725  1.00  0.00     0.069 A 
HETATM   31  C   UNL     1      -2.559   4.159 -32.075  1.00  0.00     0.095 A 
HETATM   32  C   UNL     1      -2.980   4.088 -33.409  1.00  0.00     0.039 A 
HETATM   33  C   UNL     1      -2.354   4.861 -34.387  1.00  0.00     0.003 A 
HETATM   34  C   UNL     1      -1.308   5.708 -34.036  1.00  0.00     0.002 A 
HETATM   35  C   UNL     1      -0.869   5.762 -32.711  1.00  0.00     0.032 A 
BRANCH  31  36
HETATM   36  O   UNL     1      -3.231   3.449 -31.112  1.00  0.00    -0.354 OA
HETATM   37  C   UNL     1      -3.306   2.057 -31.413  1.00  0.00     0.210 C 
ENDBRANCH  31  36
ENDBRANCH  26  30
ENDBRANCH   1  24
TORSDOF 8
ENDMDL
MODEL 10
REMARK VINA RESULT:      -8.0      3.618      9.012
REMARK  8 active torsions:
REMARK  status: ('A' for Active; 'I' for Inactive)
REMARK    1  A    between atoms: O_2  and  C_3 
REMARK    2  A    between atoms: C_4  and  N_5 
REMARK       I    between atoms: N_5  and  C_6 
REMARK       I    between atoms: C_6  and  N_7 
REMARK    3  A    between atoms: N_7  and  C_8 
REMARK    4  A    between atoms: C_11  and  C_12 
REMARK    5  A    between atoms: C_12  and  C_13 
REMARK       I    between atoms: C_13  and  N_14 
REMARK    6  A    between atoms: N_14  and  C_15 
REMARK    7  A    between atoms: C_18  and  O_19 
REMARK    8  A    between atoms: O_19  and  C_20 
ROOT
HETATM    1  C   UNL     1      -9.554   4.313 -32.580  1.00  0.00     0.174 A 
HETATM    2  S   UNL     1     -10.561   4.439 -31.207  1.00  0.00    -0.062 SA
HETATM    3  C   UNL     1      -9.617   3.239 -30.428  1.00  0.00     0.081 A 
HETATM    4  C   UNL     1      -8.599   2.812 -31.264  1.00  0.00     0.052 A 
HETATM    5  N   UNL     1      -8.557   3.471 -32.486  1.00  0.00    -0.228 NA
ENDROOT
BRANCH   4   6
HETATM    6  C   UNL     1      -7.548   1.783 -31.003  1.00  0.00     0.163 C 
BRANCH   6   7
HETATM    7  C   UNL     1      -6.177   2.386 -30.745  1.00  0.00     0.227 C 
HETATM    8  N   UNL     1      -5.739   3.227 -31.758  1.00  0.00    -0.327 N 
HETATM    9  H   UNL     1      -6.359   3.355 -32.549  1.00  0.00     0.169 HD
HETATM   10  O   UNL     1      -5.560   2.113 -29.717  1.00  0.00    -0.273 OA
BRANCH   8  11
HETATM   11  C   UNL     1      -4.525   3.948 -31.803  1.00  0.00     0.034 A 
HETATM   12  C   UNL     1      -3.388   3.519 -32.492  1.00  0.00     0.032 A 
HETATM   13  C   UNL     1      -2.216   4.281 -32.477  1.00  0.00     0.039 A 
HETATM   14  C   UNL     1      -2.175   5.486 -31.783  1.00  0.00     0.076 A 
HETATM   15  C   UNL     1      -3.292   5.921 -31.072  1.00  0.00     0.039 A 
HETATM   16  C   UNL     1      -4.468   5.160 -31.097  1.00  0.00     0.032 A 
BRANCH  14  17
HETATM   17  O   UNL     1      -0.976   6.152 -31.741  1.00  0.00    -0.311 OA
BRANCH  17  18
HETATM   18  C   UNL     1      -0.339   6.302 -30.529  1.00  0.00     0.076 A 
HETATM   19  C   UNL     1      -0.339   7.600 -30.012  1.00  0.00     0.037 A 
HETATM   20  C   UNL     1       0.244   7.865 -28.771  1.00  0.00     0.003 A 
HETATM   21  C   UNL     1       0.824   6.829 -28.041  1.00  0.00     0.000 A 
HETATM   22  C   UNL     1       0.813   5.529 -28.546  1.00  0.00     0.003 A 
HETATM   23  C   UNL     1       0.223   5.262 -29.785  1.00  0.00     0.037 A 
ENDBRANCH  17  18
ENDBRANCH  14  17
ENDBRANCH   8  11
ENDBRANCH   6   7
ENDBRANCH   4   6
BRANCH   1  24
HETATM   24  N   UNL     1      -9.901   5.157 -33.596  1.00  0.00    -0.287 N 
HETATM   25  C   UNL     1     -10.115   4.821 -34.886  1.00  0.00     0.326 C 
HETATM   26  N   UNL     1     -10.507   3.583 -35.267  1.00  0.00    -0.306 N 
HETATM   27  O   UNL     1      -9.876   5.661 -35.760  1.00  0.00    -0.247 OA
HETATM   28  H   UNL     1     -10.224   3.362 -36.211  1.00  0.00     0.171 HD
HETATM   29  H   UNL     1      -9.742   6.137 -33.428  1.00  0.00     0.172 HD
BRANCH  26  30
HETATM   30  C   UNL     1     -11.426   2.689 -34.675  1.00  0.00     0.069 A 
HETATM   31  C   UNL     1     -11.108   1.415 -34.174  1.00  0.00     0.095 A 
HETATM   32  C   UNL     1     -12.113   0.599 -33.641  1.00  0.00     0.039 A 
HETATM   33  C   UNL     1     -13.423   1.068 -33.542  1.00  0.00     0.003 A 
HETATM   34  C   UNL     1     -13.732   2.354 -33.973  1.00  0.00     0.002 A 
HETATM   35  C   UNL     1     -12.737   3.162 -34.528  1.00  0.00     0.032 A 
BRANCH  31  36
HETATM   36  O   UNL     1      -9.811   0.968 -34.197  1.00  0.00    -0.354 OA
HETATM   37  C   UNL     1      -9.565  -0.043 -33.222  1.00  0.00     0.210 C 
ENDBRANCH  31  36
ENDBRANCH  26  30
ENDBRANCH   1  24
TORSDOF 8
ENDMDL
