MODEL 1
REMARK VINA RESULT:      -8.3      0.000      0.000
REMARK  4 active torsions:
REMARK  status: ('A' for Active; 'I' for Inactive)
REMARK    1  A    between atoms: C_4  and  C_5 
REMARK       I    between atoms: C_5  and  N_6 
REMARK    2  A    between atoms: N_6  and  C_7 
REMARK    3  A    between atoms: C_7  and  N_8 
REMARK    4  A    between atoms: N_8  and  C_9 
ROOT
HETATM    1  C   UNL     1      -7.674  -0.243 -34.148  1.00  0.00     0.257 C 
HETATM    2  N   UNL     1      -8.079   0.035 -32.849  1.00  0.00    -0.299 N 
HETATM    3  O   UNL     1      -8.052   0.306 -35.173  1.00  0.00    -0.267 OA
HETATM    4  H   UNL     1      -7.490  -0.349 -32.113  1.00  0.00     0.171 HD
ENDROOT
BRANCH   2   5
HETATM    5  C   UNL     1      -9.149   0.749 -32.352  1.00  0.00     0.180 C 
HETATM    6  S   UNL     1      -9.090   2.092 -31.362  1.00  0.00    -0.040 SA
BRANCH   5   7
HETATM    7  N   UNL     1     -10.395   0.305 -32.728  1.00  0.00    -0.318 N 
HETATM    8  H   UNL     1     -10.627  -0.614 -32.374  1.00  0.00     0.170 HD
BRANCH   7   9
HETATM    9  C   UNL     1     -11.337   0.935 -33.556  1.00  0.00     0.129 A 
HETATM   10  N   UNL     1     -12.617   0.498 -33.557  1.00  0.00    -0.236 NA
HETATM   11  C   UNL     1     -13.512   1.146 -34.344  1.00  0.00     0.033 A 
HETATM   12  C   UNL     1     -14.931   0.661 -34.316  1.00  0.00     0.070 C 
HETATM   13  C   UNL     1     -13.156   2.214 -35.157  1.00  0.00     0.027 A 
HETATM   14  C   UNL     1     -11.833   2.642 -35.154  1.00  0.00     0.006 A 
HETATM   15  C   UNL     1     -10.908   1.995 -34.341  1.00  0.00     0.050 A 
ENDBRANCH   7   9
ENDBRANCH   5   7
ENDBRANCH   2   5
BRANCH   1  16
HETATM   16  C   UNL     1      -6.584  -1.248 -34.225  1.00  0.00     0.032 A 
HETATM   17  C   UNL     1      -6.826  -2.528 -34.744  1.00  0.00     0.023 A 
HETATM   18  C   UNL     1      -5.794  -3.473 -34.791  1.00  0.00    -0.061 A 
HETATM   19  C   UNL     1      -6.042  -4.852 -35.328  1.00  0.00     0.048 C 
HETATM   20  C   UNL     1      -4.532  -3.130 -34.288  1.00  0.00     0.007 A 
HETATM   21  C   UNL     1      -4.291  -1.850 -33.783  1.00  0.00     0.002 A 
HETATM   22  C   UNL     1      -5.313  -0.903 -33.761  1.00  0.00     0.017 A 
ENDBRANCH   1  16
TORSDOF 4
ENDMDL
MODEL 2
REMARK VINA RESULT:      -8.2      5.152      7.874
REMARK  4 active torsions:
REMARK  status: ('A' for Active; 'I' for Inactive)
REMARK    1  A    between atoms: C_4  and  C_5 
REMARK       I    between atoms: C_5  and  N_6 
REMARK    2  A    between atoms: N_6  and  C_7 
REMARK    3  A    between atoms: C_7  and  N_8 
REMARK    4  A    between atoms: N_8  and  C_9 
ROOT
HETATM    1  C   UNL     1      -3.910   0.128 -31.818  1.00  0.00     0.257 C 
HETATM    2  N   UNL     1      -4.685   1.275 -31.710  1.00  0.00    -0.299 N 
HETATM    3  O   UNL     1      -2.913  -0.155 -31.168  1.00  0.00    -0.267 OA
HETATM    4  H   UNL     1      -5.600   1.232 -32.153  1.00  0.00     0.171 HD
ENDROOT
BRANCH   2   5
HETATM    5  C   UNL     1      -4.449   2.490 -31.102  1.00  0.00     0.180 C 
HETATM    6  S   UNL     1      -5.584   3.524 -30.446  1.00  0.00    -0.040 SA
BRANCH   5   7
HETATM    7  N   UNL     1      -3.132   2.878 -31.023  1.00  0.00    -0.318 N 
HETATM    8  H   UNL     1      -2.613   2.418 -30.285  1.00  0.00     0.170 HD
BRANCH   7   9
HETATM    9  C   UNL     1      -2.453   3.837 -31.788  1.00  0.00     0.129 A 
HETATM   10  N   UNL     1      -1.514   4.614 -31.200  1.00  0.00    -0.236 NA
HETATM   11  C   UNL     1      -0.853   5.512 -31.971  1.00  0.00     0.033 A 
HETATM   12  C   UNL     1       0.199   6.349 -31.305  1.00  0.00     0.070 C 
HETATM   13  C   UNL     1      -1.121   5.676 -33.324  1.00  0.00     0.027 A 
HETATM   14  C   UNL     1      -2.098   4.879 -33.911  1.00  0.00     0.006 A 
HETATM   15  C   UNL     1      -2.775   3.944 -33.134  1.00  0.00     0.050 A 
ENDBRANCH   7   9
ENDBRANCH   5   7
ENDBRANCH   2   5
BRANCH   1  16
HETATM   16  C   UNL     1      -4.467  -0.874 -32.763  1.00  0.00     0.032 A 
HETATM   17  C   UNL     1      -3.873  -2.138 -32.895  1.00  0.00     0.023 A 
HETATM   18  C   UNL     1      -4.395  -3.066 -33.805  1.00  0.00    -0.061 A 
HETATM   19  C   UNL     1      -3.761  -4.416 -33.971  1.00  0.00     0.048 C 
HETATM   20  C   UNL     1      -5.495  -2.703 -34.593  1.00  0.00     0.007 A 
HETATM   21  C   UNL     1      -6.091  -1.448 -34.450  1.00  0.00     0.002 A 
HETATM   22  C   UNL     1      -5.585  -0.535 -33.526  1.00  0.00     0.017 A 
ENDBRANCH   1  16
TORSDOF 4
ENDMDL
MODEL 3
REMARK VINA RESULT:      -8.0      5.364      8.077
REMARK  4 active torsions:
REMARK  status: ('A' for Active; 'I' for Inactive)
REMARK    1  A    between atoms: C_4  and  C_5 
REMARK       I    between atoms: C_5  and  N_6 
REMARK    2  A    between atoms: N_6  and  C_7 
REMARK    3  A    between atoms: C_7  and  N_8 
REMARK    4  A    between atoms: N_8  and  C_9 
ROOT
HETATM    1  C   UNL     1      -4.080   0.613 -32.037  1.00  0.00     0.257 C 
HETATM    2  N   UNL     1      -4.728   1.816 -31.791  1.00  0.00    -0.299 N 
HETATM    3  O   UNL     1      -3.081   0.184 -31.476  1.00  0.00    -0.267 OA
HETATM    4  H   UNL     1      -5.667   1.897 -32.176  1.00  0.00     0.171 HD
ENDROOT
BRANCH   2   5
HETATM    5  C   UNL     1      -4.337   2.949 -31.109  1.00  0.00     0.180 C 
HETATM    6  S   UNL     1      -5.317   3.998 -30.256  1.00  0.00    -0.040 SA
BRANCH   5   7
HETATM    7  N   UNL     1      -2.991   3.230 -31.129  1.00  0.00    -0.318 N 
HETATM    8  H   UNL     1      -2.447   2.676 -30.480  1.00  0.00     0.170 HD
BRANCH   7   9
HETATM    9  C   UNL     1      -2.309   4.193 -31.886  1.00  0.00     0.129 A 
HETATM   10  N   UNL     1      -1.431   5.021 -31.273  1.00  0.00    -0.236 NA
HETATM   11  C   UNL     1      -0.763   5.922 -32.035  1.00  0.00     0.033 A 
HETATM   12  C   UNL     1       0.221   6.816 -31.340  1.00  0.00     0.070 C 
HETATM   13  C   UNL     1      -0.966   6.039 -33.404  1.00  0.00     0.027 A 
HETATM   14  C   UNL     1      -1.881   5.191 -34.017  1.00  0.00     0.006 A 
HETATM   15  C   UNL     1      -2.563   4.252 -33.249  1.00  0.00     0.050 A 
ENDBRANCH   7   9
ENDBRANCH   5   7
ENDBRANCH   2   5
BRANCH   1  16
HETATM   16  C   UNL     1      -4.787  -0.249 -33.017  1.00  0.00     0.032 A 
HETATM   17  C   UNL     1      -5.927   0.218 -33.687  1.00  0.00     0.023 A 
HETATM   18  C   UNL     1      -6.598  -0.613 -34.593  1.00  0.00    -0.061 A 
HETATM   19  C   UNL     1      -7.830  -0.134 -35.305  1.00  0.00     0.048 C 
HETATM   20  C   UNL     1      -6.130  -1.918 -34.797  1.00  0.00     0.007 A 
HETATM   21  C   UNL     1      -4.987  -2.376 -34.138  1.00  0.00     0.002 A 
HETATM   22  C   UNL     1      -4.306  -1.538 -33.256  1.00  0.00     0.017 A 
ENDBRANCH   1  16
TORSDOF 4
ENDMDL
MODEL 4
REMARK VINA RESULT:      -7.7      2.627      4.359
REMARK  4 active torsions:
REMARK  status: ('A' for Active; 'I' for Inactive)
REMARK    1  A    between atoms: C_4  and  C_5 
REMARK       I    between atoms: C_5  and  N_6 
REMARK    2  A    between atoms: N_6  and  C_7 
REMARK    3  A    between atoms: C_7  and  N_8 
REMARK    4  A    between atoms: N_8  and  C_9 
ROOT
HETATM    1  C   UNL     1      -7.240   0.175 -33.757  1.00  0.00     0.257 C 
HETATM    2  N   UNL     1      -8.299  -0.076 -32.894  1.00  0.00    -0.299 N 
HETATM    3  O   UNL     1      -6.931   1.249 -34.254  1.00  0.00    -0.267 OA
HETATM    4  H   UNL     1      -8.261  -0.964 -32.397  1.00  0.00     0.171 HD
ENDROOT
BRANCH   2   5
HETATM    5  C   UNL     1      -9.418   0.662 -32.572  1.00  0.00     0.180 C 
HETATM    6  S   UNL     1     -10.759   0.928 -33.532  1.00  0.00    -0.040 SA
BRANCH   5   7
HETATM    7  N   UNL     1      -9.427   1.227 -31.318  1.00  0.00    -0.318 N 
HETATM    8  H   UNL     1     -10.054   0.771 -30.668  1.00  0.00     0.170 HD
BRANCH   7   9
HETATM    9  C   UNL     1      -8.727   2.353 -30.860  1.00  0.00     0.129 A 
HETATM   10  N   UNL     1      -7.376   2.313 -30.790  1.00  0.00    -0.236 NA
HETATM   11  C   UNL     1      -6.725   3.427 -30.373  1.00  0.00     0.033 A 
HETATM   12  C   UNL     1      -5.227   3.369 -30.322  1.00  0.00     0.070 C 
HETATM   13  C   UNL     1      -7.392   4.585 -29.995  1.00  0.00     0.027 A 
HETATM   14  C   UNL     1      -8.780   4.606 -30.061  1.00  0.00     0.006 A 
HETATM   15  C   UNL     1      -9.461   3.474 -30.500  1.00  0.00     0.050 A 
ENDBRANCH   7   9
ENDBRANCH   5   7
ENDBRANCH   2   5
BRANCH   1  16
HETATM   16  C   UNL     1      -6.361  -1.002 -33.971  1.00  0.00     0.032 A 
HETATM   17  C   UNL     1      -6.852  -2.154 -34.603  1.00  0.00     0.023 A 
HETATM   18  C   UNL     1      -6.018  -3.266 -34.780  1.00  0.00    -0.061 A 
HETATM   19  C   UNL     1      -6.534  -4.512 -35.438  1.00  0.00     0.048 C 
HETATM   20  C   UNL     1      -4.705  -3.217 -34.295  1.00  0.00     0.007 A 
HETATM   21  C   UNL     1      -4.216  -2.064 -33.678  1.00  0.00     0.002 A 
HETATM   22  C   UNL     1      -5.039  -0.949 -33.525  1.00  0.00     0.017 A 
ENDBRANCH   1  16
TORSDOF 4
ENDMDL
MODEL 5
REMARK VINA RESULT:      -7.6      2.222      2.856
REMARK  4 active torsions:
REMARK  status: ('A' for Active; 'I' for Inactive)
REMARK    1  A    between atoms: C_4  and  C_5 
REMARK       I    between atoms: C_5  and  N_6 
REMARK    2  A    between atoms: N_6  and  C_7 
REMARK    3  A    between atoms: C_7  and  N_8 
REMARK    4  A    between atoms: N_8  and  C_9 
ROOT
HETATM    1  C   UNL     1      -5.878  -0.159 -33.247  1.00  0.00     0.257 C 
HETATM    2  N   UNL     1      -5.877   0.064 -31.876  1.00  0.00    -0.299 N 
HETATM    3  O   UNL     1      -6.123   0.654 -34.128  1.00  0.00    -0.267 OA
HETATM    4  H   UNL     1      -5.421  -0.652 -31.314  1.00  0.00     0.171 HD
ENDROOT
BRANCH   2   5
HETATM    5  C   UNL     1      -6.384   1.092 -31.112  1.00  0.00     0.180 C 
HETATM    6  S   UNL     1      -5.542   2.390 -30.482  1.00  0.00    -0.040 SA
BRANCH   5   7
HETATM    7  N   UNL     1      -7.735   1.041 -30.854  1.00  0.00    -0.318 N 
HETATM    8  H   UNL     1      -7.961   0.758 -29.909  1.00  0.00     0.170 HD
BRANCH   7   9
HETATM    9  C   UNL     1      -8.803   1.283 -31.730  1.00  0.00     0.129 A 
HETATM   10  N   UNL     1      -9.171   2.559 -31.992  1.00  0.00    -0.236 NA
HETATM   11  C   UNL     1     -10.188   2.763 -32.867  1.00  0.00     0.033 A 
HETATM   12  C   UNL     1     -10.567   4.184 -33.161  1.00  0.00     0.070 C 
HETATM   13  C   UNL     1     -10.871   1.718 -33.476  1.00  0.00     0.027 A 
HETATM   14  C   UNL     1     -10.490   0.414 -33.185  1.00  0.00     0.006 A 
HETATM   15  C   UNL     1      -9.439   0.190 -32.300  1.00  0.00     0.050 A 
ENDBRANCH   7   9
ENDBRANCH   5   7
ENDBRANCH   2   5
BRANCH   1  16
HETATM   16  C   UNL     1      -5.417  -1.519 -33.625  1.00  0.00     0.032 A 
HETATM   17  C   UNL     1      -6.217  -2.349 -34.424  1.00  0.00     0.023 A 
HETATM   18  C   UNL     1      -5.779  -3.637 -34.755  1.00  0.00    -0.061 A 
HETATM   19  C   UNL     1      -6.632  -4.544 -35.594  1.00  0.00     0.048 C 
HETATM   20  C   UNL     1      -4.551  -4.089 -34.256  1.00  0.00     0.007 A 
HETATM   21  C   UNL     1      -3.751  -3.256 -33.471  1.00  0.00     0.002 A 
HETATM   22  C   UNL     1      -4.176  -1.965 -33.164  1.00  0.00     0.017 A 
ENDBRANCH   1  16
TORSDOF 4
ENDMDL
MODEL 6
REMARK VINA RESULT:      -7.5     13.810     15.060
REMARK  4 active torsions:
REMARK  status: ('A' for Active; 'I' for Inactive)
REMARK    1  A    between atoms: C_4  and  C_5 
REMARK       I    between atoms: C_5  and  N_6 
REMARK    2  A    between atoms: N_6  and  C_7 
REMARK    3  A    between atoms: C_7  and  N_8 
REMARK    4  A    between atoms: N_8  and  C_9 
ROOT
HETATM    1  C   UNL     1      -2.490 -12.957 -38.096  1.00  0.00     0.257 C 
HETATM    2  N   UNL     1      -3.361 -13.738 -37.348  1.00  0.00    -0.299 N 
HETATM    3  O   UNL     1      -2.534 -11.745 -38.253  1.00  0.00    -0.267 OA
HETATM    4  H   UNL     1      -3.036 -14.679 -37.135  1.00  0.00     0.171 HD
ENDROOT
BRANCH   2   5
HETATM    5  C   UNL     1      -4.610 -13.480 -36.826  1.00  0.00     0.180 C 
HETATM    6  S   UNL     1      -5.358 -14.277 -35.563  1.00  0.00    -0.040 SA
BRANCH   5   7
HETATM    7  N   UNL     1      -5.303 -12.443 -37.407  1.00  0.00    -0.318 N 
HETATM    8  H   UNL     1      -5.154 -11.548 -36.958  1.00  0.00     0.170 HD
BRANCH   7   9
HETATM    9  C   UNL     1      -6.200 -12.484 -38.485  1.00  0.00     0.129 A 
HETATM   10  N   UNL     1      -7.493 -12.814 -38.261  1.00  0.00    -0.236 NA
HETATM   11  C   UNL     1      -8.344 -12.815 -39.317  1.00  0.00     0.033 A 
HETATM   12  C   UNL     1      -9.777 -13.163 -39.046  1.00  0.00     0.070 C 
HETATM   13  C   UNL     1      -7.931 -12.515 -40.610  1.00  0.00     0.027 A 
HETATM   14  C   UNL     1      -6.596 -12.191 -40.824  1.00  0.00     0.006 A 
HETATM   15  C   UNL     1      -5.715 -12.173 -39.747  1.00  0.00     0.050 A 
ENDBRANCH   7   9
ENDBRANCH   5   7
ENDBRANCH   2   5
BRANCH   1  16
HETATM   16  C   UNL     1      -1.339 -13.717 -38.647  1.00  0.00     0.032 A 
HETATM   17  C   UNL     1      -0.439 -14.370 -37.791  1.00  0.00     0.023 A 
HETATM   18  C   UNL     1       0.654 -15.066 -38.322  1.00  0.00    -0.061 A 
HETATM   19  C   UNL     1       1.635 -15.754 -37.418  1.00  0.00     0.048 C 
HETATM   20  C   UNL     1       0.847 -15.076 -39.709  1.00  0.00     0.007 A 
HETATM   21  C   UNL     1      -0.057 -14.435 -40.559  1.00  0.00     0.002 A 
HETATM   22  C   UNL     1      -1.159 -13.764 -40.030  1.00  0.00     0.017 A 
ENDBRANCH   1  16
TORSDOF 4
ENDMDL
MODEL 7
REMARK VINA RESULT:      -7.5      3.773      6.310
REMARK  4 active torsions:
REMARK  status: ('A' for Active; 'I' for Inactive)
REMARK    1  A    between atoms: C_4  and  C_5 
REMARK       I    between atoms: C_5  and  N_6 
REMARK    2  A    between atoms: N_6  and  C_7 
REMARK    3  A    between atoms: C_7  and  N_8 
REMARK    4  A    between atoms: N_8  and  C_9 
ROOT
HETATM    1  C   UNL     1      -7.181   0.071 -33.507  1.00  0.00     0.257 C 
HETATM    2  N   UNL     1      -6.460   1.239 -33.297  1.00  0.00    -0.299 N 
HETATM    3  O   UNL     1      -8.398  -0.051 -33.537  1.00  0.00    -0.267 OA
HETATM    4  H   UNL     1      -5.473   1.198 -33.543  1.00  0.00     0.171 HD
ENDROOT
BRANCH   2   5
HETATM    5  C   UNL     1      -6.832   2.474 -32.809  1.00  0.00     0.180 C 
HETATM    6  S   UNL     1      -8.076   2.802 -31.744  1.00  0.00    -0.040 SA
BRANCH   5   7
HETATM    7  N   UNL     1      -6.083   3.543 -33.243  1.00  0.00    -0.318 N 
HETATM    8  H   UNL     1      -6.594   4.188 -33.833  1.00  0.00     0.170 HD
BRANCH   7   9
HETATM    9  C   UNL     1      -4.727   3.815 -33.010  1.00  0.00     0.129 A 
HETATM   10  N   UNL     1      -4.004   4.449 -33.962  1.00  0.00    -0.236 NA
HETATM   11  C   UNL     1      -2.703   4.726 -33.698  1.00  0.00     0.033 A 
HETATM   12  C   UNL     1      -1.923   5.447 -34.757  1.00  0.00     0.070 C 
HETATM   13  C   UNL     1      -2.089   4.363 -32.505  1.00  0.00     0.027 A 
HETATM   14  C   UNL     1      -2.842   3.700 -31.543  1.00  0.00     0.006 A 
HETATM   15  C   UNL     1      -4.182   3.422 -31.796  1.00  0.00     0.050 A 
ENDBRANCH   7   9
ENDBRANCH   5   7
ENDBRANCH   2   5
BRANCH   1  16
HETATM   16  C   UNL     1      -6.328  -1.099 -33.836  1.00  0.00     0.032 A 
HETATM   17  C   UNL     1      -6.869  -2.218 -34.486  1.00  0.00     0.023 A 
HETATM   18  C   UNL     1      -6.059  -3.323 -34.772  1.00  0.00    -0.061 A 
HETATM   19  C   UNL     1      -6.627  -4.535 -35.450  1.00  0.00     0.048 C 
HETATM   20  C   UNL     1      -4.715  -3.303 -34.376  1.00  0.00     0.007 A 
HETATM   21  C   UNL     1      -4.176  -2.182 -33.740  1.00  0.00     0.002 A 
HETATM   22  C   UNL     1      -4.978  -1.073 -33.480  1.00  0.00     0.017 A 
ENDBRANCH   1  16
TORSDOF 4
ENDMDL
MODEL 8
REMARK VINA RESULT:      -7.4      4.677      6.933
REMARK  4 active torsions:
REMARK  status: ('A' for Active; 'I' for Inactive)
REMARK    1  A    between atoms: C_4  and  C_5 
REMARK       I    between atoms: C_5  and  N_6 
REMARK    2  A    between atoms: N_6  and  C_7 
REMARK    3  A    between atoms: C_7  and  N_8 
REMARK    4  A    between atoms: N_8  and  C_9 
ROOT
HETATM    1  C   UNL     1      -5.896   1.418 -32.773  1.00  0.00     0.257 C 
HETATM    2  N   UNL     1      -5.226   1.830 -31.628  1.00  0.00    -0.299 N 
HETATM    3  O   UNL     1      -6.624   2.094 -33.486  1.00  0.00    -0.267 OA
HETATM    4  H   UNL     1      -4.486   1.211 -31.304  1.00  0.00     0.171 HD
ENDROOT
BRANCH   2   5
HETATM    5  C   UNL     1      -5.372   2.943 -30.827  1.00  0.00     0.180 C 
HETATM    6  S   UNL     1      -6.735   3.398 -29.976  1.00  0.00    -0.040 SA
BRANCH   5   7
HETATM    7  N   UNL     1      -4.266   3.753 -30.714  1.00  0.00    -0.318 N 
HETATM    8  H   UNL     1      -4.069   4.046 -29.765  1.00  0.00     0.170 HD
BRANCH   7   9
HETATM    9  C   UNL     1      -3.432   4.243 -31.729  1.00  0.00     0.129 A 
HETATM   10  N   UNL     1      -3.945   4.467 -32.961  1.00  0.00    -0.236 NA
HETATM   11  C   UNL     1      -3.122   4.971 -33.914  1.00  0.00     0.033 A 
HETATM   12  C   UNL     1      -3.715   5.233 -35.267  1.00  0.00     0.070 C 
HETATM   13  C   UNL     1      -1.780   5.237 -33.677  1.00  0.00     0.027 A 
HETATM   14  C   UNL     1      -1.265   4.988 -32.410  1.00  0.00     0.006 A 
HETATM   15  C   UNL     1      -2.101   4.485 -31.419  1.00  0.00     0.050 A 
ENDBRANCH   7   9
ENDBRANCH   5   7
ENDBRANCH   2   5
BRANCH   1  16
HETATM   16  C   UNL     1      -5.565   0.031 -33.184  1.00  0.00     0.032 A 
HETATM   17  C   UNL     1      -4.598  -0.709 -32.487  1.00  0.00     0.023 A 
HETATM   18  C   UNL     1      -4.279  -2.009 -32.898  1.00  0.00    -0.061 A 
HETATM   19  C   UNL     1      -3.234  -2.807 -32.174  1.00  0.00     0.048 C 
HETATM   20  C   UNL     1      -4.917  -2.544 -34.024  1.00  0.00     0.007 A 
HETATM   21  C   UNL     1      -5.889  -1.809 -34.708  1.00  0.00     0.002 A 
HETATM   22  C   UNL     1      -6.223  -0.525 -34.282  1.00  0.00     0.017 A 
ENDBRANCH   1  16
TORSDOF 4
ENDMDL
MODEL 9
REMARK VINA RESULT:      -7.3      4.772      6.985
REMARK  4 active torsions:
REMARK  status: ('A' for Active; 'I' for Inactive)
REMARK    1  A    between atoms: C_4  and  C_5 
REMARK       I    between atoms: C_5  and  N_6 
REMARK    2  A    between atoms: N_6  and  C_7 
REMARK    3  A    between atoms: C_7  and  N_8 
REMARK    4  A    between atoms: N_8  and  C_9 
ROOT
HETATM    1  C   UNL     1      -5.230   4.475 -33.428  1.00  0.00     0.257 C 
HETATM    2  N   UNL     1      -5.575   3.833 -32.245  1.00  0.00    -0.299 N 
HETATM    3  O   UNL     1      -5.987   4.865 -34.305  1.00  0.00    -0.267 OA
HETATM    4  H   UNL     1      -4.848   3.801 -31.533  1.00  0.00     0.171 HD
ENDROOT
BRANCH   2   5
HETATM    5  C   UNL     1      -6.740   3.219 -31.839  1.00  0.00     0.180 C 
HETATM    6  S   UNL     1      -7.366   3.169 -30.291  1.00  0.00    -0.040 SA
BRANCH   5   7
HETATM    7  N   UNL     1      -7.465   2.590 -32.825  1.00  0.00    -0.318 N 
HETATM    8  H   UNL     1      -8.355   3.030 -33.023  1.00  0.00     0.170 HD
BRANCH   7   9
HETATM    9  C   UNL     1      -7.149   1.423 -33.536  1.00  0.00     0.129 A 
HETATM   10  N   UNL     1      -6.042   0.720 -33.200  1.00  0.00    -0.236 NA
HETATM   11  C   UNL     1      -5.778  -0.421 -33.884  1.00  0.00     0.033 A 
HETATM   12  C   UNL     1      -4.559  -1.197 -33.484  1.00  0.00     0.070 C 
HETATM   13  C   UNL     1      -6.584  -0.873 -34.922  1.00  0.00     0.027 A 
HETATM   14  C   UNL     1      -7.710  -0.133 -35.263  1.00  0.00     0.006 A 
HETATM   15  C   UNL     1      -8.000   1.033 -34.560  1.00  0.00     0.050 A 
ENDBRANCH   7   9
ENDBRANCH   5   7
ENDBRANCH   2   5
BRANCH   1  16
HETATM   16  C   UNL     1      -3.783   4.794 -33.525  1.00  0.00     0.032 A 
HETATM   17  C   UNL     1      -2.968   4.772 -32.384  1.00  0.00     0.023 A 
HETATM   18  C   UNL     1      -1.609   5.095 -32.486  1.00  0.00    -0.061 A 
HETATM   19  C   UNL     1      -0.728   5.093 -31.271  1.00  0.00     0.048 C 
HETATM   20  C   UNL     1      -1.088   5.465 -33.733  1.00  0.00     0.007 A 
HETATM   21  C   UNL     1      -1.900   5.475 -34.870  1.00  0.00     0.002 A 
HETATM   22  C   UNL     1      -3.246   5.128 -34.770  1.00  0.00     0.017 A 
ENDBRANCH   1  16
TORSDOF 4
ENDMDL
MODEL 10
REMARK VINA RESULT:      -7.3     13.497     15.993
REMARK  4 active torsions:
REMARK  status: ('A' for Active; 'I' for Inactive)
REMARK    1  A    between atoms: C_4  and  C_5 
REMARK       I    between atoms: C_5  and  N_6 
REMARK    2  A    between atoms: N_6  and  C_7 
REMARK    3  A    between atoms: C_7  and  N_8 
REMARK    4  A    between atoms: N_8  and  C_9 
ROOT
HETATM    1  C   UNL     1      -6.469 -12.631 -39.013  1.00  0.00     0.257 C 
HETATM    2  N   UNL     1      -5.984 -13.325 -37.911  1.00  0.00    -0.299 N 
HETATM    3  O   UNL     1      -5.842 -11.881 -39.747  1.00  0.00    -0.267 OA
HETATM    4  H   UNL     1      -6.577 -14.078 -37.569  1.00  0.00     0.171 HD
ENDROOT
BRANCH   2   5
HETATM    5  C   UNL     1      -4.827 -13.187 -37.174  1.00  0.00     0.180 C 
HETATM    6  S   UNL     1      -4.559 -13.717 -35.613  1.00  0.00    -0.040 SA
BRANCH   5   7
HETATM    7  N   UNL     1      -3.782 -12.554 -37.806  1.00  0.00    -0.318 N 
HETATM    8  H   UNL     1      -3.805 -11.545 -37.726  1.00  0.00     0.170 HD
BRANCH   7   9
HETATM    9  C   UNL     1      -2.745 -13.119 -38.564  1.00  0.00     0.129 A 
HETATM   10  N   UNL     1      -3.038 -13.746 -39.727  1.00  0.00    -0.236 NA
HETATM   11  C   UNL     1      -2.012 -14.255 -40.454  1.00  0.00     0.033 A 
HETATM   12  C   UNL     1      -2.355 -14.927 -41.750  1.00  0.00     0.070 C 
HETATM   13  C   UNL     1      -0.689 -14.176 -40.037  1.00  0.00     0.027 A 
HETATM   14  C   UNL     1      -0.407 -13.540 -38.833  1.00  0.00     0.006 A 
HETATM   15  C   UNL     1      -1.449 -13.001 -38.084  1.00  0.00     0.050 A 
ENDBRANCH   7   9
ENDBRANCH   5   7
ENDBRANCH   2   5
BRANCH   1  16
HETATM   16  C   UNL     1      -7.876 -12.966 -39.348  1.00  0.00     0.032 A 
HETATM   17  C   UNL     1      -8.751 -11.978 -39.824  1.00  0.00     0.023 A 
HETATM   18  C   UNL     1     -10.081 -12.302 -40.117  1.00  0.00    -0.061 A 
HETATM   19  C   UNL     1     -11.034 -11.252 -40.610  1.00  0.00     0.048 C 
HETATM   20  C   UNL     1     -10.527 -13.612 -39.903  1.00  0.00     0.007 A 
HETATM   21  C   UNL     1      -9.650 -14.596 -39.440  1.00  0.00     0.002 A 
HETATM   22  C   UNL     1      -8.319 -14.278 -39.174  1.00  0.00     0.017 A 
ENDBRANCH   1  16
TORSDOF 4
ENDMDL
