MODEL 1
REMARK VINA RESULT:      -9.3      0.000      0.000
REMARK  4 active torsions:
REMARK  status: ('A' for Active; 'I' for Inactive)
REMARK    1  A    between atoms: C_4  and  N_5 
REMARK       I    between atoms: N_5  and  C_6 
REMARK       I    between atoms: C_6  and  N_7 
REMARK    2  A    between atoms: N_7  and  C_8 
REMARK    3  A    between atoms: C_8  and  C_9 
REMARK    4  A    between atoms: C_10  and  O_11 
ROOT
HETATM    1  N   UNL     1      -3.569  -0.769 -32.453  1.00  0.00    -0.307 N 
HETATM    2  C   UNL     1      -3.240   0.393 -31.831  1.00  0.00     0.321 C 
HETATM    3  N   UNL     1      -3.832   1.531 -32.290  1.00  0.00    -0.338 N 
HETATM    4  O   UNL     1      -2.409   0.388 -30.926  1.00  0.00    -0.247 OA
HETATM    5  H   UNL     1      -2.923  -1.529 -32.241  1.00  0.00     0.170 HD
HETATM    6  H   UNL     1      -4.020   1.504 -33.281  1.00  0.00     0.164 HD
ENDROOT
BRANCH   1   7
HETATM    7  C   UNL     1      -4.614  -1.153 -33.327  1.00  0.00     0.066 A 
HETATM    8  C   UNL     1      -5.601  -0.272 -33.787  1.00  0.00     0.038 A 
HETATM    9  C   UNL     1      -6.611  -0.717 -34.648  1.00  0.00    -0.059 A 
HETATM   10  C   UNL     1      -7.647   0.232 -35.173  1.00  0.00     0.048 C 
HETATM   11  C   UNL     1      -6.622  -2.057 -35.042  1.00  0.00     0.020 A 
HETATM   12  C   UNL     1      -5.659  -2.957 -34.555  1.00  0.00    -0.005 A 
HETATM   13  C   UNL     1      -4.646  -2.514 -33.680  1.00  0.00     0.093 A 
HETATM   14  C   UNL     1      -5.679  -4.310 -34.919  1.00  0.00     0.015 A 
HETATM   15  N   UNL     1      -3.712  -3.364 -33.190  1.00  0.00    -0.258 NA
HETATM   16  C   UNL     1      -3.765  -4.662 -33.562  1.00  0.00     0.117 A 
HETATM   17  C   UNL     1      -4.718  -5.179 -34.416  1.00  0.00     0.020 A 
ENDBRANCH   1   7
BRANCH   3  18
HETATM   18  C   UNL     1      -3.460   2.834 -31.766  1.00  0.00     0.167 C 
BRANCH  18  19
HETATM   19  C   UNL     1      -3.264   3.903 -32.808  1.00  0.00     0.012 A 
HETATM   20  C   UNL     1      -4.363   4.380 -33.530  1.00  0.00     0.171 A 
HETATM   21  N   UNL     1      -4.286   5.315 -34.505  1.00  0.00    -0.237 NA
HETATM   22  C   UNL     1      -3.058   5.788 -34.800  1.00  0.00     0.119 A 
HETATM   23  C   UNL     1      -1.903   5.376 -34.163  1.00  0.00     0.020 A 
HETATM   24  C   UNL     1      -2.010   4.420 -33.157  1.00  0.00     0.014 A 
BRANCH  20  25
HETATM   25  O   UNL     1      -5.601   3.857 -33.204  1.00  0.00    -0.339 OA
HETATM   26  C   UNL     1      -6.684   4.551 -33.815  1.00  0.00     0.211 C 
ENDBRANCH  20  25
ENDBRANCH  18  19
ENDBRANCH   3  18
TORSDOF 4
ENDMDL
MODEL 2
REMARK VINA RESULT:      -9.1      1.283      2.001
REMARK  4 active torsions:
REMARK  status: ('A' for Active; 'I' for Inactive)
REMARK    1  A    between atoms: C_4  and  N_5 
REMARK       I    between atoms: N_5  and  C_6 
REMARK       I    between atoms: C_6  and  N_7 
REMARK    2  A    between atoms: N_7  and  C_8 
REMARK    3  A    between atoms: C_8  and  C_9 
REMARK    4  A    between atoms: C_10  and  O_11 
ROOT
HETATM    1  N   UNL     1      -3.495  -0.851 -32.539  1.00  0.00    -0.307 N 
HETATM    2  C   UNL     1      -3.171   0.258 -31.824  1.00  0.00     0.321 C 
HETATM    3  N   UNL     1      -3.833   1.409 -32.130  1.00  0.00    -0.338 N 
HETATM    4  O   UNL     1      -2.285   0.201 -30.975  1.00  0.00    -0.247 OA
HETATM    5  H   UNL     1      -2.808  -1.598 -32.443  1.00  0.00     0.170 HD
HETATM    6  H   UNL     1      -4.082   1.471 -33.106  1.00  0.00     0.164 HD
ENDROOT
BRANCH   1   7
HETATM    7  C   UNL     1      -4.578  -1.192 -33.384  1.00  0.00     0.066 A 
HETATM    8  C   UNL     1      -5.548  -0.275 -33.808  1.00  0.00     0.038 A 
HETATM    9  C   UNL     1      -6.597  -0.680 -34.641  1.00  0.00    -0.059 A 
HETATM   10  C   UNL     1      -7.616   0.308 -35.128  1.00  0.00     0.048 C 
HETATM   11  C   UNL     1      -6.666  -2.015 -35.043  1.00  0.00     0.020 A 
HETATM   12  C   UNL     1      -5.720  -2.951 -34.591  1.00  0.00    -0.005 A 
HETATM   13  C   UNL     1      -4.666  -2.549 -33.744  1.00  0.00     0.093 A 
HETATM   14  C   UNL     1      -5.796  -4.299 -34.963  1.00  0.00     0.015 A 
HETATM   15  N   UNL     1      -3.747  -3.434 -33.289  1.00  0.00    -0.258 NA
HETATM   16  C   UNL     1      -3.856  -4.726 -33.667  1.00  0.00     0.117 A 
HETATM   17  C   UNL     1      -4.851  -5.204 -34.496  1.00  0.00     0.020 A 
ENDBRANCH   1   7
BRANCH   3  18
HETATM   18  C   UNL     1      -3.478   2.669 -31.501  1.00  0.00     0.167 C 
BRANCH  18  19
HETATM   19  C   UNL     1      -3.309   3.826 -32.450  1.00  0.00     0.012 A 
HETATM   20  C   UNL     1      -2.197   4.664 -32.333  1.00  0.00     0.171 A 
HETATM   21  N   UNL     1      -1.971   5.745 -33.115  1.00  0.00    -0.237 NA
HETATM   22  C   UNL     1      -2.902   6.027 -34.048  1.00  0.00     0.119 A 
HETATM   23  C   UNL     1      -4.047   5.277 -34.242  1.00  0.00     0.020 A 
HETATM   24  C   UNL     1      -4.252   4.165 -33.429  1.00  0.00     0.014 A 
BRANCH  20  25
HETATM   25  O   UNL     1      -1.274   4.347 -31.353  1.00  0.00    -0.339 OA
HETATM   26  C   UNL     1      -0.190   5.269 -31.279  1.00  0.00     0.211 C 
ENDBRANCH  20  25
ENDBRANCH  18  19
ENDBRANCH   3  18
TORSDOF 4
ENDMDL
MODEL 3
REMARK VINA RESULT:      -8.7      1.057      1.850
REMARK  4 active torsions:
REMARK  status: ('A' for Active; 'I' for Inactive)
REMARK    1  A    between atoms: C_4  and  N_5 
REMARK       I    between atoms: N_5  and  C_6 
REMARK       I    between atoms: C_6  and  N_7 
REMARK    2  A    between atoms: N_7  and  C_8 
REMARK    3  A    between atoms: C_8  and  C_9 
REMARK    4  A    between atoms: C_10  and  O_11 
ROOT
HETATM    1  N   UNL     1      -3.569  -0.891 -32.469  1.00  0.00    -0.307 N 
HETATM    2  C   UNL     1      -3.185   0.260 -31.858  1.00  0.00     0.321 C 
HETATM    3  N   UNL     1      -3.705   1.423 -32.341  1.00  0.00    -0.338 N 
HETATM    4  O   UNL     1      -2.369   0.222 -30.940  1.00  0.00    -0.247 OA
HETATM    5  H   UNL     1      -2.969  -1.682 -32.236  1.00  0.00     0.170 HD
HETATM    6  H   UNL     1      -3.880   1.392 -33.334  1.00  0.00     0.164 HD
ENDROOT
BRANCH   1   7
HETATM    7  C   UNL     1      -4.621  -1.229 -33.354  1.00  0.00     0.066 A 
HETATM    8  C   UNL     1      -5.582  -0.313 -33.799  1.00  0.00     0.038 A 
HETATM    9  C   UNL     1      -6.600  -0.713 -34.671  1.00  0.00    -0.059 A 
HETATM   10  C   UNL     1      -7.609   0.274 -35.180  1.00  0.00     0.048 C 
HETATM   11  C   UNL     1      -6.645  -2.044 -35.093  1.00  0.00     0.020 A 
HETATM   12  C   UNL     1      -5.709  -2.979 -34.621  1.00  0.00    -0.005 A 
HETATM   13  C   UNL     1      -4.687  -2.581 -33.734  1.00  0.00     0.093 A 
HETATM   14  C   UNL     1      -5.763  -4.323 -35.013  1.00  0.00     0.015 A 
HETATM   15  N   UNL     1      -3.778  -3.466 -33.260  1.00  0.00    -0.258 NA
HETATM   16  C   UNL     1      -3.864  -4.754 -33.658  1.00  0.00     0.117 A 
HETATM   17  C   UNL     1      -4.827  -5.228 -34.526  1.00  0.00     0.020 A 
ENDBRANCH   1   7
BRANCH   3  18
HETATM   18  C   UNL     1      -3.270   2.710 -31.829  1.00  0.00     0.167 C 
BRANCH  18  19
HETATM   19  C   UNL     1      -4.130   3.877 -32.236  1.00  0.00     0.012 A 
HETATM   20  C   UNL     1      -3.700   4.737 -33.252  1.00  0.00     0.171 A 
HETATM   21  N   UNL     1      -4.384   5.828 -33.668  1.00  0.00    -0.237 NA
HETATM   22  C   UNL     1      -5.542   6.098 -33.034  1.00  0.00     0.119 A 
HETATM   23  C   UNL     1      -6.054   5.328 -32.007  1.00  0.00     0.020 A 
HETATM   24  C   UNL     1      -5.335   4.206 -31.603  1.00  0.00     0.014 A 
BRANCH  20  25
HETATM   25  O   UNL     1      -2.498   4.429 -33.865  1.00  0.00    -0.339 OA
HETATM   26  C   UNL     1      -1.947   5.517 -34.601  1.00  0.00     0.211 C 
ENDBRANCH  20  25
ENDBRANCH  18  19
ENDBRANCH   3  18
TORSDOF 4
ENDMDL
MODEL 4
REMARK VINA RESULT:      -8.6      2.321      3.465
REMARK  4 active torsions:
REMARK  status: ('A' for Active; 'I' for Inactive)
REMARK    1  A    between atoms: C_4  and  N_5 
REMARK       I    between atoms: N_5  and  C_6 
REMARK       I    between atoms: C_6  and  N_7 
REMARK    2  A    between atoms: N_7  and  C_8 
REMARK    3  A    between atoms: C_8  and  C_9 
REMARK    4  A    between atoms: C_10  and  O_11 
ROOT
HETATM    1  N   UNL     1      -5.975   1.490 -30.858  1.00  0.00    -0.307 N 
HETATM    2  C   UNL     1      -5.533   2.766 -30.710  1.00  0.00     0.321 C 
HETATM    3  N   UNL     1      -4.331   3.076 -31.272  1.00  0.00    -0.338 N 
HETATM    4  O   UNL     1      -6.193   3.570 -30.055  1.00  0.00    -0.247 OA
HETATM    5  H   UNL     1      -6.734   1.258 -30.219  1.00  0.00     0.170 HD
HETATM    6  H   UNL     1      -3.689   2.298 -31.279  1.00  0.00     0.164 HD
ENDROOT
BRANCH   1   7
HETATM    7  C   UNL     1      -5.612   0.418 -31.708  1.00  0.00     0.066 A 
HETATM    8  C   UNL     1      -4.566  -0.471 -31.428  1.00  0.00     0.038 A 
HETATM    9  C   UNL     1      -4.255  -1.508 -32.315  1.00  0.00    -0.059 A 
HETATM   10  C   UNL     1      -3.162  -2.485 -32.000  1.00  0.00     0.048 C 
HETATM   11  C   UNL     1      -5.004  -1.645 -33.486  1.00  0.00     0.020 A 
HETATM   12  C   UNL     1      -6.029  -0.735 -33.794  1.00  0.00    -0.005 A 
HETATM   13  C   UNL     1      -6.338   0.318 -32.908  1.00  0.00     0.093 A 
HETATM   14  C   UNL     1      -6.766  -0.844 -34.980  1.00  0.00     0.015 A 
HETATM   15  N   UNL     1      -7.317   1.213 -33.187  1.00  0.00    -0.258 NA
HETATM   16  C   UNL     1      -8.003   1.077 -34.342  1.00  0.00     0.117 A 
HETATM   17  C   UNL     1      -7.769   0.075 -35.262  1.00  0.00     0.020 A 
ENDBRANCH   1   7
BRANCH   3  18
HETATM   18  C   UNL     1      -3.722   4.380 -31.073  1.00  0.00     0.167 C 
BRANCH  18  19
HETATM   19  C   UNL     1      -3.081   4.973 -32.300  1.00  0.00     0.012 A 
HETATM   20  C   UNL     1      -3.882   5.497 -33.319  1.00  0.00     0.171 A 
HETATM   21  N   UNL     1      -3.404   6.022 -34.470  1.00  0.00    -0.237 NA
HETATM   22  C   UNL     1      -2.066   6.010 -34.636  1.00  0.00     0.119 A 
HETATM   23  C   UNL     1      -1.181   5.503 -33.703  1.00  0.00     0.020 A 
HETATM   24  C   UNL     1      -1.698   4.975 -32.523  1.00  0.00     0.014 A 
BRANCH  20  25
HETATM   25  O   UNL     1      -5.250   5.475 -33.113  1.00  0.00    -0.339 OA
HETATM   26  C   UNL     1      -5.949   4.667 -34.056  1.00  0.00     0.211 C 
ENDBRANCH  20  25
ENDBRANCH  18  19
ENDBRANCH   3  18
TORSDOF 4
ENDMDL
MODEL 5
REMARK VINA RESULT:      -8.4      2.417      3.957
REMARK  4 active torsions:
REMARK  status: ('A' for Active; 'I' for Inactive)
REMARK    1  A    between atoms: C_4  and  N_5 
REMARK       I    between atoms: N_5  and  C_6 
REMARK       I    between atoms: C_6  and  N_7 
REMARK    2  A    between atoms: N_7  and  C_8 
REMARK    3  A    between atoms: C_8  and  C_9 
REMARK    4  A    between atoms: C_10  and  O_11 
ROOT
HETATM    1  N   UNL     1      -5.781   1.253 -30.898  1.00  0.00    -0.307 N 
HETATM    2  C   UNL     1      -5.311   2.521 -30.771  1.00  0.00     0.321 C 
HETATM    3  N   UNL     1      -4.136   2.814 -31.397  1.00  0.00    -0.338 N 
HETATM    4  O   UNL     1      -5.921   3.333 -30.079  1.00  0.00    -0.247 OA
HETATM    5  H   UNL     1      -6.508   1.030 -30.219  1.00  0.00     0.170 HD
HETATM    6  H   UNL     1      -3.508   2.026 -31.440  1.00  0.00     0.164 HD
ENDROOT
BRANCH   1   7
HETATM    7  C   UNL     1      -5.481   0.178 -31.769  1.00  0.00     0.066 A 
HETATM    8  C   UNL     1      -4.470  -0.759 -31.522  1.00  0.00     0.038 A 
HETATM    9  C   UNL     1      -4.222  -1.796 -32.428  1.00  0.00    -0.059 A 
HETATM   10  C   UNL     1      -3.165  -2.824 -32.149  1.00  0.00     0.048 C 
HETATM   11  C   UNL     1      -4.998  -1.884 -33.586  1.00  0.00     0.020 A 
HETATM   12  C   UNL     1      -5.989  -0.927 -33.861  1.00  0.00    -0.005 A 
HETATM   13  C   UNL     1      -6.235   0.126 -32.955  1.00  0.00     0.093 A 
HETATM   14  C   UNL     1      -6.753  -0.987 -35.033  1.00  0.00     0.015 A 
HETATM   15  N   UNL     1      -7.179   1.066 -33.202  1.00  0.00    -0.258 NA
HETATM   16  C   UNL     1      -7.893   0.976 -34.345  1.00  0.00     0.117 A 
HETATM   17  C   UNL     1      -7.721  -0.022 -35.283  1.00  0.00     0.020 A 
ENDBRANCH   1   7
BRANCH   3  18
HETATM   18  C   UNL     1      -3.497   4.107 -31.228  1.00  0.00     0.167 C 
BRANCH  18  19
HETATM   19  C   UNL     1      -2.820   4.645 -32.461  1.00  0.00     0.012 A 
HETATM   20  C   UNL     1      -1.460   4.969 -32.421  1.00  0.00     0.171 A 
HETATM   21  N   UNL     1      -0.770   5.486 -33.464  1.00  0.00    -0.237 NA
HETATM   22  C   UNL     1      -1.460   5.716 -34.598  1.00  0.00     0.119 A 
HETATM   23  C   UNL     1      -2.809   5.448 -34.744  1.00  0.00     0.020 A 
HETATM   24  C   UNL     1      -3.495   4.910 -33.659  1.00  0.00     0.014 A 
BRANCH  20  25
HETATM   25  O   UNL     1      -0.794   4.731 -31.233  1.00  0.00    -0.339 OA
HETATM   26  C   UNL     1       0.408   5.484 -31.100  1.00  0.00     0.211 C 
ENDBRANCH  20  25
ENDBRANCH  18  19
ENDBRANCH   3  18
TORSDOF 4
ENDMDL
MODEL 6
REMARK VINA RESULT:      -8.3      3.558      6.120
REMARK  4 active torsions:
REMARK  status: ('A' for Active; 'I' for Inactive)
REMARK    1  A    between atoms: C_4  and  N_5 
REMARK       I    between atoms: N_5  and  C_6 
REMARK       I    between atoms: C_6  and  N_7 
REMARK    2  A    between atoms: N_7  and  C_8 
REMARK    3  A    between atoms: C_8  and  C_9 
REMARK    4  A    between atoms: C_10  and  O_11 
ROOT
HETATM    1  N   UNL     1      -6.615   0.940 -34.516  1.00  0.00    -0.307 N 
HETATM    2  C   UNL     1      -7.582   1.689 -33.925  1.00  0.00     0.321 C 
HETATM    3  N   UNL     1      -8.454   1.041 -33.103  1.00  0.00    -0.338 N 
HETATM    4  O   UNL     1      -7.664   2.889 -34.176  1.00  0.00    -0.247 OA
HETATM    5  H   UNL     1      -6.164   1.418 -35.294  1.00  0.00     0.170 HD
HETATM    6  H   UNL     1      -8.633   0.091 -33.391  1.00  0.00     0.164 HD
ENDROOT
BRANCH   1   7
HETATM    7  C   UNL     1      -6.100  -0.358 -34.282  1.00  0.00     0.066 A 
HETATM    8  C   UNL     1      -6.635  -1.518 -34.855  1.00  0.00     0.038 A 
HETATM    9  C   UNL     1      -6.079  -2.773 -34.578  1.00  0.00    -0.059 A 
HETATM   10  C   UNL     1      -6.626  -4.013 -35.220  1.00  0.00     0.048 C 
HETATM   11  C   UNL     1      -4.981  -2.852 -33.719  1.00  0.00     0.020 A 
HETATM   12  C   UNL     1      -4.461  -1.698 -33.109  1.00  0.00    -0.005 A 
HETATM   13  C   UNL     1      -5.025  -0.433 -33.378  1.00  0.00     0.093 A 
HETATM   14  C   UNL     1      -3.379  -1.769 -32.223  1.00  0.00     0.015 A 
HETATM   15  N   UNL     1      -4.547   0.693 -32.796  1.00  0.00    -0.258 NA
HETATM   16  C   UNL     1      -3.504   0.584 -31.944  1.00  0.00     0.117 A 
HETATM   17  C   UNL     1      -2.890  -0.612 -31.628  1.00  0.00     0.020 A 
ENDBRANCH   1   7
BRANCH   3  18
HETATM   18  C   UNL     1      -9.588   1.734 -32.515  1.00  0.00     0.167 C 
BRANCH  18  19
HETATM   19  C   UNL     1     -10.872   1.622 -33.294  1.00  0.00     0.012 A 
HETATM   20  C   UNL     1     -11.390   2.746 -33.945  1.00  0.00     0.171 A 
HETATM   21  N   UNL     1     -12.549   2.755 -34.643  1.00  0.00    -0.237 NA
HETATM   22  C   UNL     1     -13.246   1.602 -34.682  1.00  0.00     0.119 A 
HETATM   23  C   UNL     1     -12.837   0.436 -34.062  1.00  0.00     0.020 A 
HETATM   24  C   UNL     1     -11.636   0.450 -33.357  1.00  0.00     0.014 A 
BRANCH  20  25
HETATM   25  O   UNL     1     -10.650   3.912 -33.867  1.00  0.00    -0.339 OA
HETATM   26  C   UNL     1     -10.596   4.629 -35.096  1.00  0.00     0.211 C 
ENDBRANCH  20  25
ENDBRANCH  18  19
ENDBRANCH   3  18
TORSDOF 4
ENDMDL
MODEL 7
REMARK VINA RESULT:      -8.2      1.394      2.892
REMARK  4 active torsions:
REMARK  status: ('A' for Active; 'I' for Inactive)
REMARK    1  A    between atoms: C_4  and  N_5 
REMARK       I    between atoms: N_5  and  C_6 
REMARK       I    between atoms: C_6  and  N_7 
REMARK    2  A    between atoms: N_7  and  C_8 
REMARK    3  A    between atoms: C_8  and  C_9 
REMARK    4  A    between atoms: C_10  and  O_11 
ROOT
HETATM    1  N   UNL     1      -3.818  -0.788 -31.898  1.00  0.00    -0.307 N 
HETATM    2  C   UNL     1      -3.321   0.417 -31.518  1.00  0.00     0.321 C 
HETATM    3  N   UNL     1      -3.701   1.503 -32.248  1.00  0.00    -0.338 N 
HETATM    4  O   UNL     1      -2.531   0.485 -30.579  1.00  0.00    -0.247 OA
HETATM    5  H   UNL     1      -3.314  -1.572 -31.486  1.00  0.00     0.170 HD
HETATM    6  H   UNL     1      -3.860   1.286 -33.221  1.00  0.00     0.164 HD
ENDROOT
BRANCH   1   7
HETATM    7  C   UNL     1      -4.885  -1.190 -32.738  1.00  0.00     0.066 A 
HETATM    8  C   UNL     1      -4.740  -2.106 -33.787  1.00  0.00     0.038 A 
HETATM    9  C   UNL     1      -5.836  -2.457 -34.584  1.00  0.00    -0.059 A 
HETATM   10  C   UNL     1      -5.694  -3.467 -35.683  1.00  0.00     0.048 C 
HETATM   11  C   UNL     1      -7.079  -1.878 -34.319  1.00  0.00     0.020 A 
HETATM   12  C   UNL     1      -7.225  -0.928 -33.294  1.00  0.00    -0.005 A 
HETATM   13  C   UNL     1      -6.121  -0.565 -32.495  1.00  0.00     0.093 A 
HETATM   14  C   UNL     1      -8.460  -0.317 -33.039  1.00  0.00     0.015 A 
HETATM   15  N   UNL     1      -6.235   0.355 -31.506  1.00  0.00    -0.258 NA
HETATM   16  C   UNL     1      -7.441   0.923 -31.293  1.00  0.00     0.117 A 
HETATM   17  C   UNL     1      -8.573   0.624 -32.023  1.00  0.00     0.020 A 
ENDBRANCH   1   7
BRANCH   3  18
HETATM   18  C   UNL     1      -3.136   2.816 -31.991  1.00  0.00     0.167 C 
BRANCH  18  19
HETATM   19  C   UNL     1      -3.270   3.797 -33.126  1.00  0.00     0.012 A 
HETATM   20  C   UNL     1      -4.531   4.067 -33.666  1.00  0.00     0.171 A 
HETATM   21  N   UNL     1      -4.752   4.906 -34.704  1.00  0.00    -0.237 NA
HETATM   22  C   UNL     1      -3.671   5.493 -35.254  1.00  0.00     0.119 A 
HETATM   23  C   UNL     1      -2.377   5.287 -34.812  1.00  0.00     0.020 A 
HETATM   24  C   UNL     1      -2.177   4.425 -33.737  1.00  0.00     0.014 A 
BRANCH  20  25
HETATM   25  O   UNL     1      -5.612   3.431 -33.081  1.00  0.00    -0.339 OA
HETATM   26  C   UNL     1      -6.770   4.256 -32.991  1.00  0.00     0.211 C 
ENDBRANCH  20  25
ENDBRANCH  18  19
ENDBRANCH   3  18
TORSDOF 4
ENDMDL
MODEL 8
REMARK VINA RESULT:      -8.2      1.715      7.320
REMARK  4 active torsions:
REMARK  status: ('A' for Active; 'I' for Inactive)
REMARK    1  A    between atoms: C_4  and  N_5 
REMARK       I    between atoms: N_5  and  C_6 
REMARK       I    between atoms: C_6  and  N_7 
REMARK    2  A    between atoms: N_7  and  C_8 
REMARK    3  A    between atoms: C_8  and  C_9 
REMARK    4  A    between atoms: C_10  and  O_11 
ROOT
HETATM    1  N   UNL     1      -3.530   2.284 -31.396  1.00  0.00    -0.307 N 
HETATM    2  C   UNL     1      -3.227   0.981 -31.631  1.00  0.00     0.321 C 
HETATM    3  N   UNL     1      -3.753   0.413 -32.752  1.00  0.00    -0.338 N 
HETATM    4  O   UNL     1      -2.540   0.359 -30.824  1.00  0.00    -0.247 OA
HETATM    5  H   UNL     1      -3.324   2.573 -30.441  1.00  0.00     0.170 HD
HETATM    6  H   UNL     1      -4.656   0.792 -32.997  1.00  0.00     0.164 HD
ENDROOT
BRANCH   1   7
HETATM    7  C   UNL     1      -4.067   3.325 -32.191  1.00  0.00     0.066 A 
HETATM    8  C   UNL     1      -5.399   3.363 -32.621  1.00  0.00     0.038 A 
HETATM    9  C   UNL     1      -5.865   4.421 -33.410  1.00  0.00    -0.059 A 
HETATM   10  C   UNL     1      -7.301   4.484 -33.839  1.00  0.00     0.048 C 
HETATM   11  C   UNL     1      -4.980   5.441 -33.766  1.00  0.00     0.020 A 
HETATM   12  C   UNL     1      -3.632   5.392 -33.373  1.00  0.00    -0.005 A 
HETATM   13  C   UNL     1      -3.156   4.322 -32.585  1.00  0.00     0.093 A 
HETATM   14  C   UNL     1      -2.728   6.394 -33.750  1.00  0.00     0.015 A 
HETATM   15  N   UNL     1      -1.860   4.249 -32.201  1.00  0.00    -0.258 NA
HETATM   16  C   UNL     1      -1.017   5.232 -32.586  1.00  0.00     0.117 A 
HETATM   17  C   UNL     1      -1.399   6.316 -33.352  1.00  0.00     0.020 A 
ENDBRANCH   1   7
BRANCH   3  18
HETATM   18  C   UNL     1      -3.579  -1.002 -33.029  1.00  0.00     0.167 C 
BRANCH  18  19
HETATM   19  C   UNL     1      -4.766  -1.672 -33.669  1.00  0.00     0.012 A 
HETATM   20  C   UNL     1      -4.693  -3.022 -34.026  1.00  0.00     0.171 A 
HETATM   21  N   UNL     1      -5.692  -3.705 -34.633  1.00  0.00    -0.237 NA
HETATM   22  C   UNL     1      -6.813  -3.015 -34.923  1.00  0.00     0.119 A 
HETATM   23  C   UNL     1      -6.987  -1.675 -34.631  1.00  0.00     0.020 A 
HETATM   24  C   UNL     1      -5.948  -0.997 -34.000  1.00  0.00     0.014 A 
BRANCH  20  25
HETATM   25  O   UNL     1      -3.519  -3.687 -33.723  1.00  0.00    -0.339 OA
HETATM   26  C   UNL     1      -3.701  -5.085 -33.514  1.00  0.00     0.211 C 
ENDBRANCH  20  25
ENDBRANCH  18  19
ENDBRANCH   3  18
TORSDOF 4
ENDMDL
MODEL 9
REMARK VINA RESULT:      -8.1      1.756      6.990
REMARK  4 active torsions:
REMARK  status: ('A' for Active; 'I' for Inactive)
REMARK    1  A    between atoms: C_4  and  N_5 
REMARK       I    between atoms: N_5  and  C_6 
REMARK       I    between atoms: C_6  and  N_7 
REMARK    2  A    between atoms: N_7  and  C_8 
REMARK    3  A    between atoms: C_8  and  C_9 
REMARK    4  A    between atoms: C_10  and  O_11 
ROOT
HETATM    1  N   UNL     1      -3.308   2.108 -31.571  1.00  0.00    -0.307 N 
HETATM    2  C   UNL     1      -3.134   0.767 -31.707  1.00  0.00     0.321 C 
HETATM    3  N   UNL     1      -3.579   0.198 -32.862  1.00  0.00    -0.338 N 
HETATM    4  O   UNL     1      -2.632   0.120 -30.791  1.00  0.00    -0.247 OA
HETATM    5  H   UNL     1      -3.190   2.427 -30.610  1.00  0.00     0.170 HD
HETATM    6  H   UNL     1      -4.392   0.660 -33.240  1.00  0.00     0.164 HD
ENDROOT
BRANCH   1   7
HETATM    7  C   UNL     1      -3.613   3.154 -32.474  1.00  0.00     0.066 A 
HETATM    8  C   UNL     1      -2.650   4.009 -33.023  1.00  0.00     0.038 A 
HETATM    9  C   UNL     1      -3.020   5.028 -33.908  1.00  0.00    -0.059 A 
HETATM   10  C   UNL     1      -1.986   5.920 -34.528  1.00  0.00     0.048 C 
HETATM   11  C   UNL     1      -4.369   5.183 -34.235  1.00  0.00     0.020 A 
HETATM   12  C   UNL     1      -5.348   4.357 -33.658  1.00  0.00    -0.005 A 
HETATM   13  C   UNL     1      -4.979   3.334 -32.759  1.00  0.00     0.093 A 
HETATM   14  C   UNL     1      -6.707   4.523 -33.955  1.00  0.00     0.015 A 
HETATM   15  N   UNL     1      -5.905   2.530 -32.184  1.00  0.00    -0.258 NA
HETATM   16  C   UNL     1      -7.206   2.722 -32.493  1.00  0.00     0.117 A 
HETATM   17  C   UNL     1      -7.653   3.695 -33.365  1.00  0.00     0.020 A 
ENDBRANCH   1   7
BRANCH   3  18
HETATM   18  C   UNL     1      -3.540  -1.242 -33.053  1.00  0.00     0.167 C 
BRANCH  18  19
HETATM   19  C   UNL     1      -4.795  -1.837 -33.634  1.00  0.00     0.012 A 
HETATM   20  C   UNL     1      -4.756  -3.108 -34.215  1.00  0.00     0.171 A 
HETATM   21  N   UNL     1      -5.820  -3.716 -34.790  1.00  0.00    -0.237 NA
HETATM   22  C   UNL     1      -6.977  -3.025 -34.813  1.00  0.00     0.119 A 
HETATM   23  C   UNL     1      -7.125  -1.757 -34.284  1.00  0.00     0.020 A 
HETATM   24  C   UNL     1      -6.018  -1.157 -33.691  1.00  0.00     0.014 A 
BRANCH  20  25
HETATM   25  O   UNL     1      -3.545  -3.775 -34.183  1.00  0.00    -0.339 OA
HETATM   26  C   UNL     1      -3.584  -4.978 -33.419  1.00  0.00     0.211 C 
ENDBRANCH  20  25
ENDBRANCH  18  19
ENDBRANCH   3  18
TORSDOF 4
ENDMDL
MODEL 10
REMARK VINA RESULT:      -8.1      1.811      6.851
REMARK  4 active torsions:
REMARK  status: ('A' for Active; 'I' for Inactive)
REMARK    1  A    between atoms: C_4  and  N_5 
REMARK       I    between atoms: N_5  and  C_6 
REMARK       I    between atoms: C_6  and  N_7 
REMARK    2  A    between atoms: N_7  and  C_8 
REMARK    3  A    between atoms: C_8  and  C_9 
REMARK    4  A    between atoms: C_10  and  O_11 
ROOT
HETATM    1  N   UNL     1      -3.414   2.232 -31.476  1.00  0.00    -0.307 N 
HETATM    2  C   UNL     1      -3.168   0.900 -31.569  1.00  0.00     0.321 C 
HETATM    3  N   UNL     1      -3.835   0.211 -32.537  1.00  0.00    -0.338 N 
HETATM    4  O   UNL     1      -2.404   0.362 -30.771  1.00  0.00    -0.247 OA
HETATM    5  H   UNL     1      -3.090   2.635 -30.597  1.00  0.00     0.170 HD
HETATM    6  H   UNL     1      -4.752   0.588 -32.725  1.00  0.00     0.164 HD
ENDROOT
BRANCH   1   7
HETATM    7  C   UNL     1      -4.019   3.181 -32.335  1.00  0.00     0.066 A 
HETATM    8  C   UNL     1      -5.362   3.124 -32.727  1.00  0.00     0.038 A 
HETATM    9  C   UNL     1      -5.897   4.093 -33.584  1.00  0.00    -0.059 A 
HETATM   10  C   UNL     1      -7.345   4.057 -33.975  1.00  0.00     0.048 C 
HETATM   11  C   UNL     1      -5.070   5.120 -34.045  1.00  0.00     0.020 A 
HETATM   12  C   UNL     1      -3.712   5.163 -33.689  1.00  0.00    -0.005 A 
HETATM   13  C   UNL     1      -3.167   4.182 -32.834  1.00  0.00     0.093 A 
HETATM   14  C   UNL     1      -2.866   6.170 -34.171  1.00  0.00     0.015 A 
HETATM   15  N   UNL     1      -1.859   4.199 -32.483  1.00  0.00    -0.258 NA
HETATM   16  C   UNL     1      -1.073   5.184 -32.969  1.00  0.00     0.117 A 
HETATM   17  C   UNL     1      -1.525   6.184 -33.807  1.00  0.00     0.020 A 
ENDBRANCH   1   7
BRANCH   3  18
HETATM   18  C   UNL     1      -3.725  -1.233 -32.643  1.00  0.00     0.167 C 
BRANCH  18  19
HETATM   19  C   UNL     1      -4.768  -1.886 -33.512  1.00  0.00     0.012 A 
HETATM   20  C   UNL     1      -6.121  -1.597 -33.309  1.00  0.00     0.171 A 
HETATM   21  N   UNL     1      -7.132  -2.154 -34.015  1.00  0.00    -0.237 NA
HETATM   22  C   UNL     1      -6.794  -3.059 -34.955  1.00  0.00     0.119 A 
HETATM   23  C   UNL     1      -5.491  -3.432 -35.228  1.00  0.00     0.020 A 
HETATM   24  C   UNL     1      -4.467  -2.838 -34.494  1.00  0.00     0.014 A 
BRANCH  20  25
HETATM   25  O   UNL     1      -6.424  -0.674 -32.325  1.00  0.00    -0.339 OA
HETATM   26  C   UNL     1      -7.494   0.197 -32.679  1.00  0.00     0.211 C 
ENDBRANCH  20  25
ENDBRANCH  18  19
ENDBRANCH   3  18
TORSDOF 4
ENDMDL
