MODEL 1
REMARK VINA RESULT:      -7.6      0.000      0.000
REMARK  8 active torsions:
REMARK  status: ('A' for Active; 'I' for Inactive)
REMARK    1  A    between atoms: C_7  and  N_8 
REMARK    2  A    between atoms: N_8  and  C_9 
REMARK    3  A    between atoms: C_9  and  C_10 
REMARK    4  A    between atoms: C_18  and  N_19 
REMARK    5  A    between atoms: N_19  and  C_20 
REMARK    6  A    between atoms: C_20  and  C_21 
REMARK    7  A    between atoms: C_21  and  C_22 
REMARK    8  A    between atoms: C_22  and  O_23 
ROOT
HETATM    1  C   UNL     1      -6.782  -2.721 -34.597  1.00  0.00     0.001 A 
HETATM    2  C   UNL     1      -7.106  -1.578 -33.862  1.00  0.00     0.017 A 
HETATM    3  C   UNL     1      -6.099  -0.781 -33.268  1.00  0.00     0.036 A 
HETATM    4  C   UNL     1      -4.757  -1.170 -33.464  1.00  0.00     0.048 A 
HETATM    5  N   UNL     1      -3.785  -0.409 -32.956  1.00  0.00    -0.330 N 
HETATM    6  H   UNL     1      -2.807  -0.654 -33.042  1.00  0.00     0.168 HD
HETATM    7  C   UNL     1      -4.061   0.707 -32.295  1.00  0.00     0.182 A 
HETATM    8  N   UNL     1      -5.302   1.125 -32.024  1.00  0.00    -0.202 NA
HETATM    9  C   UNL     1      -6.323   0.386 -32.497  1.00  0.00     0.139 A 
HETATM   10  C   UNL     1      -4.437  -2.323 -34.195  1.00  0.00     0.030 A 
HETATM   11  C   UNL     1      -5.452  -3.096 -34.759  1.00  0.00     0.002 A 
ENDROOT
BRANCH   7  12
HETATM   12  N   UNL     1      -2.985   1.463 -31.839  1.00  0.00    -0.258 NA
HETATM   13  H   UNL     1      -2.638   0.942 -31.026  1.00  0.00     0.130 HD
BRANCH  12  14
HETATM   14  C   UNL     1      -3.448   2.764 -31.345  1.00  0.00     0.134 C 
BRANCH  14  15
HETATM   15  C   UNL     1      -2.678   3.864 -32.031  1.00  0.00    -0.045 A 
HETATM   16  C   UNL     1      -1.861   4.738 -31.296  1.00  0.00     0.011 A 
HETATM   17  C   UNL     1      -1.151   5.751 -31.944  1.00  0.00     0.043 A 
HETATM   18  C   UNL     1      -1.265   5.898 -33.321  1.00  0.00     0.116 A 
HETATM   19  F   UNL     1      -0.582   6.869 -33.939  1.00  0.00    -0.206 F 
HETATM   20  C   UNL     1      -2.079   5.054 -34.064  1.00  0.00     0.043 A 
HETATM   21  C   UNL     1      -2.788   4.038 -33.422  1.00  0.00     0.011 A 
ENDBRANCH  14  15
ENDBRANCH  12  14
ENDBRANCH   7  12
BRANCH   9  22
HETATM   22  N   UNL     1      -7.628   0.835 -32.292  1.00  0.00    -0.374 N 
HETATM   23  H   UNL     1      -8.108   0.325 -31.553  1.00  0.00     0.161 HD
BRANCH  22  24
HETATM   24  C   UNL     1      -7.913   2.269 -32.236  1.00  0.00     0.123 C 
BRANCH  24  25
HETATM   25  C   UNL     1      -8.480   2.691 -30.883  1.00  0.00     0.045 C 
BRANCH  25  26
HETATM   26  C   UNL     1      -7.411   3.089 -29.877  1.00  0.00     0.165 C 
BRANCH  26  27
HETATM   27  O   UNL     1      -6.739   1.931 -29.402  1.00  0.00    -0.401 OA
HETATM   28  H   UNL     1      -6.734   1.265 -30.112  1.00  0.00     0.209 HD
ENDBRANCH  26  27
ENDBRANCH  25  26
ENDBRANCH  24  25
ENDBRANCH  22  24
ENDBRANCH   9  22
TORSDOF 8
ENDMDL
MODEL 2
REMARK VINA RESULT:      -7.5      1.608      2.101
REMARK  8 active torsions:
REMARK  status: ('A' for Active; 'I' for Inactive)
REMARK    1  A    between atoms: C_7  and  N_8 
REMARK    2  A    between atoms: N_8  and  C_9 
REMARK    3  A    between atoms: C_9  and  C_10 
REMARK    4  A    between atoms: C_18  and  N_19 
REMARK    5  A    between atoms: N_19  and  C_20 
REMARK    6  A    between atoms: C_20  and  C_21 
REMARK    7  A    between atoms: C_21  and  C_22 
REMARK    8  A    between atoms: C_22  and  O_23 
ROOT
HETATM    1  C   UNL     1      -6.521  -2.784 -34.775  1.00  0.00     0.001 A 
HETATM    2  C   UNL     1      -6.889  -1.543 -34.249  1.00  0.00     0.017 A 
HETATM    3  C   UNL     1      -5.955  -0.733 -33.563  1.00  0.00     0.036 A 
HETATM    4  C   UNL     1      -4.633  -1.213 -33.450  1.00  0.00     0.048 A 
HETATM    5  N   UNL     1      -3.718  -0.447 -32.851  1.00  0.00    -0.330 N 
HETATM    6  H   UNL     1      -2.763  -0.752 -32.716  1.00  0.00     0.168 HD
HETATM    7  C   UNL     1      -4.029   0.755 -32.384  1.00  0.00     0.182 A 
HETATM    8  N   UNL     1      -5.263   1.268 -32.409  1.00  0.00    -0.202 NA
HETATM    9  C   UNL     1      -6.230   0.530 -32.986  1.00  0.00     0.139 A 
HETATM   10  C   UNL     1      -4.270  -2.463 -33.971  1.00  0.00     0.030 A 
HETATM   11  C   UNL     1      -5.216  -3.246 -34.633  1.00  0.00     0.002 A 
ENDROOT
BRANCH   7  12
HETATM   12  N   UNL     1      -3.003   1.504 -31.815  1.00  0.00    -0.258 NA
HETATM   13  H   UNL     1      -2.757   0.988 -30.963  1.00  0.00     0.130 HD
BRANCH  12  14
HETATM   14  C   UNL     1      -3.504   2.814 -31.388  1.00  0.00     0.134 C 
BRANCH  14  15
HETATM   15  C   UNL     1      -2.719   3.901 -32.078  1.00  0.00    -0.045 A 
HETATM   16  C   UNL     1      -2.864   4.131 -33.455  1.00  0.00     0.011 A 
HETATM   17  C   UNL     1      -2.131   5.141 -34.082  1.00  0.00     0.043 A 
HETATM   18  C   UNL     1      -1.248   5.914 -33.337  1.00  0.00     0.116 A 
HETATM   19  F   UNL     1      -0.550   6.883 -33.939  1.00  0.00    -0.206 F 
HETATM   20  C   UNL     1      -1.079   5.693 -31.976  1.00  0.00     0.043 A 
HETATM   21  C   UNL     1      -1.811   4.686 -31.345  1.00  0.00     0.011 A 
ENDBRANCH  14  15
ENDBRANCH  12  14
ENDBRANCH   7  12
BRANCH   9  22
HETATM   22  N   UNL     1      -7.513   1.070 -33.090  1.00  0.00    -0.374 N 
HETATM   23  H   UNL     1      -7.905   0.974 -34.026  1.00  0.00     0.161 HD
BRANCH  22  24
HETATM   24  C   UNL     1      -8.511   0.805 -32.053  1.00  0.00     0.123 C 
BRANCH  24  25
HETATM   25  C   UNL     1      -9.748   0.106 -32.610  1.00  0.00     0.045 C 
BRANCH  25  26
HETATM   26  C   UNL     1     -10.565   0.979 -33.550  1.00  0.00     0.165 C 
BRANCH  26  27
HETATM   27  O   UNL     1      -9.857   1.173 -34.767  1.00  0.00    -0.401 OA
HETATM   28  H   UNL     1      -8.964   1.498 -34.556  1.00  0.00     0.209 HD
ENDBRANCH  26  27
ENDBRANCH  25  26
ENDBRANCH  24  25
ENDBRANCH  22  24
ENDBRANCH   9  22
TORSDOF 8
ENDMDL
MODEL 3
REMARK VINA RESULT:      -7.5      4.582      7.547
REMARK  8 active torsions:
REMARK  status: ('A' for Active; 'I' for Inactive)
REMARK    1  A    between atoms: C_7  and  N_8 
REMARK    2  A    between atoms: N_8  and  C_9 
REMARK    3  A    between atoms: C_9  and  C_10 
REMARK    4  A    between atoms: C_18  and  N_19 
REMARK    5  A    between atoms: N_19  and  C_20 
REMARK    6  A    between atoms: C_20  and  C_21 
REMARK    7  A    between atoms: C_21  and  C_22 
REMARK    8  A    between atoms: C_22  and  O_23 
ROOT
HETATM    1  C   UNL     1      -4.553  -2.311 -34.011  1.00  0.00     0.001 A 
HETATM    2  C   UNL     1      -4.700  -1.394 -32.967  1.00  0.00     0.017 A 
HETATM    3  C   UNL     1      -5.933  -0.741 -32.735  1.00  0.00     0.036 A 
HETATM    4  C   UNL     1      -7.014  -1.066 -33.581  1.00  0.00     0.048 A 
HETATM    5  N   UNL     1      -8.203  -0.501 -33.354  1.00  0.00    -0.330 N 
HETATM    6  H   UNL     1      -9.005  -0.676 -33.946  1.00  0.00     0.168 HD
HETATM    7  C   UNL     1      -8.382   0.336 -32.341  1.00  0.00     0.182 A 
HETATM    8  N   UNL     1      -7.405   0.733 -31.520  1.00  0.00    -0.202 NA
HETATM    9  C   UNL     1      -6.180   0.209 -31.714  1.00  0.00     0.139 A 
HETATM   10  C   UNL     1      -6.860  -1.979 -34.634  1.00  0.00     0.030 A 
HETATM   11  C   UNL     1      -5.628  -2.599 -34.846  1.00  0.00     0.002 A 
ENDROOT
BRANCH   7  12
HETATM   12  N   UNL     1      -9.665   0.843 -32.152  1.00  0.00    -0.258 NA
HETATM   13  H   UNL     1     -10.262   0.010 -32.116  1.00  0.00     0.130 HD
BRANCH  12  14
HETATM   14  C   UNL     1     -10.086   1.618 -33.324  1.00  0.00     0.134 C 
BRANCH  14  15
HETATM   15  C   UNL     1     -11.514   1.276 -33.665  1.00  0.00    -0.045 A 
HETATM   16  C   UNL     1     -12.043   0.011 -33.365  1.00  0.00     0.011 A 
HETATM   17  C   UNL     1     -13.369  -0.292 -33.685  1.00  0.00     0.043 A 
HETATM   18  C   UNL     1     -14.160   0.662 -34.312  1.00  0.00     0.116 A 
HETATM   19  F   UNL     1     -15.430   0.370 -34.615  1.00  0.00    -0.206 F 
HETATM   20  C   UNL     1     -13.651   1.914 -34.631  1.00  0.00     0.043 A 
HETATM   21  C   UNL     1     -12.329   2.223 -34.311  1.00  0.00     0.011 A 
ENDBRANCH  14  15
ENDBRANCH  12  14
ENDBRANCH   7  12
BRANCH   9  22
HETATM   22  N   UNL     1      -5.157   0.550 -30.829  1.00  0.00    -0.374 N 
HETATM   23  H   UNL     1      -4.445  -0.174 -30.754  1.00  0.00     0.161 HD
BRANCH  22  24
HETATM   24  C   UNL     1      -4.569   1.890 -30.862  1.00  0.00     0.123 C 
BRANCH  24  25
HETATM   25  C   UNL     1      -3.501   2.022 -31.945  1.00  0.00     0.045 C 
BRANCH  25  26
HETATM   26  C   UNL     1      -2.996   3.446 -32.124  1.00  0.00     0.165 C 
BRANCH  26  27
HETATM   27  O   UNL     1      -2.042   3.750 -31.117  1.00  0.00    -0.401 OA
HETATM   28  H   UNL     1      -1.202   3.313 -31.345  1.00  0.00     0.209 HD
ENDBRANCH  26  27
ENDBRANCH  25  26
ENDBRANCH  24  25
ENDBRANCH  22  24
ENDBRANCH   9  22
TORSDOF 8
ENDMDL
MODEL 4
REMARK VINA RESULT:      -7.3      4.448      7.272
REMARK  8 active torsions:
REMARK  status: ('A' for Active; 'I' for Inactive)
REMARK    1  A    between atoms: C_7  and  N_8 
REMARK    2  A    between atoms: N_8  and  C_9 
REMARK    3  A    between atoms: C_9  and  C_10 
REMARK    4  A    between atoms: C_18  and  N_19 
REMARK    5  A    between atoms: N_19  and  C_20 
REMARK    6  A    between atoms: C_20  and  C_21 
REMARK    7  A    between atoms: C_21  and  C_22 
REMARK    8  A    between atoms: C_22  and  O_23 
ROOT
HETATM    1  C   UNL     1      -4.171  -3.190 -33.806  1.00  0.00     0.001 A 
HETATM    2  C   UNL     1      -4.284  -1.852 -33.422  1.00  0.00     0.017 A 
HETATM    3  C   UNL     1      -5.382  -1.062 -33.837  1.00  0.00     0.036 A 
HETATM    4  C   UNL     1      -6.368  -1.680 -34.633  1.00  0.00     0.048 A 
HETATM    5  N   UNL     1      -7.440  -0.973 -34.998  1.00  0.00    -0.330 N 
HETATM    6  H   UNL     1      -8.164  -1.356 -35.592  1.00  0.00     0.168 HD
HETATM    7  C   UNL     1      -7.596   0.285 -34.607  1.00  0.00     0.182 A 
HETATM    8  N   UNL     1      -6.693   0.962 -33.892  1.00  0.00    -0.202 NA
HETATM    9  C   UNL     1      -5.582   0.302 -33.511  1.00  0.00     0.139 A 
HETATM   10  C   UNL     1      -6.246  -3.021 -35.025  1.00  0.00     0.030 A 
HETATM   11  C   UNL     1      -5.146  -3.773 -34.610  1.00  0.00     0.002 A 
ENDROOT
BRANCH   7  12
HETATM   12  N   UNL     1      -8.765   0.934 -34.997  1.00  0.00    -0.258 NA
HETATM   13  H   UNL     1      -8.436   1.762 -35.504  1.00  0.00     0.130 HD
BRANCH  12  14
HETATM   14  C   UNL     1      -9.496   1.417 -33.821  1.00  0.00     0.134 C 
BRANCH  14  15
HETATM   15  C   UNL     1     -10.978   1.268 -34.054  1.00  0.00    -0.045 A 
HETATM   16  C   UNL     1     -11.676   2.182 -34.859  1.00  0.00     0.011 A 
HETATM   17  C   UNL     1     -13.049   2.031 -35.069  1.00  0.00     0.043 A 
HETATM   18  C   UNL     1     -13.724   0.975 -34.469  1.00  0.00     0.116 A 
HETATM   19  F   UNL     1     -15.038   0.832 -34.674  1.00  0.00    -0.206 F 
HETATM   20  C   UNL     1     -13.055   0.068 -33.658  1.00  0.00     0.043 A 
HETATM   21  C   UNL     1     -11.683   0.213 -33.447  1.00  0.00     0.011 A 
ENDBRANCH  14  15
ENDBRANCH  12  14
ENDBRANCH   7  12
BRANCH   9  22
HETATM   22  N   UNL     1      -4.654   0.960 -32.703  1.00  0.00    -0.374 N 
HETATM   23  H   UNL     1      -3.721   0.978 -33.111  1.00  0.00     0.161 HD
BRANCH  22  24
HETATM   24  C   UNL     1      -4.999   2.236 -32.074  1.00  0.00     0.123 C 
BRANCH  24  25
HETATM   25  C   UNL     1      -4.262   3.410 -32.715  1.00  0.00     0.045 C 
BRANCH  25  26
HETATM   26  C   UNL     1      -2.852   3.603 -32.178  1.00  0.00     0.165 C 
BRANCH  26  27
HETATM   27  O   UNL     1      -2.642   2.759 -31.055  1.00  0.00    -0.401 OA
HETATM   28  H   UNL     1      -1.901   3.116 -30.535  1.00  0.00     0.209 HD
ENDBRANCH  26  27
ENDBRANCH  25  26
ENDBRANCH  24  25
ENDBRANCH  22  24
ENDBRANCH   9  22
TORSDOF 8
ENDMDL
MODEL 5
REMARK VINA RESULT:      -7.2      4.483      7.300
REMARK  8 active torsions:
REMARK  status: ('A' for Active; 'I' for Inactive)
REMARK    1  A    between atoms: C_7  and  N_8 
REMARK    2  A    between atoms: N_8  and  C_9 
REMARK    3  A    between atoms: C_9  and  C_10 
REMARK    4  A    between atoms: C_18  and  N_19 
REMARK    5  A    between atoms: N_19  and  C_20 
REMARK    6  A    between atoms: C_20  and  C_21 
REMARK    7  A    between atoms: C_21  and  C_22 
REMARK    8  A    between atoms: C_22  and  O_23 
ROOT
HETATM    1  C   UNL     1      -4.037  -2.591 -33.464  1.00  0.00     0.001 A 
HETATM    2  C   UNL     1      -4.512  -1.448 -32.816  1.00  0.00     0.017 A 
HETATM    3  C   UNL     1      -5.661  -0.766 -33.282  1.00  0.00     0.036 A 
HETATM    4  C   UNL     1      -6.321  -1.295 -34.411  1.00  0.00     0.048 A 
HETATM    5  N   UNL     1      -7.436  -0.701 -34.843  1.00  0.00    -0.330 N 
HETATM    6  H   UNL     1      -7.934  -1.019 -35.664  1.00  0.00     0.168 HD
HETATM    7  C   UNL     1      -7.936   0.357 -34.217  1.00  0.00     0.182 A 
HETATM    8  N   UNL     1      -7.352   0.949 -33.170  1.00  0.00    -0.202 NA
HETATM    9  C   UNL     1      -6.213   0.402 -32.703  1.00  0.00     0.139 A 
HETATM   10  C   UNL     1      -5.835  -2.436 -35.065  1.00  0.00     0.030 A 
HETATM   11  C   UNL     1      -4.694  -3.081 -34.589  1.00  0.00     0.002 A 
ENDROOT
BRANCH   7  12
HETATM   12  N   UNL     1      -9.126   0.886 -34.709  1.00  0.00    -0.258 NA
HETATM   13  H   UNL     1      -8.827   1.662 -35.309  1.00  0.00     0.130 HD
BRANCH  12  14
HETATM   14  C   UNL     1      -9.914   1.470 -33.618  1.00  0.00     0.134 C 
BRANCH  14  15
HETATM   15  C   UNL     1     -11.379   1.225 -33.872  1.00  0.00    -0.045 A 
HETATM   16  C   UNL     1     -12.177   2.204 -34.486  1.00  0.00     0.011 A 
HETATM   17  C   UNL     1     -13.534   1.964 -34.717  1.00  0.00     0.043 A 
HETATM   18  C   UNL     1     -14.094   0.754 -34.326  1.00  0.00     0.116 A 
HETATM   19  F   UNL     1     -15.394   0.526 -34.551  1.00  0.00    -0.206 F 
HETATM   20  C   UNL     1     -13.326  -0.221 -33.703  1.00  0.00     0.043 A 
HETATM   21  C   UNL     1     -11.970   0.013 -33.473  1.00  0.00     0.011 A 
ENDBRANCH  14  15
ENDBRANCH  12  14
ENDBRANCH   7  12
BRANCH   9  22
HETATM   22  N   UNL     1      -5.620   0.955 -31.568  1.00  0.00    -0.374 N 
HETATM   23  H   UNL     1      -5.194   0.253 -30.966  1.00  0.00     0.161 HD
BRANCH  22  24
HETATM   24  C   UNL     1      -4.788   2.153 -31.681  1.00  0.00     0.123 C 
BRANCH  24  25
HETATM   25  C   UNL     1      -5.079   3.162 -30.572  1.00  0.00     0.045 C 
BRANCH  25  26
HETATM   26  C   UNL     1      -6.561   3.308 -30.262  1.00  0.00     0.165 C 
BRANCH  26  27
HETATM   27  O   UNL     1      -6.968   2.291 -29.358  1.00  0.00    -0.401 OA
HETATM   28  H   UNL     1      -6.387   2.322 -28.577  1.00  0.00     0.209 HD
ENDBRANCH  26  27
ENDBRANCH  25  26
ENDBRANCH  24  25
ENDBRANCH  22  24
ENDBRANCH   9  22
TORSDOF 8
ENDMDL
MODEL 6
REMARK VINA RESULT:      -7.2      4.201      7.076
REMARK  8 active torsions:
REMARK  status: ('A' for Active; 'I' for Inactive)
REMARK    1  A    between atoms: C_7  and  N_8 
REMARK    2  A    between atoms: N_8  and  C_9 
REMARK    3  A    between atoms: C_9  and  C_10 
REMARK    4  A    between atoms: C_18  and  N_19 
REMARK    5  A    between atoms: N_19  and  C_20 
REMARK    6  A    between atoms: C_20  and  C_21 
REMARK    7  A    between atoms: C_21  and  C_22 
REMARK    8  A    between atoms: C_22  and  O_23 
ROOT
HETATM    1  C   UNL     1      -7.738   3.407 -29.808  1.00  0.00     0.001 A 
HETATM    2  C   UNL     1      -8.643   2.781 -30.669  1.00  0.00     0.017 A 
HETATM    3  C   UNL     1      -8.196   2.064 -31.803  1.00  0.00     0.036 A 
HETATM    4  C   UNL     1      -6.805   1.986 -32.021  1.00  0.00     0.048 A 
HETATM    5  N   UNL     1      -6.353   1.274 -33.057  1.00  0.00    -0.330 N 
HETATM    6  H   UNL     1      -5.368   1.207 -33.277  1.00  0.00     0.168 HD
HETATM    7  C   UNL     1      -7.187   0.629 -33.862  1.00  0.00     0.182 A 
HETATM    8  N   UNL     1      -8.518   0.685 -33.756  1.00  0.00    -0.202 NA
HETATM    9  C   UNL     1      -9.030   1.405 -32.739  1.00  0.00     0.139 A 
HETATM   10  C   UNL     1      -5.901   2.625 -31.160  1.00  0.00     0.030 A 
HETATM   11  C   UNL     1      -6.371   3.334 -30.056  1.00  0.00     0.002 A 
ENDROOT
BRANCH   7  12
HETATM   12  N   UNL     1      -6.627  -0.125 -34.889  1.00  0.00    -0.258 NA
HETATM   13  H   UNL     1      -6.940   0.345 -35.745  1.00  0.00     0.130 HD
BRANCH  12  14
HETATM   14  C   UNL     1      -7.207  -1.472 -34.907  1.00  0.00     0.134 C 
BRANCH  14  15
HETATM   15  C   UNL     1      -6.133  -2.485 -34.600  1.00  0.00    -0.045 A 
HETATM   16  C   UNL     1      -6.299  -3.837 -34.941  1.00  0.00     0.011 A 
HETATM   17  C   UNL     1      -5.295  -4.764 -34.653  1.00  0.00     0.043 A 
HETATM   18  C   UNL     1      -4.134  -4.345 -34.016  1.00  0.00     0.116 A 
HETATM   19  F   UNL     1      -3.173  -5.235 -33.744  1.00  0.00    -0.206 F 
HETATM   20  C   UNL     1      -3.957  -3.015 -33.657  1.00  0.00     0.043 A 
HETATM   21  C   UNL     1      -4.955  -2.084 -33.945  1.00  0.00     0.011 A 
ENDBRANCH  14  15
ENDBRANCH  12  14
ENDBRANCH   7  12
BRANCH   9  22
HETATM   22  N   UNL     1     -10.414   1.423 -32.561  1.00  0.00    -0.374 N 
HETATM   23  H   UNL     1     -10.795   2.367 -32.543  1.00  0.00     0.161 HD
BRANCH  22  24
HETATM   24  C   UNL     1     -11.267   0.506 -33.317  1.00  0.00     0.123 C 
BRANCH  24  25
HETATM   25  C   UNL     1     -12.577   1.161 -33.748  1.00  0.00     0.045 C 
BRANCH  25  26
HETATM   26  C   UNL     1     -13.683   0.161 -34.050  1.00  0.00     0.165 C 
BRANCH  26  27
HETATM   27  O   UNL     1     -13.512  -1.003 -33.253  1.00  0.00    -0.401 OA
HETATM   28  H   UNL     1     -14.235  -1.041 -32.603  1.00  0.00     0.209 HD
ENDBRANCH  26  27
ENDBRANCH  25  26
ENDBRANCH  24  25
ENDBRANCH  22  24
ENDBRANCH   9  22
TORSDOF 8
ENDMDL
MODEL 7
REMARK VINA RESULT:      -7.1      3.223      6.968
REMARK  8 active torsions:
REMARK  status: ('A' for Active; 'I' for Inactive)
REMARK    1  A    between atoms: C_7  and  N_8 
REMARK    2  A    between atoms: N_8  and  C_9 
REMARK    3  A    between atoms: C_9  and  C_10 
REMARK    4  A    between atoms: C_18  and  N_19 
REMARK    5  A    between atoms: N_19  and  C_20 
REMARK    6  A    between atoms: C_20  and  C_21 
REMARK    7  A    between atoms: C_21  and  C_22 
REMARK    8  A    between atoms: C_22  and  O_23 
ROOT
HETATM    1  C   UNL     1      -1.775   7.437 -32.802  1.00  0.00     0.001 A 
HETATM    2  C   UNL     1      -2.586   6.836 -31.837  1.00  0.00     0.017 A 
HETATM    3  C   UNL     1      -2.945   5.470 -31.930  1.00  0.00     0.036 A 
HETATM    4  C   UNL     1      -2.435   4.734 -33.020  1.00  0.00     0.048 A 
HETATM    5  N   UNL     1      -2.717   3.432 -33.107  1.00  0.00    -0.330 N 
HETATM    6  H   UNL     1      -2.402   2.862 -33.881  1.00  0.00     0.168 HD
HETATM    7  C   UNL     1      -3.445   2.824 -32.180  1.00  0.00     0.182 A 
HETATM    8  N   UNL     1      -4.004   3.453 -31.140  1.00  0.00    -0.202 NA
HETATM    9  C   UNL     1      -3.768   4.773 -31.013  1.00  0.00     0.139 A 
HETATM   10  C   UNL     1      -1.629   5.345 -33.992  1.00  0.00     0.030 A 
HETATM   11  C   UNL     1      -1.302   6.696 -33.879  1.00  0.00     0.002 A 
ENDROOT
BRANCH   7  12
HETATM   12  N   UNL     1      -3.652   1.456 -32.326  1.00  0.00    -0.258 NA
HETATM   13  H   UNL     1      -3.242   1.235 -33.239  1.00  0.00     0.130 HD
BRANCH  12  14
HETATM   14  C   UNL     1      -5.087   1.164 -32.422  1.00  0.00     0.134 C 
BRANCH  14  15
HETATM   15  C   UNL     1      -5.291  -0.084 -33.242  1.00  0.00    -0.045 A 
HETATM   16  C   UNL     1      -6.467  -0.273 -33.986  1.00  0.00     0.011 A 
HETATM   17  C   UNL     1      -6.642  -1.434 -34.743  1.00  0.00     0.043 A 
HETATM   18  C   UNL     1      -5.652  -2.408 -34.748  1.00  0.00     0.116 A 
HETATM   19  F   UNL     1      -5.822  -3.518 -35.476  1.00  0.00    -0.206 F 
HETATM   20  C   UNL     1      -4.488  -2.247 -34.007  1.00  0.00     0.043 A 
HETATM   21  C   UNL     1      -4.307  -1.088 -33.252  1.00  0.00     0.011 A 
ENDBRANCH  14  15
ENDBRANCH  12  14
ENDBRANCH   7  12
BRANCH   9  22
HETATM   22  N   UNL     1      -4.279   5.441 -29.900  1.00  0.00    -0.374 N 
HETATM   23  H   UNL     1      -3.705   6.235 -29.621  1.00  0.00     0.161 HD
BRANCH  22  24
HETATM   24  C   UNL     1      -5.708   5.744 -29.814  1.00  0.00     0.123 C 
BRANCH  24  25
HETATM   25  C   UNL     1      -6.268   5.482 -28.418  1.00  0.00     0.045 C 
BRANCH  25  26
HETATM   26  C   UNL     1      -5.395   6.036 -27.302  1.00  0.00     0.165 C 
BRANCH  26  27
HETATM   27  O   UNL     1      -4.701   4.975 -26.661  1.00  0.00    -0.401 OA
HETATM   28  H   UNL     1      -5.053   4.131 -26.993  1.00  0.00     0.209 HD
ENDBRANCH  26  27
ENDBRANCH  25  26
ENDBRANCH  24  25
ENDBRANCH  22  24
ENDBRANCH   9  22
TORSDOF 8
ENDMDL
MODEL 8
REMARK VINA RESULT:      -7.1      3.254      6.596
REMARK  8 active torsions:
REMARK  status: ('A' for Active; 'I' for Inactive)
REMARK    1  A    between atoms: C_7  and  N_8 
REMARK    2  A    between atoms: N_8  and  C_9 
REMARK    3  A    between atoms: C_9  and  C_10 
REMARK    4  A    between atoms: C_18  and  N_19 
REMARK    5  A    between atoms: N_19  and  C_20 
REMARK    6  A    between atoms: C_20  and  C_21 
REMARK    7  A    between atoms: C_21  and  C_22 
REMARK    8  A    between atoms: C_22  and  O_23 
ROOT
HETATM    1  C   UNL     1      -4.530   5.491 -32.837  1.00  0.00     0.001 A 
HETATM    2  C   UNL     1      -5.613   4.636 -32.622  1.00  0.00     0.017 A 
HETATM    3  C   UNL     1      -5.425   3.244 -32.454  1.00  0.00     0.036 A 
HETATM    4  C   UNL     1      -4.102   2.755 -32.489  1.00  0.00     0.048 A 
HETATM    5  N   UNL     1      -3.891   1.452 -32.284  1.00  0.00    -0.330 N 
HETATM    6  H   UNL     1      -2.966   1.042 -32.326  1.00  0.00     0.168 HD
HETATM    7  C   UNL     1      -4.896   0.626 -32.031  1.00  0.00     0.182 A 
HETATM    8  N   UNL     1      -6.181   0.995 -32.024  1.00  0.00    -0.202 NA
HETATM    9  C   UNL     1      -6.454   2.295 -32.243  1.00  0.00     0.139 A 
HETATM   10  C   UNL     1      -3.018   3.615 -32.715  1.00  0.00     0.030 A 
HETATM   11  C   UNL     1      -3.236   4.982 -32.888  1.00  0.00     0.002 A 
ENDROOT
BRANCH   7  12
HETATM   12  N   UNL     1      -4.580  -0.708 -31.785  1.00  0.00    -0.258 NA
HETATM   13  H   UNL     1      -3.964  -0.674 -30.966  1.00  0.00     0.130 HD
BRANCH  12  14
HETATM   14  C   UNL     1      -3.789  -1.257 -32.891  1.00  0.00     0.134 C 
BRANCH  14  15
HETATM   15  C   UNL     1      -4.611  -2.276 -33.638  1.00  0.00    -0.045 A 
HETATM   16  C   UNL     1      -5.875  -1.946 -34.153  1.00  0.00     0.011 A 
HETATM   17  C   UNL     1      -6.625  -2.900 -34.844  1.00  0.00     0.043 A 
HETATM   18  C   UNL     1      -6.120  -4.183 -35.011  1.00  0.00     0.116 A 
HETATM   19  F   UNL     1      -6.840  -5.094 -35.677  1.00  0.00    -0.206 F 
HETATM   20  C   UNL     1      -4.879  -4.534 -34.497  1.00  0.00     0.043 A 
HETATM   21  C   UNL     1      -4.124  -3.584 -33.808  1.00  0.00     0.011 A 
ENDBRANCH  14  15
ENDBRANCH  12  14
ENDBRANCH   7  12
BRANCH   9  22
HETATM   22  N   UNL     1      -7.781   2.723 -32.171  1.00  0.00    -0.374 N 
HETATM   23  H   UNL     1      -7.877   3.631 -31.720  1.00  0.00     0.161 HD
BRANCH  22  24
HETATM   24  C   UNL     1      -8.660   2.597 -33.334  1.00  0.00     0.123 C 
BRANCH  24  25
HETATM   25  C   UNL     1      -9.930   1.813 -33.013  1.00  0.00     0.045 C 
BRANCH  25  26
HETATM   26  C   UNL     1      -9.659   0.394 -32.536  1.00  0.00     0.165 C 
BRANCH  26  27
HETATM   27  O   UNL     1      -9.321   0.404 -31.156  1.00  0.00    -0.401 OA
HETATM   28  H   UNL     1      -9.440   1.309 -30.817  1.00  0.00     0.209 HD
ENDBRANCH  26  27
ENDBRANCH  25  26
ENDBRANCH  24  25
ENDBRANCH  22  24
ENDBRANCH   9  22
TORSDOF 8
ENDMDL
MODEL 9
REMARK VINA RESULT:      -6.9     15.891     17.275
REMARK  8 active torsions:
REMARK  status: ('A' for Active; 'I' for Inactive)
REMARK    1  A    between atoms: C_7  and  N_8 
REMARK    2  A    between atoms: N_8  and  C_9 
REMARK    3  A    between atoms: C_9  and  C_10 
REMARK    4  A    between atoms: C_18  and  N_19 
REMARK    5  A    between atoms: N_19  and  C_20 
REMARK    6  A    between atoms: C_20  and  C_21 
REMARK    7  A    between atoms: C_21  and  C_22 
REMARK    8  A    between atoms: C_22  and  O_23 
ROOT
HETATM    1  C   UNL     1      -0.249 -14.567 -37.542  1.00  0.00     0.001 A 
HETATM    2  C   UNL     1      -1.409 -14.189 -36.863  1.00  0.00     0.017 A 
HETATM    3  C   UNL     1      -2.487 -13.573 -37.541  1.00  0.00     0.036 A 
HETATM    4  C   UNL     1      -2.356 -13.375 -38.932  1.00  0.00     0.048 A 
HETATM    5  N   UNL     1      -3.377 -12.841 -39.607  1.00  0.00    -0.330 N 
HETATM    6  H   UNL     1      -3.328 -12.651 -40.599  1.00  0.00     0.168 HD
HETATM    7  C   UNL     1      -4.508 -12.518 -38.995  1.00  0.00     0.182 A 
HETATM    8  N   UNL     1      -4.702 -12.629 -37.677  1.00  0.00    -0.202 NA
HETATM    9  C   UNL     1      -3.697 -13.145 -36.944  1.00  0.00     0.139 A 
HETATM   10  C   UNL     1      -1.185 -13.747 -39.609  1.00  0.00     0.030 A 
HETATM   11  C   UNL     1      -0.134 -14.342 -38.911  1.00  0.00     0.002 A 
ENDROOT
BRANCH   7  12
HETATM   12  N   UNL     1      -5.537 -12.008 -39.783  1.00  0.00    -0.258 NA
HETATM   13  H   UNL     1      -6.297 -11.827 -39.119  1.00  0.00     0.130 HD
BRANCH  12  14
HETATM   14  C   UNL     1      -6.021 -13.033 -40.714  1.00  0.00     0.134 C 
BRANCH  14  15
HETATM   15  C   UNL     1      -7.518 -13.157 -40.588  1.00  0.00    -0.045 A 
HETATM   16  C   UNL     1      -8.308 -12.047 -40.246  1.00  0.00     0.011 A 
HETATM   17  C   UNL     1      -9.694 -12.175 -40.135  1.00  0.00     0.043 A 
HETATM   18  C   UNL     1     -10.290 -13.411 -40.354  1.00  0.00     0.116 A 
HETATM   19  F   UNL     1     -11.618 -13.531 -40.249  1.00  0.00    -0.206 F 
HETATM   20  C   UNL     1      -9.526 -14.525 -40.678  1.00  0.00     0.043 A 
HETATM   21  C   UNL     1      -8.141 -14.401 -40.793  1.00  0.00     0.011 A 
ENDBRANCH  14  15
ENDBRANCH  12  14
ENDBRANCH   7  12
BRANCH   9  22
HETATM   22  N   UNL     1      -3.896 -13.339 -35.576  1.00  0.00    -0.374 N 
HETATM   23  H   UNL     1      -4.008 -12.464 -35.067  1.00  0.00     0.161 HD
BRANCH  22  24
HETATM   24  C   UNL     1      -4.828 -14.365 -35.106  1.00  0.00     0.123 C 
BRANCH  24  25
HETATM   25  C   UNL     1      -5.668 -13.881 -33.926  1.00  0.00     0.045 C 
BRANCH  25  26
HETATM   26  C   UNL     1      -7.021 -13.322 -34.337  1.00  0.00     0.165 C 
BRANCH  26  27
HETATM   27  O   UNL     1      -7.012 -13.002 -35.721  1.00  0.00    -0.401 OA
HETATM   28  H   UNL     1      -6.118 -12.703 -35.963  1.00  0.00     0.209 HD
ENDBRANCH  26  27
ENDBRANCH  25  26
ENDBRANCH  24  25
ENDBRANCH  22  24
ENDBRANCH   9  22
TORSDOF 8
ENDMDL
MODEL 10
REMARK VINA RESULT:      -6.8      4.062      6.846
REMARK  8 active torsions:
REMARK  status: ('A' for Active; 'I' for Inactive)
REMARK    1  A    between atoms: C_7  and  N_8 
REMARK    2  A    between atoms: N_8  and  C_9 
REMARK    3  A    between atoms: C_9  and  C_10 
REMARK    4  A    between atoms: C_18  and  N_19 
REMARK    5  A    between atoms: N_19  and  C_20 
REMARK    6  A    between atoms: C_20  and  C_21 
REMARK    7  A    between atoms: C_21  and  C_22 
REMARK    8  A    between atoms: C_22  and  O_23 
ROOT
HETATM    1  C   UNL     1      -8.592   4.891 -30.978  1.00  0.00     0.001 A 
HETATM    2  C   UNL     1      -9.010   3.582 -31.228  1.00  0.00     0.017 A 
HETATM    3  C   UNL     1      -8.073   2.541 -31.428  1.00  0.00     0.036 A 
HETATM    4  C   UNL     1      -6.704   2.869 -31.343  1.00  0.00     0.048 A 
HETATM    5  N   UNL     1      -5.799   1.896 -31.478  1.00  0.00    -0.330 N 
HETATM    6  H   UNL     1      -4.803   2.078 -31.455  1.00  0.00     0.168 HD
HETATM    7  C   UNL     1      -6.168   0.637 -31.669  1.00  0.00     0.182 A 
HETATM    8  N   UNL     1      -7.439   0.245 -31.806  1.00  0.00    -0.202 NA
HETATM    9  C   UNL     1      -8.394   1.188 -31.697  1.00  0.00     0.139 A 
HETATM   10  C   UNL     1      -6.288   4.186 -31.101  1.00  0.00     0.030 A 
HETATM   11  C   UNL     1      -7.235   5.194 -30.919  1.00  0.00     0.002 A 
ENDROOT
BRANCH   7  12
HETATM   12  N   UNL     1      -5.159  -0.318 -31.754  1.00  0.00    -0.258 NA
HETATM   13  H   UNL     1      -4.407   0.056 -31.167  1.00  0.00     0.130 HD
BRANCH  12  14
HETATM   14  C   UNL     1      -4.636  -0.387 -33.123  1.00  0.00     0.134 C 
BRANCH  14  15
HETATM   15  C   UNL     1      -5.052  -1.691 -33.754  1.00  0.00    -0.045 A 
HETATM   16  C   UNL     1      -6.304  -1.824 -34.377  1.00  0.00     0.011 A 
HETATM   17  C   UNL     1      -6.676  -3.038 -34.959  1.00  0.00     0.043 A 
HETATM   18  C   UNL     1      -5.805  -4.120 -34.910  1.00  0.00     0.116 A 
HETATM   19  F   UNL     1      -6.164  -5.280 -35.471  1.00  0.00    -0.206 F 
HETATM   20  C   UNL     1      -4.569  -4.014 -34.286  1.00  0.00     0.043 A 
HETATM   21  C   UNL     1      -4.191  -2.803 -33.706  1.00  0.00     0.011 A 
ENDBRANCH  14  15
ENDBRANCH  12  14
ENDBRANCH   7  12
BRANCH   9  22
HETATM   22  N   UNL     1      -9.732   0.798 -31.765  1.00  0.00    -0.374 N 
HETATM   23  H   UNL     1     -10.373   1.551 -31.522  1.00  0.00     0.161 HD
BRANCH  22  24
HETATM   24  C   UNL     1     -10.215   0.018 -32.905  1.00  0.00     0.123 C 
BRANCH  24  25
HETATM   25  C   UNL     1     -11.417   0.673 -33.582  1.00  0.00     0.045 C 
BRANCH  25  26
HETATM   26  C   UNL     1     -11.059   1.918 -34.378  1.00  0.00     0.165 C 
BRANCH  26  27
HETATM   27  O   UNL     1      -9.699   1.856 -34.786  1.00  0.00    -0.401 OA
HETATM   28  H   UNL     1      -9.304   1.046 -34.419  1.00  0.00     0.209 HD
ENDBRANCH  26  27
ENDBRANCH  25  26
ENDBRANCH  24  25
ENDBRANCH  22  24
ENDBRANCH   9  22
TORSDOF 8
ENDMDL
