MODEL 1
REMARK VINA RESULT:     -10.2      0.000      0.000
REMARK  8 active torsions:
REMARK  status: ('A' for Active; 'I' for Inactive)
REMARK    1  A    between atoms: C_2  and  C_3 
REMARK    2  A    between atoms: C_6  and  N_7 
REMARK       I    between atoms: N_7  and  C_8 
REMARK    3  A    between atoms: C_8  and  C_9 
REMARK    4  A    between atoms: C_9  and  S_10 
REMARK    5  A    between atoms: S_10  and  C_11 
REMARK    6  A    between atoms: C_23  and  C_24 
REMARK    7  A    between atoms: C_24  and  C_25 
REMARK       I    between atoms: C_25  and  N_26 
REMARK    8  A    between atoms: N_26  and  C_27 
ROOT
HETATM    1  C   UNL     1      -4.757   4.563 -30.962  1.00  0.00     0.178 A 
HETATM    2  N   UNL     1      -4.559   5.755 -30.283  1.00  0.00    -0.241 N 
HETATM    3  C   UNL     1      -3.667   6.676 -30.725  1.00  0.00     0.147 A 
HETATM    4  N   UNL     1      -3.454   7.715 -29.978  1.00  0.00    -0.256 NA
HETATM    5  C   UNL     1      -3.002   6.424 -32.003  1.00  0.00     0.039 A 
HETATM    6  C   UNL     1      -3.305   5.218 -32.643  1.00  0.00     0.073 A 
HETATM    7  C   UNL     1      -2.110   7.346 -32.559  1.00  0.00     0.018 A 
HETATM    8  C   UNL     1      -1.501   7.053 -33.778  1.00  0.00     0.001 A 
HETATM    9  C   UNL     1      -1.779   5.848 -34.424  1.00  0.00     0.002 A 
HETATM   10  C   UNL     1      -2.675   4.935 -33.856  1.00  0.00     0.032 A 
HETATM   11  C   UNL     1      -5.113   6.243 -29.121  1.00  0.00     0.257 A 
HETATM   12  O   UNL     1      -6.036   5.792 -28.462  1.00  0.00    -0.270 OA
HETATM   13  C   UNL     1      -4.375   7.533 -28.817  1.00  0.00     0.211 A 
HETATM   14  N   UNL     1      -4.194   4.275 -32.093  1.00  0.00    -0.223 NA
ENDROOT
BRANCH   1  15
HETATM   15  S   UNL     1      -5.756   3.317 -30.260  1.00  0.00    -0.082 SA
BRANCH  15  16
HETATM   16  C   UNL     1      -7.093   3.275 -31.477  1.00  0.00     0.185 C 
BRANCH  16  17
HETATM   17  C   UNL     1      -6.936   2.213 -32.558  1.00  0.00     0.231 C 
HETATM   18  N   UNL     1      -6.670   0.937 -32.102  1.00  0.00    -0.327 N 
HETATM   19  H   UNL     1      -6.766   0.777 -31.102  1.00  0.00     0.169 HD
HETATM   20  O   UNL     1      -6.953   2.558 -33.739  1.00  0.00    -0.272 OA
BRANCH  18  21
HETATM   21  C   UNL     1      -6.268  -0.184 -32.856  1.00  0.00     0.034 A 
HETATM   22  C   UNL     1      -4.958  -0.649 -32.935  1.00  0.00     0.030 A 
HETATM   23  C   UNL     1      -4.657  -1.816 -33.652  1.00  0.00     0.010 A 
HETATM   24  C   UNL     1      -5.661  -2.551 -34.293  1.00  0.00    -0.055 A 
HETATM   25  C   UNL     1      -6.974  -2.059 -34.233  1.00  0.00     0.010 A 
HETATM   26  C   UNL     1      -7.269  -0.888 -33.530  1.00  0.00     0.030 A 
BRANCH  24  27
HETATM   27  C   UNL     1      -5.396  -3.848 -35.043  1.00  0.00     0.010 C 
HETATM   28  C   UNL     1      -6.653  -4.620 -35.460  1.00  0.00     0.015 C 
HETATM   29  C   UNL     1      -4.470  -4.761 -34.234  1.00  0.00     0.015 C 
ENDBRANCH  24  27
ENDBRANCH  18  21
ENDBRANCH  16  17
ENDBRANCH  15  16
ENDBRANCH   1  15
BRANCH  13  30
HETATM   30  C   UNL     1      -3.593   7.364 -27.531  1.00  0.00     0.140 C 
BRANCH  30  31
HETATM   31  C   UNL     1      -2.138   7.707 -27.725  1.00  0.00     0.220 C 
HETATM   32  N   UNL     1      -1.385   6.665 -28.215  1.00  0.00    -0.356 N 
HETATM   33  H   UNL     1      -1.848   5.786 -28.403  1.00  0.00     0.162 HD
HETATM   34  O   UNL     1      -1.685   8.809 -27.438  1.00  0.00    -0.274 OA
BRANCH  32  35
HETATM   35  C   UNL     1       0.073   6.688 -28.197  1.00  0.00     0.084 C 
HETATM   36  C   UNL     1       0.639   5.295 -28.516  1.00  0.00     0.025 C 
HETATM   37  C   UNL     1       0.386   4.890 -29.969  1.00  0.00     0.002 C 
HETATM   38  C   UNL     1       0.935   5.928 -30.942  1.00  0.00     0.000 C 
HETATM   39  C   UNL     1       0.403   7.328 -30.647  1.00  0.00     0.002 C 
HETATM   40  C   UNL     1       0.613   7.729 -29.185  1.00  0.00     0.025 C 
ENDBRANCH  32  35
ENDBRANCH  30  31
ENDBRANCH  13  30
TORSDOF 8
ENDMDL
MODEL 2
REMARK VINA RESULT:     -10.1      1.512      1.742
REMARK  8 active torsions:
REMARK  status: ('A' for Active; 'I' for Inactive)
REMARK    1  A    between atoms: C_2  and  C_3 
REMARK    2  A    between atoms: C_6  and  N_7 
REMARK       I    between atoms: N_7  and  C_8 
REMARK    3  A    between atoms: C_8  and  C_9 
REMARK    4  A    between atoms: C_9  and  S_10 
REMARK    5  A    between atoms: S_10  and  C_11 
REMARK    6  A    between atoms: C_23  and  C_24 
REMARK    7  A    between atoms: C_24  and  C_25 
REMARK       I    between atoms: C_25  and  N_26 
REMARK    8  A    between atoms: N_26  and  C_27 
ROOT
HETATM    1  C   UNL     1      -5.701   4.581 -31.487  1.00  0.00     0.178 A 
HETATM    2  N   UNL     1      -5.377   5.542 -30.541  1.00  0.00    -0.241 N 
HETATM    3  C   UNL     1      -4.140   6.096 -30.497  1.00  0.00     0.147 A 
HETATM    4  N   UNL     1      -3.877   6.904 -29.517  1.00  0.00    -0.256 NA
HETATM    5  C   UNL     1      -3.191   5.732 -31.549  1.00  0.00     0.039 A 
HETATM    6  C   UNL     1      -3.625   4.794 -32.491  1.00  0.00     0.073 A 
HETATM    7  C   UNL     1      -1.914   6.297 -31.611  1.00  0.00     0.018 A 
HETATM    8  C   UNL     1      -1.048   5.911 -32.632  1.00  0.00     0.001 A 
HETATM    9  C   UNL     1      -1.458   4.966 -33.572  1.00  0.00     0.002 A 
HETATM   10  C   UNL     1      -2.739   4.409 -33.499  1.00  0.00     0.032 A 
HETATM   11  C   UNL     1      -6.112   6.093 -29.516  1.00  0.00     0.257 A 
HETATM   12  O   UNL     1      -7.300   5.963 -29.266  1.00  0.00    -0.270 OA
HETATM   13  C   UNL     1      -5.151   6.975 -28.742  1.00  0.00     0.211 A 
HETATM   14  N   UNL     1      -4.904   4.209 -32.439  1.00  0.00    -0.223 NA
ENDROOT
BRANCH   1  15
HETATM   15  S   UNL     1      -7.228   3.744 -31.389  1.00  0.00    -0.082 SA
BRANCH  15  16
HETATM   16  C   UNL     1      -6.832   2.533 -30.106  1.00  0.00     0.185 C 
BRANCH  16  17
HETATM   17  C   UNL     1      -6.232   1.231 -30.622  1.00  0.00     0.231 C 
HETATM   18  N   UNL     1      -6.182   1.106 -31.997  1.00  0.00    -0.327 N 
HETATM   19  H   UNL     1      -6.387   1.939 -32.542  1.00  0.00     0.169 HD
HETATM   20  O   UNL     1      -5.930   0.353 -29.815  1.00  0.00    -0.272 OA
BRANCH  18  21
HETATM   21  C   UNL     1      -5.888  -0.050 -32.749  1.00  0.00     0.034 A 
HETATM   22  C   UNL     1      -4.635  -0.655 -32.804  1.00  0.00     0.030 A 
HETATM   23  C   UNL     1      -4.448  -1.844 -33.522  1.00  0.00     0.010 A 
HETATM   24  C   UNL     1      -5.512  -2.462 -34.189  1.00  0.00    -0.055 A 
HETATM   25  C   UNL     1      -6.764  -1.830 -34.153  1.00  0.00     0.010 A 
HETATM   26  C   UNL     1      -6.945  -0.637 -33.449  1.00  0.00     0.030 A 
BRANCH  24  27
HETATM   27  C   UNL     1      -5.374  -3.778 -34.941  1.00  0.00     0.010 C 
HETATM   28  C   UNL     1      -6.698  -4.487 -35.248  1.00  0.00     0.015 C 
HETATM   29  C   UNL     1      -4.435  -4.730 -34.197  1.00  0.00     0.015 C 
ENDBRANCH  24  27
ENDBRANCH  18  21
ENDBRANCH  16  17
ENDBRANCH  15  16
ENDBRANCH   1  15
BRANCH  13  30
HETATM   30  C   UNL     1      -4.967   6.405 -27.351  1.00  0.00     0.140 C 
BRANCH  30  31
HETATM   31  C   UNL     1      -3.864   7.116 -26.609  1.00  0.00     0.220 C 
HETATM   32  N   UNL     1      -2.602   6.783 -27.044  1.00  0.00    -0.356 N 
HETATM   33  H   UNL     1      -2.516   6.118 -27.800  1.00  0.00     0.162 HD
HETATM   34  O   UNL     1      -4.093   7.890 -25.687  1.00  0.00    -0.274 OA
BRANCH  32  35
HETATM   35  C   UNL     1      -1.406   7.122 -26.281  1.00  0.00     0.084 C 
HETATM   36  C   UNL     1      -0.303   6.077 -26.515  1.00  0.00     0.025 C 
HETATM   37  C   UNL     1       0.251   6.134 -27.939  1.00  0.00     0.002 C 
HETATM   38  C   UNL     1       0.753   7.531 -28.288  1.00  0.00     0.000 C 
HETATM   39  C   UNL     1      -0.314   8.598 -28.057  1.00  0.00     0.002 C 
HETATM   40  C   UNL     1      -0.906   8.525 -26.647  1.00  0.00     0.025 C 
ENDBRANCH  32  35
ENDBRANCH  30  31
ENDBRANCH  13  30
TORSDOF 8
ENDMDL
MODEL 3
REMARK VINA RESULT:      -9.8      1.182      1.826
REMARK  8 active torsions:
REMARK  status: ('A' for Active; 'I' for Inactive)
REMARK    1  A    between atoms: C_2  and  C_3 
REMARK    2  A    between atoms: C_6  and  N_7 
REMARK       I    between atoms: N_7  and  C_8 
REMARK    3  A    between atoms: C_8  and  C_9 
REMARK    4  A    between atoms: C_9  and  S_10 
REMARK    5  A    between atoms: S_10  and  C_11 
REMARK    6  A    between atoms: C_23  and  C_24 
REMARK    7  A    between atoms: C_24  and  C_25 
REMARK       I    between atoms: C_25  and  N_26 
REMARK    8  A    between atoms: N_26  and  C_27 
ROOT
HETATM    1  C   UNL     1      -4.857   5.083 -30.954  1.00  0.00     0.178 A 
HETATM    2  N   UNL     1      -4.705   6.420 -30.619  1.00  0.00    -0.241 N 
HETATM    3  C   UNL     1      -3.726   7.177 -31.173  1.00  0.00     0.147 A 
HETATM    4  N   UNL     1      -3.575   8.386 -30.727  1.00  0.00    -0.256 NA
HETATM    5  C   UNL     1      -2.905   6.571 -32.220  1.00  0.00     0.039 A 
HETATM    6  C   UNL     1      -3.165   5.233 -32.530  1.00  0.00     0.073 A 
HETATM    7  C   UNL     1      -1.910   7.297 -32.883  1.00  0.00     0.018 A 
HETATM    8  C   UNL     1      -1.153   6.669 -33.871  1.00  0.00     0.001 A 
HETATM    9  C   UNL     1      -1.389   5.330 -34.182  1.00  0.00     0.002 A 
HETATM   10  C   UNL     1      -2.389   4.616 -33.512  1.00  0.00     0.032 A 
HETATM   11  C   UNL     1      -5.392   7.218 -29.732  1.00  0.00     0.257 A 
HETATM   12  O   UNL     1      -6.413   6.973 -29.110  1.00  0.00    -0.270 OA
HETATM   13  C   UNL     1      -4.652   8.542 -29.704  1.00  0.00     0.211 A 
HETATM   14  N   UNL     1      -4.157   4.485 -31.867  1.00  0.00    -0.223 NA
ENDROOT
BRANCH   1  15
HETATM   15  S   UNL     1      -5.989   4.089 -30.077  1.00  0.00    -0.082 SA
BRANCH  15  16
HETATM   16  C   UNL     1      -7.117   3.650 -31.421  1.00  0.00     0.185 C 
BRANCH  16  17
HETATM   17  C   UNL     1      -7.201   2.158 -31.720  1.00  0.00     0.231 C 
HETATM   18  N   UNL     1      -6.162   1.643 -32.468  1.00  0.00    -0.327 N 
HETATM   19  H   UNL     1      -5.356   2.248 -32.614  1.00  0.00     0.169 HD
HETATM   20  O   UNL     1      -8.207   1.538 -31.376  1.00  0.00    -0.272 OA
BRANCH  18  21
HETATM   21  C   UNL     1      -6.078   0.373 -33.073  1.00  0.00     0.034 A 
HETATM   22  C   UNL     1      -7.000  -0.124 -33.991  1.00  0.00     0.030 A 
HETATM   23  C   UNL     1      -6.801  -1.372 -34.598  1.00  0.00     0.010 A 
HETATM   24  C   UNL     1      -5.670  -2.144 -34.312  1.00  0.00    -0.055 A 
HETATM   25  C   UNL     1      -4.761  -1.649 -33.364  1.00  0.00     0.010 A 
HETATM   26  C   UNL     1      -4.968  -0.412 -32.749  1.00  0.00     0.030 A 
BRANCH  24  27
HETATM   27  C   UNL     1      -5.382  -3.481 -34.978  1.00  0.00     0.010 C 
HETATM   28  C   UNL     1      -6.614  -4.361 -35.218  1.00  0.00     0.015 C 
HETATM   29  C   UNL     1      -4.330  -4.264 -34.187  1.00  0.00     0.015 C 
ENDBRANCH  24  27
ENDBRANCH  18  21
ENDBRANCH  16  17
ENDBRANCH  15  16
ENDBRANCH   1  15
BRANCH  13  30
HETATM   30  C   UNL     1      -4.058   8.747 -28.326  1.00  0.00     0.140 C 
BRANCH  30  31
HETATM   31  C   UNL     1      -3.126   7.622 -27.958  1.00  0.00     0.220 C 
HETATM   32  N   UNL     1      -1.815   7.851 -28.311  1.00  0.00    -0.356 N 
HETATM   33  H   UNL     1      -1.589   8.724 -28.768  1.00  0.00     0.162 HD
HETATM   34  O   UNL     1      -3.525   6.594 -27.422  1.00  0.00    -0.274 OA
BRANCH  32  35
HETATM   35  C   UNL     1      -0.818   6.788 -28.316  1.00  0.00     0.084 C 
HETATM   36  C   UNL     1       0.437   7.229 -29.086  1.00  0.00     0.025 C 
HETATM   37  C   UNL     1       1.206   8.327 -28.352  1.00  0.00     0.002 C 
HETATM   38  C   UNL     1       1.569   7.903 -26.933  1.00  0.00     0.000 C 
HETATM   39  C   UNL     1       0.348   7.447 -26.141  1.00  0.00     0.002 C 
HETATM   40  C   UNL     1      -0.454   6.375 -26.883  1.00  0.00     0.025 C 
ENDBRANCH  32  35
ENDBRANCH  30  31
ENDBRANCH  13  30
TORSDOF 8
ENDMDL
MODEL 4
REMARK VINA RESULT:      -9.8      3.130     10.258
REMARK  8 active torsions:
REMARK  status: ('A' for Active; 'I' for Inactive)
REMARK    1  A    between atoms: C_2  and  C_3 
REMARK    2  A    between atoms: C_6  and  N_7 
REMARK       I    between atoms: N_7  and  C_8 
REMARK    3  A    between atoms: C_8  and  C_9 
REMARK    4  A    between atoms: C_9  and  S_10 
REMARK    5  A    between atoms: S_10  and  C_11 
REMARK    6  A    between atoms: C_23  and  C_24 
REMARK    7  A    between atoms: C_24  and  C_25 
REMARK       I    between atoms: C_25  and  N_26 
REMARK    8  A    between atoms: N_26  and  C_27 
ROOT
HETATM    1  C   UNL     1      -4.567   0.993 -31.956  1.00  0.00     0.178 A 
HETATM    2  N   UNL     1      -5.920   1.189 -31.723  1.00  0.00    -0.241 N 
HETATM    3  C   UNL     1      -6.857   0.439 -32.352  1.00  0.00     0.147 A 
HETATM    4  N   UNL     1      -8.102   0.754 -32.171  1.00  0.00    -0.256 NA
HETATM    5  C   UNL     1      -6.396  -0.661 -33.199  1.00  0.00     0.039 A 
HETATM    6  C   UNL     1      -5.013  -0.816 -33.332  1.00  0.00     0.073 A 
HETATM    7  C   UNL     1      -7.295  -1.519 -33.841  1.00  0.00     0.018 A 
HETATM    8  C   UNL     1      -6.801  -2.548 -34.639  1.00  0.00     0.001 A 
HETATM    9  C   UNL     1      -5.424  -2.709 -34.796  1.00  0.00     0.002 A 
HETATM   10  C   UNL     1      -4.536  -1.844 -34.147  1.00  0.00     0.032 A 
HETATM   11  C   UNL     1      -6.583   2.094 -30.926  1.00  0.00     0.257 A 
HETATM   12  O   UNL     1      -6.127   2.876 -30.107  1.00  0.00    -0.270 OA
HETATM   13  C   UNL     1      -8.059   1.904 -31.220  1.00  0.00     0.211 A 
HETATM   14  N   UNL     1      -4.094   0.043 -32.700  1.00  0.00    -0.223 NA
ENDROOT
BRANCH   1  15
HETATM   15  S   UNL     1      -3.399   2.105 -31.291  1.00  0.00    -0.082 SA
BRANCH  15  16
HETATM   16  C   UNL     1      -3.447   3.394 -32.558  1.00  0.00     0.185 C 
BRANCH  16  17
HETATM   17  C   UNL     1      -2.741   4.690 -32.174  1.00  0.00     0.231 C 
HETATM   18  N   UNL     1      -1.947   4.620 -31.047  1.00  0.00    -0.327 N 
HETATM   19  H   UNL     1      -1.766   3.694 -30.668  1.00  0.00     0.169 HD
HETATM   20  O   UNL     1      -2.989   5.713 -32.809  1.00  0.00    -0.272 OA
BRANCH  18  21
HETATM   21  C   UNL     1      -1.357   5.687 -30.339  1.00  0.00     0.034 A 
HETATM   22  C   UNL     1      -2.071   6.676 -29.667  1.00  0.00     0.030 A 
HETATM   23  C   UNL     1      -1.402   7.661 -28.927  1.00  0.00     0.010 A 
HETATM   24  C   UNL     1      -0.006   7.671 -28.831  1.00  0.00    -0.055 A 
HETATM   25  C   UNL     1       0.707   6.688 -29.534  1.00  0.00     0.010 A 
HETATM   26  C   UNL     1       0.039   5.716 -30.283  1.00  0.00     0.030 A 
BRANCH  24  27
HETATM   27  C   UNL     1       0.767   8.687 -28.003  1.00  0.00     0.010 C 
HETATM   28  C   UNL     1       1.654   8.086 -26.907  1.00  0.00     0.015 C 
HETATM   29  C   UNL     1      -0.184   9.721 -27.393  1.00  0.00     0.015 C 
ENDBRANCH  24  27
ENDBRANCH  18  21
ENDBRANCH  16  17
ENDBRANCH  15  16
ENDBRANCH   1  15
BRANCH  13  30
HETATM   30  C   UNL     1      -8.600   3.160 -31.870  1.00  0.00     0.140 C 
BRANCH  30  31
HETATM   31  C   UNL     1     -10.100   3.238 -31.747  1.00  0.00     0.220 C 
HETATM   32  N   UNL     1     -10.773   2.545 -32.728  1.00  0.00    -0.356 N 
HETATM   33  H   UNL     1     -10.229   2.054 -33.425  1.00  0.00     0.162 HD
HETATM   34  O   UNL     1     -10.649   3.889 -30.865  1.00  0.00    -0.274 OA
BRANCH  32  35
HETATM   35  C   UNL     1     -12.199   2.729 -32.967  1.00  0.00     0.084 C 
HETATM   36  C   UNL     1     -12.460   4.072 -33.667  1.00  0.00     0.025 C 
HETATM   37  C   UNL     1     -11.935   4.085 -35.103  1.00  0.00     0.002 C 
HETATM   38  C   UNL     1     -12.511   2.934 -35.919  1.00  0.00     0.000 C 
HETATM   39  C   UNL     1     -12.280   1.583 -35.248  1.00  0.00     0.002 C 
HETATM   40  C   UNL     1     -12.766   1.570 -33.797  1.00  0.00     0.025 C 
ENDBRANCH  32  35
ENDBRANCH  30  31
ENDBRANCH  13  30
TORSDOF 8
ENDMDL
MODEL 5
REMARK VINA RESULT:      -9.6      2.970      4.451
REMARK  8 active torsions:
REMARK  status: ('A' for Active; 'I' for Inactive)
REMARK    1  A    between atoms: C_2  and  C_3 
REMARK    2  A    between atoms: C_6  and  N_7 
REMARK       I    between atoms: N_7  and  C_8 
REMARK    3  A    between atoms: C_8  and  C_9 
REMARK    4  A    between atoms: C_9  and  S_10 
REMARK    5  A    between atoms: S_10  and  C_11 
REMARK    6  A    between atoms: C_23  and  C_24 
REMARK    7  A    between atoms: C_24  and  C_25 
REMARK       I    between atoms: C_25  and  N_26 
REMARK    8  A    between atoms: N_26  and  C_27 
ROOT
HETATM    1  C   UNL     1      -8.392   4.607 -30.450  1.00  0.00     0.178 A 
HETATM    2  N   UNL     1      -7.051   4.272 -30.346  1.00  0.00    -0.241 N 
HETATM    3  C   UNL     1      -6.080   5.206 -30.493  1.00  0.00     0.147 A 
HETATM    4  N   UNL     1      -4.848   4.799 -30.494  1.00  0.00    -0.256 NA
HETATM    5  C   UNL     1      -6.492   6.600 -30.654  1.00  0.00     0.039 A 
HETATM    6  C   UNL     1      -7.867   6.849 -30.695  1.00  0.00     0.073 A 
HETATM    7  C   UNL     1      -5.556   7.634 -30.758  1.00  0.00     0.018 A 
HETATM    8  C   UNL     1      -6.004   8.944 -30.915  1.00  0.00     0.001 A 
HETATM    9  C   UNL     1      -7.372   9.210 -30.972  1.00  0.00     0.002 A 
HETATM   10  C   UNL     1      -8.298   8.166 -30.866  1.00  0.00     0.032 A 
HETATM   11  C   UNL     1      -6.430   3.063 -30.125  1.00  0.00     0.257 A 
HETATM   12  O   UNL     1      -6.925   1.988 -29.829  1.00  0.00    -0.270 OA
HETATM   13  C   UNL     1      -4.943   3.326 -30.272  1.00  0.00     0.211 A 
HETATM   14  N   UNL     1      -8.823   5.820 -30.601  1.00  0.00    -0.223 NA
ENDROOT
BRANCH   1  15
HETATM   15  S   UNL     1      -9.604   3.353 -30.459  1.00  0.00    -0.082 SA
BRANCH  15  16
HETATM   16  C   UNL     1      -9.529   2.865 -32.199  1.00  0.00     0.185 C 
BRANCH  16  17
HETATM   17  C   UNL     1      -9.016   1.451 -32.441  1.00  0.00     0.231 C 
HETATM   18  N   UNL     1      -7.697   1.360 -32.839  1.00  0.00    -0.327 N 
HETATM   19  H   UNL     1      -7.137   2.207 -32.776  1.00  0.00     0.169 HD
HETATM   20  O   UNL     1      -9.806   0.511 -32.371  1.00  0.00    -0.272 OA
BRANCH  18  21
HETATM   21  C   UNL     1      -7.021   0.227 -33.337  1.00  0.00     0.034 A 
HETATM   22  C   UNL     1      -6.020  -0.456 -32.651  1.00  0.00     0.030 A 
HETATM   23  C   UNL     1      -5.449  -1.617 -33.192  1.00  0.00     0.010 A 
HETATM   24  C   UNL     1      -5.877  -2.129 -34.422  1.00  0.00    -0.055 A 
HETATM   25  C   UNL     1      -6.865  -1.418 -35.120  1.00  0.00     0.010 A 
HETATM   26  C   UNL     1      -7.422  -0.253 -34.586  1.00  0.00     0.030 A 
BRANCH  24  27
HETATM   27  C   UNL     1      -5.326  -3.410 -35.030  1.00  0.00     0.010 C 
HETATM   28  C   UNL     1      -6.373  -4.494 -35.309  1.00  0.00     0.015 C 
HETATM   29  C   UNL     1      -4.205  -3.983 -34.158  1.00  0.00     0.015 C 
ENDBRANCH  24  27
ENDBRANCH  18  21
ENDBRANCH  16  17
ENDBRANCH  15  16
ENDBRANCH   1  15
BRANCH  13  30
HETATM   30  C   UNL     1      -4.423   2.566 -31.474  1.00  0.00     0.140 C 
BRANCH  30  31
HETATM   31  C   UNL     1      -4.572   3.372 -32.739  1.00  0.00     0.220 C 
HETATM   32  N   UNL     1      -3.452   4.103 -33.064  1.00  0.00    -0.356 N 
HETATM   33  H   UNL     1      -2.647   4.042 -32.455  1.00  0.00     0.162 HD
HETATM   34  O   UNL     1      -5.614   3.384 -33.385  1.00  0.00    -0.274 OA
BRANCH  32  35
HETATM   35  C   UNL     1      -3.483   5.163 -34.065  1.00  0.00     0.084 C 
HETATM   36  C   UNL     1      -3.627   6.537 -33.392  1.00  0.00     0.025 C 
HETATM   37  C   UNL     1      -2.372   6.930 -32.611  1.00  0.00     0.002 C 
HETATM   38  C   UNL     1      -1.130   6.892 -33.494  1.00  0.00     0.000 C 
HETATM   39  C   UNL     1      -0.960   5.544 -34.189  1.00  0.00     0.002 C 
HETATM   40  C   UNL     1      -2.224   5.120 -34.941  1.00  0.00     0.025 C 
ENDBRANCH  32  35
ENDBRANCH  30  31
ENDBRANCH  13  30
TORSDOF 8
ENDMDL
MODEL 6
REMARK VINA RESULT:      -9.4      1.699      2.403
REMARK  8 active torsions:
REMARK  status: ('A' for Active; 'I' for Inactive)
REMARK    1  A    between atoms: C_2  and  C_3 
REMARK    2  A    between atoms: C_6  and  N_7 
REMARK       I    between atoms: N_7  and  C_8 
REMARK    3  A    between atoms: C_8  and  C_9 
REMARK    4  A    between atoms: C_9  and  S_10 
REMARK    5  A    between atoms: S_10  and  C_11 
REMARK    6  A    between atoms: C_23  and  C_24 
REMARK    7  A    between atoms: C_24  and  C_25 
REMARK       I    between atoms: C_25  and  N_26 
REMARK    8  A    between atoms: N_26  and  C_27 
ROOT
HETATM    1  C   UNL     1      -4.733   5.045 -30.828  1.00  0.00     0.178 A 
HETATM    2  N   UNL     1      -4.352   6.324 -30.451  1.00  0.00    -0.241 N 
HETATM    3  C   UNL     1      -3.371   6.988 -31.109  1.00  0.00     0.147 A 
HETATM    4  N   UNL     1      -2.992   8.132 -30.630  1.00  0.00    -0.256 NA
HETATM    5  C   UNL     1      -2.802   6.360 -32.301  1.00  0.00     0.039 A 
HETATM    6  C   UNL     1      -3.286   5.091 -32.636  1.00  0.00     0.073 A 
HETATM    7  C   UNL     1      -1.825   6.999 -33.071  1.00  0.00     0.018 A 
HETATM    8  C   UNL     1      -1.314   6.353 -34.195  1.00  0.00     0.001 A 
HETATM    9  C   UNL     1      -1.775   5.081 -34.536  1.00  0.00     0.002 A 
HETATM   10  C   UNL     1      -2.753   4.453 -33.758  1.00  0.00     0.032 A 
HETATM   11  C   UNL     1      -4.787   7.137 -29.429  1.00  0.00     0.257 A 
HETATM   12  O   UNL     1      -5.728   6.979 -28.669  1.00  0.00    -0.270 OA
HETATM   13  C   UNL     1      -3.876   8.350 -29.446  1.00  0.00     0.211 A 
HETATM   14  N   UNL     1      -4.263   4.430 -31.868  1.00  0.00    -0.223 NA
ENDROOT
BRANCH   1  15
HETATM   15  S   UNL     1      -5.850   4.142 -29.840  1.00  0.00    -0.082 SA
BRANCH  15  16
HETATM   16  C   UNL     1      -6.814   3.326 -31.134  1.00  0.00     0.185 C 
BRANCH  16  17
HETATM   17  C   UNL     1      -6.472   1.857 -31.353  1.00  0.00     0.231 C 
HETATM   18  N   UNL     1      -6.155   1.509 -32.651  1.00  0.00    -0.327 N 
HETATM   19  H   UNL     1      -6.013   2.271 -33.310  1.00  0.00     0.169 HD
HETATM   20  O   UNL     1      -6.591   1.072 -30.413  1.00  0.00    -0.272 OA
BRANCH  18  21
HETATM   21  C   UNL     1      -6.011   0.214 -33.188  1.00  0.00     0.034 A 
HETATM   22  C   UNL     1      -7.009  -0.464 -33.883  1.00  0.00     0.030 A 
HETATM   23  C   UNL     1      -6.756  -1.724 -34.446  1.00  0.00     0.010 A 
HETATM   24  C   UNL     1      -5.497  -2.325 -34.339  1.00  0.00    -0.055 A 
HETATM   25  C   UNL     1      -4.507  -1.648 -33.611  1.00  0.00     0.010 A 
HETATM   26  C   UNL     1      -4.765  -0.400 -33.038  1.00  0.00     0.030 A 
BRANCH  24  27
HETATM   27  C   UNL     1      -5.157  -3.667 -34.971  1.00  0.00     0.010 C 
HETATM   28  C   UNL     1      -6.366  -4.543 -35.316  1.00  0.00     0.015 C 
HETATM   29  C   UNL     1      -4.183  -4.450 -34.087  1.00  0.00     0.015 C 
ENDBRANCH  24  27
ENDBRANCH  18  21
ENDBRANCH  16  17
ENDBRANCH  15  16
ENDBRANCH   1  15
BRANCH  13  30
HETATM   30  C   UNL     1      -3.064   8.378 -28.168  1.00  0.00     0.140 C 
BRANCH  30  31
HETATM   31  C   UNL     1      -1.887   9.312 -28.286  1.00  0.00     0.220 C 
HETATM   32  N   UNL     1      -0.734   8.823 -27.716  1.00  0.00    -0.356 N 
HETATM   33  H   UNL     1      -0.764   7.910 -27.283  1.00  0.00     0.162 HD
HETATM   34  O   UNL     1      -1.980  10.412 -28.818  1.00  0.00    -0.274 OA
BRANCH  32  35
HETATM   35  C   UNL     1       0.423   9.672 -27.461  1.00  0.00     0.084 C 
HETATM   36  C   UNL     1       0.296  10.361 -26.093  1.00  0.00     0.025 C 
HETATM   37  C   UNL     1       0.418   9.370 -24.935  1.00  0.00     0.002 C 
HETATM   38  C   UNL     1       1.717   8.573 -25.016  1.00  0.00     0.000 C 
HETATM   39  C   UNL     1       1.883   7.884 -26.367  1.00  0.00     0.002 C 
HETATM   40  C   UNL     1       1.723   8.859 -27.536  1.00  0.00     0.025 C 
ENDBRANCH  32  35
ENDBRANCH  30  31
ENDBRANCH  13  30
TORSDOF 8
ENDMDL
MODEL 7
REMARK VINA RESULT:      -9.3      3.196      5.695
REMARK  8 active torsions:
REMARK  status: ('A' for Active; 'I' for Inactive)
REMARK    1  A    between atoms: C_2  and  C_3 
REMARK    2  A    between atoms: C_6  and  N_7 
REMARK       I    between atoms: N_7  and  C_8 
REMARK    3  A    between atoms: C_8  and  C_9 
REMARK    4  A    between atoms: C_9  and  S_10 
REMARK    5  A    between atoms: S_10  and  C_11 
REMARK    6  A    between atoms: C_23  and  C_24 
REMARK    7  A    between atoms: C_24  and  C_25 
REMARK       I    between atoms: C_25  and  N_26 
REMARK    8  A    between atoms: N_26  and  C_27 
ROOT
HETATM    1  C   UNL     1      -5.827   1.488 -30.852  1.00  0.00     0.178 A 
HETATM    2  N   UNL     1      -4.867   2.463 -31.076  1.00  0.00    -0.241 N 
HETATM    3  C   UNL     1      -5.200   3.776 -31.133  1.00  0.00     0.147 A 
HETATM    4  N   UNL     1      -4.269   4.619 -31.458  1.00  0.00    -0.256 NA
HETATM    5  C   UNL     1      -6.584   4.144 -30.837  1.00  0.00     0.039 A 
HETATM    6  C   UNL     1      -7.470   3.096 -30.569  1.00  0.00     0.073 A 
HETATM    7  C   UNL     1      -6.999   5.479 -30.819  1.00  0.00     0.018 A 
HETATM    8  C   UNL     1      -8.332   5.773 -30.535  1.00  0.00     0.001 A 
HETATM    9  C   UNL     1      -9.234   4.740 -30.280  1.00  0.00     0.002 A 
HETATM   10  C   UNL     1      -8.804   3.408 -30.300  1.00  0.00     0.032 A 
HETATM   11  C   UNL     1      -3.513   2.370 -31.303  1.00  0.00     0.257 A 
HETATM   12  O   UNL     1      -2.786   1.393 -31.226  1.00  0.00    -0.270 OA
HETATM   13  C   UNL     1      -3.048   3.777 -31.629  1.00  0.00     0.211 A 
HETATM   14  N   UNL     1      -7.070   1.747 -30.591  1.00  0.00    -0.223 NA
ENDROOT
BRANCH   1  15
HETATM   15  S   UNL     1      -5.403  -0.198 -30.987  1.00  0.00    -0.082 SA
BRANCH  15  16
HETATM   16  C   UNL     1      -5.473  -0.388 -32.785  1.00  0.00     0.185 C 
BRANCH  16  17
HETATM   17  C   UNL     1      -6.878  -0.351 -33.375  1.00  0.00     0.231 C 
HETATM   18  N   UNL     1      -7.505   0.879 -33.335  1.00  0.00    -0.327 N 
HETATM   19  H   UNL     1      -6.932   1.679 -33.077  1.00  0.00     0.169 HD
HETATM   20  O   UNL     1      -7.395  -1.403 -33.747  1.00  0.00    -0.272 OA
BRANCH  18  21
HETATM   21  C   UNL     1      -8.859   1.168 -33.600  1.00  0.00     0.034 A 
HETATM   22  C   UNL     1      -9.925   0.359 -33.216  1.00  0.00     0.030 A 
HETATM   23  C   UNL     1     -11.247   0.758 -33.459  1.00  0.00     0.010 A 
HETATM   24  C   UNL     1     -11.532   1.981 -34.077  1.00  0.00    -0.055 A 
HETATM   25  C   UNL     1     -10.451   2.776 -34.487  1.00  0.00     0.010 A 
HETATM   26  C   UNL     1      -9.134   2.369 -34.258  1.00  0.00     0.030 A 
BRANCH  24  27
HETATM   27  C   UNL     1     -12.948   2.483 -34.320  1.00  0.00     0.010 C 
HETATM   28  C   UNL     1     -13.057   3.980 -34.631  1.00  0.00     0.015 C 
HETATM   29  C   UNL     1     -13.856   2.130 -33.139  1.00  0.00     0.015 C 
ENDBRANCH  24  27
ENDBRANCH  18  21
ENDBRANCH  16  17
ENDBRANCH  15  16
ENDBRANCH   1  15
BRANCH  13  30
HETATM   30  C   UNL     1      -2.563   3.817 -33.063  1.00  0.00     0.140 C 
BRANCH  30  31
HETATM   31  C   UNL     1      -1.664   5.003 -33.304  1.00  0.00     0.220 C 
HETATM   32  N   UNL     1      -1.184   5.577 -32.149  1.00  0.00    -0.356 N 
HETATM   33  H   UNL     1      -1.457   5.172 -31.264  1.00  0.00     0.162 HD
HETATM   34  O   UNL     1      -1.422   5.418 -34.432  1.00  0.00    -0.274 OA
BRANCH  32  35
HETATM   35  C   UNL     1      -0.549   6.889 -32.143  1.00  0.00     0.084 C 
HETATM   36  C   UNL     1      -1.567   7.978 -31.767  1.00  0.00     0.025 C 
HETATM   37  C   UNL     1      -2.006   7.876 -30.306  1.00  0.00     0.002 C 
HETATM   38  C   UNL     1      -0.811   7.908 -29.359  1.00  0.00     0.000 C 
HETATM   39  C   UNL     1       0.227   6.846 -29.710  1.00  0.00     0.002 C 
HETATM   40  C   UNL     1       0.646   6.912 -31.181  1.00  0.00     0.025 C 
ENDBRANCH  32  35
ENDBRANCH  30  31
ENDBRANCH  13  30
TORSDOF 8
ENDMDL
MODEL 8
REMARK VINA RESULT:      -9.2      1.732      2.635
REMARK  8 active torsions:
REMARK  status: ('A' for Active; 'I' for Inactive)
REMARK    1  A    between atoms: C_2  and  C_3 
REMARK    2  A    between atoms: C_6  and  N_7 
REMARK       I    between atoms: N_7  and  C_8 
REMARK    3  A    between atoms: C_8  and  C_9 
REMARK    4  A    between atoms: C_9  and  S_10 
REMARK    5  A    between atoms: S_10  and  C_11 
REMARK    6  A    between atoms: C_23  and  C_24 
REMARK    7  A    between atoms: C_24  and  C_25 
REMARK       I    between atoms: C_25  and  N_26 
REMARK    8  A    between atoms: N_26  and  C_27 
ROOT
HETATM    1  C   UNL     1      -4.226   6.122 -32.011  1.00  0.00     0.178 A 
HETATM    2  N   UNL     1      -4.306   7.149 -31.084  1.00  0.00    -0.241 N 
HETATM    3  C   UNL     1      -3.212   7.566 -30.400  1.00  0.00     0.147 A 
HETATM    4  N   UNL     1      -3.386   8.453 -29.470  1.00  0.00    -0.256 NA
HETATM    5  C   UNL     1      -1.921   6.975 -30.752  1.00  0.00     0.039 A 
HETATM    6  C   UNL     1      -1.930   5.983 -31.737  1.00  0.00     0.073 A 
HETATM    7  C   UNL     1      -0.735   7.386 -30.135  1.00  0.00     0.018 A 
HETATM    8  C   UNL     1       0.467   6.787 -30.505  1.00  0.00     0.001 A 
HETATM    9  C   UNL     1       0.475   5.785 -31.476  1.00  0.00     0.002 A 
HETATM   10  C   UNL     1      -0.719   5.384 -32.086  1.00  0.00     0.032 A 
HETATM   11  C   UNL     1      -5.376   7.897 -30.646  1.00  0.00     0.257 A 
HETATM   12  O   UNL     1      -6.518   7.929 -31.075  1.00  0.00    -0.270 OA
HETATM   13  C   UNL     1      -4.847   8.757 -29.514  1.00  0.00     0.211 A 
HETATM   14  N   UNL     1      -3.116   5.552 -32.362  1.00  0.00    -0.223 NA
ENDROOT
BRANCH   1  15
HETATM   15  S   UNL     1      -5.681   5.475 -32.722  1.00  0.00    -0.082 SA
BRANCH  15  16
HETATM   16  C   UNL     1      -5.728   3.860 -31.908  1.00  0.00     0.185 C 
BRANCH  16  17
HETATM   17  C   UNL     1      -5.960   2.681 -32.846  1.00  0.00     0.231 C 
HETATM   18  N   UNL     1      -5.945   1.436 -32.249  1.00  0.00    -0.327 N 
HETATM   19  H   UNL     1      -5.951   1.414 -31.232  1.00  0.00     0.169 HD
HETATM   20  O   UNL     1      -6.043   2.891 -34.056  1.00  0.00    -0.272 OA
BRANCH  18  21
HETATM   21  C   UNL     1      -5.914   0.176 -32.879  1.00  0.00     0.034 A 
HETATM   22  C   UNL     1      -6.996  -0.399 -33.542  1.00  0.00     0.030 A 
HETATM   23  C   UNL     1      -6.856  -1.627 -34.204  1.00  0.00     0.010 A 
HETATM   24  C   UNL     1      -5.630  -2.301 -34.229  1.00  0.00    -0.055 A 
HETATM   25  C   UNL     1      -4.554  -1.729 -33.534  1.00  0.00     0.010 A 
HETATM   26  C   UNL     1      -4.698  -0.512 -32.863  1.00  0.00     0.030 A 
BRANCH  24  27
HETATM   27  C   UNL     1      -5.412  -3.610 -34.972  1.00  0.00     0.010 C 
HETATM   28  C   UNL     1      -6.686  -4.418 -35.242  1.00  0.00     0.015 C 
HETATM   29  C   UNL     1      -4.388  -4.483 -34.241  1.00  0.00     0.015 C 
ENDBRANCH  24  27
ENDBRANCH  18  21
ENDBRANCH  16  17
ENDBRANCH  15  16
ENDBRANCH   1  15
BRANCH  13  30
HETATM   30  C   UNL     1      -5.522   8.343 -28.222  1.00  0.00     0.140 C 
BRANCH  30  31
HETATM   31  C   UNL     1      -4.643   8.625 -27.031  1.00  0.00     0.220 C 
HETATM   32  N   UNL     1      -3.617   7.721 -26.874  1.00  0.00    -0.356 N 
HETATM   33  H   UNL     1      -3.534   6.970 -27.546  1.00  0.00     0.162 HD
HETATM   34  O   UNL     1      -4.859   9.560 -26.268  1.00  0.00    -0.274 OA
BRANCH  32  35
HETATM   35  C   UNL     1      -2.842   7.634 -25.642  1.00  0.00     0.084 C 
HETATM   36  C   UNL     1      -2.111   6.286 -25.558  1.00  0.00     0.025 C 
HETATM   37  C   UNL     1      -0.994   6.171 -26.595  1.00  0.00     0.002 C 
HETATM   38  C   UNL     1      -0.004   7.326 -26.482  1.00  0.00     0.000 C 
HETATM   39  C   UNL     1      -0.698   8.684 -26.550  1.00  0.00     0.002 C 
HETATM   40  C   UNL     1      -1.845   8.796 -25.543  1.00  0.00     0.025 C 
ENDBRANCH  32  35
ENDBRANCH  30  31
ENDBRANCH  13  30
TORSDOF 8
ENDMDL
MODEL 9
REMARK VINA RESULT:      -8.8      3.299     10.367
REMARK  8 active torsions:
REMARK  status: ('A' for Active; 'I' for Inactive)
REMARK    1  A    between atoms: C_2  and  C_3 
REMARK    2  A    between atoms: C_6  and  N_7 
REMARK       I    between atoms: N_7  and  C_8 
REMARK    3  A    between atoms: C_8  and  C_9 
REMARK    4  A    between atoms: C_9  and  S_10 
REMARK    5  A    between atoms: S_10  and  C_11 
REMARK    6  A    between atoms: C_23  and  C_24 
REMARK    7  A    between atoms: C_24  and  C_25 
REMARK       I    between atoms: C_25  and  N_26 
REMARK    8  A    between atoms: N_26  and  C_27 
ROOT
HETATM    1  C   UNL     1      -4.596   4.811 -32.138  1.00  0.00     0.178 A 
HETATM    2  N   UNL     1      -5.817   4.357 -32.612  1.00  0.00    -0.241 N 
HETATM    3  C   UNL     1      -6.907   4.303 -31.807  1.00  0.00     0.147 A 
HETATM    4  N   UNL     1      -7.984   3.763 -32.288  1.00  0.00    -0.256 NA
HETATM    5  C   UNL     1      -6.785   4.844 -30.454  1.00  0.00     0.039 A 
HETATM    6  C   UNL     1      -5.527   5.329 -30.082  1.00  0.00     0.073 A 
HETATM    7  C   UNL     1      -7.873   4.878 -29.577  1.00  0.00     0.018 A 
HETATM    8  C   UNL     1      -7.700   5.401 -28.297  1.00  0.00     0.001 A 
HETATM    9  C   UNL     1      -6.449   5.876 -27.903  1.00  0.00     0.002 A 
HETATM   10  C   UNL     1      -5.368   5.837 -28.791  1.00  0.00     0.032 A 
HETATM   11  C   UNL     1      -6.192   3.877 -33.847  1.00  0.00     0.257 A 
HETATM   12  O   UNL     1      -5.557   3.858 -34.888  1.00  0.00    -0.270 OA
HETATM   13  C   UNL     1      -7.623   3.399 -33.691  1.00  0.00     0.211 A 
HETATM   14  N   UNL     1      -4.419   5.295 -30.948  1.00  0.00    -0.223 NA
ENDROOT
BRANCH   1  15
HETATM   15  S   UNL     1      -3.171   4.677 -33.134  1.00  0.00    -0.082 SA
BRANCH  15  16
HETATM   16  C   UNL     1      -2.997   6.400 -33.654  1.00  0.00     0.185 C 
BRANCH  16  17
HETATM   17  C   UNL     1      -2.036   7.226 -32.807  1.00  0.00     0.231 C 
HETATM   18  N   UNL     1      -1.708   6.682 -31.582  1.00  0.00    -0.327 N 
HETATM   19  H   UNL     1      -1.991   5.719 -31.416  1.00  0.00     0.169 HD
HETATM   20  O   UNL     1      -1.699   8.340 -33.206  1.00  0.00    -0.272 OA
BRANCH  18  21
HETATM   21  C   UNL     1      -1.030   7.303 -30.513  1.00  0.00     0.034 A 
HETATM   22  C   UNL     1      -1.605   8.238 -29.655  1.00  0.00     0.030 A 
HETATM   23  C   UNL     1      -0.878   8.754 -28.573  1.00  0.00     0.010 A 
HETATM   24  C   UNL     1       0.433   8.337 -28.316  1.00  0.00    -0.055 A 
HETATM   25  C   UNL     1       1.013   7.417 -29.203  1.00  0.00     0.010 A 
HETATM   26  C   UNL     1       0.293   6.915 -30.290  1.00  0.00     0.030 A 
BRANCH  24  27
HETATM   27  C   UNL     1       1.248   8.828 -27.129  1.00  0.00     0.010 C 
HETATM   28  C   UNL     1       1.324   7.852 -25.951  1.00  0.00     0.015 C 
HETATM   29  C   UNL     1       0.733  10.187 -26.646  1.00  0.00     0.015 C 
ENDBRANCH  24  27
ENDBRANCH  18  21
ENDBRANCH  16  17
ENDBRANCH  15  16
ENDBRANCH   1  15
BRANCH  13  30
HETATM   30  C   UNL     1      -7.667   1.898 -33.885  1.00  0.00     0.140 C 
BRANCH  30  31
HETATM   31  C   UNL     1      -9.060   1.360 -33.679  1.00  0.00     0.220 C 
HETATM   32  N   UNL     1     -10.025   2.035 -34.392  1.00  0.00    -0.356 N 
HETATM   33  H   UNL     1      -9.735   2.805 -34.979  1.00  0.00     0.162 HD
HETATM   34  O   UNL     1      -9.292   0.427 -32.918  1.00  0.00    -0.274 OA
BRANCH  32  35
HETATM   35  C   UNL     1     -11.447   1.873 -34.115  1.00  0.00     0.084 C 
HETATM   36  C   UNL     1     -11.931   2.950 -33.132  1.00  0.00     0.025 C 
HETATM   37  C   UNL     1     -11.928   4.345 -33.758  1.00  0.00     0.002 C 
HETATM   38  C   UNL     1     -12.749   4.383 -35.042  1.00  0.00     0.000 C 
HETATM   39  C   UNL     1     -12.303   3.318 -36.040  1.00  0.00     0.002 C 
HETATM   40  C   UNL     1     -12.264   1.922 -35.414  1.00  0.00     0.025 C 
ENDBRANCH  32  35
ENDBRANCH  30  31
ENDBRANCH  13  30
TORSDOF 8
ENDMDL
MODEL 10
REMARK VINA RESULT:      -8.8      3.109      5.254
REMARK  8 active torsions:
REMARK  status: ('A' for Active; 'I' for Inactive)
REMARK    1  A    between atoms: C_2  and  C_3 
REMARK    2  A    between atoms: C_6  and  N_7 
REMARK       I    between atoms: N_7  and  C_8 
REMARK    3  A    between atoms: C_8  and  C_9 
REMARK    4  A    between atoms: C_9  and  S_10 
REMARK    5  A    between atoms: S_10  and  C_11 
REMARK    6  A    between atoms: C_23  and  C_24 
REMARK    7  A    between atoms: C_24  and  C_25 
REMARK       I    between atoms: C_25  and  N_26 
REMARK    8  A    between atoms: N_26  and  C_27 
ROOT
HETATM    1  C   UNL     1      -5.535   3.659 -30.500  1.00  0.00     0.178 A 
HETATM    2  N   UNL     1      -4.303   3.969 -31.055  1.00  0.00    -0.241 N 
HETATM    3  C   UNL     1      -3.564   3.028 -31.693  1.00  0.00     0.147 A 
HETATM    4  N   UNL     1      -2.374   3.363 -32.088  1.00  0.00    -0.256 NA
HETATM    5  C   UNL     1      -4.155   1.703 -31.877  1.00  0.00     0.039 A 
HETATM    6  C   UNL     1      -5.425   1.499 -31.329  1.00  0.00     0.073 A 
HETATM    7  C   UNL     1      -3.485   0.691 -32.572  1.00  0.00     0.018 A 
HETATM    8  C   UNL     1      -4.093  -0.554 -32.714  1.00  0.00     0.001 A 
HETATM    9  C   UNL     1      -5.354  -0.780 -32.161  1.00  0.00     0.002 A 
HETATM   10  C   UNL     1      -6.014   0.241 -31.470  1.00  0.00     0.032 A 
HETATM   11  C   UNL     1      -3.585   5.143 -31.077  1.00  0.00     0.257 A 
HETATM   12  O   UNL     1      -3.926   6.259 -30.721  1.00  0.00    -0.270 OA
HETATM   13  C   UNL     1      -2.246   4.800 -31.703  1.00  0.00     0.211 A 
HETATM   14  N   UNL     1      -6.111   2.504 -30.621  1.00  0.00    -0.223 NA
ENDROOT
BRANCH   1  15
HETATM   15  S   UNL     1      -6.365   4.834 -29.514  1.00  0.00    -0.082 SA
BRANCH  15  16
HETATM   16  C   UNL     1      -7.571   5.446 -30.715  1.00  0.00     0.185 C 
BRANCH  16  17
HETATM   17  C   UNL     1      -8.765   4.527 -30.943  1.00  0.00     0.231 C 
HETATM   18  N   UNL     1      -8.668   3.689 -32.035  1.00  0.00    -0.327 N 
HETATM   19  H   UNL     1      -7.761   3.630 -32.491  1.00  0.00     0.169 HD
HETATM   20  O   UNL     1      -9.757   4.652 -30.225  1.00  0.00    -0.272 OA
BRANCH  18  21
HETATM   21  C   UNL     1      -9.684   2.900 -32.613  1.00  0.00     0.034 A 
HETATM   22  C   UNL     1      -9.652   1.510 -32.691  1.00  0.00     0.030 A 
HETATM   23  C   UNL     1     -10.740   0.800 -33.218  1.00  0.00     0.010 A 
HETATM   24  C   UNL     1     -11.889   1.462 -33.665  1.00  0.00    -0.055 A 
HETATM   25  C   UNL     1     -11.900   2.864 -33.610  1.00  0.00     0.010 A 
HETATM   26  C   UNL     1     -10.809   3.571 -33.098  1.00  0.00     0.030 A 
BRANCH  24  27
HETATM   27  C   UNL     1     -13.115   0.738 -34.201  1.00  0.00     0.010 C 
HETATM   28  C   UNL     1     -14.444   1.466 -33.975  1.00  0.00     0.015 C 
HETATM   29  C   UNL     1     -13.196  -0.681 -33.630  1.00  0.00     0.015 C 
ENDBRANCH  24  27
ENDBRANCH  18  21
ENDBRANCH  16  17
ENDBRANCH  15  16
ENDBRANCH   1  15
BRANCH  13  30
HETATM   30  C   UNL     1      -1.155   4.985 -30.669  1.00  0.00     0.140 C 
BRANCH  30  31
HETATM   31  C   UNL     1      -0.751   6.432 -30.552  1.00  0.00     0.220 C 
HETATM   32  N   UNL     1      -0.285   6.777 -29.303  1.00  0.00    -0.356 N 
HETATM   33  H   UNL     1      -0.248   6.061 -28.592  1.00  0.00     0.162 HD
HETATM   34  O   UNL     1      -0.864   7.218 -31.486  1.00  0.00    -0.274 OA
BRANCH  32  35
HETATM   35  C   UNL     1      -0.124   8.167 -28.895  1.00  0.00     0.084 C 
HETATM   36  C   UNL     1      -1.256   8.585 -27.942  1.00  0.00     0.025 C 
HETATM   37  C   UNL     1      -1.155   7.884 -26.587  1.00  0.00     0.002 C 
HETATM   38  C   UNL     1       0.205   8.115 -25.938  1.00  0.00     0.000 C 
HETATM   39  C   UNL     1       1.355   7.722 -26.860  1.00  0.00     0.002 C 
HETATM   40  C   UNL     1       1.244   8.386 -28.235  1.00  0.00     0.025 C 
ENDBRANCH  32  35
ENDBRANCH  30  31
ENDBRANCH  13  30
TORSDOF 8
ENDMDL
