MODEL 1
REMARK VINA RESULT:      -8.9      0.000      0.000
REMARK  7 active torsions:
REMARK  status: ('A' for Active; 'I' for Inactive)
REMARK    1  A    between atoms: C_2  and  O_3 
REMARK    2  A    between atoms: O_3  and  C_4 
REMARK    3  A    between atoms: C_5  and  N_6 
REMARK       I    between atoms: N_6  and  C_7 
REMARK    4  A    between atoms: C_7  and  C_8 
REMARK    5  A    between atoms: C_8  and  N_9 
REMARK    6  A    between atoms: C_20  and  C_21 
REMARK       I    between atoms: C_21  and  N_22 
REMARK    7  A    between atoms: N_22  and  C_23 
ROOT
HETATM    1  N   UNL     1      -4.910   2.643 -31.171  1.00  0.00    -0.304 N 
HETATM    2  C   UNL     1      -3.596   2.931 -31.558  1.00  0.00     0.259 C 
HETATM    3  O   UNL     1      -2.645   2.191 -31.309  1.00  0.00    -0.270 OA
HETATM    4  C   UNL     1      -3.441   4.302 -32.243  1.00  0.00     0.141 C 
HETATM    5  C   UNL     1      -3.558   5.422 -31.196  1.00  0.00     0.057 C 
HETATM    6  C   UNL     1      -2.061   4.392 -32.905  1.00  0.00     0.057 C 
HETATM    7  O   UNL     1      -4.396   4.528 -33.280  1.00  0.00    -0.329 OA
HETATM    8  C   UNL     1      -5.659   4.078 -33.002  1.00  0.00     0.097 A 
HETATM    9  C   UNL     1      -5.970   3.188 -31.957  1.00  0.00     0.072 A 
HETATM   10  C   UNL     1      -6.643   4.543 -33.878  1.00  0.00     0.040 A 
HETATM   11  C   UNL     1      -7.968   4.152 -33.715  1.00  0.00     0.020 A 
HETATM   12  C   UNL     1      -8.311   3.307 -32.657  1.00  0.00     0.034 A 
HETATM   13  C   UNL     1      -7.313   2.826 -31.789  1.00  0.00     0.049 A 
ENDROOT
BRANCH   1  14
HETATM   14  C   UNL     1      -5.090   1.490 -30.292  1.00  0.00     0.235 C 
BRANCH  14  15
HETATM   15  C   UNL     1      -5.494   0.216 -31.061  1.00  0.00     0.240 C 
HETATM   16  N   UNL     1      -4.535  -0.152 -31.988  1.00  0.00    -0.323 N 
HETATM   17  H   UNL     1      -3.895   0.554 -32.340  1.00  0.00     0.169 HD
HETATM   18  O   UNL     1      -6.566  -0.359 -30.888  1.00  0.00    -0.271 OA
BRANCH  16  19
HETATM   19  C   UNL     1      -4.347  -1.430 -32.553  1.00  0.00     0.068 A 
HETATM   20  C   UNL     1      -4.917  -1.674 -33.817  1.00  0.00     0.095 A 
HETATM   21  C   UNL     1      -4.648  -2.873 -34.485  1.00  0.00     0.039 A 
HETATM   22  C   UNL     1      -3.841  -3.840 -33.883  1.00  0.00     0.003 A 
HETATM   23  C   UNL     1      -3.305  -3.612 -32.616  1.00  0.00     0.002 A 
HETATM   24  C   UNL     1      -3.556  -2.410 -31.952  1.00  0.00     0.032 A 
BRANCH  20  25
HETATM   25  O   UNL     1      -5.706  -0.670 -34.334  1.00  0.00    -0.349 OA
BRANCH  25  26
HETATM   26  C   UNL     1      -7.081  -1.016 -34.522  1.00  0.00     0.171 C 
HETATM   27  C   UNL     1      -7.833   0.240 -34.925  1.00  0.00     0.034 C 
ENDBRANCH  25  26
ENDBRANCH  20  25
ENDBRANCH  16  19
ENDBRANCH  14  15
ENDBRANCH   1  14
BRANCH  12  28
HETATM   28  C   UNL     1      -9.710   2.841 -32.446  1.00  0.00     0.252 C 
HETATM   29  N   UNL     1     -10.467   2.634 -33.580  1.00  0.00    -0.352 N 
HETATM   30  H   UNL     1     -10.092   2.863 -34.489  1.00  0.00     0.163 HD
HETATM   31  O   UNL     1     -10.134   2.684 -31.307  1.00  0.00    -0.268 OA
BRANCH  29  32
HETATM   32  C   UNL     1     -11.826   2.141 -33.501  1.00  0.00     0.084 C 
HETATM   33  C   UNL     1     -12.658   2.525 -34.720  1.00  0.00     0.025 C 
HETATM   34  C   UNL     1     -13.837   1.571 -34.635  1.00  0.00     0.002 C 
HETATM   35  C   UNL     1     -13.229   0.255 -34.161  1.00  0.00     0.002 C 
HETATM   36  C   UNL     1     -11.905   0.612 -33.482  1.00  0.00     0.025 C 
ENDBRANCH  29  32
ENDBRANCH  12  28
TORSDOF 7
ENDMDL
MODEL 2
REMARK VINA RESULT:      -8.8      2.914      6.691
REMARK  7 active torsions:
REMARK  status: ('A' for Active; 'I' for Inactive)
REMARK    1  A    between atoms: C_2  and  O_3 
REMARK    2  A    between atoms: O_3  and  C_4 
REMARK    3  A    between atoms: C_5  and  N_6 
REMARK       I    between atoms: N_6  and  C_7 
REMARK    4  A    between atoms: C_7  and  C_8 
REMARK    5  A    between atoms: C_8  and  N_9 
REMARK    6  A    between atoms: C_20  and  C_21 
REMARK       I    between atoms: C_21  and  N_22 
REMARK    7  A    between atoms: N_22  and  C_23 
ROOT
HETATM    1  N   UNL     1      -6.562   4.679 -32.644  1.00  0.00    -0.304 N 
HETATM    2  C   UNL     1      -7.107   5.622 -31.765  1.00  0.00     0.259 C 
HETATM    3  O   UNL     1      -7.364   6.779 -32.098  1.00  0.00    -0.270 OA
HETATM    4  C   UNL     1      -7.267   5.103 -30.324  1.00  0.00     0.141 C 
HETATM    5  C   UNL     1      -5.889   5.019 -29.647  1.00  0.00     0.057 C 
HETATM    6  C   UNL     1      -8.147   6.071 -29.525  1.00  0.00     0.057 C 
HETATM    7  O   UNL     1      -7.906   3.829 -30.248  1.00  0.00    -0.329 OA
HETATM    8  C   UNL     1      -7.529   2.942 -31.222  1.00  0.00     0.097 A 
HETATM    9  C   UNL     1      -6.835   3.300 -32.392  1.00  0.00     0.072 A 
HETATM   10  C   UNL     1      -7.930   1.624 -30.988  1.00  0.00     0.040 A 
HETATM   11  C   UNL     1      -7.622   0.625 -31.905  1.00  0.00     0.020 A 
HETATM   12  C   UNL     1      -6.892   0.945 -33.052  1.00  0.00     0.034 A 
HETATM   13  C   UNL     1      -6.508   2.277 -33.293  1.00  0.00     0.049 A 
ENDROOT
BRANCH   1  14
HETATM   14  C   UNL     1      -6.141   5.175 -33.952  1.00  0.00     0.235 C 
BRANCH  14  15
HETATM   15  C   UNL     1      -4.647   5.555 -33.988  1.00  0.00     0.240 C 
HETATM   16  N   UNL     1      -4.223   6.093 -32.786  1.00  0.00    -0.323 N 
HETATM   17  H   UNL     1      -4.909   6.516 -32.168  1.00  0.00     0.169 HD
HETATM   18  O   UNL     1      -3.947   5.429 -34.991  1.00  0.00    -0.271 OA
BRANCH  16  19
HETATM   19  C   UNL     1      -2.899   6.162 -32.306  1.00  0.00     0.068 A 
HETATM   20  C   UNL     1      -2.395   5.041 -31.619  1.00  0.00     0.095 A 
HETATM   21  C   UNL     1      -1.049   4.999 -31.243  1.00  0.00     0.039 A 
HETATM   22  C   UNL     1      -0.214   6.082 -31.520  1.00  0.00     0.003 A 
HETATM   23  C   UNL     1      -0.721   7.206 -32.171  1.00  0.00     0.002 A 
HETATM   24  C   UNL     1      -2.060   7.247 -32.564  1.00  0.00     0.032 A 
BRANCH  20  25
HETATM   25  O   UNL     1      -3.289   4.021 -31.380  1.00  0.00    -0.349 OA
BRANCH  25  26
HETATM   26  C   UNL     1      -3.078   2.835 -32.152  1.00  0.00     0.171 C 
HETATM   27  C   UNL     1      -3.499   1.643 -31.312  1.00  0.00     0.034 C 
ENDBRANCH  25  26
ENDBRANCH  20  25
ENDBRANCH  16  19
ENDBRANCH  14  15
ENDBRANCH   1  14
BRANCH  12  28
HETATM   28  C   UNL     1      -6.551  -0.081 -34.077  1.00  0.00     0.252 C 
HETATM   29  N   UNL     1      -5.986  -1.250 -33.614  1.00  0.00    -0.352 N 
HETATM   30  H   UNL     1      -5.758  -1.350 -32.635  1.00  0.00     0.163 HD
HETATM   31  O   UNL     1      -6.759   0.150 -35.263  1.00  0.00    -0.268 OA
BRANCH  29  32
HETATM   32  C   UNL     1      -5.651  -2.335 -34.511  1.00  0.00     0.084 C 
HETATM   33  C   UNL     1      -4.536  -3.221 -33.967  1.00  0.00     0.025 C 
HETATM   34  C   UNL     1      -4.663  -4.477 -34.812  1.00  0.00     0.002 C 
HETATM   35  C   UNL     1      -6.167  -4.677 -34.974  1.00  0.00     0.002 C 
HETATM   36  C   UNL     1      -6.811  -3.311 -34.723  1.00  0.00     0.025 C 
ENDBRANCH  29  32
ENDBRANCH  12  28
TORSDOF 7
ENDMDL
MODEL 3
REMARK VINA RESULT:      -8.8      2.142      6.765
REMARK  7 active torsions:
REMARK  status: ('A' for Active; 'I' for Inactive)
REMARK    1  A    between atoms: C_2  and  O_3 
REMARK    2  A    between atoms: O_3  and  C_4 
REMARK    3  A    between atoms: C_5  and  N_6 
REMARK       I    between atoms: N_6  and  C_7 
REMARK    4  A    between atoms: C_7  and  C_8 
REMARK    5  A    between atoms: C_8  and  N_9 
REMARK    6  A    between atoms: C_20  and  C_21 
REMARK       I    between atoms: C_21  and  N_22 
REMARK    7  A    between atoms: N_22  and  C_23 
ROOT
HETATM    1  N   UNL     1      -8.839   4.453 -33.256  1.00  0.00    -0.304 N 
HETATM    2  C   UNL     1      -9.883   5.236 -32.751  1.00  0.00     0.259 C 
HETATM    3  O   UNL     1     -10.092   6.392 -33.119  1.00  0.00    -0.270 OA
HETATM    4  C   UNL     1     -10.685   4.550 -31.631  1.00  0.00     0.141 C 
HETATM    5  C   UNL     1      -9.853   4.525 -30.337  1.00  0.00     0.057 C 
HETATM    6  C   UNL     1     -11.976   5.335 -31.367  1.00  0.00     0.057 C 
HETATM    7  O   UNL     1     -11.087   3.219 -31.955  1.00  0.00    -0.329 OA
HETATM    8  C   UNL     1     -10.145   2.485 -32.626  1.00  0.00     0.097 A 
HETATM    9  C   UNL     1      -9.007   3.034 -33.244  1.00  0.00     0.072 A 
HETATM   10  C   UNL     1     -10.421   1.117 -32.693  1.00  0.00     0.040 A 
HETATM   11  C   UNL     1      -9.550   0.258 -33.357  1.00  0.00     0.020 A 
HETATM   12  C   UNL     1      -8.389   0.772 -33.938  1.00  0.00     0.034 A 
HETATM   13  C   UNL     1      -8.125   2.153 -33.884  1.00  0.00     0.049 A 
ENDROOT
BRANCH   1  14
HETATM   14  C   UNL     1      -7.882   5.128 -34.128  1.00  0.00     0.235 C 
BRANCH  14  15
HETATM   15  C   UNL     1      -6.543   5.424 -33.421  1.00  0.00     0.240 C 
HETATM   16  N   UNL     1      -5.532   4.591 -33.863  1.00  0.00    -0.323 N 
HETATM   17  H   UNL     1      -5.778   3.696 -34.277  1.00  0.00     0.169 HD
HETATM   18  O   UNL     1      -6.424   6.273 -32.540  1.00  0.00    -0.271 OA
BRANCH  16  19
HETATM   19  C   UNL     1      -4.143   4.821 -33.778  1.00  0.00     0.068 A 
HETATM   20  C   UNL     1      -3.466   4.310 -32.654  1.00  0.00     0.095 A 
HETATM   21  C   UNL     1      -2.071   4.389 -32.584  1.00  0.00     0.039 A 
HETATM   22  C   UNL     1      -1.356   5.003 -33.613  1.00  0.00     0.003 A 
HETATM   23  C   UNL     1      -2.029   5.539 -34.710  1.00  0.00     0.002 A 
HETATM   24  C   UNL     1      -3.420   5.448 -34.793  1.00  0.00     0.032 A 
BRANCH  20  25
HETATM   25  O   UNL     1      -4.249   3.729 -31.682  1.00  0.00    -0.349 OA
BRANCH  25  26
HETATM   26  C   UNL     1      -3.880   2.394 -31.324  1.00  0.00     0.171 C 
HETATM   27  C   UNL     1      -4.586   1.438 -32.267  1.00  0.00     0.034 C 
ENDBRANCH  25  26
ENDBRANCH  20  25
ENDBRANCH  16  19
ENDBRANCH  14  15
ENDBRANCH   1  14
BRANCH  12  28
HETATM   28  C   UNL     1      -7.431  -0.098 -34.677  1.00  0.00     0.252 C 
HETATM   29  N   UNL     1      -7.127  -1.311 -34.097  1.00  0.00    -0.352 N 
HETATM   30  H   UNL     1      -7.491  -1.541 -33.183  1.00  0.00     0.163 HD
HETATM   31  O   UNL     1      -6.945   0.292 -35.733  1.00  0.00    -0.268 OA
BRANCH  29  32
HETATM   32  C   UNL     1      -6.242  -2.257 -34.743  1.00  0.00     0.084 C 
HETATM   33  C   UNL     1      -4.910  -2.402 -34.015  1.00  0.00     0.025 C 
HETATM   34  C   UNL     1      -4.361  -3.703 -34.577  1.00  0.00     0.002 C 
HETATM   35  C   UNL     1      -5.582  -4.608 -34.705  1.00  0.00     0.002 C 
HETATM   36  C   UNL     1      -6.800  -3.682 -34.753  1.00  0.00     0.025 C 
ENDBRANCH  29  32
ENDBRANCH  12  28
TORSDOF 7
ENDMDL
MODEL 4
REMARK VINA RESULT:      -8.6      2.835      7.365
REMARK  7 active torsions:
REMARK  status: ('A' for Active; 'I' for Inactive)
REMARK    1  A    between atoms: C_2  and  O_3 
REMARK    2  A    between atoms: O_3  and  C_4 
REMARK    3  A    between atoms: C_5  and  N_6 
REMARK       I    between atoms: N_6  and  C_7 
REMARK    4  A    between atoms: C_7  and  C_8 
REMARK    5  A    between atoms: C_8  and  N_9 
REMARK    6  A    between atoms: C_20  and  C_21 
REMARK       I    between atoms: C_21  and  N_22 
REMARK    7  A    between atoms: N_22  and  C_23 
ROOT
HETATM    1  N   UNL     1      -5.679   3.743 -31.300  1.00  0.00    -0.304 N 
HETATM    2  C   UNL     1      -6.905   3.922 -31.950  1.00  0.00     0.259 C 
HETATM    3  O   UNL     1      -7.988   3.664 -31.424  1.00  0.00    -0.270 OA
HETATM    4  C   UNL     1      -6.768   4.384 -33.413  1.00  0.00     0.141 C 
HETATM    5  C   UNL     1      -6.285   3.212 -34.284  1.00  0.00     0.057 C 
HETATM    6  C   UNL     1      -8.132   4.852 -33.934  1.00  0.00     0.057 C 
HETATM    7  O   UNL     1      -5.878   5.488 -33.578  1.00  0.00    -0.329 OA
HETATM    8  C   UNL     1      -4.750   5.433 -32.803  1.00  0.00     0.097 A 
HETATM    9  C   UNL     1      -4.586   4.570 -31.704  1.00  0.00     0.072 A 
HETATM   10  C   UNL     1      -3.759   6.349 -33.163  1.00  0.00     0.040 A 
HETATM   11  C   UNL     1      -2.566   6.407 -32.449  1.00  0.00     0.020 A 
HETATM   12  C   UNL     1      -2.358   5.528 -31.384  1.00  0.00     0.034 A 
HETATM   13  C   UNL     1      -3.368   4.620 -31.013  1.00  0.00     0.049 A 
ENDROOT
BRANCH   1  14
HETATM   14  C   UNL     1      -5.720   3.064 -30.009  1.00  0.00     0.235 C 
BRANCH  14  15
HETATM   15  C   UNL     1      -5.644   1.529 -30.144  1.00  0.00     0.240 C 
HETATM   16  N   UNL     1      -5.273   1.143 -31.420  1.00  0.00    -0.323 N 
HETATM   17  H   UNL     1      -5.436   1.782 -32.193  1.00  0.00     0.169 HD
HETATM   18  O   UNL     1      -5.926   0.760 -29.228  1.00  0.00    -0.271 OA
BRANCH  16  19
HETATM   19  C   UNL     1      -4.706  -0.089 -31.803  1.00  0.00     0.068 A 
HETATM   20  C   UNL     1      -5.439  -0.895 -32.696  1.00  0.00     0.095 A 
HETATM   21  C   UNL     1      -4.866  -2.060 -33.216  1.00  0.00     0.039 A 
HETATM   22  C   UNL     1      -3.582  -2.440 -32.824  1.00  0.00     0.003 A 
HETATM   23  C   UNL     1      -2.869  -1.660 -31.914  1.00  0.00     0.002 A 
HETATM   24  C   UNL     1      -3.429  -0.487 -31.404  1.00  0.00     0.032 A 
BRANCH  20  25
HETATM   25  O   UNL     1      -6.700  -0.450 -33.023  1.00  0.00    -0.349 OA
BRANCH  25  26
HETATM   26  C   UNL     1      -7.317  -1.129 -34.121  1.00  0.00     0.171 C 
HETATM   27  C   UNL     1      -7.455  -0.145 -35.268  1.00  0.00     0.034 C 
ENDBRANCH  25  26
ENDBRANCH  20  25
ENDBRANCH  16  19
ENDBRANCH  14  15
ENDBRANCH   1  14
BRANCH  12  28
HETATM   28  C   UNL     1      -1.109   5.559 -30.574  1.00  0.00     0.252 C 
HETATM   29  N   UNL     1      -1.109   6.389 -29.473  1.00  0.00    -0.352 N 
HETATM   30  H   UNL     1      -1.901   6.988 -29.289  1.00  0.00     0.163 HD
HETATM   31  O   UNL     1      -0.145   4.883 -30.915  1.00  0.00    -0.268 OA
BRANCH  29  32
HETATM   32  C   UNL     1       0.033   6.469 -28.587  1.00  0.00     0.084 C 
HETATM   33  C   UNL     1       0.722   7.828 -28.644  1.00  0.00     0.025 C 
HETATM   34  C   UNL     1       1.559   7.833 -27.375  1.00  0.00     0.002 C 
HETATM   35  C   UNL     1       0.674   7.157 -26.333  1.00  0.00     0.002 C 
HETATM   36  C   UNL     1      -0.347   6.323 -27.111  1.00  0.00     0.025 C 
ENDBRANCH  29  32
ENDBRANCH  12  28
TORSDOF 7
ENDMDL
MODEL 5
REMARK VINA RESULT:      -8.6      1.964      6.768
REMARK  7 active torsions:
REMARK  status: ('A' for Active; 'I' for Inactive)
REMARK    1  A    between atoms: C_2  and  O_3 
REMARK    2  A    between atoms: O_3  and  C_4 
REMARK    3  A    between atoms: C_5  and  N_6 
REMARK       I    between atoms: N_6  and  C_7 
REMARK    4  A    between atoms: C_7  and  C_8 
REMARK    5  A    between atoms: C_8  and  N_9 
REMARK    6  A    between atoms: C_20  and  C_21 
REMARK       I    between atoms: C_21  and  N_22 
REMARK    7  A    between atoms: N_22  and  C_23 
ROOT
HETATM    1  N   UNL     1      -7.513   2.053 -33.907  1.00  0.00    -0.304 N 
HETATM    2  C   UNL     1      -8.899   1.855 -33.890  1.00  0.00     0.259 C 
HETATM    3  O   UNL     1      -9.444   0.881 -34.409  1.00  0.00    -0.270 OA
HETATM    4  C   UNL     1      -9.680   3.013 -33.242  1.00  0.00     0.141 C 
HETATM    5  C   UNL     1      -9.695   4.224 -34.192  1.00  0.00     0.057 C 
HETATM    6  C   UNL     1     -11.127   2.576 -32.984  1.00  0.00     0.057 C 
HETATM    7  O   UNL     1      -9.154   3.416 -31.978  1.00  0.00    -0.329 OA
HETATM    8  C   UNL     1      -7.786   3.433 -31.908  1.00  0.00     0.097 A 
HETATM    9  C   UNL     1      -6.938   2.818 -32.847  1.00  0.00     0.072 A 
HETATM   10  C   UNL     1      -7.275   4.088 -30.785  1.00  0.00     0.040 A 
HETATM   11  C   UNL     1      -5.900   4.167 -30.586  1.00  0.00     0.020 A 
HETATM   12  C   UNL     1      -5.035   3.606 -31.527  1.00  0.00     0.034 A 
HETATM   13  C   UNL     1      -5.555   2.931 -32.647  1.00  0.00     0.049 A 
ENDROOT
BRANCH   1  14
HETATM   14  C   UNL     1      -6.735   1.131 -34.729  1.00  0.00     0.235 C 
BRANCH  14  15
HETATM   15  C   UNL     1      -6.650  -0.282 -34.115  1.00  0.00     0.240 C 
HETATM   16  N   UNL     1      -6.165  -1.208 -35.020  1.00  0.00    -0.323 N 
HETATM   17  H   UNL     1      -6.255  -1.018 -36.014  1.00  0.00     0.169 HD
HETATM   18  O   UNL     1      -7.018  -0.538 -32.970  1.00  0.00    -0.271 OA
BRANCH  16  19
HETATM   19  C   UNL     1      -5.568  -2.451 -34.725  1.00  0.00     0.068 A 
HETATM   20  C   UNL     1      -4.376  -2.441 -33.977  1.00  0.00     0.095 A 
HETATM   21  C   UNL     1      -3.816  -3.645 -33.539  1.00  0.00     0.039 A 
HETATM   22  C   UNL     1      -4.422  -4.858 -33.872  1.00  0.00     0.003 A 
HETATM   23  C   UNL     1      -5.584  -4.869 -34.642  1.00  0.00     0.002 A 
HETATM   24  C   UNL     1      -6.157  -3.669 -35.068  1.00  0.00     0.032 A 
BRANCH  20  25
HETATM   25  O   UNL     1      -3.841  -1.203 -33.699  1.00  0.00    -0.349 OA
BRANCH  25  26
HETATM   26  C   UNL     1      -3.122  -1.115 -32.466  1.00  0.00     0.171 C 
HETATM   27  C   UNL     1      -4.066  -0.576 -31.406  1.00  0.00     0.034 C 
ENDBRANCH  25  26
ENDBRANCH  20  25
ENDBRANCH  16  19
ENDBRANCH  14  15
ENDBRANCH   1  14
BRANCH  12  28
HETATM   28  C   UNL     1      -3.556   3.645 -31.356  1.00  0.00     0.252 C 
HETATM   29  N   UNL     1      -2.995   4.883 -31.124  1.00  0.00    -0.352 N 
HETATM   30  H   UNL     1      -3.572   5.713 -31.146  1.00  0.00     0.163 HD
HETATM   31  O   UNL     1      -2.905   2.611 -31.446  1.00  0.00    -0.268 OA
BRANCH  29  32
HETATM   32  C   UNL     1      -1.574   5.040 -30.900  1.00  0.00     0.084 C 
HETATM   33  C   UNL     1      -0.810   5.348 -32.182  1.00  0.00     0.025 C 
HETATM   34  C   UNL     1       0.511   5.891 -31.664  1.00  0.00     0.002 C 
HETATM   35  C   UNL     1       0.128   6.733 -30.452  1.00  0.00     0.002 C 
HETATM   36  C   UNL     1      -1.242   6.227 -29.992  1.00  0.00     0.025 C 
ENDBRANCH  29  32
ENDBRANCH  12  28
TORSDOF 7
ENDMDL
MODEL 6
REMARK VINA RESULT:      -8.5      2.069      7.238
REMARK  7 active torsions:
REMARK  status: ('A' for Active; 'I' for Inactive)
REMARK    1  A    between atoms: C_2  and  O_3 
REMARK    2  A    between atoms: O_3  and  C_4 
REMARK    3  A    between atoms: C_5  and  N_6 
REMARK       I    between atoms: N_6  and  C_7 
REMARK    4  A    between atoms: C_7  and  C_8 
REMARK    5  A    between atoms: C_8  and  N_9 
REMARK    6  A    between atoms: C_20  and  C_21 
REMARK       I    between atoms: C_21  and  N_22 
REMARK    7  A    between atoms: N_22  and  C_23 
ROOT
HETATM    1  N   UNL     1      -7.747   2.097 -31.349  1.00  0.00    -0.304 N 
HETATM    2  C   UNL     1      -8.218   3.196 -30.622  1.00  0.00     0.259 C 
HETATM    3  O   UNL     1      -9.289   3.190 -30.015  1.00  0.00    -0.270 OA
HETATM    4  C   UNL     1      -7.317   4.440 -30.728  1.00  0.00     0.141 C 
HETATM    5  C   UNL     1      -7.475   5.078 -32.119  1.00  0.00     0.057 C 
HETATM    6  C   UNL     1      -7.732   5.468 -29.669  1.00  0.00     0.057 C 
HETATM    7  O   UNL     1      -5.936   4.162 -30.495  1.00  0.00    -0.329 OA
HETATM    8  C   UNL     1      -5.491   2.986 -31.038  1.00  0.00     0.097 A 
HETATM    9  C   UNL     1      -6.334   1.962 -31.507  1.00  0.00     0.072 A 
HETATM   10  C   UNL     1      -4.101   2.849 -31.056  1.00  0.00     0.040 A 
HETATM   11  C   UNL     1      -3.517   1.696 -31.570  1.00  0.00     0.020 A 
HETATM   12  C   UNL     1      -4.329   0.684 -32.086  1.00  0.00     0.034 A 
HETATM   13  C   UNL     1      -5.730   0.818 -32.048  1.00  0.00     0.049 A 
ENDROOT
BRANCH   1  14
HETATM   14  C   UNL     1      -8.671   0.977 -31.506  1.00  0.00     0.235 C 
BRANCH  14  15
HETATM   15  C   UNL     1      -9.522   1.088 -32.788  1.00  0.00     0.240 C 
HETATM   16  N   UNL     1     -10.434   2.125 -32.712  1.00  0.00    -0.323 N 
HETATM   17  H   UNL     1     -10.726   2.457 -31.797  1.00  0.00     0.169 HD
HETATM   18  O   UNL     1      -9.417   0.308 -33.732  1.00  0.00    -0.271 OA
BRANCH  16  19
HETATM   19  C   UNL     1     -11.062   2.784 -33.788  1.00  0.00     0.068 A 
HETATM   20  C   UNL     1     -12.467   2.722 -33.862  1.00  0.00     0.095 A 
HETATM   21  C   UNL     1     -13.150   3.469 -34.827  1.00  0.00     0.039 A 
HETATM   22  C   UNL     1     -12.436   4.250 -35.737  1.00  0.00     0.003 A 
HETATM   23  C   UNL     1     -11.043   4.285 -35.686  1.00  0.00     0.002 A 
HETATM   24  C   UNL     1     -10.357   3.554 -34.714  1.00  0.00     0.032 A 
BRANCH  20  25
HETATM   25  O   UNL     1     -13.091   1.921 -32.931  1.00  0.00    -0.349 OA
BRANCH  25  26
HETATM   26  C   UNL     1     -13.975   0.936 -33.473  1.00  0.00     0.171 C 
HETATM   27  C   UNL     1     -13.204  -0.364 -33.615  1.00  0.00     0.034 C 
ENDBRANCH  25  26
ENDBRANCH  20  25
ENDBRANCH  16  19
ENDBRANCH  14  15
ENDBRANCH   1  14
BRANCH  12  28
HETATM   28  C   UNL     1      -3.759  -0.579 -32.631  1.00  0.00     0.252 C 
HETATM   29  N   UNL     1      -4.631  -1.406 -33.307  1.00  0.00    -0.352 N 
HETATM   30  H   UNL     1      -5.614  -1.178 -33.353  1.00  0.00     0.163 HD
HETATM   31  O   UNL     1      -2.577  -0.843 -32.447  1.00  0.00    -0.268 OA
BRANCH  29  32
HETATM   32  C   UNL     1      -4.182  -2.640 -33.916  1.00  0.00     0.084 C 
HETATM   33  C   UNL     1      -3.632  -3.631 -32.896  1.00  0.00     0.025 C 
HETATM   34  C   UNL     1      -3.648  -4.943 -33.661  1.00  0.00     0.002 C 
HETATM   35  C   UNL     1      -4.936  -4.895 -34.475  1.00  0.00     0.002 C 
HETATM   36  C   UNL     1      -5.316  -3.417 -34.592  1.00  0.00     0.025 C 
ENDBRANCH  29  32
ENDBRANCH  12  28
TORSDOF 7
ENDMDL
MODEL 7
REMARK VINA RESULT:      -8.5      1.950      5.481
REMARK  7 active torsions:
REMARK  status: ('A' for Active; 'I' for Inactive)
REMARK    1  A    between atoms: C_2  and  O_3 
REMARK    2  A    between atoms: O_3  and  C_4 
REMARK    3  A    between atoms: C_5  and  N_6 
REMARK       I    between atoms: N_6  and  C_7 
REMARK    4  A    between atoms: C_7  and  C_8 
REMARK    5  A    between atoms: C_8  and  N_9 
REMARK    6  A    between atoms: C_20  and  C_21 
REMARK       I    between atoms: C_21  and  N_22 
REMARK    7  A    between atoms: N_22  and  C_23 
ROOT
HETATM    1  N   UNL     1      -5.411   1.102 -31.498  1.00  0.00    -0.304 N 
HETATM    2  C   UNL     1      -4.507   0.061 -31.258  1.00  0.00     0.259 C 
HETATM    3  O   UNL     1      -3.892  -0.062 -30.199  1.00  0.00    -0.270 OA
HETATM    4  C   UNL     1      -4.285  -0.858 -32.473  1.00  0.00     0.141 C 
HETATM    5  C   UNL     1      -3.430  -0.132 -33.525  1.00  0.00     0.057 C 
HETATM    6  C   UNL     1      -3.544  -2.126 -32.031  1.00  0.00     0.057 C 
HETATM    7  O   UNL     1      -5.501  -1.299 -33.080  1.00  0.00    -0.329 OA
HETATM    8  C   UNL     1      -6.480  -0.344 -33.154  1.00  0.00     0.097 A 
HETATM    9  C   UNL     1      -6.464   0.864 -32.433  1.00  0.00     0.072 A 
HETATM   10  C   UNL     1      -7.550  -0.680 -33.988  1.00  0.00     0.040 A 
HETATM   11  C   UNL     1      -8.619   0.196 -34.144  1.00  0.00     0.020 A 
HETATM   12  C   UNL     1      -8.605   1.423 -33.476  1.00  0.00     0.034 A 
HETATM   13  C   UNL     1      -7.535   1.749 -32.623  1.00  0.00     0.049 A 
ENDROOT
BRANCH   1  14
HETATM   14  C   UNL     1      -5.473   2.155 -30.489  1.00  0.00     0.235 C 
BRANCH  14  15
HETATM   15  C   UNL     1      -4.889   3.491 -30.992  1.00  0.00     0.240 C 
HETATM   16  N   UNL     1      -3.709   3.307 -31.690  1.00  0.00    -0.323 N 
HETATM   17  H   UNL     1      -3.162   2.468 -31.518  1.00  0.00     0.169 HD
HETATM   18  O   UNL     1      -5.403   4.581 -30.749  1.00  0.00    -0.271 OA
BRANCH  16  19
HETATM   19  C   UNL     1      -3.129   4.189 -32.625  1.00  0.00     0.068 A 
HETATM   20  C   UNL     1      -1.836   4.674 -32.350  1.00  0.00     0.095 A 
HETATM   21  C   UNL     1      -1.159   5.440 -33.304  1.00  0.00     0.039 A 
HETATM   22  C   UNL     1      -1.779   5.750 -34.515  1.00  0.00     0.003 A 
HETATM   23  C   UNL     1      -3.073   5.299 -34.774  1.00  0.00     0.002 A 
HETATM   24  C   UNL     1      -3.747   4.520 -33.832  1.00  0.00     0.032 A 
BRANCH  20  25
HETATM   25  O   UNL     1      -1.303   4.326 -31.128  1.00  0.00    -0.349 OA
BRANCH  25  26
HETATM   26  C   UNL     1      -0.607   5.376 -30.450  1.00  0.00     0.171 C 
HETATM   27  C   UNL     1       0.749   4.845 -30.023  1.00  0.00     0.034 C 
ENDBRANCH  25  26
ENDBRANCH  20  25
ENDBRANCH  16  19
ENDBRANCH  14  15
ENDBRANCH   1  14
BRANCH  12  28
HETATM   28  C   UNL     1      -9.731   2.391 -33.591  1.00  0.00     0.252 C 
HETATM   29  N   UNL     1     -10.930   2.012 -33.025  1.00  0.00    -0.352 N 
HETATM   30  H   UNL     1     -11.032   1.091 -32.623  1.00  0.00     0.163 HD
HETATM   31  O   UNL     1      -9.566   3.450 -34.186  1.00  0.00    -0.268 OA
BRANCH  29  32
HETATM   32  C   UNL     1     -12.082   2.887 -33.037  1.00  0.00     0.084 C 
HETATM   33  C   UNL     1     -13.399   2.121 -32.998  1.00  0.00     0.025 C 
HETATM   34  C   UNL     1     -14.397   3.188 -32.580  1.00  0.00     0.002 C 
HETATM   35  C   UNL     1     -13.649   4.026 -31.549  1.00  0.00     0.002 C 
HETATM   36  C   UNL     1     -12.158   3.790 -31.802  1.00  0.00     0.025 C 
ENDBRANCH  29  32
ENDBRANCH  12  28
TORSDOF 7
ENDMDL
MODEL 8
REMARK VINA RESULT:      -8.4      2.842      7.232
REMARK  7 active torsions:
REMARK  status: ('A' for Active; 'I' for Inactive)
REMARK    1  A    between atoms: C_2  and  O_3 
REMARK    2  A    between atoms: O_3  and  C_4 
REMARK    3  A    between atoms: C_5  and  N_6 
REMARK       I    between atoms: N_6  and  C_7 
REMARK    4  A    between atoms: C_7  and  C_8 
REMARK    5  A    between atoms: C_8  and  N_9 
REMARK    6  A    between atoms: C_20  and  C_21 
REMARK       I    between atoms: C_21  and  N_22 
REMARK    7  A    between atoms: N_22  and  C_23 
ROOT
HETATM    1  N   UNL     1      -5.715   4.615 -32.320  1.00  0.00    -0.304 N 
HETATM    2  C   UNL     1      -6.221   5.672 -31.555  1.00  0.00     0.259 C 
HETATM    3  O   UNL     1      -6.011   6.855 -31.823  1.00  0.00    -0.270 OA
HETATM    4  C   UNL     1      -6.985   5.215 -30.299  1.00  0.00     0.141 C 
HETATM    5  C   UNL     1      -5.990   4.704 -29.242  1.00  0.00     0.057 C 
HETATM    6  C   UNL     1      -7.759   6.400 -29.709  1.00  0.00     0.057 C 
HETATM    7  O   UNL     1      -7.952   4.198 -30.561  1.00  0.00    -0.329 OA
HETATM    8  C   UNL     1      -7.551   3.248 -31.462  1.00  0.00     0.097 A 
HETATM    9  C   UNL     1      -6.441   3.385 -32.315  1.00  0.00     0.072 A 
HETATM   10  C   UNL     1      -8.368   2.115 -31.507  1.00  0.00     0.040 A 
HETATM   11  C   UNL     1      -8.080   1.077 -32.388  1.00  0.00     0.020 A 
HETATM   12  C   UNL     1      -6.956   1.168 -33.212  1.00  0.00     0.034 A 
HETATM   13  C   UNL     1      -6.147   2.319 -33.177  1.00  0.00     0.049 A 
ENDROOT
BRANCH   1  14
HETATM   14  C   UNL     1      -4.767   4.969 -33.372  1.00  0.00     0.235 C 
BRANCH  14  15
HETATM   15  C   UNL     1      -3.305   4.958 -32.881  1.00  0.00     0.240 C 
HETATM   16  N   UNL     1      -2.863   6.227 -32.551  1.00  0.00    -0.323 N 
HETATM   17  H   UNL     1      -3.324   7.031 -32.967  1.00  0.00     0.169 HD
HETATM   18  O   UNL     1      -2.620   3.938 -32.839  1.00  0.00    -0.271 OA
BRANCH  16  19
HETATM   19  C   UNL     1      -1.786   6.557 -31.703  1.00  0.00     0.068 A 
HETATM   20  C   UNL     1      -2.080   6.837 -30.355  1.00  0.00     0.095 A 
HETATM   21  C   UNL     1      -1.042   7.035 -29.440  1.00  0.00     0.039 A 
HETATM   22  C   UNL     1       0.285   6.987 -29.870  1.00  0.00     0.003 A 
HETATM   23  C   UNL     1       0.576   6.743 -31.212  1.00  0.00     0.002 A 
HETATM   24  C   UNL     1      -0.457   6.527 -32.127  1.00  0.00     0.032 A 
BRANCH  20  25
HETATM   25  O   UNL     1      -3.415   6.874 -30.018  1.00  0.00    -0.349 OA
BRANCH  25  26
HETATM   26  C   UNL     1      -3.877   8.128 -29.507  1.00  0.00     0.171 C 
HETATM   27  C   UNL     1      -4.509   7.882 -28.148  1.00  0.00     0.034 C 
ENDBRANCH  25  26
ENDBRANCH  20  25
ENDBRANCH  16  19
ENDBRANCH  14  15
ENDBRANCH   1  14
BRANCH  12  28
HETATM   28  C   UNL     1      -6.610   0.096 -34.187  1.00  0.00     0.252 C 
HETATM   29  N   UNL     1      -6.019  -1.038 -33.672  1.00  0.00    -0.352 N 
HETATM   30  H   UNL     1      -5.778  -1.083 -32.692  1.00  0.00     0.163 HD
HETATM   31  O   UNL     1      -6.836   0.262 -35.381  1.00  0.00    -0.268 OA
BRANCH  29  32
HETATM   32  C   UNL     1      -5.677  -2.162 -34.516  1.00  0.00     0.084 C 
HETATM   33  C   UNL     1      -4.560  -3.017 -33.928  1.00  0.00     0.025 C 
HETATM   34  C   UNL     1      -4.679  -4.312 -34.713  1.00  0.00     0.002 C 
HETATM   35  C   UNL     1      -6.181  -4.526 -34.870  1.00  0.00     0.002 C 
HETATM   36  C   UNL     1      -6.832  -3.153 -34.685  1.00  0.00     0.025 C 
ENDBRANCH  29  32
ENDBRANCH  12  28
TORSDOF 7
ENDMDL
MODEL 9
REMARK VINA RESULT:      -8.3      2.956      6.850
REMARK  7 active torsions:
REMARK  status: ('A' for Active; 'I' for Inactive)
REMARK    1  A    between atoms: C_2  and  O_3 
REMARK    2  A    between atoms: O_3  and  C_4 
REMARK    3  A    between atoms: C_5  and  N_6 
REMARK       I    between atoms: N_6  and  C_7 
REMARK    4  A    between atoms: C_7  and  C_8 
REMARK    5  A    between atoms: C_8  and  N_9 
REMARK    6  A    between atoms: C_20  and  C_21 
REMARK       I    between atoms: C_21  and  N_22 
REMARK    7  A    between atoms: N_22  and  C_23 
ROOT
HETATM    1  N   UNL     1      -6.577   5.723 -31.378  1.00  0.00    -0.304 N 
HETATM    2  C   UNL     1      -7.270   6.607 -30.544  1.00  0.00     0.259 C 
HETATM    3  O   UNL     1      -7.283   7.825 -30.719  1.00  0.00    -0.270 OA
HETATM    4  C   UNL     1      -7.936   5.922 -29.336  1.00  0.00     0.141 C 
HETATM    5  C   UNL     1      -6.864   5.525 -28.307  1.00  0.00     0.057 C 
HETATM    6  C   UNL     1      -8.917   6.895 -28.670  1.00  0.00     0.057 C 
HETATM    7  O   UNL     1      -8.698   4.767 -29.688  1.00  0.00    -0.329 OA
HETATM    8  C   UNL     1      -8.128   3.978 -30.651  1.00  0.00     0.097 A 
HETATM    9  C   UNL     1      -7.062   4.383 -31.476  1.00  0.00     0.072 A 
HETATM   10  C   UNL     1      -8.720   2.721 -30.792  1.00  0.00     0.040 A 
HETATM   11  C   UNL     1      -8.244   1.825 -31.744  1.00  0.00     0.020 A 
HETATM   12  C   UNL     1      -7.157   2.184 -32.544  1.00  0.00     0.034 A 
HETATM   13  C   UNL     1      -6.576   3.458 -32.411  1.00  0.00     0.049 A 
ENDROOT
BRANCH   1  14
HETATM   14  C   UNL     1      -5.711   6.325 -32.387  1.00  0.00     0.235 C 
BRANCH  14  15
HETATM   15  C   UNL     1      -4.388   6.852 -31.794  1.00  0.00     0.240 C 
HETATM   16  N   UNL     1      -3.616   5.831 -31.270  1.00  0.00    -0.323 N 
HETATM   17  H   UNL     1      -4.070   4.968 -30.986  1.00  0.00     0.169 HD
HETATM   18  O   UNL     1      -4.096   8.046 -31.761  1.00  0.00    -0.271 OA
BRANCH  16  19
HETATM   19  C   UNL     1      -2.225   5.851 -31.039  1.00  0.00     0.068 A 
HETATM   20  C   UNL     1      -1.397   5.222 -31.988  1.00  0.00     0.095 A 
HETATM   21  C   UNL     1      -0.007   5.330 -31.882  1.00  0.00     0.039 A 
HETATM   22  C   UNL     1       0.559   6.032 -30.817  1.00  0.00     0.003 A 
HETATM   23  C   UNL     1      -0.261   6.626 -29.858  1.00  0.00     0.002 A 
HETATM   24  C   UNL     1      -1.650   6.536 -29.968  1.00  0.00     0.032 A 
BRANCH  20  25
HETATM   25  O   UNL     1      -2.037   4.544 -33.001  1.00  0.00    -0.349 OA
BRANCH  25  26
HETATM   26  C   UNL     1      -1.820   5.069 -34.314  1.00  0.00     0.171 C 
HETATM   27  C   UNL     1      -3.174   5.303 -34.960  1.00  0.00     0.034 C 
ENDBRANCH  25  26
ENDBRANCH  20  25
ENDBRANCH  16  19
ENDBRANCH  14  15
ENDBRANCH   1  14
BRANCH  12  28
HETATM   28  C   UNL     1      -6.618   1.272 -33.591  1.00  0.00     0.252 C 
HETATM   29  N   UNL     1      -6.139   0.053 -33.159  1.00  0.00    -0.352 N 
HETATM   30  H   UNL     1      -6.100  -0.155 -32.171  1.00  0.00     0.163 HD
HETATM   31  O   UNL     1      -6.600   1.632 -34.762  1.00  0.00    -0.268 OA
BRANCH  29  32
HETATM   32  C   UNL     1      -5.630  -0.931 -34.089  1.00  0.00     0.084 C 
HETATM   33  C   UNL     1      -4.583  -1.845 -33.460  1.00  0.00     0.025 C 
HETATM   34  C   UNL     1      -4.533  -3.014 -34.428  1.00  0.00     0.002 C 
HETATM   35  C   UNL     1      -5.984  -3.226 -34.846  1.00  0.00     0.002 C 
HETATM   36  C   UNL     1      -6.708  -1.905 -34.574  1.00  0.00     0.025 C 
ENDBRANCH  29  32
ENDBRANCH  12  28
TORSDOF 7
ENDMDL
MODEL 10
REMARK VINA RESULT:      -8.3      1.990      6.589
REMARK  7 active torsions:
REMARK  status: ('A' for Active; 'I' for Inactive)
REMARK    1  A    between atoms: C_2  and  O_3 
REMARK    2  A    between atoms: O_3  and  C_4 
REMARK    3  A    between atoms: C_5  and  N_6 
REMARK       I    between atoms: N_6  and  C_7 
REMARK    4  A    between atoms: C_7  and  C_8 
REMARK    5  A    between atoms: C_8  and  N_9 
REMARK    6  A    between atoms: C_20  and  C_21 
REMARK       I    between atoms: C_21  and  N_22 
REMARK    7  A    between atoms: N_22  and  C_23 
ROOT
HETATM    1  N   UNL     1      -9.731   2.090 -34.139  1.00  0.00    -0.304 N 
HETATM    2  C   UNL     1     -11.041   1.982 -33.659  1.00  0.00     0.259 C 
HETATM    3  O   UNL     1     -11.594   0.901 -33.453  1.00  0.00    -0.270 OA
HETATM    4  C   UNL     1     -11.755   3.337 -33.501  1.00  0.00     0.141 C 
HETATM    5  C   UNL     1     -12.129   3.891 -34.887  1.00  0.00     0.057 C 
HETATM    6  C   UNL     1     -13.041   3.149 -32.687  1.00  0.00     0.057 C 
HETATM    7  O   UNL     1     -10.978   4.309 -32.802  1.00  0.00    -0.329 OA
HETATM    8  C   UNL     1      -9.645   4.307 -33.114  1.00  0.00     0.097 A 
HETATM    9  C   UNL     1      -8.995   3.266 -33.802  1.00  0.00     0.072 A 
HETATM   10  C   UNL     1      -8.943   5.424 -32.653  1.00  0.00     0.040 A 
HETATM   11  C   UNL     1      -7.578   5.542 -32.893  1.00  0.00     0.020 A 
HETATM   12  C   UNL     1      -6.918   4.545 -33.615  1.00  0.00     0.034 A 
HETATM   13  C   UNL     1      -7.625   3.413 -34.061  1.00  0.00     0.049 A 
ENDROOT
BRANCH   1  14
HETATM   14  C   UNL     1      -9.088   0.847 -34.558  1.00  0.00     0.235 C 
BRANCH  14  15
HETATM   15  C   UNL     1      -8.100   0.308 -33.503  1.00  0.00     0.240 C 
HETATM   16  N   UNL     1      -6.895  -0.067 -34.071  1.00  0.00    -0.323 N 
HETATM   17  H   UNL     1      -6.870  -0.305 -35.058  1.00  0.00     0.169 HD
HETATM   18  O   UNL     1      -8.387   0.190 -32.314  1.00  0.00    -0.271 OA
BRANCH  16  19
HETATM   19  C   UNL     1      -5.653  -0.197 -33.416  1.00  0.00     0.068 A 
HETATM   20  C   UNL     1      -5.075  -1.480 -33.364  1.00  0.00     0.095 A 
HETATM   21  C   UNL     1      -3.785  -1.644 -32.850  1.00  0.00     0.039 A 
HETATM   22  C   UNL     1      -3.084  -0.540 -32.361  1.00  0.00     0.003 A 
HETATM   23  C   UNL     1      -3.670   0.725 -32.381  1.00  0.00     0.002 A 
HETATM   24  C   UNL     1      -4.952   0.897 -32.908  1.00  0.00     0.032 A 
BRANCH  20  25
HETATM   25  O   UNL     1      -5.838  -2.513 -33.861  1.00  0.00    -0.349 OA
BRANCH  25  26
HETATM   26  C   UNL     1      -5.200  -3.312 -34.860  1.00  0.00     0.171 C 
HETATM   27  C   UNL     1      -6.186  -4.371 -35.320  1.00  0.00     0.034 C 
ENDBRANCH  25  26
ENDBRANCH  20  25
ENDBRANCH  16  19
ENDBRANCH  14  15
ENDBRANCH   1  14
BRANCH  12  28
HETATM   28  C   UNL     1      -5.454   4.609 -33.884  1.00  0.00     0.252 C 
HETATM   29  N   UNL     1      -4.627   4.649 -32.782  1.00  0.00    -0.352 N 
HETATM   30  H   UNL     1      -5.021   4.702 -31.853  1.00  0.00     0.163 HD
HETATM   31  O   UNL     1      -5.048   4.647 -35.040  1.00  0.00    -0.268 OA
BRANCH  29  32
HETATM   32  C   UNL     1      -3.186   4.670 -32.919  1.00  0.00     0.084 C 
HETATM   33  C   UNL     1      -2.641   6.076 -33.142  1.00  0.00     0.025 C 
HETATM   34  C   UNL     1      -1.165   5.919 -32.818  1.00  0.00     0.002 C 
HETATM   35  C   UNL     1      -1.135   4.968 -31.626  1.00  0.00     0.002 C 
HETATM   36  C   UNL     1      -2.461   4.202 -31.654  1.00  0.00     0.025 C 
ENDBRANCH  29  32
ENDBRANCH  12  28
TORSDOF 7
ENDMDL
