MODEL 1
REMARK VINA RESULT:     -10.2      0.000      0.000
REMARK  8 active torsions:
REMARK  status: ('A' for Active; 'I' for Inactive)
REMARK    1  A    between atoms: N_9  and  N_10 
REMARK    2  A    between atoms: C_11  and  C_12 
REMARK    3  A    between atoms: C_14  and  O_15 
REMARK    4  A    between atoms: C_19  and  N_20 
REMARK    5  A    between atoms: C_21  and  C_22 
REMARK       I    between atoms: C_22  and  N_23 
REMARK    6  A    between atoms: N_23  and  C_24 
REMARK    7  A    between atoms: C_24  and  C_25 
REMARK    8  A    between atoms: C_25  and  C_26 
ROOT
HETATM    1  C   UNL     1      -4.400  -3.378 -34.837  1.00  0.00     0.002 A 
HETATM    2  C   UNL     1      -4.200  -2.271 -34.010  1.00  0.00     0.034 A 
HETATM    3  C   UNL     1      -5.266  -1.536 -33.505  1.00  0.00     0.086 A 
HETATM    4  C   UNL     1      -6.587  -1.929 -33.849  1.00  0.00     0.088 A 
HETATM    5  N   UNL     1      -7.675  -1.288 -33.405  1.00  0.00    -0.225 NA
HETATM    6  C   UNL     1      -7.382  -0.249 -32.587  1.00  0.00     0.183 A 
HETATM    7  C   UNL     1      -6.105   0.152 -32.228  1.00  0.00     0.125 A 
HETATM    8  N   UNL     1      -5.000  -0.485 -32.706  1.00  0.00    -0.242 NA
HETATM    9  N   UNL     1      -8.282   0.597 -31.971  1.00  0.00    -0.197 N 
HETATM   10  C   UNL     1      -7.570   1.513 -31.197  1.00  0.00     0.143 A 
HETATM   11  C   UNL     1      -6.210   1.284 -31.378  1.00  0.00     0.110 A 
HETATM   12  C   UNL     1      -6.772  -3.029 -34.676  1.00  0.00     0.034 A 
HETATM   13  C   UNL     1      -5.692  -3.758 -35.173  1.00  0.00     0.002 A 
ENDROOT
BRANCH  11  14
HETATM   14  C   UNL     1      -5.149   2.138 -30.864  1.00  0.00     0.257 C 
HETATM   15  N   UNL     1      -3.898   1.881 -31.382  1.00  0.00    -0.356 N 
HETATM   16  H   UNL     1      -3.804   1.109 -32.039  1.00  0.00     0.162 HD
HETATM   17  O   UNL     1      -5.368   3.086 -30.113  1.00  0.00    -0.267 OA
BRANCH  15  18
HETATM   18  C   UNL     1      -2.864   2.894 -31.341  1.00  0.00     0.127 C 
BRANCH  18  19
HETATM   19  C   UNL     1      -2.731   3.685 -32.650  1.00  0.00     0.053 C 
BRANCH  19  20
HETATM   20  C   UNL     1      -2.044   5.045 -32.617  1.00  0.00    -0.082 C 
HETATM   21  C   UNL     1      -2.695   6.086 -33.508  1.00  0.00     0.034 C 
HETATM   22  C   UNL     1      -1.840   7.337 -33.729  1.00  0.00     0.005 C 
HETATM   23  C   UNL     1      -1.224   7.814 -32.421  1.00  0.00     0.004 C 
HETATM   24  C   UNL     1      -0.344   6.724 -31.812  1.00  0.00     0.027 C 
HETATM   25  C   UNL     1      -0.956   5.354 -31.884  1.00  0.00    -0.024 C 
ENDBRANCH  19  20
ENDBRANCH  18  19
ENDBRANCH  15  18
ENDBRANCH  11  14
BRANCH  10  26
HETATM   26  N   UNL     1      -8.188   2.497 -30.485  1.00  0.00    -0.383 N 
HETATM   27  H   UNL     1      -7.837   3.451 -30.549  1.00  0.00     0.157 HD
HETATM   28  H   UNL     1      -8.498   2.261 -29.536  1.00  0.00     0.157 HD
ENDBRANCH  10  26
BRANCH   9  29
HETATM   29  N   UNL     1      -9.623   0.619 -32.249  1.00  0.00    -0.176 NA
HETATM   30  C   UNL     1      -9.946   1.242 -33.335  1.00  0.00     0.150 C 
BRANCH  30  31
HETATM   31  C   UNL     1     -11.354   1.280 -33.781  1.00  0.00    -0.014 A 
HETATM   32  C   UNL     1     -12.210   0.209 -33.494  1.00  0.00     0.049 A 
HETATM   33  C   UNL     1     -13.527   0.257 -33.936  1.00  0.00     0.066 A 
HETATM   34  C   UNL     1     -13.999   1.353 -34.648  1.00  0.00     0.036 A 
HETATM   35  C   UNL     1     -13.143   2.421 -34.930  1.00  0.00     0.004 A 
HETATM   36  C   UNL     1     -11.815   2.385 -34.500  1.00  0.00     0.013 A 
BRANCH  33  37
HETATM   37  O   UNL     1     -14.394  -0.765 -33.688  1.00  0.00    -0.361 OA
HETATM   38  H   UNL     1     -14.357  -1.390 -34.433  1.00  0.00     0.217 HD
ENDBRANCH  33  37
ENDBRANCH  30  31
ENDBRANCH   9  29
TORSDOF 8
ENDMDL
MODEL 2
REMARK VINA RESULT:      -9.9      2.286      8.071
REMARK  8 active torsions:
REMARK  status: ('A' for Active; 'I' for Inactive)
REMARK    1  A    between atoms: N_9  and  N_10 
REMARK    2  A    between atoms: C_11  and  C_12 
REMARK    3  A    between atoms: C_14  and  O_15 
REMARK    4  A    between atoms: C_19  and  N_20 
REMARK    5  A    between atoms: C_21  and  C_22 
REMARK       I    between atoms: C_22  and  N_23 
REMARK    6  A    between atoms: N_23  and  C_24 
REMARK    7  A    between atoms: C_24  and  C_25 
REMARK    8  A    between atoms: C_25  and  C_26 
ROOT
HETATM    1  C   UNL     1      -3.132   5.986 -32.889  1.00  0.00     0.002 A 
HETATM    2  C   UNL     1      -4.478   5.832 -32.552  1.00  0.00     0.034 A 
HETATM    3  C   UNL     1      -5.050   4.576 -32.391  1.00  0.00     0.086 A 
HETATM    4  C   UNL     1      -4.235   3.428 -32.579  1.00  0.00     0.088 A 
HETATM    5  N   UNL     1      -4.695   2.178 -32.438  1.00  0.00    -0.225 NA
HETATM    6  C   UNL     1      -6.000   2.130 -32.082  1.00  0.00     0.183 A 
HETATM    7  C   UNL     1      -6.818   3.233 -31.884  1.00  0.00     0.125 A 
HETATM    8  N   UNL     1      -6.353   4.501 -32.058  1.00  0.00    -0.242 NA
HETATM    9  N   UNL     1      -6.756   0.996 -31.859  1.00  0.00    -0.197 N 
HETATM   10  C   UNL     1      -8.042   1.388 -31.488  1.00  0.00     0.143 A 
HETATM   11  C   UNL     1      -8.117   2.775 -31.542  1.00  0.00     0.110 A 
HETATM   12  C   UNL     1      -2.898   3.594 -32.918  1.00  0.00     0.034 A 
HETATM   13  C   UNL     1      -2.339   4.862 -33.074  1.00  0.00     0.002 A 
ENDROOT
BRANCH  11  14
HETATM   14  C   UNL     1      -9.341   3.547 -31.380  1.00  0.00     0.257 C 
HETATM   15  N   UNL     1      -9.611   4.424 -32.409  1.00  0.00    -0.356 N 
HETATM   16  H   UNL     1      -8.933   4.494 -33.166  1.00  0.00     0.162 HD
HETATM   17  O   UNL     1     -10.129   3.352 -30.457  1.00  0.00    -0.267 OA
BRANCH  15  18
HETATM   18  C   UNL     1     -10.960   4.901 -32.632  1.00  0.00     0.127 C 
BRANCH  18  19
HETATM   19  C   UNL     1     -11.646   4.251 -33.841  1.00  0.00     0.053 C 
BRANCH  19  20
HETATM   20  C   UNL     1     -12.222   2.848 -33.689  1.00  0.00    -0.082 C 
HETATM   21  C   UNL     1     -13.732   2.815 -33.547  1.00  0.00     0.034 C 
HETATM   22  C   UNL     1     -14.283   1.465 -33.078  1.00  0.00     0.005 C 
HETATM   23  C   UNL     1     -13.618   0.317 -33.824  1.00  0.00     0.004 C 
HETATM   24  C   UNL     1     -12.108   0.331 -33.601  1.00  0.00     0.027 C 
HETATM   25  C   UNL     1     -11.507   1.706 -33.675  1.00  0.00    -0.024 C 
ENDBRANCH  19  20
ENDBRANCH  18  19
ENDBRANCH  15  18
ENDBRANCH  11  14
BRANCH  10  26
HETATM   26  N   UNL     1      -9.027   0.483 -31.225  1.00  0.00    -0.383 N 
HETATM   27  H   UNL     1      -8.781  -0.409 -30.799  1.00  0.00     0.157 HD
HETATM   28  H   UNL     1      -9.770   0.386 -31.926  1.00  0.00     0.157 HD
ENDBRANCH  10  26
BRANCH   9  29
HETATM   29  N   UNL     1      -6.330  -0.273 -32.147  1.00  0.00    -0.176 NA
HETATM   30  C   UNL     1      -6.419  -0.609 -33.392  1.00  0.00     0.150 C 
BRANCH  30  31
HETATM   31  C   UNL     1      -5.932  -1.929 -33.843  1.00  0.00    -0.014 A 
HETATM   32  C   UNL     1      -6.804  -2.819 -34.482  1.00  0.00     0.049 A 
HETATM   33  C   UNL     1      -6.330  -4.061 -34.885  1.00  0.00     0.066 A 
HETATM   34  C   UNL     1      -5.005  -4.423 -34.668  1.00  0.00     0.036 A 
HETATM   35  C   UNL     1      -4.136  -3.531 -34.034  1.00  0.00     0.004 A 
HETATM   36  C   UNL     1      -4.599  -2.281 -33.615  1.00  0.00     0.013 A 
BRANCH  33  37
HETATM   37  O   UNL     1      -7.144  -4.964 -35.502  1.00  0.00    -0.361 OA
HETATM   38  H   UNL     1      -6.590  -5.648 -35.916  1.00  0.00     0.217 HD
ENDBRANCH  33  37
ENDBRANCH  30  31
ENDBRANCH   9  29
TORSDOF 8
ENDMDL
MODEL 3
REMARK VINA RESULT:      -9.8      3.767      6.670
REMARK  8 active torsions:
REMARK  status: ('A' for Active; 'I' for Inactive)
REMARK    1  A    between atoms: N_9  and  N_10 
REMARK    2  A    between atoms: C_11  and  C_12 
REMARK    3  A    between atoms: C_14  and  O_15 
REMARK    4  A    between atoms: C_19  and  N_20 
REMARK    5  A    between atoms: C_21  and  C_22 
REMARK       I    between atoms: C_22  and  N_23 
REMARK    6  A    between atoms: N_23  and  C_24 
REMARK    7  A    between atoms: C_24  and  C_25 
REMARK    8  A    between atoms: C_25  and  C_26 
ROOT
HETATM    1  C   UNL     1      -1.266   6.942 -33.454  1.00  0.00     0.002 A 
HETATM    2  C   UNL     1      -2.101   6.828 -32.341  1.00  0.00     0.034 A 
HETATM    3  C   UNL     1      -2.947   5.739 -32.173  1.00  0.00     0.086 A 
HETATM    4  C   UNL     1      -2.955   4.724 -33.167  1.00  0.00     0.088 A 
HETATM    5  N   UNL     1      -3.730   3.635 -33.088  1.00  0.00    -0.225 NA
HETATM    6  C   UNL     1      -4.480   3.597 -31.962  1.00  0.00     0.183 A 
HETATM    7  C   UNL     1      -4.487   4.568 -30.972  1.00  0.00     0.125 A 
HETATM    8  N   UNL     1      -3.720   5.689 -31.071  1.00  0.00    -0.242 NA
HETATM    9  N   UNL     1      -5.370   2.608 -31.593  1.00  0.00    -0.197 N 
HETATM   10  C   UNL     1      -5.914   2.943 -30.353  1.00  0.00     0.143 A 
HETATM   11  C   UNL     1      -5.414   4.182 -29.968  1.00  0.00     0.110 A 
HETATM   12  C   UNL     1      -2.123   4.851 -34.272  1.00  0.00     0.034 A 
HETATM   13  C   UNL     1      -1.278   5.950 -34.424  1.00  0.00     0.002 A 
ENDROOT
BRANCH  11  14
HETATM   14  C   UNL     1      -5.870   4.938 -28.811  1.00  0.00     0.257 C 
HETATM   15  N   UNL     1      -4.867   5.365 -27.967  1.00  0.00    -0.356 N 
HETATM   16  H   UNL     1      -3.910   5.094 -28.189  1.00  0.00     0.162 HD
HETATM   17  O   UNL     1      -7.045   5.267 -28.656  1.00  0.00    -0.267 OA
BRANCH  15  18
HETATM   18  C   UNL     1      -5.087   6.478 -27.069  1.00  0.00     0.127 C 
BRANCH  18  19
HETATM   19  C   UNL     1      -4.041   7.593 -27.208  1.00  0.00     0.053 C 
BRANCH  19  20
HETATM   20  C   UNL     1      -2.573   7.206 -27.337  1.00  0.00    -0.082 C 
HETATM   21  C   UNL     1      -1.972   7.512 -28.696  1.00  0.00     0.034 C 
HETATM   22  C   UNL     1      -0.616   6.845 -28.941  1.00  0.00     0.005 C 
HETATM   23  C   UNL     1       0.287   6.985 -27.723  1.00  0.00     0.004 C 
HETATM   24  C   UNL     1      -0.358   6.341 -26.498  1.00  0.00     0.027 C 
HETATM   25  C   UNL     1      -1.824   6.641 -26.369  1.00  0.00    -0.024 C 
ENDBRANCH  19  20
ENDBRANCH  18  19
ENDBRANCH  15  18
ENDBRANCH  11  14
BRANCH  10  26
HETATM   26  N   UNL     1      -6.849   2.165 -29.738  1.00  0.00    -0.383 N 
HETATM   27  H   UNL     1      -7.780   2.094 -30.145  1.00  0.00     0.157 HD
HETATM   28  H   UNL     1      -6.875   2.190 -28.713  1.00  0.00     0.157 HD
ENDBRANCH  10  26
BRANCH   9  29
HETATM   29  N   UNL     1      -5.763   1.589 -32.419  1.00  0.00    -0.176 NA
HETATM   30  C   UNL     1      -4.992   0.552 -32.412  1.00  0.00     0.150 C 
BRANCH  30  31
HETATM   31  C   UNL     1      -5.342  -0.641 -33.210  1.00  0.00    -0.014 A 
HETATM   32  C   UNL     1      -4.429  -1.697 -33.330  1.00  0.00     0.049 A 
HETATM   33  C   UNL     1      -4.771  -2.804 -34.097  1.00  0.00     0.066 A 
HETATM   34  C   UNL     1      -6.004  -2.875 -34.736  1.00  0.00     0.036 A 
HETATM   35  C   UNL     1      -6.913  -1.821 -34.610  1.00  0.00     0.004 A 
HETATM   36  C   UNL     1      -6.582  -0.698 -33.849  1.00  0.00     0.013 A 
BRANCH  33  37
HETATM   37  O   UNL     1      -3.912  -3.851 -34.252  1.00  0.00    -0.361 OA
HETATM   38  H   UNL     1      -3.881  -4.352 -33.418  1.00  0.00     0.217 HD
ENDBRANCH  33  37
ENDBRANCH  30  31
ENDBRANCH   9  29
TORSDOF 8
ENDMDL
MODEL 4
REMARK VINA RESULT:      -9.7      1.466      1.904
REMARK  8 active torsions:
REMARK  status: ('A' for Active; 'I' for Inactive)
REMARK    1  A    between atoms: N_9  and  N_10 
REMARK    2  A    between atoms: C_11  and  C_12 
REMARK    3  A    between atoms: C_14  and  O_15 
REMARK    4  A    between atoms: C_19  and  N_20 
REMARK    5  A    between atoms: C_21  and  C_22 
REMARK       I    between atoms: C_22  and  N_23 
REMARK    6  A    between atoms: N_23  and  C_24 
REMARK    7  A    between atoms: C_24  and  C_25 
REMARK    8  A    between atoms: C_25  and  C_26 
ROOT
HETATM    1  C   UNL     1      -4.465  -4.209 -34.418  1.00  0.00     0.002 A 
HETATM    2  C   UNL     1      -4.134  -2.968 -33.869  1.00  0.00     0.034 A 
HETATM    3  C   UNL     1      -5.068  -1.944 -33.767  1.00  0.00     0.086 A 
HETATM    4  C   UNL     1      -6.387  -2.177 -34.239  1.00  0.00     0.088 A 
HETATM    5  N   UNL     1      -7.356  -1.255 -34.175  1.00  0.00    -0.225 NA
HETATM    6  C   UNL     1      -6.950  -0.097 -33.601  1.00  0.00     0.183 A 
HETATM    7  C   UNL     1      -5.673   0.155 -33.125  1.00  0.00     0.125 A 
HETATM    8  N   UNL     1      -4.683  -0.775 -33.219  1.00  0.00    -0.242 NA
HETATM    9  N   UNL     1      -7.713   1.033 -33.390  1.00  0.00    -0.197 N 
HETATM   10  C   UNL     1      -6.923   1.987 -32.750  1.00  0.00     0.143 A 
HETATM   11  C   UNL     1      -5.635   1.480 -32.617  1.00  0.00     0.110 A 
HETATM   12  C   UNL     1      -6.702  -3.414 -34.786  1.00  0.00     0.034 A 
HETATM   13  C   UNL     1      -5.754  -4.432 -34.880  1.00  0.00     0.002 A 
ENDROOT
BRANCH  11  14
HETATM   14  C   UNL     1      -4.487   2.242 -32.145  1.00  0.00     0.257 C 
HETATM   15  N   UNL     1      -4.274   3.433 -32.805  1.00  0.00    -0.356 N 
HETATM   16  H   UNL     1      -4.894   3.668 -33.578  1.00  0.00     0.162 HD
HETATM   17  O   UNL     1      -3.828   1.906 -31.163  1.00  0.00    -0.267 OA
BRANCH  15  18
HETATM   18  C   UNL     1      -3.503   4.489 -32.182  1.00  0.00     0.127 C 
BRANCH  18  19
HETATM   19  C   UNL     1      -2.015   4.463 -32.559  1.00  0.00     0.053 C 
BRANCH  19  20
HETATM   20  C   UNL     1      -1.017   5.168 -31.648  1.00  0.00    -0.082 C 
HETATM   21  C   UNL     1      -0.622   6.554 -32.123  1.00  0.00     0.034 C 
HETATM   22  C   UNL     1       0.601   7.131 -31.405  1.00  0.00     0.005 C 
HETATM   23  C   UNL     1       0.512   6.898 -29.903  1.00  0.00     0.004 C 
HETATM   24  C   UNL     1       0.425   5.405 -29.594  1.00  0.00     0.027 C 
HETATM   25  C   UNL     1      -0.498   4.658 -30.514  1.00  0.00    -0.024 C 
ENDBRANCH  19  20
ENDBRANCH  18  19
ENDBRANCH  15  18
ENDBRANCH  11  14
BRANCH  10  26
HETATM   26  N   UNL     1      -7.396   3.225 -32.431  1.00  0.00    -0.383 N 
HETATM   27  H   UNL     1      -8.280   3.304 -31.930  1.00  0.00     0.157 HD
HETATM   28  H   UNL     1      -7.282   3.963 -33.135  1.00  0.00     0.157 HD
ENDBRANCH  10  26
BRANCH   9  29
HETATM   29  N   UNL     1      -8.969   1.214 -33.906  1.00  0.00    -0.176 NA
HETATM   30  C   UNL     1      -9.933   0.795 -33.154  1.00  0.00     0.150 C 
BRANCH  30  31
HETATM   31  C   UNL     1     -11.338   0.991 -33.567  1.00  0.00    -0.014 A 
HETATM   32  C   UNL     1     -11.775   2.251 -33.995  1.00  0.00     0.049 A 
HETATM   33  C   UNL     1     -13.104   2.419 -34.364  1.00  0.00     0.066 A 
HETATM   34  C   UNL     1     -13.995   1.353 -34.321  1.00  0.00     0.036 A 
HETATM   35  C   UNL     1     -13.555   0.096 -33.897  1.00  0.00     0.004 A 
HETATM   36  C   UNL     1     -12.225  -0.088 -33.514  1.00  0.00     0.013 A 
BRANCH  33  37
HETATM   37  O   UNL     1     -13.577   3.628 -34.778  1.00  0.00    -0.361 OA
HETATM   38  H   UNL     1     -13.421   4.280 -34.072  1.00  0.00     0.217 HD
ENDBRANCH  33  37
ENDBRANCH  30  31
ENDBRANCH   9  29
TORSDOF 8
ENDMDL
MODEL 5
REMARK VINA RESULT:      -9.6      2.305      8.861
REMARK  8 active torsions:
REMARK  status: ('A' for Active; 'I' for Inactive)
REMARK    1  A    between atoms: N_9  and  N_10 
REMARK    2  A    between atoms: C_11  and  C_12 
REMARK    3  A    between atoms: C_14  and  O_15 
REMARK    4  A    between atoms: C_19  and  N_20 
REMARK    5  A    between atoms: C_21  and  C_22 
REMARK       I    between atoms: C_22  and  N_23 
REMARK    6  A    between atoms: N_23  and  C_24 
REMARK    7  A    between atoms: C_24  and  C_25 
REMARK    8  A    between atoms: C_25  and  C_26 
ROOT
HETATM    1  C   UNL     1      -5.806  -3.505 -34.621  1.00  0.00     0.002 A 
HETATM    2  C   UNL     1      -6.865  -2.633 -34.361  1.00  0.00     0.034 A 
HETATM    3  C   UNL     1      -6.646  -1.323 -33.953  1.00  0.00     0.086 A 
HETATM    4  C   UNL     1      -5.307  -0.873 -33.799  1.00  0.00     0.088 A 
HETATM    5  N   UNL     1      -4.999   0.373 -33.419  1.00  0.00    -0.225 NA
HETATM    6  C   UNL     1      -6.087   1.153 -33.219  1.00  0.00     0.183 A 
HETATM    7  C   UNL     1      -7.404   0.744 -33.371  1.00  0.00     0.125 A 
HETATM    8  N   UNL     1      -7.714  -0.533 -33.728  1.00  0.00    -0.242 NA
HETATM    9  N   UNL     1      -6.096   2.477 -32.829  1.00  0.00    -0.197 N 
HETATM   10  C   UNL     1      -7.420   2.911 -32.766  1.00  0.00     0.143 A 
HETATM   11  C   UNL     1      -8.254   1.835 -33.054  1.00  0.00     0.110 A 
HETATM   12  C   UNL     1      -4.263  -1.752 -34.057  1.00  0.00     0.034 A 
HETATM   13  C   UNL     1      -4.500  -3.063 -34.467  1.00  0.00     0.002 A 
ENDROOT
BRANCH  11  14
HETATM   14  C   UNL     1      -9.705   1.853 -32.929  1.00  0.00     0.257 C 
HETATM   15  N   UNL     1     -10.371   1.049 -33.829  1.00  0.00    -0.356 N 
HETATM   16  H   UNL     1      -9.818   0.545 -34.519  1.00  0.00     0.162 HD
HETATM   17  O   UNL     1     -10.284   2.449 -32.024  1.00  0.00    -0.267 OA
BRANCH  15  18
HETATM   18  C   UNL     1     -11.720   0.601 -33.553  1.00  0.00     0.127 C 
BRANCH  18  19
HETATM   19  C   UNL     1     -12.800   1.469 -34.214  1.00  0.00     0.053 C 
BRANCH  19  20
HETATM   20  C   UNL     1     -13.863   2.112 -33.331  1.00  0.00    -0.082 C 
HETATM   21  C   UNL     1     -13.430   3.423 -32.701  1.00  0.00     0.034 C 
HETATM   22  C   UNL     1     -14.351   3.907 -31.577  1.00  0.00     0.005 C 
HETATM   23  C   UNL     1     -15.814   3.763 -31.972  1.00  0.00     0.004 C 
HETATM   24  C   UNL     1     -16.147   2.305 -32.281  1.00  0.00     0.027 C 
HETATM   25  C   UNL     1     -15.091   1.611 -33.094  1.00  0.00    -0.024 C 
ENDBRANCH  19  20
ENDBRANCH  18  19
ENDBRANCH  15  18
ENDBRANCH  11  14
BRANCH  10  26
HETATM   26  N   UNL     1      -7.751   4.176 -32.383  1.00  0.00    -0.383 N 
HETATM   27  H   UNL     1      -7.975   4.356 -31.405  1.00  0.00     0.157 HD
HETATM   28  H   UNL     1      -8.346   4.716 -33.022  1.00  0.00     0.157 HD
ENDBRANCH  10  26
BRANCH   9  29
HETATM   29  N   UNL     1      -4.985   3.155 -32.404  1.00  0.00    -0.176 NA
HETATM   30  C   UNL     1      -4.400   3.867 -33.309  1.00  0.00     0.150 C 
BRANCH  30  31
HETATM   31  C   UNL     1      -3.228   4.698 -32.962  1.00  0.00    -0.014 A 
HETATM   32  C   UNL     1      -2.977   5.885 -33.661  1.00  0.00     0.049 A 
HETATM   33  C   UNL     1      -1.862   6.644 -33.329  1.00  0.00     0.066 A 
HETATM   34  C   UNL     1      -1.004   6.242 -32.312  1.00  0.00     0.036 A 
HETATM   35  C   UNL     1      -1.259   5.059 -31.614  1.00  0.00     0.004 A 
HETATM   36  C   UNL     1      -2.371   4.280 -31.941  1.00  0.00     0.013 A 
BRANCH  33  37
HETATM   37  O   UNL     1      -1.572   7.802 -33.988  1.00  0.00    -0.361 OA
HETATM   38  H   UNL     1      -1.850   7.709 -34.915  1.00  0.00     0.217 HD
ENDBRANCH  33  37
ENDBRANCH  30  31
ENDBRANCH   9  29
TORSDOF 8
ENDMDL
MODEL 6
REMARK VINA RESULT:      -9.5      2.163      2.944
REMARK  8 active torsions:
REMARK  status: ('A' for Active; 'I' for Inactive)
REMARK    1  A    between atoms: N_9  and  N_10 
REMARK    2  A    between atoms: C_11  and  C_12 
REMARK    3  A    between atoms: C_14  and  O_15 
REMARK    4  A    between atoms: C_19  and  N_20 
REMARK    5  A    between atoms: C_21  and  C_22 
REMARK       I    between atoms: C_22  and  N_23 
REMARK    6  A    between atoms: N_23  and  C_24 
REMARK    7  A    between atoms: C_24  and  C_25 
REMARK    8  A    between atoms: C_25  and  C_26 
ROOT
HETATM    1  C   UNL     1      -2.991  -1.156 -32.037  1.00  0.00     0.002 A 
HETATM    2  C   UNL     1      -3.019   0.235 -32.148  1.00  0.00     0.034 A 
HETATM    3  C   UNL     1      -4.165   0.912 -32.548  1.00  0.00     0.086 A 
HETATM    4  C   UNL     1      -5.330   0.156 -32.850  1.00  0.00     0.088 A 
HETATM    5  N   UNL     1      -6.481   0.720 -33.236  1.00  0.00    -0.225 NA
HETATM    6  C   UNL     1      -6.421   2.072 -33.285  1.00  0.00     0.183 A 
HETATM    7  C   UNL     1      -5.302   2.835 -32.987  1.00  0.00     0.125 A 
HETATM    8  N   UNL     1      -4.124   2.256 -32.625  1.00  0.00    -0.242 NA
HETATM    9  N   UNL     1      -7.440   2.933 -33.640  1.00  0.00    -0.197 N 
HETATM   10  C   UNL     1      -6.970   4.241 -33.534  1.00  0.00     0.143 A 
HETATM   11  C   UNL     1      -5.627   4.203 -33.174  1.00  0.00     0.110 A 
HETATM   12  C   UNL     1      -5.287  -1.227 -32.740  1.00  0.00     0.034 A 
HETATM   13  C   UNL     1      -4.129  -1.891 -32.336  1.00  0.00     0.002 A 
ENDROOT
BRANCH  11  14
HETATM   14  C   UNL     1      -4.748   5.363 -33.124  1.00  0.00     0.257 C 
HETATM   15  N   UNL     1      -3.512   5.177 -33.704  1.00  0.00    -0.356 N 
HETATM   16  H   UNL     1      -3.296   4.255 -34.080  1.00  0.00     0.162 HD
HETATM   17  O   UNL     1      -5.118   6.456 -32.700  1.00  0.00    -0.267 OA
BRANCH  15  18
HETATM   18  C   UNL     1      -2.729   6.312 -34.144  1.00  0.00     0.127 C 
BRANCH  18  19
HETATM   19  C   UNL     1      -1.257   6.243 -33.715  1.00  0.00     0.053 C 
BRANCH  19  20
HETATM   20  C   UNL     1      -0.913   6.443 -32.244  1.00  0.00    -0.082 C 
HETATM   21  C   UNL     1      -0.076   5.325 -31.650  1.00  0.00     0.034 C 
HETATM   22  C   UNL     1       0.001   5.351 -30.121  1.00  0.00     0.005 C 
HETATM   23  C   UNL     1       0.248   6.765 -29.613  1.00  0.00     0.004 C 
HETATM   24  C   UNL     1      -0.872   7.701 -30.060  1.00  0.00     0.027 C 
HETATM   25  C   UNL     1      -1.289   7.492 -31.488  1.00  0.00    -0.024 C 
ENDBRANCH  19  20
ENDBRANCH  18  19
ENDBRANCH  15  18
ENDBRANCH  11  14
BRANCH  10  26
HETATM   26  N   UNL     1      -7.746   5.318 -33.846  1.00  0.00    -0.383 N 
HETATM   27  H   UNL     1      -7.921   5.537 -34.825  1.00  0.00     0.157 HD
HETATM   28  H   UNL     1      -7.622   6.162 -33.276  1.00  0.00     0.157 HD
ENDBRANCH  10  26
BRANCH   9  29
HETATM   29  N   UNL     1      -8.631   2.525 -34.179  1.00  0.00    -0.176 NA
HETATM   30  C   UNL     1      -9.540   2.205 -33.318  1.00  0.00     0.150 C 
BRANCH  30  31
HETATM   31  C   UNL     1     -10.890   1.812 -33.771  1.00  0.00    -0.014 A 
HETATM   32  C   UNL     1     -11.442   0.594 -33.355  1.00  0.00     0.049 A 
HETATM   33  C   UNL     1     -12.707   0.235 -33.805  1.00  0.00     0.066 A 
HETATM   34  C   UNL     1     -13.426   1.071 -34.651  1.00  0.00     0.036 A 
HETATM   35  C   UNL     1     -12.873   2.288 -35.061  1.00  0.00     0.004 A 
HETATM   36  C   UNL     1     -11.600   2.660 -34.625  1.00  0.00     0.013 A 
BRANCH  33  37
HETATM   37  O   UNL     1     -13.282  -0.944 -33.435  1.00  0.00    -0.361 OA
HETATM   38  H   UNL     1     -14.010  -0.754 -32.818  1.00  0.00     0.217 HD
ENDBRANCH  33  37
ENDBRANCH  30  31
ENDBRANCH   9  29
TORSDOF 8
ENDMDL
MODEL 7
REMARK VINA RESULT:      -9.4      4.179      7.631
REMARK  8 active torsions:
REMARK  status: ('A' for Active; 'I' for Inactive)
REMARK    1  A    between atoms: N_9  and  N_10 
REMARK    2  A    between atoms: C_11  and  C_12 
REMARK    3  A    between atoms: C_14  and  O_15 
REMARK    4  A    between atoms: C_19  and  N_20 
REMARK    5  A    between atoms: C_21  and  C_22 
REMARK       I    between atoms: C_22  and  N_23 
REMARK    6  A    between atoms: N_23  and  C_24 
REMARK    7  A    between atoms: C_24  and  C_25 
REMARK    8  A    between atoms: C_25  and  C_26 
ROOT
HETATM    1  C   UNL     1     -13.332  -0.083 -33.747  1.00  0.00     0.002 A 
HETATM    2  C   UNL     1     -12.021   0.165 -33.336  1.00  0.00     0.034 A 
HETATM    3  C   UNL     1     -11.361   1.341 -33.674  1.00  0.00     0.086 A 
HETATM    4  C   UNL     1     -12.049   2.304 -34.460  1.00  0.00     0.088 A 
HETATM    5  N   UNL     1     -11.498   3.469 -34.827  1.00  0.00    -0.225 NA
HETATM    6  C   UNL     1     -10.239   3.633 -34.358  1.00  0.00     0.183 A 
HETATM    7  C   UNL     1      -9.548   2.714 -33.583  1.00  0.00     0.125 A 
HETATM    8  N   UNL     1     -10.100   1.518 -33.237  1.00  0.00    -0.242 NA
HETATM    9  N   UNL     1      -9.416   4.722 -34.562  1.00  0.00    -0.197 N 
HETATM   10  C   UNL     1      -8.216   4.501 -33.886  1.00  0.00     0.143 A 
HETATM   11  C   UNL     1      -8.257   3.237 -33.308  1.00  0.00     0.110 A 
HETATM   12  C   UNL     1     -13.351   2.043 -34.865  1.00  0.00     0.034 A 
HETATM   13  C   UNL     1     -13.999   0.859 -34.516  1.00  0.00     0.002 A 
ENDROOT
BRANCH  11  14
HETATM   14  C   UNL     1      -7.130   2.585 -32.658  1.00  0.00     0.257 C 
HETATM   15  N   UNL     1      -7.263   1.222 -32.501  1.00  0.00    -0.356 N 
HETATM   16  H   UNL     1      -8.132   0.789 -32.808  1.00  0.00     0.162 HD
HETATM   17  O   UNL     1      -6.093   3.182 -32.374  1.00  0.00    -0.267 OA
BRANCH  15  18
HETATM   18  C   UNL     1      -6.095   0.386 -32.315  1.00  0.00     0.127 C 
BRANCH  18  19
HETATM   19  C   UNL     1      -5.453  -0.070 -33.632  1.00  0.00     0.053 C 
BRANCH  19  20
HETATM   20  C   UNL     1      -5.482  -1.552 -33.986  1.00  0.00    -0.082 C 
HETATM   21  C   UNL     1      -6.823  -2.034 -34.510  1.00  0.00     0.034 C 
HETATM   22  C   UNL     1      -6.959  -3.558 -34.561  1.00  0.00     0.005 C 
HETATM   23  C   UNL     1      -5.704  -4.198 -35.139  1.00  0.00     0.004 C 
HETATM   24  C   UNL     1      -4.482  -3.846 -34.293  1.00  0.00     0.027 C 
HETATM   25  C   UNL     1      -4.447  -2.406 -33.865  1.00  0.00    -0.024 C 
ENDBRANCH  19  20
ENDBRANCH  18  19
ENDBRANCH  15  18
ENDBRANCH  11  14
BRANCH  10  26
HETATM   26  N   UNL     1      -7.189   5.397 -33.922  1.00  0.00    -0.383 N 
HETATM   27  H   UNL     1      -6.278   5.094 -34.264  1.00  0.00     0.157 HD
HETATM   28  H   UNL     1      -7.110   6.047 -33.132  1.00  0.00     0.157 HD
ENDBRANCH  10  26
BRANCH   9  29
HETATM   29  N   UNL     1      -9.696   5.737 -35.438  1.00  0.00    -0.176 NA
HETATM   30  C   UNL     1     -10.526   6.624 -34.998  1.00  0.00     0.150 C 
BRANCH  30  31
HETATM   31  C   UNL     1     -10.859   7.804 -35.822  1.00  0.00    -0.014 A 
HETATM   32  C   UNL     1     -10.054   8.147 -36.916  1.00  0.00     0.049 A 
HETATM   33  C   UNL     1     -10.375   9.270 -37.669  1.00  0.00     0.066 A 
HETATM   34  C   UNL     1     -11.484  10.046 -37.353  1.00  0.00     0.036 A 
HETATM   35  C   UNL     1     -12.288   9.699 -36.263  1.00  0.00     0.004 A 
HETATM   36  C   UNL     1     -11.974   8.578 -35.491  1.00  0.00     0.013 A 
BRANCH  33  37
HETATM   37  O   UNL     1      -9.616   9.648 -38.736  1.00  0.00    -0.361 OA
HETATM   38  H   UNL     1     -10.203   9.795 -39.497  1.00  0.00     0.217 HD
ENDBRANCH  33  37
ENDBRANCH  30  31
ENDBRANCH   9  29
TORSDOF 8
ENDMDL
MODEL 8
REMARK VINA RESULT:      -9.3      2.564      9.189
REMARK  8 active torsions:
REMARK  status: ('A' for Active; 'I' for Inactive)
REMARK    1  A    between atoms: N_9  and  N_10 
REMARK    2  A    between atoms: C_11  and  C_12 
REMARK    3  A    between atoms: C_14  and  O_15 
REMARK    4  A    between atoms: C_19  and  N_20 
REMARK    5  A    between atoms: C_21  and  C_22 
REMARK       I    between atoms: C_22  and  N_23 
REMARK    6  A    between atoms: N_23  and  C_24 
REMARK    7  A    between atoms: C_24  and  C_25 
REMARK    8  A    between atoms: C_25  and  C_26 
ROOT
HETATM    1  C   UNL     1      -6.357  -2.337 -34.361  1.00  0.00     0.002 A 
HETATM    2  C   UNL     1      -7.213  -1.237 -34.448  1.00  0.00     0.034 A 
HETATM    3  C   UNL     1      -6.802   0.037 -34.075  1.00  0.00     0.086 A 
HETATM    4  C   UNL     1      -5.477   0.210 -33.592  1.00  0.00     0.088 A 
HETATM    5  N   UNL     1      -4.990   1.399 -33.217  1.00  0.00    -0.225 NA
HETATM    6  C   UNL     1      -5.880   2.408 -33.365  1.00  0.00     0.183 A 
HETATM    7  C   UNL     1      -7.175   2.271 -33.841  1.00  0.00     0.125 A 
HETATM    8  N   UNL     1      -7.676   1.054 -34.193  1.00  0.00    -0.242 NA
HETATM    9  N   UNL     1      -5.675   3.742 -33.070  1.00  0.00    -0.197 N 
HETATM   10  C   UNL     1      -6.833   4.448 -33.392  1.00  0.00     0.143 A 
HETATM   11  C   UNL     1      -7.797   3.546 -33.830  1.00  0.00     0.110 A 
HETATM   12  C   UNL     1      -4.638  -0.894 -33.506  1.00  0.00     0.034 A 
HETATM   13  C   UNL     1      -5.065  -2.165 -33.887  1.00  0.00     0.002 A 
ENDROOT
BRANCH  11  14
HETATM   14  C   UNL     1      -9.187   3.884 -34.102  1.00  0.00     0.257 C 
HETATM   15  N   UNL     1      -9.834   3.018 -34.958  1.00  0.00    -0.356 N 
HETATM   16  H   UNL     1      -9.297   2.250 -35.356  1.00  0.00     0.162 HD
HETATM   17  O   UNL     1      -9.770   4.801 -33.528  1.00  0.00    -0.267 OA
BRANCH  15  18
HETATM   18  C   UNL     1     -11.280   2.936 -34.964  1.00  0.00     0.127 C 
BRANCH  18  19
HETATM   19  C   UNL     1     -11.837   1.905 -33.972  1.00  0.00     0.053 C 
BRANCH  19  20
HETATM   20  C   UNL     1     -13.193   2.169 -33.327  1.00  0.00    -0.082 C 
HETATM   21  C   UNL     1     -14.261   1.158 -33.703  1.00  0.00     0.034 C 
HETATM   22  C   UNL     1     -15.682   1.587 -33.328  1.00  0.00     0.005 C 
HETATM   23  C   UNL     1     -15.722   2.166 -31.920  1.00  0.00     0.004 C 
HETATM   24  C   UNL     1     -14.802   3.380 -31.811  1.00  0.00     0.027 C 
HETATM   25  C   UNL     1     -13.478   3.188 -32.493  1.00  0.00    -0.024 C 
ENDBRANCH  19  20
ENDBRANCH  18  19
ENDBRANCH  15  18
ENDBRANCH  11  14
BRANCH  10  26
HETATM   26  N   UNL     1      -6.944   5.792 -33.187  1.00  0.00    -0.383 N 
HETATM   27  H   UNL     1      -6.595   6.432 -33.899  1.00  0.00     0.157 HD
HETATM   28  H   UNL     1      -6.765   6.134 -32.237  1.00  0.00     0.157 HD
ENDBRANCH  10  26
BRANCH   9  29
HETATM   29  N   UNL     1      -4.578   4.216 -32.402  1.00  0.00    -0.176 NA
HETATM   30  C   UNL     1      -3.604   4.604 -33.157  1.00  0.00     0.150 C 
BRANCH  30  31
HETATM   31  C   UNL     1      -2.390   5.197 -32.561  1.00  0.00    -0.014 A 
HETATM   32  C   UNL     1      -1.776   4.584 -31.461  1.00  0.00     0.049 A 
HETATM   33  C   UNL     1      -0.644   5.166 -30.904  1.00  0.00     0.066 A 
HETATM   34  C   UNL     1      -0.115   6.339 -31.430  1.00  0.00     0.036 A 
HETATM   35  C   UNL     1      -0.728   6.947 -32.529  1.00  0.00     0.004 A 
HETATM   36  C   UNL     1      -1.871   6.379 -33.095  1.00  0.00     0.013 A 
BRANCH  33  37
HETATM   37  O   UNL     1      -0.018   4.611 -29.828  1.00  0.00    -0.361 OA
HETATM   38  H   UNL     1       0.546   5.287 -29.414  1.00  0.00     0.217 HD
ENDBRANCH  33  37
ENDBRANCH  30  31
ENDBRANCH   9  29
TORSDOF 8
ENDMDL
MODEL 9
REMARK VINA RESULT:      -9.2      2.855      7.863
REMARK  8 active torsions:
REMARK  status: ('A' for Active; 'I' for Inactive)
REMARK    1  A    between atoms: N_9  and  N_10 
REMARK    2  A    between atoms: C_11  and  C_12 
REMARK    3  A    between atoms: C_14  and  O_15 
REMARK    4  A    between atoms: C_19  and  N_20 
REMARK    5  A    between atoms: C_21  and  C_22 
REMARK       I    between atoms: C_22  and  N_23 
REMARK    6  A    between atoms: N_23  and  C_24 
REMARK    7  A    between atoms: C_24  and  C_25 
REMARK    8  A    between atoms: C_25  and  C_26 
ROOT
HETATM    1  C   UNL     1      -1.867   7.212 -33.581  1.00  0.00     0.002 A 
HETATM    2  C   UNL     1      -2.977   7.043 -32.751  1.00  0.00     0.034 A 
HETATM    3  C   UNL     1      -3.348   5.791 -32.277  1.00  0.00     0.086 A 
HETATM    4  C   UNL     1      -2.571   4.663 -32.654  1.00  0.00     0.088 A 
HETATM    5  N   UNL     1      -2.847   3.419 -32.240  1.00  0.00    -0.225 NA
HETATM    6  C   UNL     1      -3.921   3.359 -31.417  1.00  0.00     0.183 A 
HETATM    7  C   UNL     1      -4.691   4.443 -31.026  1.00  0.00     0.125 A 
HETATM    8  N   UNL     1      -4.426   5.702 -31.473  1.00  0.00    -0.242 NA
HETATM    9  N   UNL     1      -4.448   2.228 -30.827  1.00  0.00    -0.197 N 
HETATM   10  C   UNL     1      -5.533   2.606 -30.037  1.00  0.00     0.143 A 
HETATM   11  C   UNL     1      -5.732   3.975 -30.182  1.00  0.00     0.110 A 
HETATM   12  C   UNL     1      -1.472   4.844 -33.483  1.00  0.00     0.034 A 
HETATM   13  C   UNL     1      -1.112   6.108 -33.949  1.00  0.00     0.002 A 
ENDROOT
BRANCH  11  14
HETATM   14  C   UNL     1      -6.867   4.710 -29.642  1.00  0.00     0.257 C 
HETATM   15  N   UNL     1      -7.722   5.230 -30.590  1.00  0.00    -0.356 N 
HETATM   16  H   UNL     1      -7.483   5.099 -31.571  1.00  0.00     0.162 HD
HETATM   17  O   UNL     1      -7.106   4.767 -28.438  1.00  0.00    -0.267 OA
BRANCH  15  18
HETATM   18  C   UNL     1      -9.087   5.565 -30.242  1.00  0.00     0.127 C 
BRANCH  18  19
HETATM   19  C   UNL     1     -10.087   4.438 -30.538  1.00  0.00     0.053 C 
BRANCH  19  20
HETATM   20  C   UNL     1      -9.789   3.478 -31.683  1.00  0.00    -0.082 C 
HETATM   21  C   UNL     1      -9.250   2.132 -31.234  1.00  0.00     0.034 C 
HETATM   22  C   UNL     1      -8.653   1.292 -32.366  1.00  0.00     0.005 C 
HETATM   23  C   UNL     1      -9.551   1.318 -33.595  1.00  0.00     0.004 C 
HETATM   24  C   UNL     1      -9.737   2.749 -34.096  1.00  0.00     0.027 C 
HETATM   25  C   UNL     1      -9.967   3.742 -32.993  1.00  0.00    -0.024 C 
ENDBRANCH  19  20
ENDBRANCH  18  19
ENDBRANCH  15  18
ENDBRANCH  11  14
BRANCH  10  26
HETATM   26  N   UNL     1      -6.277   1.698 -29.344  1.00  0.00    -0.383 N 
HETATM   27  H   UNL     1      -6.331   0.739 -29.683  1.00  0.00     0.157 HD
HETATM   28  H   UNL     1      -7.170   2.025 -28.958  1.00  0.00     0.157 HD
ENDBRANCH  10  26
BRANCH   9  29
HETATM   29  N   UNL     1      -4.060   0.952 -31.140  1.00  0.00    -0.176 NA
HETATM   30  C   UNL     1      -4.758   0.380 -32.064  1.00  0.00     0.150 C 
BRANCH  30  31
HETATM   31  C   UNL     1      -4.400  -0.972 -32.539  1.00  0.00    -0.014 A 
HETATM   32  C   UNL     1      -4.976  -1.481 -33.709  1.00  0.00     0.049 A 
HETATM   33  C   UNL     1      -4.638  -2.761 -34.131  1.00  0.00     0.066 A 
HETATM   34  C   UNL     1      -3.733  -3.532 -33.410  1.00  0.00     0.036 A 
HETATM   35  C   UNL     1      -3.157  -3.020 -32.245  1.00  0.00     0.004 A 
HETATM   36  C   UNL     1      -3.492  -1.738 -31.803  1.00  0.00     0.013 A 
BRANCH  33  37
HETATM   37  O   UNL     1      -5.180  -3.302 -35.258  1.00  0.00    -0.361 OA
HETATM   38  H   UNL     1      -4.880  -2.785 -36.025  1.00  0.00     0.217 HD
ENDBRANCH  33  37
ENDBRANCH  30  31
ENDBRANCH   9  29
TORSDOF 8
ENDMDL
MODEL 10
REMARK VINA RESULT:      -8.8      1.997      2.955
REMARK  8 active torsions:
REMARK  status: ('A' for Active; 'I' for Inactive)
REMARK    1  A    between atoms: N_9  and  N_10 
REMARK    2  A    between atoms: C_11  and  C_12 
REMARK    3  A    between atoms: C_14  and  O_15 
REMARK    4  A    between atoms: C_19  and  N_20 
REMARK    5  A    between atoms: C_21  and  C_22 
REMARK       I    between atoms: C_22  and  N_23 
REMARK    6  A    between atoms: N_23  and  C_24 
REMARK    7  A    between atoms: C_24  and  C_25 
REMARK    8  A    between atoms: C_25  and  C_26 
ROOT
HETATM    1  C   UNL     1      -2.898  -0.933 -31.874  1.00  0.00     0.002 A 
HETATM    2  C   UNL     1      -3.154   0.313 -31.298  1.00  0.00     0.034 A 
HETATM    3  C   UNL     1      -4.439   0.841 -31.243  1.00  0.00     0.086 A 
HETATM    4  C   UNL     1      -5.509   0.084 -31.792  1.00  0.00     0.088 A 
HETATM    5  N   UNL     1      -6.779   0.506 -31.778  1.00  0.00    -0.225 NA
HETATM    6  C   UNL     1      -6.933   1.708 -31.173  1.00  0.00     0.183 A 
HETATM    7  C   UNL     1      -5.910   2.464 -30.622  1.00  0.00     0.125 A 
HETATM    8  N   UNL     1      -4.615   2.045 -30.665  1.00  0.00    -0.242 NA
HETATM    9  N   UNL     1      -8.115   2.401 -30.999  1.00  0.00    -0.197 N 
HETATM   10  C   UNL     1      -7.837   3.580 -30.308  1.00  0.00     0.143 A 
HETATM   11  C   UNL     1      -6.464   3.663 -30.103  1.00  0.00     0.110 A 
HETATM   12  C   UNL     1      -5.240  -1.152 -32.365  1.00  0.00     0.034 A 
HETATM   13  C   UNL     1      -3.945  -1.668 -32.411  1.00  0.00     0.002 A 
ENDROOT
BRANCH  11  14
HETATM   14  C   UNL     1      -5.775   4.825 -29.560  1.00  0.00     0.257 C 
HETATM   15  N   UNL     1      -4.492   5.007 -30.031  1.00  0.00    -0.356 N 
HETATM   16  H   UNL     1      -4.118   4.314 -30.676  1.00  0.00     0.162 HD
HETATM   17  O   UNL     1      -6.330   5.641 -28.828  1.00  0.00    -0.267 OA
BRANCH  15  18
HETATM   18  C   UNL     1      -3.864   6.310 -29.964  1.00  0.00     0.127 C 
BRANCH  18  19
HETATM   19  C   UNL     1      -2.534   6.387 -30.725  1.00  0.00     0.053 C 
BRANCH  19  20
HETATM   20  C   UNL     1      -2.523   6.069 -32.215  1.00  0.00    -0.082 C 
HETATM   21  C   UNL     1      -1.134   6.010 -32.823  1.00  0.00     0.034 C 
HETATM   22  C   UNL     1      -1.125   6.012 -34.354  1.00  0.00     0.005 C 
HETATM   23  C   UNL     1      -2.177   5.060 -34.906  1.00  0.00     0.004 C 
HETATM   24  C   UNL     1      -3.570   5.462 -34.427  1.00  0.00     0.027 C 
HETATM   25  C   UNL     1      -3.614   5.850 -32.976  1.00  0.00    -0.024 C 
ENDBRANCH  19  20
ENDBRANCH  18  19
ENDBRANCH  15  18
ENDBRANCH  11  14
BRANCH  10  26
HETATM   26  N   UNL     1      -8.808   4.490 -30.008  1.00  0.00    -0.383 N 
HETATM   27  H   UNL     1      -9.292   4.421 -29.114  1.00  0.00     0.157 HD
HETATM   28  H   UNL     1      -9.436   4.769 -30.769  1.00  0.00     0.157 HD
ENDBRANCH  10  26
BRANCH   9  29
HETATM   29  N   UNL     1      -9.301   2.047 -31.585  1.00  0.00    -0.176 NA
HETATM   30  C   UNL     1      -9.418   2.384 -32.827  1.00  0.00     0.150 C 
BRANCH  30  31
HETATM   31  C   UNL     1     -10.623   2.002 -33.592  1.00  0.00    -0.014 A 
HETATM   32  C   UNL     1     -11.045   2.785 -34.674  1.00  0.00     0.049 A 
HETATM   33  C   UNL     1     -12.190   2.417 -35.370  1.00  0.00     0.066 A 
HETATM   34  C   UNL     1     -12.910   1.284 -35.010  1.00  0.00     0.036 A 
HETATM   35  C   UNL     1     -12.484   0.503 -33.932  1.00  0.00     0.004 A 
HETATM   36  C   UNL     1     -11.340   0.864 -33.216  1.00  0.00     0.013 A 
BRANCH  33  37
HETATM   37  O   UNL     1     -12.645   3.153 -36.424  1.00  0.00    -0.361 OA
HETATM   38  H   UNL     1     -12.878   4.041 -36.104  1.00  0.00     0.217 HD
ENDBRANCH  33  37
ENDBRANCH  30  31
ENDBRANCH   9  29
TORSDOF 8
ENDMDL
