MODEL 1
REMARK VINA RESULT:      -9.2      0.000      0.000
REMARK  4 active torsions:
REMARK  status: ('A' for Active; 'I' for Inactive)
REMARK    1  A    between atoms: C_10  and  C_11 
REMARK    2  A    between atoms: N_14  and  C_16 
REMARK    3  A    between atoms: C_16  and  C_17 
REMARK    4  A    between atoms: C_18  and  C_19 
ROOT
HETATM    1  C   UNL     1      -5.698   0.156 -33.510  1.00  0.00    -0.036 A 
HETATM    2  C   UNL     1      -6.855  -0.308 -34.146  1.00  0.00     0.013 A 
HETATM    3  C   UNL     1      -6.936  -1.630 -34.598  1.00  0.00     0.023 A 
HETATM    4  C   UNL     1      -5.854  -2.499 -34.432  1.00  0.00     0.044 A 
HETATM    5  C   UNL     1      -5.936  -3.853 -34.893  1.00  0.00     0.099 C 
HETATM    6  N   UNL     1      -5.997  -4.950 -35.266  1.00  0.00    -0.191 NA
HETATM    7  C   UNL     1      -4.688  -2.038 -33.814  1.00  0.00     0.023 A 
HETATM    8  C   UNL     1      -4.610  -0.717 -33.361  1.00  0.00     0.013 A 
ENDROOT
BRANCH   1   9
HETATM    9  C   UNL     1      -5.632   1.554 -33.060  1.00  0.00     0.009 C 
HETATM   10  C   UNL     1      -4.476   2.125 -32.684  1.00  0.00     0.001 C 
BRANCH  10  11
HETATM   11  C   UNL     1      -4.259   3.536 -32.247  1.00  0.00     0.262 C 
BRANCH  11  12
HETATM   12  N   UNL     1      -3.136   4.288 -32.935  1.00  0.00    -0.068 N 
HETATM   13  C   UNL     1      -3.652   5.631 -33.415  1.00  0.00     0.236 C 
HETATM   14  C   UNL     1      -2.537   6.470 -34.034  1.00  0.00     0.037 C 
HETATM   15  C   UNL     1      -1.344   6.650 -33.074  1.00  0.00     0.024 C 
HETATM   16  C   UNL     1      -0.845   5.234 -32.765  1.00  0.00     0.037 C 
HETATM   17  C   UNL     1      -1.909   4.411 -32.056  1.00  0.00     0.236 C 
HETATM   18  H   UNL     1      -2.876   3.739 -33.762  1.00  0.00     0.280 HD
BRANCH  15  19
HETATM   19  C   UNL     1      -1.684   7.480 -31.843  1.00  0.00    -0.024 A 
HETATM   20  C   UNL     1      -0.945   7.627 -30.610  1.00  0.00     0.018 A 
HETATM   21  C   UNL     1      -1.719   8.409 -29.757  1.00  0.00     0.138 A 
HETATM   22  C   UNL     1       0.286   7.184 -30.081  1.00  0.00     0.017 A 
HETATM   23  N   UNL     1      -1.469   8.746 -28.481  1.00  0.00    -0.242 NA
HETATM   24  N   UNL     1      -2.819   8.828 -30.444  1.00  0.00    -0.350 N 
HETATM   25  C   UNL     1      -0.293   8.273 -28.023  1.00  0.00     0.119 A 
HETATM   26  C   UNL     1       0.602   7.516 -28.761  1.00  0.00     0.020 A 
HETATM   27  H   UNL     1      -3.510   9.455 -30.055  1.00  0.00     0.166 HD
HETATM   28  C   UNL     1      -2.807   8.290 -31.703  1.00  0.00     0.098 A 
ENDBRANCH  15  19
ENDBRANCH  11  12
ENDBRANCH  10  11
ENDBRANCH   1   9
TORSDOF 4
ENDMDL
MODEL 2
REMARK VINA RESULT:      -9.0      1.295      1.943
REMARK  4 active torsions:
REMARK  status: ('A' for Active; 'I' for Inactive)
REMARK    1  A    between atoms: C_10  and  C_11 
REMARK    2  A    between atoms: N_14  and  C_16 
REMARK    3  A    between atoms: C_16  and  C_17 
REMARK    4  A    between atoms: C_18  and  C_19 
ROOT
HETATM    1  C   UNL     1      -5.275  -0.343 -33.019  1.00  0.00    -0.036 A 
HETATM    2  C   UNL     1      -4.259  -1.277 -33.251  1.00  0.00     0.013 A 
HETATM    3  C   UNL     1      -4.532  -2.468 -33.934  1.00  0.00     0.023 A 
HETATM    4  C   UNL     1      -5.827  -2.743 -34.382  1.00  0.00     0.044 A 
HETATM    5  C   UNL     1      -6.107  -3.961 -35.083  1.00  0.00     0.099 C 
HETATM    6  N   UNL     1      -6.338  -4.946 -35.650  1.00  0.00    -0.191 NA
HETATM    7  C   UNL     1      -6.851  -1.823 -34.137  1.00  0.00     0.023 A 
HETATM    8  C   UNL     1      -6.576  -0.633 -33.456  1.00  0.00     0.013 A 
ENDROOT
BRANCH   1   9
HETATM    9  C   UNL     1      -4.966   0.891 -32.283  1.00  0.00     0.009 C 
HETATM   10  C   UNL     1      -5.229   2.106 -32.792  1.00  0.00     0.001 C 
BRANCH  10  11
HETATM   11  C   UNL     1      -5.006   3.433 -32.142  1.00  0.00     0.262 C 
BRANCH  11  12
HETATM   12  N   UNL     1      -4.050   4.375 -32.848  1.00  0.00    -0.068 N 
HETATM   13  C   UNL     1      -4.149   5.753 -32.222  1.00  0.00     0.236 C 
HETATM   14  C   UNL     1      -3.138   6.719 -32.833  1.00  0.00     0.037 C 
HETATM   15  C   UNL     1      -1.696   6.180 -32.751  1.00  0.00     0.024 C 
HETATM   16  C   UNL     1      -1.706   4.854 -33.519  1.00  0.00     0.037 C 
HETATM   17  C   UNL     1      -2.634   3.840 -32.867  1.00  0.00     0.236 C 
HETATM   18  H   UNL     1      -4.370   4.448 -33.820  1.00  0.00     0.280 HD
BRANCH  15  19
HETATM   19  C   UNL     1      -1.175   6.077 -31.324  1.00  0.00    -0.024 A 
HETATM   20  C   UNL     1      -1.202   7.065 -30.270  1.00  0.00     0.018 A 
HETATM   21  C   UNL     1      -0.511   6.529 -29.186  1.00  0.00     0.138 A 
HETATM   22  C   UNL     1      -1.709   8.369 -30.086  1.00  0.00     0.017 A 
HETATM   23  N   UNL     1      -0.219   7.117 -28.013  1.00  0.00    -0.242 NA
HETATM   24  N   UNL     1      -0.173   5.245 -29.488  1.00  0.00    -0.350 N 
HETATM   25  C   UNL     1      -0.707   8.368 -27.905  1.00  0.00     0.119 A 
HETATM   26  C   UNL     1      -1.444   9.022 -28.879  1.00  0.00     0.020 A 
HETATM   27  H   UNL     1       0.291   4.626 -28.837  1.00  0.00     0.166 HD
HETATM   28  C   UNL     1      -0.576   4.952 -30.764  1.00  0.00     0.098 A 
ENDBRANCH  15  19
ENDBRANCH  11  12
ENDBRANCH  10  11
ENDBRANCH   1   9
TORSDOF 4
ENDMDL
MODEL 3
REMARK VINA RESULT:      -8.8      3.249      5.410
REMARK  4 active torsions:
REMARK  status: ('A' for Active; 'I' for Inactive)
REMARK    1  A    between atoms: C_10  and  C_11 
REMARK    2  A    between atoms: N_14  and  C_16 
REMARK    3  A    between atoms: C_16  and  C_17 
REMARK    4  A    between atoms: C_18  and  C_19 
ROOT
HETATM    1  C   UNL     1      -6.489  -0.718 -34.510  1.00  0.00    -0.036 A 
HETATM    2  C   UNL     1      -6.835  -1.974 -35.022  1.00  0.00     0.013 A 
HETATM    3  C   UNL     1      -5.990  -3.074 -34.834  1.00  0.00     0.023 A 
HETATM    4  C   UNL     1      -4.783  -2.927 -34.145  1.00  0.00     0.044 A 
HETATM    5  C   UNL     1      -3.918  -4.053 -33.950  1.00  0.00     0.099 C 
HETATM    6  N   UNL     1      -3.214  -4.961 -33.792  1.00  0.00    -0.191 NA
HETATM    7  C   UNL     1      -4.423  -1.671 -33.647  1.00  0.00     0.023 A 
HETATM    8  C   UNL     1      -5.269  -0.574 -33.834  1.00  0.00     0.013 A 
ENDROOT
BRANCH   1   9
HETATM    9  C   UNL     1      -7.385   0.424 -34.737  1.00  0.00     0.009 C 
HETATM   10  C   UNL     1      -8.487   0.621 -33.994  1.00  0.00     0.001 C 
BRANCH  10  11
HETATM   11  C   UNL     1      -9.458   1.753 -34.088  1.00  0.00     0.262 C 
BRANCH  11  12
HETATM   12  N   UNL     1      -9.367   2.808 -33.003  1.00  0.00    -0.068 N 
HETATM   13  C   UNL     1      -9.240   2.129 -31.652  1.00  0.00     0.236 C 
HETATM   14  C   UNL     1      -9.050   3.147 -30.531  1.00  0.00     0.037 C 
HETATM   15  C   UNL     1      -7.853   4.083 -30.791  1.00  0.00     0.024 C 
HETATM   16  C   UNL     1      -8.162   4.791 -32.115  1.00  0.00     0.037 C 
HETATM   17  C   UNL     1      -8.256   3.802 -33.267  1.00  0.00     0.236 C 
HETATM   18  H   UNL     1     -10.256   3.321 -33.014  1.00  0.00     0.280 HD
BRANCH  15  19
HETATM   19  C   UNL     1      -6.511   3.362 -30.761  1.00  0.00    -0.024 A 
HETATM   20  C   UNL     1      -5.207   3.848 -31.152  1.00  0.00     0.018 A 
HETATM   21  C   UNL     1      -4.320   2.781 -31.035  1.00  0.00     0.138 A 
HETATM   22  C   UNL     1      -4.648   5.058 -31.614  1.00  0.00     0.017 A 
HETATM   23  N   UNL     1      -3.017   2.744 -31.359  1.00  0.00    -0.242 NA
HETATM   24  N   UNL     1      -4.990   1.726 -30.494  1.00  0.00    -0.350 N 
HETATM   25  C   UNL     1      -2.546   3.921 -31.818  1.00  0.00     0.119 A 
HETATM   26  C   UNL     1      -3.293   5.079 -31.955  1.00  0.00     0.020 A 
HETATM   27  H   UNL     1      -4.547   0.848 -30.262  1.00  0.00     0.166 HD
HETATM   28  C   UNL     1      -6.305   2.062 -30.311  1.00  0.00     0.098 A 
ENDBRANCH  15  19
ENDBRANCH  11  12
ENDBRANCH  10  11
ENDBRANCH   1   9
TORSDOF 4
ENDMDL
MODEL 4
REMARK VINA RESULT:      -8.7      2.675      9.098
REMARK  4 active torsions:
REMARK  status: ('A' for Active; 'I' for Inactive)
REMARK    1  A    between atoms: C_10  and  C_11 
REMARK    2  A    between atoms: N_14  and  C_16 
REMARK    3  A    between atoms: C_16  and  C_17 
REMARK    4  A    between atoms: C_18  and  C_19 
ROOT
HETATM    1  C   UNL     1      -4.159   4.393 -33.277  1.00  0.00    -0.036 A 
HETATM    2  C   UNL     1      -3.999   4.343 -31.888  1.00  0.00     0.013 A 
HETATM    3  C   UNL     1      -2.761   4.637 -31.305  1.00  0.00     0.023 A 
HETATM    4  C   UNL     1      -1.665   4.971 -32.106  1.00  0.00     0.044 A 
HETATM    5  C   UNL     1      -0.398   5.274 -31.510  1.00  0.00     0.099 C 
HETATM    6  N   UNL     1       0.630   5.519 -31.032  1.00  0.00    -0.191 NA
HETATM    7  C   UNL     1      -1.813   5.004 -33.496  1.00  0.00     0.023 A 
HETATM    8  C   UNL     1      -3.051   4.712 -34.077  1.00  0.00     0.013 A 
ENDROOT
BRANCH   1   9
HETATM    9  C   UNL     1      -5.464   4.062 -33.866  1.00  0.00     0.009 C 
HETATM   10  C   UNL     1      -6.616   4.502 -33.332  1.00  0.00     0.001 C 
BRANCH  10  11
HETATM   11  C   UNL     1      -8.001   4.277 -33.845  1.00  0.00     0.262 C 
BRANCH  11  12
HETATM   12  N   UNL     1      -8.714   3.041 -33.333  1.00  0.00    -0.068 N 
HETATM   13  C   UNL     1      -8.575   1.923 -34.349  1.00  0.00     0.236 C 
HETATM   14  C   UNL     1      -9.195   0.625 -33.842  1.00  0.00     0.037 C 
HETATM   15  C   UNL     1      -8.622   0.201 -32.475  1.00  0.00     0.024 C 
HETATM   16  C   UNL     1      -8.933   1.357 -31.519  1.00  0.00     0.037 C 
HETATM   17  C   UNL     1      -8.241   2.640 -31.952  1.00  0.00     0.236 C 
HETATM   18  H   UNL     1      -9.710   3.280 -33.266  1.00  0.00     0.280 HD
BRANCH  15  19
HETATM   19  C   UNL     1      -7.149  -0.185 -32.537  1.00  0.00    -0.024 A 
HETATM   20  C   UNL     1      -6.496  -1.156 -33.386  1.00  0.00     0.018 A 
HETATM   21  C   UNL     1      -5.162  -1.214 -32.991  1.00  0.00     0.138 A 
HETATM   22  C   UNL     1      -6.859  -2.020 -34.440  1.00  0.00     0.017 A 
HETATM   23  N   UNL     1      -4.195  -2.028 -33.448  1.00  0.00    -0.242 NA
HETATM   24  N   UNL     1      -4.956  -0.262 -32.039  1.00  0.00    -0.350 N 
HETATM   25  C   UNL     1      -4.607  -2.848 -34.435  1.00  0.00     0.119 A 
HETATM   26  C   UNL     1      -5.889  -2.880 -34.960  1.00  0.00     0.020 A 
HETATM   27  H   UNL     1      -4.050  -0.072 -31.632  1.00  0.00     0.166 HD
HETATM   28  C   UNL     1      -6.137   0.375 -31.764  1.00  0.00     0.098 A 
ENDBRANCH  15  19
ENDBRANCH  11  12
ENDBRANCH  10  11
ENDBRANCH   1   9
TORSDOF 4
ENDMDL
MODEL 5
REMARK VINA RESULT:      -8.7      1.488      1.737
REMARK  4 active torsions:
REMARK  status: ('A' for Active; 'I' for Inactive)
REMARK    1  A    between atoms: C_10  and  C_11 
REMARK    2  A    between atoms: N_14  and  C_16 
REMARK    3  A    between atoms: C_16  and  C_17 
REMARK    4  A    between atoms: C_18  and  C_19 
ROOT
HETATM    1  C   UNL     1      -6.067  -0.181 -33.560  1.00  0.00    -0.036 A 
HETATM    2  C   UNL     1      -7.218  -0.851 -33.989  1.00  0.00     0.013 A 
HETATM    3  C   UNL     1      -7.144  -2.175 -34.439  1.00  0.00     0.023 A 
HETATM    4  C   UNL     1      -5.914  -2.838 -34.477  1.00  0.00     0.044 A 
HETATM    5  C   UNL     1      -5.836  -4.193 -34.935  1.00  0.00     0.099 C 
HETATM    6  N   UNL     1      -5.769  -5.290 -35.307  1.00  0.00    -0.191 NA
HETATM    7  C   UNL     1      -4.757  -2.168 -34.068  1.00  0.00     0.023 A 
HETATM    8  C   UNL     1      -4.834  -0.847 -33.617  1.00  0.00     0.013 A 
ENDROOT
BRANCH   1   9
HETATM    9  C   UNL     1      -6.170   1.214 -33.110  1.00  0.00     0.009 C 
HETATM   10  C   UNL     1      -5.405   1.698 -32.117  1.00  0.00     0.001 C 
BRANCH  10  11
HETATM   11  C   UNL     1      -5.377   3.095 -31.589  1.00  0.00     0.262 C 
BRANCH  11  12
HETATM   12  N   UNL     1      -4.624   4.114 -32.423  1.00  0.00    -0.068 N 
HETATM   13  C   UNL     1      -4.974   5.511 -31.946  1.00  0.00     0.236 C 
HETATM   14  C   UNL     1      -4.171   6.574 -32.691  1.00  0.00     0.037 C 
HETATM   15  C   UNL     1      -2.652   6.325 -32.600  1.00  0.00     0.024 C 
HETATM   16  C   UNL     1      -2.421   4.943 -33.219  1.00  0.00     0.037 C 
HETATM   17  C   UNL     1      -3.133   3.854 -32.432  1.00  0.00     0.236 C 
HETATM   18  H   UNL     1      -4.965   4.018 -33.387  1.00  0.00     0.280 HD
BRANCH  15  19
HETATM   19  C   UNL     1      -2.103   6.481 -31.187  1.00  0.00    -0.024 A 
HETATM   20  C   UNL     1      -0.883   5.952 -30.620  1.00  0.00     0.018 A 
HETATM   21  C   UNL     1      -0.881   6.285 -29.268  1.00  0.00     0.138 A 
HETATM   22  C   UNL     1       0.229   5.209 -31.067  1.00  0.00     0.017 A 
HETATM   23  N   UNL     1       0.015   5.941 -28.328  1.00  0.00    -0.242 NA
HETATM   24  N   UNL     1      -1.965   7.073 -29.021  1.00  0.00    -0.350 N 
HETATM   25  C   UNL     1       1.041   5.210 -28.809  1.00  0.00     0.119 A 
HETATM   26  C   UNL     1       1.198   4.833 -30.132  1.00  0.00     0.020 A 
HETATM   27  H   UNL     1      -2.154   7.488 -28.119  1.00  0.00     0.166 HD
HETATM   28  C   UNL     1      -2.702   7.212 -30.166  1.00  0.00     0.098 A 
ENDBRANCH  15  19
ENDBRANCH  11  12
ENDBRANCH  10  11
ENDBRANCH   1   9
TORSDOF 4
ENDMDL
MODEL 6
REMARK VINA RESULT:      -8.6      4.396      7.888
REMARK  4 active torsions:
REMARK  status: ('A' for Active; 'I' for Inactive)
REMARK    1  A    between atoms: C_10  and  C_11 
REMARK    2  A    between atoms: N_14  and  C_16 
REMARK    3  A    between atoms: C_16  and  C_17 
REMARK    4  A    between atoms: C_18  and  C_19 
ROOT
HETATM    1  C   UNL     1      -5.935  -0.015 -33.873  1.00  0.00    -0.036 A 
HETATM    2  C   UNL     1      -7.014  -0.641 -34.507  1.00  0.00     0.013 A 
HETATM    3  C   UNL     1      -6.959  -2.003 -34.824  1.00  0.00     0.023 A 
HETATM    4  C   UNL     1      -5.818  -2.752 -34.522  1.00  0.00     0.044 A 
HETATM    5  C   UNL     1      -5.761  -4.147 -34.844  1.00  0.00     0.099 C 
HETATM    6  N   UNL     1      -5.711  -5.276 -35.105  1.00  0.00    -0.191 NA
HETATM    7  C   UNL     1      -4.729  -2.129 -33.907  1.00  0.00     0.023 A 
HETATM    8  C   UNL     1      -4.786  -0.769 -33.589  1.00  0.00     0.013 A 
ENDROOT
BRANCH   1   9
HETATM    9  C   UNL     1      -6.010   1.420 -33.568  1.00  0.00     0.009 C 
HETATM   10  C   UNL     1      -5.159   2.010 -32.712  1.00  0.00     0.001 C 
BRANCH  10  11
HETATM   11  C   UNL     1      -5.097   3.456 -32.343  1.00  0.00     0.262 C 
BRANCH  11  12
HETATM   12  N   UNL     1      -6.282   4.004 -31.572  1.00  0.00    -0.068 N 
HETATM   13  C   UNL     1      -7.263   4.634 -32.542  1.00  0.00     0.236 C 
HETATM   14  C   UNL     1      -8.522   5.120 -31.829  1.00  0.00     0.037 C 
HETATM   15  C   UNL     1      -9.197   4.000 -31.013  1.00  0.00     0.024 C 
HETATM   16  C   UNL     1      -8.147   3.537 -29.998  1.00  0.00     0.037 C 
HETATM   17  C   UNL     1      -6.923   2.955 -30.689  1.00  0.00     0.236 C 
HETATM   18  H   UNL     1      -5.922   4.748 -30.964  1.00  0.00     0.280 HD
BRANCH  15  19
HETATM   19  C   UNL     1      -9.767   2.885 -31.882  1.00  0.00    -0.024 A 
HETATM   20  C   UNL     1     -10.757   2.964 -32.932  1.00  0.00     0.018 A 
HETATM   21  C   UNL     1     -11.014   1.662 -33.352  1.00  0.00     0.138 A 
HETATM   22  C   UNL     1     -11.496   3.973 -33.585  1.00  0.00     0.017 A 
HETATM   23  N   UNL     1     -11.916   1.243 -34.256  1.00  0.00    -0.242 NA
HETATM   24  N   UNL     1     -10.161   0.826 -32.698  1.00  0.00    -0.350 N 
HETATM   25  C   UNL     1     -12.609   2.248 -34.827  1.00  0.00     0.119 A 
HETATM   26  C   UNL     1     -12.440   3.594 -34.543  1.00  0.00     0.020 A 
HETATM   27  H   UNL     1     -10.117  -0.169 -32.872  1.00  0.00     0.166 HD
HETATM   28  C   UNL     1      -9.395   1.546 -31.821  1.00  0.00     0.098 A 
ENDBRANCH  15  19
ENDBRANCH  11  12
ENDBRANCH  10  11
ENDBRANCH   1   9
TORSDOF 4
ENDMDL
MODEL 7
REMARK VINA RESULT:      -8.6      1.842     10.075
REMARK  4 active torsions:
REMARK  status: ('A' for Active; 'I' for Inactive)
REMARK    1  A    between atoms: C_10  and  C_11 
REMARK    2  A    between atoms: N_14  and  C_16 
REMARK    3  A    between atoms: C_16  and  C_17 
REMARK    4  A    between atoms: C_18  and  C_19 
ROOT
HETATM    1  C   UNL     1      -1.585   5.381 -31.349  1.00  0.00    -0.036 A 
HETATM    2  C   UNL     1      -0.193   5.245 -31.324  1.00  0.00     0.013 A 
HETATM    3  C   UNL     1       0.581   6.018 -30.451  1.00  0.00     0.023 A 
HETATM    4  C   UNL     1      -0.028   6.947 -29.603  1.00  0.00     0.044 A 
HETATM    5  C   UNL     1       0.763   7.739 -28.708  1.00  0.00     0.099 C 
HETATM    6  N   UNL     1       1.399   8.382 -27.982  1.00  0.00    -0.191 NA
HETATM    7  C   UNL     1      -1.417   7.103 -29.636  1.00  0.00     0.023 A 
HETATM    8  C   UNL     1      -2.189   6.327 -30.507  1.00  0.00     0.013 A 
ENDROOT
BRANCH   1   9
HETATM    9  C   UNL     1      -2.373   4.570 -32.287  1.00  0.00     0.009 C 
HETATM   10  C   UNL     1      -3.683   4.791 -32.490  1.00  0.00     0.001 C 
BRANCH  10  11
HETATM   11  C   UNL     1      -4.590   4.075 -33.436  1.00  0.00     0.262 C 
BRANCH  11  12
HETATM   12  N   UNL     1      -5.664   3.207 -32.810  1.00  0.00    -0.068 N 
HETATM   13  C   UNL     1      -6.336   2.382 -33.892  1.00  0.00     0.236 C 
HETATM   14  C   UNL     1      -7.363   1.419 -33.303  1.00  0.00     0.037 C 
HETATM   15  C   UNL     1      -6.753   0.510 -32.217  1.00  0.00     0.024 C 
HETATM   16  C   UNL     1      -6.222   1.457 -31.136  1.00  0.00     0.037 C 
HETATM   17  C   UNL     1      -5.123   2.360 -31.677  1.00  0.00     0.236 C 
HETATM   18  H   UNL     1      -6.368   3.842 -32.419  1.00  0.00     0.280 HD
BRANCH  15  19
HETATM   19  C   UNL     1      -5.718  -0.465 -32.763  1.00  0.00    -0.024 A 
HETATM   20  C   UNL     1      -5.913  -1.623 -33.607  1.00  0.00     0.018 A 
HETATM   21  C   UNL     1      -4.674  -2.243 -33.745  1.00  0.00     0.138 A 
HETATM   22  C   UNL     1      -6.987  -2.251 -34.270  1.00  0.00     0.017 A 
HETATM   23  N   UNL     1      -4.385  -3.391 -34.380  1.00  0.00    -0.242 NA
HETATM   24  N   UNL     1      -3.738  -1.468 -33.130  1.00  0.00    -0.350 N 
HETATM   25  C   UNL     1      -5.454  -3.959 -34.972  1.00  0.00     0.119 A 
HETATM   26  C   UNL     1      -6.740  -3.444 -34.957  1.00  0.00     0.020 A 
HETATM   27  H   UNL     1      -2.749  -1.680 -33.139  1.00  0.00     0.166 HD
HETATM   28  C   UNL     1      -4.346  -0.388 -32.546  1.00  0.00     0.098 A 
ENDBRANCH  15  19
ENDBRANCH  11  12
ENDBRANCH  10  11
ENDBRANCH   1   9
TORSDOF 4
ENDMDL
MODEL 8
REMARK VINA RESULT:      -8.4      1.842      2.758
REMARK  4 active torsions:
REMARK  status: ('A' for Active; 'I' for Inactive)
REMARK    1  A    between atoms: C_10  and  C_11 
REMARK    2  A    between atoms: N_14  and  C_16 
REMARK    3  A    between atoms: C_16  and  C_17 
REMARK    4  A    between atoms: C_18  and  C_19 
ROOT
HETATM    1  C   UNL     1      -4.600   1.181 -32.661  1.00  0.00    -0.036 A 
HETATM    2  C   UNL     1      -3.363   0.789 -32.139  1.00  0.00     0.013 A 
HETATM    3  C   UNL     1      -3.007  -0.564 -32.096  1.00  0.00     0.023 A 
HETATM    4  C   UNL     1      -3.891  -1.541 -32.562  1.00  0.00     0.044 A 
HETATM    5  C   UNL     1      -3.527  -2.927 -32.520  1.00  0.00     0.099 C 
HETATM    6  N   UNL     1      -3.238  -4.049 -32.487  1.00  0.00    -0.191 NA
HETATM    7  C   UNL     1      -5.137  -1.158 -33.067  1.00  0.00     0.023 A 
HETATM    8  C   UNL     1      -5.490   0.195 -33.112  1.00  0.00     0.013 A 
ENDROOT
BRANCH   1   9
HETATM    9  C   UNL     1      -4.957   2.607 -32.678  1.00  0.00     0.009 C 
HETATM   10  C   UNL     1      -4.271   3.519 -31.971  1.00  0.00     0.001 C 
BRANCH  10  11
HETATM   11  C   UNL     1      -4.498   4.995 -31.927  1.00  0.00     0.262 C 
BRANCH  11  12
HETATM   12  N   UNL     1      -3.332   5.867 -32.352  1.00  0.00    -0.068 N 
HETATM   13  C   UNL     1      -3.232   7.061 -31.421  1.00  0.00     0.236 C 
HETATM   14  C   UNL     1      -2.017   7.924 -31.745  1.00  0.00     0.037 C 
HETATM   15  C   UNL     1      -0.707   7.110 -31.739  1.00  0.00     0.024 C 
HETATM   16  C   UNL     1      -0.892   6.019 -32.798  1.00  0.00     0.037 C 
HETATM   17  C   UNL     1      -2.038   5.085 -32.442  1.00  0.00     0.236 C 
HETATM   18  H   UNL     1      -3.551   6.219 -33.290  1.00  0.00     0.280 HD
BRANCH  15  19
HETATM   19  C   UNL     1      -0.333   6.588 -30.357  1.00  0.00    -0.024 A 
HETATM   20  C   UNL     1      -0.321   7.286 -29.091  1.00  0.00     0.018 A 
HETATM   21  C   UNL     1       0.192   6.406 -28.142  1.00  0.00     0.138 A 
HETATM   22  C   UNL     1      -0.662   8.569 -28.613  1.00  0.00     0.017 A 
HETATM   23  N   UNL     1       0.455   6.642 -26.846  1.00  0.00    -0.242 NA
HETATM   24  N   UNL     1       0.380   5.197 -28.739  1.00  0.00    -0.350 N 
HETATM   25  C   UNL     1       0.132   7.891 -26.453  1.00  0.00     0.119 A 
HETATM   26  C   UNL     1      -0.421   8.864 -27.268  1.00  0.00     0.020 A 
HETATM   27  H   UNL     1       0.697   4.376 -28.241  1.00  0.00     0.166 HD
HETATM   28  C   UNL     1       0.057   5.284 -30.067  1.00  0.00     0.098 A 
ENDBRANCH  15  19
ENDBRANCH  11  12
ENDBRANCH  10  11
ENDBRANCH   1   9
TORSDOF 4
ENDMDL
MODEL 9
REMARK VINA RESULT:      -8.0      2.516      3.368
REMARK  4 active torsions:
REMARK  status: ('A' for Active; 'I' for Inactive)
REMARK    1  A    between atoms: C_10  and  C_11 
REMARK    2  A    between atoms: N_14  and  C_16 
REMARK    3  A    between atoms: C_16  and  C_17 
REMARK    4  A    between atoms: C_18  and  C_19 
ROOT
HETATM    1  C   UNL     1      -5.542   0.096 -33.438  1.00  0.00    -0.036 A 
HETATM    2  C   UNL     1      -6.718  -0.155 -34.153  1.00  0.00     0.013 A 
HETATM    3  C   UNL     1      -6.968  -1.426 -34.684  1.00  0.00     0.023 A 
HETATM    4  C   UNL     1      -6.038  -2.456 -34.517  1.00  0.00     0.044 A 
HETATM    5  C   UNL     1      -6.294  -3.758 -35.059  1.00  0.00     0.099 C 
HETATM    6  N   UNL     1      -6.496  -4.812 -35.497  1.00  0.00    -0.191 NA
HETATM    7  C   UNL     1      -4.852  -2.207 -33.820  1.00  0.00     0.023 A 
HETATM    8  C   UNL     1      -4.605  -0.937 -33.288  1.00  0.00     0.013 A 
ENDROOT
BRANCH   1   9
HETATM    9  C   UNL     1      -5.295   1.444 -32.906  1.00  0.00     0.009 C 
HETATM   10  C   UNL     1      -4.278   1.701 -32.067  1.00  0.00     0.001 C 
BRANCH  10  11
HETATM   11  C   UNL     1      -3.889   3.020 -31.486  1.00  0.00     0.262 C 
BRANCH  11  12
HETATM   12  N   UNL     1      -5.016   4.006 -31.242  1.00  0.00    -0.068 N 
HETATM   13  C   UNL     1      -5.717   3.656 -29.944  1.00  0.00     0.236 C 
HETATM   14  C   UNL     1      -6.802   4.673 -29.601  1.00  0.00     0.037 C 
HETATM   15  C   UNL     1      -6.256   6.114 -29.562  1.00  0.00     0.024 C 
HETATM   16  C   UNL     1      -5.688   6.381 -30.959  1.00  0.00     0.037 C 
HETATM   17  C   UNL     1      -4.537   5.441 -31.282  1.00  0.00     0.236 C 
HETATM   18  H   UNL     1      -5.690   3.879 -32.006  1.00  0.00     0.280 HD
BRANCH  15  19
HETATM   19  C   UNL     1      -5.267   6.349 -28.426  1.00  0.00    -0.024 A 
HETATM   20  C   UNL     1      -4.207   7.327 -28.328  1.00  0.00     0.018 A 
HETATM   21  C   UNL     1      -3.522   7.072 -27.143  1.00  0.00     0.138 A 
HETATM   22  C   UNL     1      -3.714   8.400 -29.099  1.00  0.00     0.017 A 
HETATM   23  N   UNL     1      -2.419   7.679 -26.673  1.00  0.00    -0.242 NA
HETATM   24  N   UNL     1      -4.174   6.078 -26.478  1.00  0.00    -0.350 N 
HETATM   25  C   UNL     1      -1.980   8.678 -27.464  1.00  0.00     0.119 A 
HETATM   26  C   UNL     1      -2.575   9.075 -28.650  1.00  0.00     0.020 A 
HETATM   27  H   UNL     1      -3.898   5.750 -25.563  1.00  0.00     0.166 HD
HETATM   28  C   UNL     1      -5.233   5.642 -27.229  1.00  0.00     0.098 A 
ENDBRANCH  15  19
ENDBRANCH  11  12
ENDBRANCH  10  11
ENDBRANCH   1   9
TORSDOF 4
ENDMDL
MODEL 10
REMARK VINA RESULT:      -8.0      3.226      9.866
REMARK  4 active torsions:
REMARK  status: ('A' for Active; 'I' for Inactive)
REMARK    1  A    between atoms: C_10  and  C_11 
REMARK    2  A    between atoms: N_14  and  C_16 
REMARK    3  A    between atoms: C_16  and  C_17 
REMARK    4  A    between atoms: C_18  and  C_19 
ROOT
HETATM    1  C   UNL     1      -1.132   5.666 -31.217  1.00  0.00    -0.036 A 
HETATM    2  C   UNL     1      -1.769   6.119 -30.057  1.00  0.00     0.013 A 
HETATM    3  C   UNL     1      -1.082   6.917 -29.135  1.00  0.00     0.023 A 
HETATM    4  C   UNL     1       0.255   7.260 -29.357  1.00  0.00     0.044 A 
HETATM    5  C   UNL     1       0.959   8.079 -28.415  1.00  0.00     0.099 C 
HETATM    6  N   UNL     1       1.533   8.740 -27.654  1.00  0.00    -0.191 NA
HETATM    7  C   UNL     1       0.903   6.796 -30.505  1.00  0.00     0.023 A 
HETATM    8  C   UNL     1       0.215   6.000 -31.426  1.00  0.00     0.013 A 
ENDROOT
BRANCH   1   9
HETATM    9  C   UNL     1      -1.870   4.814 -32.161  1.00  0.00     0.009 C 
HETATM   10  C   UNL     1      -2.937   4.093 -31.780  1.00  0.00     0.001 C 
BRANCH  10  11
HETATM   11  C   UNL     1      -3.798   3.222 -32.636  1.00  0.00     0.262 C 
BRANCH  11  12
HETATM   12  N   UNL     1      -4.419   2.016 -31.957  1.00  0.00    -0.068 N 
HETATM   13  C   UNL     1      -5.004   2.437 -30.623  1.00  0.00     0.236 C 
HETATM   14  C   UNL     1      -5.726   1.280 -29.938  1.00  0.00     0.037 C 
HETATM   15  C   UNL     1      -6.807   0.653 -30.841  1.00  0.00     0.024 C 
HETATM   16  C   UNL     1      -6.070   0.164 -32.092  1.00  0.00     0.037 C 
HETATM   17  C   UNL     1      -5.427   1.318 -32.846  1.00  0.00     0.236 C 
HETATM   18  H   UNL     1      -3.656   1.356 -31.770  1.00  0.00     0.280 HD
BRANCH  15  19
HETATM   19  C   UNL     1      -7.971   1.595 -31.124  1.00  0.00    -0.024 A 
HETATM   20  C   UNL     1      -9.130   1.386 -31.962  1.00  0.00     0.018 A 
HETATM   21  C   UNL     1      -9.848   2.578 -31.974  1.00  0.00     0.138 A 
HETATM   22  C   UNL     1      -9.670   0.340 -32.739  1.00  0.00     0.017 A 
HETATM   23  N   UNL     1     -10.955   2.875 -32.675  1.00  0.00    -0.242 NA
HETATM   24  N   UNL     1      -9.251   3.445 -31.110  1.00  0.00    -0.350 N 
HETATM   25  C   UNL     1     -11.410   1.846 -33.418  1.00  0.00     0.119 A 
HETATM   26  C   UNL     1     -10.829   0.590 -33.480  1.00  0.00     0.020 A 
HETATM   27  H   UNL     1      -9.619   4.364 -30.903  1.00  0.00     0.166 HD
HETATM   28  C   UNL     1      -8.129   2.866 -30.580  1.00  0.00     0.098 A 
ENDBRANCH  15  19
ENDBRANCH  11  12
ENDBRANCH  10  11
ENDBRANCH   1   9
TORSDOF 4
ENDMDL
