MODEL 1
REMARK VINA RESULT:      -9.0      0.000      0.000
REMARK  9 active torsions:
REMARK  status: ('A' for Active; 'I' for Inactive)
REMARK    1  A    between atoms: C_2  and  O_3 
REMARK    2  A    between atoms: O_3  and  C_4 
REMARK    3  A    between atoms: C_5  and  C_6 
REMARK    4  A    between atoms: N_7  and  C_9 
REMARK    5  A    between atoms: C_9  and  C_10 
REMARK       I    between atoms: C_10  and  N_11 
REMARK    6  A    between atoms: N_11  and  C_12 
REMARK    7  A    between atoms: C_20  and  C_21 
REMARK    8  A    between atoms: C_21  and  O_22 
REMARK    9  A    between atoms: C_28  and  O_29 
ROOT
HETATM    1  C   UNL     1      -4.071   4.706 -31.236  1.00  0.00     0.231 C 
HETATM    2  N   UNL     1      -5.201   3.658 -31.363  1.00  0.00    -0.054 N 
HETATM    3  H   UNL     1      -4.871   3.077 -32.151  1.00  0.00     0.281 HD
HETATM    4  C   UNL     1      -6.555   4.194 -31.725  1.00  0.00     0.239 C 
HETATM    5  C   UNL     1      -6.965   5.327 -30.801  1.00  0.00     0.066 C 
HETATM    6  C   UNL     1      -5.948   6.472 -30.845  1.00  0.00     0.065 C 
HETATM    7  C   UNL     1      -4.562   5.944 -30.436  1.00  0.00     0.055 C 
HETATM    8  C   UNL     1      -6.394   7.615 -29.912  1.00  0.00     0.038 C 
HETATM    9  C   UNL     1      -5.354   8.732 -29.798  1.00  0.00     0.003 C 
HETATM   10  C   UNL     1      -3.974   8.195 -29.433  1.00  0.00     0.001 C 
HETATM   11  C   UNL     1      -3.522   7.079 -30.374  1.00  0.00     0.010 C 
ENDROOT
BRANCH   2  12
HETATM   12  C   UNL     1      -5.253   2.665 -30.190  1.00  0.00     0.338 C 
BRANCH  12  13
HETATM   13  C   UNL     1      -5.362   1.206 -30.647  1.00  0.00     0.248 C 
HETATM   14  N   UNL     1      -4.842   0.994 -31.908  1.00  0.00    -0.319 N 
HETATM   15  H   UNL     1      -4.075   1.587 -32.231  1.00  0.00     0.169 HD
HETATM   16  O   UNL     1      -5.828   0.363 -29.885  1.00  0.00    -0.271 OA
BRANCH  14  17
HETATM   17  C   UNL     1      -4.996  -0.173 -32.645  1.00  0.00     0.094 A 
HETATM   18  S   UNL     1      -3.770  -1.346 -32.642  1.00  0.00    -0.075 SA
HETATM   19  C   UNL     1      -4.710  -2.414 -33.565  1.00  0.00    -0.008 A 
HETATM   20  C   UNL     1      -5.953  -1.897 -33.887  1.00  0.00    -0.026 A 
HETATM   21  C   UNL     1      -4.213  -3.780 -33.932  1.00  0.00     0.047 C 
HETATM   22  C   UNL     1      -6.930  -2.686 -34.717  1.00  0.00     0.041 C 
HETATM   23  C   UNL     1      -6.128  -0.564 -33.348  1.00  0.00     0.080 A 
HETATM   24  C   UNL     1      -6.558  -4.173 -34.805  1.00  0.00     0.005 C 
HETATM   25  C   UNL     1      -5.060  -4.373 -35.064  1.00  0.00     0.005 C 
BRANCH  23  26
HETATM   26  C   UNL     1      -7.277   0.336 -33.489  1.00  0.00     0.296 C 
HETATM   27  O   UNL     1      -7.207   1.385 -34.126  1.00  0.00    -0.259 OA
BRANCH  26  28
HETATM   28  O   UNL     1      -8.409  -0.129 -32.895  1.00  0.00    -0.322 OA
HETATM   29  C   UNL     1      -8.872   0.656 -31.794  1.00  0.00     0.213 C 
ENDBRANCH  26  28
ENDBRANCH  23  26
ENDBRANCH  14  17
ENDBRANCH  12  13
ENDBRANCH   2  12
BRANCH   1  30
HETATM   30  C   UNL     1      -3.307   4.950 -32.538  1.00  0.00     0.006 A 
HETATM   31  C   UNL     1      -1.889   4.931 -32.536  1.00  0.00     0.077 A 
HETATM   32  C   UNL     1      -1.180   5.135 -33.727  1.00  0.00     0.037 A 
HETATM   33  C   UNL     1      -1.854   5.368 -34.924  1.00  0.00     0.003 A 
HETATM   34  C   UNL     1      -3.240   5.407 -34.939  1.00  0.00     0.001 A 
HETATM   35  C   UNL     1      -3.957   5.203 -33.759  1.00  0.00     0.012 A 
BRANCH  31  36
HETATM   36  O   UNL     1      -1.298   4.719 -31.318  1.00  0.00    -0.351 OA
BRANCH  36  37
HETATM   37  C   UNL     1       0.054   5.130 -31.099  1.00  0.00     0.171 C 
HETATM   38  C   UNL     1       0.122   6.551 -30.565  1.00  0.00     0.034 C 
ENDBRANCH  36  37
ENDBRANCH  31  36
ENDBRANCH   1  30
BRANCH   6  39
HETATM   39  O   UNL     1      -5.940   6.950 -32.187  1.00  0.00    -0.389 OA
HETATM   40  H   UNL     1      -5.646   6.245 -32.793  1.00  0.00     0.210 HD
ENDBRANCH   6  39
TORSDOF 9
ENDMDL
MODEL 2
REMARK VINA RESULT:      -8.1      1.568      2.130
REMARK  9 active torsions:
REMARK  status: ('A' for Active; 'I' for Inactive)
REMARK    1  A    between atoms: C_2  and  O_3 
REMARK    2  A    between atoms: O_3  and  C_4 
REMARK    3  A    between atoms: C_5  and  C_6 
REMARK    4  A    between atoms: N_7  and  C_9 
REMARK    5  A    between atoms: C_9  and  C_10 
REMARK       I    between atoms: C_10  and  N_11 
REMARK    6  A    between atoms: N_11  and  C_12 
REMARK    7  A    between atoms: C_20  and  C_21 
REMARK    8  A    between atoms: C_21  and  O_22 
REMARK    9  A    between atoms: C_28  and  O_29 
ROOT
HETATM    1  C   UNL     1      -3.414   6.062 -30.650  1.00  0.00     0.231 C 
HETATM    2  N   UNL     1      -4.892   5.639 -30.810  1.00  0.00    -0.054 N 
HETATM    3  H   UNL     1      -4.856   5.035 -31.646  1.00  0.00     0.281 HD
HETATM    4  C   UNL     1      -5.865   6.747 -31.086  1.00  0.00     0.239 C 
HETATM    5  C   UNL     1      -5.726   7.869 -30.071  1.00  0.00     0.066 C 
HETATM    6  C   UNL     1      -4.306   8.441 -30.072  1.00  0.00     0.065 C 
HETATM    7  C   UNL     1      -3.300   7.322 -29.749  1.00  0.00     0.055 C 
HETATM    8  C   UNL     1      -4.194   9.587 -29.047  1.00  0.00     0.038 C 
HETATM    9  C   UNL     1      -2.766  10.113 -28.891  1.00  0.00     0.003 C 
HETATM   10  C   UNL     1      -1.770   8.992 -28.614  1.00  0.00     0.001 C 
HETATM   11  C   UNL     1      -1.864   7.868 -29.645  1.00  0.00     0.010 C 
ENDROOT
BRANCH   2  12
HETATM   12  C   UNL     1      -5.381   4.684 -29.707  1.00  0.00     0.338 C 
BRANCH  12  13
HETATM   13  C   UNL     1      -5.612   3.256 -30.212  1.00  0.00     0.248 C 
HETATM   14  N   UNL     1      -4.691   2.863 -31.162  1.00  0.00    -0.319 N 
HETATM   15  H   UNL     1      -3.749   3.260 -31.130  1.00  0.00     0.169 HD
HETATM   16  O   UNL     1      -6.516   2.579 -29.730  1.00  0.00    -0.271 OA
BRANCH  14  17
HETATM   17  C   UNL     1      -4.786   1.711 -31.933  1.00  0.00     0.094 A 
HETATM   18  S   UNL     1      -3.788   0.381 -31.598  1.00  0.00    -0.075 SA
HETATM   19  C   UNL     1      -4.561  -0.568 -32.772  1.00  0.00    -0.008 A 
HETATM   20  C   UNL     1      -5.574   0.108 -33.429  1.00  0.00    -0.026 A 
HETATM   21  C   UNL     1      -4.173  -1.997 -33.005  1.00  0.00     0.047 C 
HETATM   22  C   UNL     1      -6.371  -0.557 -34.520  1.00  0.00     0.041 C 
HETATM   23  C   UNL     1      -5.711   1.464 -32.939  1.00  0.00     0.080 A 
HETATM   24  C   UNL     1      -6.199  -2.083 -34.523  1.00  0.00     0.005 C 
HETATM   25  C   UNL     1      -4.732  -2.493 -34.343  1.00  0.00     0.005 C 
BRANCH  23  26
HETATM   26  C   UNL     1      -6.635   2.510 -33.389  1.00  0.00     0.296 C 
HETATM   27  O   UNL     1      -6.258   3.459 -34.074  1.00  0.00    -0.259 OA
BRANCH  26  28
HETATM   28  O   UNL     1      -7.925   2.296 -33.015  1.00  0.00    -0.322 OA
HETATM   29  C   UNL     1      -8.859   2.233 -34.095  1.00  0.00     0.213 C 
ENDBRANCH  26  28
ENDBRANCH  23  26
ENDBRANCH  14  17
ENDBRANCH  12  13
ENDBRANCH   2  12
BRANCH   1  30
HETATM   30  C   UNL     1      -2.621   6.041 -31.957  1.00  0.00     0.006 A 
HETATM   31  C   UNL     1      -1.367   5.381 -32.010  1.00  0.00     0.077 A 
HETATM   32  C   UNL     1      -0.642   5.341 -33.208  1.00  0.00     0.037 A 
HETATM   33  C   UNL     1      -1.136   5.953 -34.358  1.00  0.00     0.003 A 
HETATM   34  C   UNL     1      -2.351   6.617 -34.319  1.00  0.00     0.001 A 
HETATM   35  C   UNL     1      -3.084   6.662 -33.131  1.00  0.00     0.012 A 
BRANCH  31  36
HETATM   36  O   UNL     1      -0.938   4.824 -30.834  1.00  0.00    -0.351 OA
BRANCH  36  37
HETATM   37  C   UNL     1       0.429   4.959 -30.437  1.00  0.00     0.171 C 
HETATM   38  C   UNL     1       0.544   5.389 -28.984  1.00  0.00     0.034 C 
ENDBRANCH  36  37
ENDBRANCH  31  36
ENDBRANCH   1  30
BRANCH   6  39
HETATM   39  O   UNL     1      -4.086   8.969 -31.376  1.00  0.00    -0.389 OA
HETATM   40  H   UNL     1      -3.165   8.804 -31.654  1.00  0.00     0.210 HD
ENDBRANCH   6  39
TORSDOF 9
ENDMDL
MODEL 3
REMARK VINA RESULT:      -8.1      3.089      5.965
REMARK  9 active torsions:
REMARK  status: ('A' for Active; 'I' for Inactive)
REMARK    1  A    between atoms: C_2  and  O_3 
REMARK    2  A    between atoms: O_3  and  C_4 
REMARK    3  A    between atoms: C_5  and  C_6 
REMARK    4  A    between atoms: N_7  and  C_9 
REMARK    5  A    between atoms: C_9  and  C_10 
REMARK       I    between atoms: C_10  and  N_11 
REMARK    6  A    between atoms: N_11  and  C_12 
REMARK    7  A    between atoms: C_20  and  C_21 
REMARK    8  A    between atoms: C_21  and  O_22 
REMARK    9  A    between atoms: C_28  and  O_29 
ROOT
HETATM    1  C   UNL     1      -4.873   4.390 -32.082  1.00  0.00     0.231 C 
HETATM    2  N   UNL     1      -5.725   4.502 -33.367  1.00  0.00    -0.054 N 
HETATM    3  H   UNL     1      -6.300   3.645 -33.322  1.00  0.00     0.281 HD
HETATM    4  C   UNL     1      -4.968   4.480 -34.662  1.00  0.00     0.239 C 
HETATM    5  C   UNL     1      -3.845   5.502 -34.662  1.00  0.00     0.066 C 
HETATM    6  C   UNL     1      -2.869   5.252 -33.509  1.00  0.00     0.065 C 
HETATM    7  C   UNL     1      -3.627   5.314 -32.171  1.00  0.00     0.055 C 
HETATM    8  C   UNL     1      -1.732   6.292 -33.540  1.00  0.00     0.038 C 
HETATM    9  C   UNL     1      -0.796   6.190 -32.333  1.00  0.00     0.003 C 
HETATM   10  C   UNL     1      -1.560   6.209 -31.013  1.00  0.00     0.001 C 
HETATM   11  C   UNL     1      -2.671   5.161 -30.973  1.00  0.00     0.010 C 
ENDROOT
BRANCH   2  12
HETATM   12  C   UNL     1      -6.771   5.630 -33.314  1.00  0.00     0.338 C 
BRANCH  12  13
HETATM   13  C   UNL     1      -8.185   5.150 -33.659  1.00  0.00     0.248 C 
HETATM   14  N   UNL     1      -8.754   4.384 -32.661  1.00  0.00    -0.319 N 
HETATM   15  H   UNL     1      -8.483   4.557 -31.691  1.00  0.00     0.169 HD
HETATM   16  O   UNL     1      -8.707   5.502 -34.713  1.00  0.00    -0.271 OA
BRANCH  14  17
HETATM   17  C   UNL     1      -9.929   3.655 -32.792  1.00  0.00     0.094 A 
HETATM   18  S   UNL     1     -11.421   4.380 -32.440  1.00  0.00    -0.075 SA
HETATM   19  C   UNL     1     -12.275   3.006 -32.950  1.00  0.00    -0.008 A 
HETATM   20  C   UNL     1     -11.445   1.988 -33.387  1.00  0.00    -0.026 A 
HETATM   21  C   UNL     1     -13.773   2.967 -32.946  1.00  0.00     0.047 C 
HETATM   22  C   UNL     1     -12.010   0.677 -33.866  1.00  0.00     0.041 C 
HETATM   23  C   UNL     1     -10.050   2.364 -33.291  1.00  0.00     0.080 A 
HETATM   24  C   UNL     1     -13.514   0.762 -34.166  1.00  0.00     0.005 C 
HETATM   25  C   UNL     1     -14.273   1.523 -33.072  1.00  0.00     0.005 C 
BRANCH  23  26
HETATM   26  C   UNL     1      -8.863   1.567 -33.618  1.00  0.00     0.296 C 
HETATM   27  O   UNL     1      -8.044   1.934 -34.458  1.00  0.00    -0.259 OA
BRANCH  26  28
HETATM   28  O   UNL     1      -8.749   0.432 -32.877  1.00  0.00    -0.322 OA
HETATM   29  C   UNL     1      -7.673  -0.427 -33.259  1.00  0.00     0.213 C 
ENDBRANCH  26  28
ENDBRANCH  23  26
ENDBRANCH  14  17
ENDBRANCH  12  13
ENDBRANCH   2  12
BRANCH   1  30
HETATM   30  C   UNL     1      -4.667   2.953 -31.602  1.00  0.00     0.006 A 
HETATM   31  C   UNL     1      -5.758   2.230 -31.055  1.00  0.00     0.077 A 
HETATM   32  C   UNL     1      -5.584   0.907 -30.629  1.00  0.00     0.037 A 
HETATM   33  C   UNL     1      -4.340   0.287 -30.729  1.00  0.00     0.003 A 
HETATM   34  C   UNL     1      -3.260   0.985 -31.245  1.00  0.00     0.001 A 
HETATM   35  C   UNL     1      -3.422   2.304 -31.674  1.00  0.00     0.012 A 
BRANCH  31  36
HETATM   36  O   UNL     1      -6.942   2.915 -30.968  1.00  0.00    -0.351 OA
BRANCH  36  37
HETATM   37  C   UNL     1      -7.510   3.198 -29.687  1.00  0.00     0.171 C 
HETATM   38  C   UNL     1      -7.235   4.632 -29.264  1.00  0.00     0.034 C 
ENDBRANCH  36  37
ENDBRANCH  31  36
ENDBRANCH   1  30
BRANCH   6  39
HETATM   39  O   UNL     1      -2.314   3.958 -33.726  1.00  0.00    -0.389 OA
HETATM   40  H   UNL     1      -2.670   3.574 -34.550  1.00  0.00     0.210 HD
ENDBRANCH   6  39
TORSDOF 9
ENDMDL
MODEL 4
REMARK VINA RESULT:      -7.9      2.381      3.489
REMARK  9 active torsions:
REMARK  status: ('A' for Active; 'I' for Inactive)
REMARK    1  A    between atoms: C_2  and  O_3 
REMARK    2  A    between atoms: O_3  and  C_4 
REMARK    3  A    between atoms: C_5  and  C_6 
REMARK    4  A    between atoms: N_7  and  C_9 
REMARK    5  A    between atoms: C_9  and  C_10 
REMARK       I    between atoms: C_10  and  N_11 
REMARK    6  A    between atoms: N_11  and  C_12 
REMARK    7  A    between atoms: C_20  and  C_21 
REMARK    8  A    between atoms: C_21  and  O_22 
REMARK    9  A    between atoms: C_28  and  O_29 
ROOT
HETATM    1  C   UNL     1      -3.338   6.740 -30.449  1.00  0.00     0.231 C 
HETATM    2  N   UNL     1      -4.854   6.519 -30.659  1.00  0.00    -0.054 N 
HETATM    3  H   UNL     1      -4.870   5.884 -31.473  1.00  0.00     0.281 HD
HETATM    4  C   UNL     1      -5.653   7.739 -31.012  1.00  0.00     0.239 C 
HETATM    5  C   UNL     1      -5.397   8.869 -30.029  1.00  0.00     0.066 C 
HETATM    6  C   UNL     1      -3.913   9.240 -29.987  1.00  0.00     0.065 C 
HETATM    7  C   UNL     1      -3.085   8.006 -29.585  1.00  0.00     0.055 C 
HETATM    8  C   UNL     1      -3.682  10.397 -28.995  1.00  0.00     0.038 C 
HETATM    9  C   UNL     1      -2.201  10.727 -28.796  1.00  0.00     0.003 C 
HETATM   10  C   UNL     1      -1.382   9.490 -28.440  1.00  0.00     0.001 C 
HETATM   11  C   UNL     1      -1.592   8.352 -29.437  1.00  0.00     0.010 C 
ENDROOT
BRANCH   2  12
HETATM   12  C   UNL     1      -5.513   5.683 -29.548  1.00  0.00     0.338 C 
BRANCH  12  13
HETATM   13  C   UNL     1      -6.033   4.330 -30.047  1.00  0.00     0.248 C 
HETATM   14  N   UNL     1      -5.416   3.909 -31.208  1.00  0.00    -0.319 N 
HETATM   15  H   UNL     1      -4.452   4.196 -31.387  1.00  0.00     0.169 HD
HETATM   16  O   UNL     1      -6.875   3.723 -29.391  1.00  0.00    -0.271 OA
BRANCH  14  17
HETATM   17  C   UNL     1      -5.833   2.835 -31.984  1.00  0.00     0.094 A 
HETATM   18  S   UNL     1      -7.265   2.945 -32.885  1.00  0.00    -0.075 SA
HETATM   19  C   UNL     1      -7.001   1.429 -33.599  1.00  0.00    -0.008 A 
HETATM   20  C   UNL     1      -5.834   0.825 -33.164  1.00  0.00    -0.026 A 
HETATM   21  C   UNL     1      -7.944   0.868 -34.620  1.00  0.00     0.047 C 
HETATM   22  C   UNL     1      -5.429  -0.534 -33.668  1.00  0.00     0.041 C 
HETATM   23  C   UNL     1      -5.137   1.653 -32.201  1.00  0.00     0.080 A 
HETATM   24  C   UNL     1      -6.204  -0.947 -34.928  1.00  0.00     0.005 C 
HETATM   25  C   UNL     1      -7.700  -0.634 -34.807  1.00  0.00     0.005 C 
BRANCH  23  26
HETATM   26  C   UNL     1      -3.892   1.365 -31.480  1.00  0.00     0.296 C 
HETATM   27  O   UNL     1      -3.032   2.225 -31.302  1.00  0.00    -0.259 OA
BRANCH  26  28
HETATM   28  O   UNL     1      -3.820   0.093 -31.004  1.00  0.00    -0.322 OA
HETATM   29  C   UNL     1      -2.721  -0.671 -31.504  1.00  0.00     0.213 C 
ENDBRANCH  26  28
ENDBRANCH  23  26
ENDBRANCH  14  17
ENDBRANCH  12  13
ENDBRANCH   2  12
BRANCH   1  30
HETATM   30  C   UNL     1      -2.507   6.561 -31.720  1.00  0.00     0.006 A 
HETATM   31  C   UNL     1      -1.351   5.740 -31.696  1.00  0.00     0.077 A 
HETATM   32  C   UNL     1      -0.594   5.555 -32.859  1.00  0.00     0.037 A 
HETATM   33  C   UNL     1      -0.958   6.178 -34.050  1.00  0.00     0.003 A 
HETATM   34  C   UNL     1      -2.075   6.998 -34.087  1.00  0.00     0.001 A 
HETATM   35  C   UNL     1      -2.839   7.189 -32.934  1.00  0.00     0.012 A 
BRANCH  31  36
HETATM   36  O   UNL     1      -1.045   5.180 -30.483  1.00  0.00    -0.351 OA
BRANCH  36  37
HETATM   37  C   UNL     1       0.323   4.989 -30.110  1.00  0.00     0.171 C 
HETATM   38  C   UNL     1       0.616   5.598 -28.750  1.00  0.00     0.034 C 
ENDBRANCH  36  37
ENDBRANCH  31  36
ENDBRANCH   1  30
BRANCH   6  39
HETATM   39  O   UNL     1      -3.572   9.683 -31.297  1.00  0.00    -0.389 OA
HETATM   40  H   UNL     1      -2.949  10.432 -31.247  1.00  0.00     0.210 HD
ENDBRANCH   6  39
TORSDOF 9
ENDMDL
MODEL 5
REMARK VINA RESULT:      -7.8      1.467      4.251
REMARK  9 active torsions:
REMARK  status: ('A' for Active; 'I' for Inactive)
REMARK    1  A    between atoms: C_2  and  O_3 
REMARK    2  A    between atoms: O_3  and  C_4 
REMARK    3  A    between atoms: C_5  and  C_6 
REMARK    4  A    between atoms: N_7  and  C_9 
REMARK    5  A    between atoms: C_9  and  C_10 
REMARK       I    between atoms: C_10  and  N_11 
REMARK    6  A    between atoms: N_11  and  C_12 
REMARK    7  A    between atoms: C_20  and  C_21 
REMARK    8  A    between atoms: C_21  and  O_22 
REMARK    9  A    between atoms: C_28  and  O_29 
ROOT
HETATM    1  C   UNL     1      -5.040   5.462 -31.343  1.00  0.00     0.231 C 
HETATM    2  N   UNL     1      -5.305   3.957 -31.114  1.00  0.00    -0.054 N 
HETATM    3  H   UNL     1      -5.958   3.970 -30.314  1.00  0.00     0.281 HD
HETATM    4  C   UNL     1      -4.114   3.132 -30.722  1.00  0.00     0.239 C 
HETATM    5  C   UNL     1      -2.958   3.342 -31.684  1.00  0.00     0.066 C 
HETATM    6  C   UNL     1      -2.547   4.816 -31.741  1.00  0.00     0.065 C 
HETATM    7  C   UNL     1      -3.749   5.668 -32.183  1.00  0.00     0.055 C 
HETATM    8  C   UNL     1      -1.362   5.000 -32.710  1.00  0.00     0.038 C 
HETATM    9  C   UNL     1      -0.990   6.469 -32.926  1.00  0.00     0.003 C 
HETATM   10  C   UNL     1      -2.196   7.313 -33.322  1.00  0.00     0.001 C 
HETATM   11  C   UNL     1      -3.361   7.150 -32.347  1.00  0.00     0.010 C 
ENDROOT
BRANCH   2  12
HETATM   12  C   UNL     1      -6.134   3.302 -32.233  1.00  0.00     0.338 C 
BRANCH  12  13
HETATM   13  C   UNL     1      -6.061   1.771 -32.213  1.00  0.00     0.248 C 
HETATM   14  N   UNL     1      -5.353   1.249 -33.276  1.00  0.00    -0.319 N 
HETATM   15  H   UNL     1      -4.597   1.803 -33.684  1.00  0.00     0.169 HD
HETATM   16  O   UNL     1      -6.563   1.150 -31.280  1.00  0.00    -0.271 OA
BRANCH  14  17
HETATM   17  C   UNL     1      -5.307  -0.096 -33.617  1.00  0.00     0.094 A 
HETATM   18  S   UNL     1      -3.947  -1.027 -33.216  1.00  0.00    -0.075 SA
HETATM   19  C   UNL     1      -4.679  -2.447 -33.786  1.00  0.00    -0.008 A 
HETATM   20  C   UNL     1      -5.951  -2.233 -34.287  1.00  0.00    -0.026 A 
HETATM   21  C   UNL     1      -3.990  -3.775 -33.696  1.00  0.00     0.047 C 
HETATM   22  C   UNL     1      -6.762  -3.366 -34.857  1.00  0.00     0.041 C 
HETATM   23  C   UNL     1      -6.329  -0.838 -34.194  1.00  0.00     0.080 A 
HETATM   24  C   UNL     1      -6.201  -4.742 -34.468  1.00  0.00     0.005 C 
HETATM   25  C   UNL     1      -4.675  -4.798 -34.610  1.00  0.00     0.005 C 
BRANCH  23  26
HETATM   26  C   UNL     1      -7.570  -0.195 -34.641  1.00  0.00     0.296 C 
HETATM   27  O   UNL     1      -7.717   0.202 -35.795  1.00  0.00    -0.259 OA
BRANCH  26  28
HETATM   28  O   UNL     1      -8.528  -0.132 -33.677  1.00  0.00    -0.322 OA
HETATM   29  C   UNL     1      -9.527   0.866 -33.891  1.00  0.00     0.213 C 
ENDBRANCH  26  28
ENDBRANCH  23  26
ENDBRANCH  14  17
ENDBRANCH  12  13
ENDBRANCH   2  12
BRANCH   1  30
HETATM   30  C   UNL     1      -5.225   6.319 -30.090  1.00  0.00     0.006 A 
HETATM   31  C   UNL     1      -6.521   6.764 -29.725  1.00  0.00     0.077 A 
HETATM   32  C   UNL     1      -6.702   7.533 -28.569  1.00  0.00     0.037 A 
HETATM   33  C   UNL     1      -5.616   7.878 -27.768  1.00  0.00     0.003 A 
HETATM   34  C   UNL     1      -4.340   7.466 -28.120  1.00  0.00     0.001 A 
HETATM   35  C   UNL     1      -4.147   6.697 -29.269  1.00  0.00     0.012 A 
BRANCH  31  36
HETATM   36  O   UNL     1      -7.534   6.404 -30.575  1.00  0.00    -0.351 OA
BRANCH  36  37
HETATM   37  C   UNL     1      -8.549   5.500 -30.132  1.00  0.00     0.171 C 
HETATM   38  C   UNL     1      -9.901   6.188 -30.039  1.00  0.00     0.034 C 
ENDBRANCH  36  37
ENDBRANCH  31  36
ENDBRANCH   1  30
BRANCH   6  39
HETATM   39  O   UNL     1      -2.124   5.167 -30.427  1.00  0.00    -0.389 OA
HETATM   40  H   UNL     1      -1.152   5.247 -30.398  1.00  0.00     0.210 HD
ENDBRANCH   6  39
TORSDOF 9
ENDMDL
MODEL 6
REMARK VINA RESULT:      -7.7      3.200      8.415
REMARK  9 active torsions:
REMARK  status: ('A' for Active; 'I' for Inactive)
REMARK    1  A    between atoms: C_2  and  O_3 
REMARK    2  A    between atoms: O_3  and  C_4 
REMARK    3  A    between atoms: C_5  and  C_6 
REMARK    4  A    between atoms: N_7  and  C_9 
REMARK    5  A    between atoms: C_9  and  C_10 
REMARK       I    between atoms: C_10  and  N_11 
REMARK    6  A    between atoms: N_11  and  C_12 
REMARK    7  A    between atoms: C_20  and  C_21 
REMARK    8  A    between atoms: C_21  and  O_22 
REMARK    9  A    between atoms: C_28  and  O_29 
ROOT
HETATM    1  C   UNL     1      -6.034   3.893 -31.926  1.00  0.00     0.231 C 
HETATM    2  N   UNL     1      -5.737   5.033 -30.926  1.00  0.00    -0.054 N 
HETATM    3  H   UNL     1      -4.798   4.780 -30.580  1.00  0.00     0.281 HD
HETATM    4  C   UNL     1      -6.654   5.123 -29.741  1.00  0.00     0.239 C 
HETATM    5  C   UNL     1      -8.110   5.141 -30.171  1.00  0.00     0.066 C 
HETATM    6  C   UNL     1      -8.463   3.891 -30.980  1.00  0.00     0.065 C 
HETATM    7  C   UNL     1      -7.557   3.809 -32.222  1.00  0.00     0.055 C 
HETATM    8  C   UNL     1      -9.949   3.925 -31.391  1.00  0.00     0.038 C 
HETATM    9  C   UNL     1     -10.337   2.775 -32.324  1.00  0.00     0.003 C 
HETATM   10  C   UNL     1      -9.408   2.676 -33.528  1.00  0.00     0.001 C 
HETATM   11  C   UNL     1      -7.937   2.617 -33.120  1.00  0.00     0.010 C 
ENDROOT
BRANCH   2  12
HETATM   12  C   UNL     1      -5.507   6.397 -31.599  1.00  0.00     0.338 C 
BRANCH  12  13
HETATM   13  C   UNL     1      -4.496   7.272 -30.849  1.00  0.00     0.248 C 
HETATM   14  N   UNL     1      -3.409   6.560 -30.382  1.00  0.00    -0.319 N 
HETATM   15  H   UNL     1      -3.103   5.732 -30.896  1.00  0.00     0.169 HD
HETATM   16  O   UNL     1      -4.683   8.482 -30.765  1.00  0.00    -0.271 OA
BRANCH  14  17
HETATM   17  C   UNL     1      -2.456   7.054 -29.500  1.00  0.00     0.094 A 
HETATM   18  S   UNL     1      -2.844   7.265 -27.863  1.00  0.00    -0.075 SA
HETATM   19  C   UNL     1      -1.253   7.710 -27.483  1.00  0.00    -0.008 A 
HETATM   20  C   UNL     1      -0.415   7.708 -28.585  1.00  0.00    -0.026 A 
HETATM   21  C   UNL     1      -0.841   8.025 -26.076  1.00  0.00     0.047 C 
HETATM   22  C   UNL     1       1.035   8.091 -28.459  1.00  0.00     0.041 C 
HETATM   23  C   UNL     1      -1.124   7.323 -29.788  1.00  0.00     0.080 A 
HETATM   24  C   UNL     1       1.517   8.088 -27.000  1.00  0.00     0.005 C 
HETATM   25  C   UNL     1       0.506   8.759 -26.063  1.00  0.00     0.005 C 
BRANCH  23  26
HETATM   26  C   UNL     1      -0.614   7.230 -31.160  1.00  0.00     0.296 C 
HETATM   27  O   UNL     1      -1.197   7.753 -32.107  1.00  0.00    -0.259 OA
BRANCH  26  28
HETATM   28  O   UNL     1       0.566   6.559 -31.257  1.00  0.00    -0.322 OA
HETATM   29  C   UNL     1       0.503   5.180 -30.887  1.00  0.00     0.213 C 
ENDBRANCH  26  28
ENDBRANCH  23  26
ENDBRANCH  14  17
ENDBRANCH  12  13
ENDBRANCH   2  12
BRANCH   1  30
HETATM   30  C   UNL     1      -5.291   2.593 -31.619  1.00  0.00     0.006 A 
HETATM   31  C   UNL     1      -3.877   2.599 -31.504  1.00  0.00     0.077 A 
HETATM   32  C   UNL     1      -3.189   1.417 -31.204  1.00  0.00     0.037 A 
HETATM   33  C   UNL     1      -3.879   0.220 -31.023  1.00  0.00     0.003 A 
HETATM   34  C   UNL     1      -5.259   0.193 -31.148  1.00  0.00     0.001 A 
HETATM   35  C   UNL     1      -5.956   1.366 -31.445  1.00  0.00     0.012 A 
BRANCH  31  36
HETATM   36  O   UNL     1      -3.269   3.809 -31.719  1.00  0.00    -0.351 OA
BRANCH  36  37
HETATM   37  C   UNL     1      -2.420   3.988 -32.855  1.00  0.00     0.171 C 
HETATM   38  C   UNL     1      -2.943   5.082 -33.770  1.00  0.00     0.034 C 
ENDBRANCH  36  37
ENDBRANCH  31  36
ENDBRANCH   1  30
BRANCH   6  39
HETATM   39  O   UNL     1      -8.251   2.779 -30.116  1.00  0.00    -0.389 OA
HETATM   40  H   UNL     1      -8.595   1.964 -30.527  1.00  0.00     0.210 HD
ENDBRANCH   6  39
TORSDOF 9
ENDMDL
MODEL 7
REMARK VINA RESULT:      -7.7      3.187      4.777
REMARK  9 active torsions:
REMARK  status: ('A' for Active; 'I' for Inactive)
REMARK    1  A    between atoms: C_2  and  O_3 
REMARK    2  A    between atoms: O_3  and  C_4 
REMARK    3  A    between atoms: C_5  and  C_6 
REMARK    4  A    between atoms: N_7  and  C_9 
REMARK    5  A    between atoms: C_9  and  C_10 
REMARK       I    between atoms: C_10  and  N_11 
REMARK    6  A    between atoms: N_11  and  C_12 
REMARK    7  A    between atoms: C_20  and  C_21 
REMARK    8  A    between atoms: C_21  and  O_22 
REMARK    9  A    between atoms: C_28  and  O_29 
ROOT
HETATM    1  C   UNL     1      -2.731   6.226 -30.213  1.00  0.00     0.231 C 
HETATM    2  N   UNL     1      -4.147   6.806 -29.992  1.00  0.00    -0.054 N 
HETATM    3  H   UNL     1      -4.622   6.563 -30.876  1.00  0.00     0.281 HD
HETATM    4  C   UNL     1      -4.228   8.295 -29.823  1.00  0.00     0.239 C 
HETATM    5  C   UNL     1      -3.267   8.781 -28.752  1.00  0.00     0.066 C 
HETATM    6  C   UNL     1      -1.824   8.395 -29.088  1.00  0.00     0.065 C 
HETATM    7  C   UNL     1      -1.718   6.866 -29.223  1.00  0.00     0.055 C 
HETATM    8  C   UNL     1      -0.866   8.913 -27.996  1.00  0.00     0.038 C 
HETATM    9  C   UNL     1       0.576   8.441 -28.193  1.00  0.00     0.003 C 
HETATM   10  C   UNL     1       0.665   6.929 -28.368  1.00  0.00     0.001 C 
HETATM   11  C   UNL     1      -0.265   6.419 -29.468  1.00  0.00     0.010 C 
ENDROOT
BRANCH   2  12
HETATM   12  C   UNL     1      -4.964   6.046 -28.932  1.00  0.00     0.338 C 
BRANCH  12  13
HETATM   13  C   UNL     1      -6.164   5.299 -29.526  1.00  0.00     0.248 C 
HETATM   14  N   UNL     1      -5.796   4.239 -30.330  1.00  0.00    -0.319 N 
HETATM   15  H   UNL     1      -4.922   3.749 -30.131  1.00  0.00     0.169 HD
HETATM   16  O   UNL     1      -7.304   5.640 -29.223  1.00  0.00    -0.271 OA
BRANCH  14  17
HETATM   17  C   UNL     1      -6.661   3.528 -31.152  1.00  0.00     0.094 A 
HETATM   18  S   UNL     1      -7.118   1.948 -30.738  1.00  0.00    -0.075 SA
HETATM   19  C   UNL     1      -8.197   1.856 -32.043  1.00  0.00    -0.008 A 
HETATM   20  C   UNL     1      -8.221   3.012 -32.804  1.00  0.00    -0.026 A 
HETATM   21  C   UNL     1      -9.042   0.640 -32.277  1.00  0.00     0.047 C 
HETATM   22  C   UNL     1      -9.104   3.123 -34.019  1.00  0.00     0.041 C 
HETATM   23  C   UNL     1      -7.308   4.008 -32.283  1.00  0.00     0.080 A 
HETATM   24  C   UNL     1     -10.184   2.032 -34.060  1.00  0.00     0.005 C 
HETATM   25  C   UNL     1      -9.618   0.653 -33.699  1.00  0.00     0.005 C 
BRANCH  23  26
HETATM   26  C   UNL     1      -7.012   5.343 -32.813  1.00  0.00     0.296 C 
HETATM   27  O   UNL     1      -7.854   6.238 -32.826  1.00  0.00    -0.259 OA
BRANCH  26  28
HETATM   28  O   UNL     1      -5.727   5.490 -33.233  1.00  0.00    -0.322 OA
HETATM   29  C   UNL     1      -5.389   4.740 -34.402  1.00  0.00     0.213 C 
ENDBRANCH  26  28
ENDBRANCH  23  26
ENDBRANCH  14  17
ENDBRANCH  12  13
ENDBRANCH   2  12
BRANCH   1  30
HETATM   30  C   UNL     1      -2.329   6.124 -31.684  1.00  0.00     0.006 A 
HETATM   31  C   UNL     1      -2.365   4.866 -32.339  1.00  0.00     0.077 A 
HETATM   32  C   UNL     1      -2.016   4.765 -33.691  1.00  0.00     0.037 A 
HETATM   33  C   UNL     1      -1.622   5.892 -34.409  1.00  0.00     0.003 A 
HETATM   34  C   UNL     1      -1.564   7.126 -33.780  1.00  0.00     0.001 A 
HETATM   35  C   UNL     1      -1.912   7.239 -32.432  1.00  0.00     0.012 A 
BRANCH  31  36
HETATM   36  O   UNL     1      -2.740   3.802 -31.561  1.00  0.00    -0.351 OA
BRANCH  36  37
HETATM   37  C   UNL     1      -3.277   2.626 -32.172  1.00  0.00     0.171 C 
HETATM   38  C   UNL     1      -3.326   1.465 -31.192  1.00  0.00     0.034 C 
ENDBRANCH  36  37
ENDBRANCH  31  36
ENDBRANCH   1  30
BRANCH   6  39
HETATM   39  O   UNL     1      -1.510   9.042 -30.317  1.00  0.00    -0.389 OA
HETATM   40  H   UNL     1      -0.619   9.438 -30.271  1.00  0.00     0.210 HD
ENDBRANCH   6  39
TORSDOF 9
ENDMDL
MODEL 8
REMARK VINA RESULT:      -7.6      2.959      6.075
REMARK  9 active torsions:
REMARK  status: ('A' for Active; 'I' for Inactive)
REMARK    1  A    between atoms: C_2  and  O_3 
REMARK    2  A    between atoms: O_3  and  C_4 
REMARK    3  A    between atoms: C_5  and  C_6 
REMARK    4  A    between atoms: N_7  and  C_9 
REMARK    5  A    between atoms: C_9  and  C_10 
REMARK       I    between atoms: C_10  and  N_11 
REMARK    6  A    between atoms: N_11  and  C_12 
REMARK    7  A    between atoms: C_20  and  C_21 
REMARK    8  A    between atoms: C_21  and  O_22 
REMARK    9  A    between atoms: C_28  and  O_29 
ROOT
HETATM    1  C   UNL     1      -5.034   5.858 -32.040  1.00  0.00     0.231 C 
HETATM    2  N   UNL     1      -5.474   4.430 -32.434  1.00  0.00    -0.054 N 
HETATM    3  H   UNL     1      -6.298   4.281 -31.829  1.00  0.00     0.281 HD
HETATM    4  C   UNL     1      -4.489   3.335 -32.146  1.00  0.00     0.239 C 
HETATM    5  C   UNL     1      -3.120   3.660 -32.718  1.00  0.00     0.066 C 
HETATM    6  C   UNL     1      -2.583   4.977 -32.151  1.00  0.00     0.065 C 
HETATM    7  C   UNL     1      -3.565   6.116 -32.477  1.00  0.00     0.055 C 
HETATM    8  C   UNL     1      -1.188   5.277 -32.734  1.00  0.00     0.038 C 
HETATM    9  C   UNL     1      -0.650   6.648 -32.321  1.00  0.00     0.003 C 
HETATM   10  C   UNL     1      -1.647   7.765 -32.608  1.00  0.00     0.001 C 
HETATM   11  C   UNL     1      -3.023   7.480 -32.009  1.00  0.00     0.010 C 
ENDROOT
BRANCH   2  12
HETATM   12  C   UNL     1      -6.061   4.337 -33.854  1.00  0.00     0.338 C 
BRANCH  12  13
HETATM   13  C   UNL     1      -7.593   4.306 -33.867  1.00  0.00     0.248 C 
HETATM   14  N   UNL     1      -8.120   3.315 -33.062  1.00  0.00    -0.319 N 
HETATM   15  H   UNL     1      -7.599   3.023 -32.234  1.00  0.00     0.169 HD
HETATM   16  O   UNL     1      -8.213   5.147 -34.511  1.00  0.00    -0.271 OA
BRANCH  14  17
HETATM   17  C   UNL     1      -9.454   2.930 -33.048  1.00  0.00     0.094 A 
HETATM   18  S   UNL     1     -10.655   4.044 -32.611  1.00  0.00    -0.075 SA
HETATM   19  C   UNL     1     -11.892   2.939 -32.964  1.00  0.00    -0.008 A 
HETATM   20  C   UNL     1     -11.413   1.720 -33.411  1.00  0.00    -0.026 A 
HETATM   21  C   UNL     1     -13.338   3.310 -32.827  1.00  0.00     0.047 C 
HETATM   22  C   UNL     1     -12.353   0.598 -33.762  1.00  0.00     0.041 C 
HETATM   23  C   UNL     1      -9.966   1.705 -33.459  1.00  0.00     0.080 A 
HETATM   24  C   UNL     1     -13.802   1.079 -33.935  1.00  0.00     0.005 C 
HETATM   25  C   UNL     1     -14.216   2.053 -32.825  1.00  0.00     0.005 C 
BRANCH  23  26
HETATM   26  C   UNL     1      -9.075   0.604 -33.841  1.00  0.00     0.296 C 
HETATM   27  O   UNL     1      -8.943  -0.398 -33.141  1.00  0.00    -0.259 OA
BRANCH  26  28
HETATM   28  O   UNL     1      -8.465   0.789 -35.042  1.00  0.00    -0.322 OA
HETATM   29  C   UNL     1      -7.073   0.466 -35.063  1.00  0.00     0.213 C 
ENDBRANCH  26  28
ENDBRANCH  23  26
ENDBRANCH  14  17
ENDBRANCH  12  13
ENDBRANCH   2  12
BRANCH   1  30
HETATM   30  C   UNL     1      -5.442   6.261 -30.623  1.00  0.00     0.006 A 
HETATM   31  C   UNL     1      -6.119   7.488 -30.407  1.00  0.00     0.077 A 
HETATM   32  C   UNL     1      -6.514   7.857 -29.115  1.00  0.00     0.037 A 
HETATM   33  C   UNL     1      -6.241   7.032 -28.026  1.00  0.00     0.003 A 
HETATM   34  C   UNL     1      -5.564   5.837 -28.217  1.00  0.00     0.001 A 
HETATM   35  C   UNL     1      -5.168   5.458 -29.501  1.00  0.00     0.012 A 
BRANCH  31  36
HETATM   36  O   UNL     1      -6.331   8.255 -31.523  1.00  0.00    -0.351 OA
BRANCH  36  37
HETATM   37  C   UNL     1      -7.626   8.806 -31.775  1.00  0.00     0.171 C 
HETATM   38  C   UNL     1      -8.621   7.726 -32.161  1.00  0.00     0.034 C 
ENDBRANCH  36  37
ENDBRANCH  31  36
ENDBRANCH   1  30
BRANCH   6  39
HETATM   39  O   UNL     1      -2.462   4.789 -30.744  1.00  0.00    -0.389 OA
HETATM   40  H   UNL     1      -3.088   5.371 -30.273  1.00  0.00     0.210 HD
ENDBRANCH   6  39
TORSDOF 9
ENDMDL
MODEL 9
REMARK VINA RESULT:      -7.6      2.397      4.009
REMARK  9 active torsions:
REMARK  status: ('A' for Active; 'I' for Inactive)
REMARK    1  A    between atoms: C_2  and  O_3 
REMARK    2  A    between atoms: O_3  and  C_4 
REMARK    3  A    between atoms: C_5  and  C_6 
REMARK    4  A    between atoms: N_7  and  C_9 
REMARK    5  A    between atoms: C_9  and  C_10 
REMARK       I    between atoms: C_10  and  N_11 
REMARK    6  A    between atoms: N_11  and  C_12 
REMARK    7  A    between atoms: C_20  and  C_21 
REMARK    8  A    between atoms: C_21  and  O_22 
REMARK    9  A    between atoms: C_28  and  O_29 
ROOT
HETATM    1  C   UNL     1      -7.214   4.940 -31.388  1.00  0.00     0.231 C 
HETATM    2  N   UNL     1      -6.774   3.896 -30.336  1.00  0.00    -0.054 N 
HETATM    3  H   UNL     1      -7.106   3.012 -30.756  1.00  0.00     0.281 HD
HETATM    4  C   UNL     1      -7.403   4.025 -28.980  1.00  0.00     0.239 C 
HETATM    5  C   UNL     1      -7.262   5.437 -28.438  1.00  0.00     0.066 C 
HETATM    6  C   UNL     1      -7.901   6.458 -29.383  1.00  0.00     0.065 C 
HETATM    7  C   UNL     1      -7.235   6.365 -30.768  1.00  0.00     0.055 C 
HETATM    8  C   UNL     1      -7.758   7.880 -28.805  1.00  0.00     0.038 C 
HETATM    9  C   UNL     1      -8.248   8.967 -29.763  1.00  0.00     0.003 C 
HETATM   10  C   UNL     1      -7.615   8.840 -31.144  1.00  0.00     0.001 C 
HETATM   11  C   UNL     1      -7.779   7.438 -31.729  1.00  0.00     0.010 C 
ENDROOT
BRANCH   2  12
HETATM   12  C   UNL     1      -5.250   3.701 -30.264  1.00  0.00     0.338 C 
BRANCH  12  13
HETATM   13  C   UNL     1      -4.735   2.649 -31.253  1.00  0.00     0.248 C 
HETATM   14  N   UNL     1      -5.685   1.703 -31.579  1.00  0.00    -0.319 N 
HETATM   15  H   UNL     1      -6.672   1.969 -31.567  1.00  0.00     0.169 HD
HETATM   16  O   UNL     1      -3.596   2.744 -31.703  1.00  0.00    -0.271 OA
BRANCH  14  17
HETATM   17  C   UNL     1      -5.431   0.531 -32.281  1.00  0.00     0.094 A 
HETATM   18  S   UNL     1      -4.154  -0.480 -31.810  1.00  0.00    -0.075 SA
HETATM   19  C   UNL     1      -4.577  -1.649 -32.963  1.00  0.00    -0.008 A 
HETATM   20  C   UNL     1      -5.682  -1.288 -33.715  1.00  0.00    -0.026 A 
HETATM   21  C   UNL     1      -3.824  -2.940 -33.085  1.00  0.00     0.047 C 
HETATM   22  C   UNL     1      -6.207  -2.186 -34.804  1.00  0.00     0.041 C 
HETATM   23  C   UNL     1      -6.192   0.008 -33.319  1.00  0.00     0.080 A 
HETATM   24  C   UNL     1      -5.652  -3.615 -34.703  1.00  0.00     0.005 C 
HETATM   25  C   UNL     1      -4.146  -3.625 -34.419  1.00  0.00     0.005 C 
BRANCH  23  26
HETATM   26  C   UNL     1      -7.318   0.759 -33.883  1.00  0.00     0.296 C 
HETATM   27  O   UNL     1      -7.374   1.047 -35.077  1.00  0.00    -0.259 OA
BRANCH  26  28
HETATM   28  O   UNL     1      -8.287   1.052 -32.975  1.00  0.00    -0.322 OA
HETATM   29  C   UNL     1      -9.322   0.072 -32.866  1.00  0.00     0.213 C 
ENDBRANCH  26  28
ENDBRANCH  23  26
ENDBRANCH  14  17
ENDBRANCH  12  13
ENDBRANCH   2  12
BRANCH   1  30
HETATM   30  C   UNL     1      -8.417   4.505 -32.225  1.00  0.00     0.006 A 
HETATM   31  C   UNL     1      -8.351   4.568 -33.640  1.00  0.00     0.077 A 
HETATM   32  C   UNL     1      -9.441   4.154 -34.415  1.00  0.00     0.037 A 
HETATM   33  C   UNL     1     -10.605   3.684 -33.811  1.00  0.00     0.003 A 
HETATM   34  C   UNL     1     -10.693   3.632 -32.429  1.00  0.00     0.001 A 
HETATM   35  C   UNL     1      -9.612   4.041 -31.645  1.00  0.00     0.012 A 
BRANCH  31  36
HETATM   36  O   UNL     1      -7.183   5.063 -34.159  1.00  0.00    -0.351 OA
BRANCH  36  37
HETATM   37  C   UNL     1      -6.030   4.222 -34.249  1.00  0.00     0.171 C 
HETATM   38  C   UNL     1      -4.749   5.040 -34.271  1.00  0.00     0.034 C 
ENDBRANCH  36  37
ENDBRANCH  31  36
ENDBRANCH   1  30
BRANCH   6  39
HETATM   39  O   UNL     1      -9.284   6.129 -29.455  1.00  0.00    -0.389 OA
HETATM   40  H   UNL     1      -9.488   5.398 -28.842  1.00  0.00     0.210 HD
ENDBRANCH   6  39
TORSDOF 9
ENDMDL
MODEL 10
REMARK VINA RESULT:      -7.5      3.018      8.179
REMARK  9 active torsions:
REMARK  status: ('A' for Active; 'I' for Inactive)
REMARK    1  A    between atoms: C_2  and  O_3 
REMARK    2  A    between atoms: O_3  and  C_4 
REMARK    3  A    between atoms: C_5  and  C_6 
REMARK    4  A    between atoms: N_7  and  C_9 
REMARK    5  A    between atoms: C_9  and  C_10 
REMARK       I    between atoms: C_10  and  N_11 
REMARK    6  A    between atoms: N_11  and  C_12 
REMARK    7  A    between atoms: C_20  and  C_21 
REMARK    8  A    between atoms: C_21  and  O_22 
REMARK    9  A    between atoms: C_28  and  O_29 
ROOT
HETATM    1  C   UNL     1      -6.445   3.457 -32.097  1.00  0.00     0.231 C 
HETATM    2  N   UNL     1      -6.477   4.571 -31.026  1.00  0.00    -0.054 N 
HETATM    3  H   UNL     1      -5.572   4.439 -30.547  1.00  0.00     0.281 HD
HETATM    4  C   UNL     1      -7.562   4.461 -29.995  1.00  0.00     0.239 C 
HETATM    5  C   UNL     1      -8.924   4.290 -30.644  1.00  0.00     0.066 C 
HETATM    6  C   UNL     1      -8.958   3.047 -31.538  1.00  0.00     0.065 C 
HETATM    7  C   UNL     1      -7.877   3.168 -32.627  1.00  0.00     0.055 C 
HETATM    8  C   UNL     1     -10.354   2.887 -32.173  1.00  0.00     0.038 C 
HETATM    9  C   UNL     1     -10.420   1.746 -33.191  1.00  0.00     0.003 C 
HETATM   10  C   UNL     1      -9.319   1.851 -34.240  1.00  0.00     0.001 C 
HETATM   11  C   UNL     1      -7.933   1.985 -33.611  1.00  0.00     0.010 C 
ENDROOT
BRANCH   2  12
HETATM   12  C   UNL     1      -6.362   5.990 -31.611  1.00  0.00     0.338 C 
BRANCH  12  13
HETATM   13  C   UNL     1      -5.016   6.656 -31.302  1.00  0.00     0.248 C 
HETATM   14  N   UNL     1      -4.301   5.999 -30.321  1.00  0.00    -0.319 N 
HETATM   15  H   UNL     1      -4.420   4.989 -30.216  1.00  0.00     0.169 HD
HETATM   16  O   UNL     1      -4.663   7.640 -31.945  1.00  0.00    -0.271 OA
BRANCH  14  17
HETATM   17  C   UNL     1      -3.159   6.494 -29.704  1.00  0.00     0.094 A 
HETATM   18  S   UNL     1      -1.653   6.359 -30.472  1.00  0.00    -0.075 SA
HETATM   19  C   UNL     1      -0.886   7.254 -29.253  1.00  0.00    -0.008 A 
HETATM   20  C   UNL     1      -1.755   7.660 -28.255  1.00  0.00    -0.026 A 
HETATM   21  C   UNL     1       0.576   7.578 -29.320  1.00  0.00     0.047 C 
HETATM   22  C   UNL     1      -1.264   8.452 -27.073  1.00  0.00     0.041 C 
HETATM   23  C   UNL     1      -3.106   7.208 -28.514  1.00  0.00     0.080 A 
HETATM   24  C   UNL     1       0.131   9.051 -27.307  1.00  0.00     0.005 C 
HETATM   25  C   UNL     1       1.087   8.039 -27.949  1.00  0.00     0.005 C 
BRANCH  23  26
HETATM   26  C   UNL     1      -4.307   7.396 -27.692  1.00  0.00     0.296 C 
HETATM   27  O   UNL     1      -4.437   6.851 -26.598  1.00  0.00    -0.259 OA
BRANCH  26  28
HETATM   28  O   UNL     1      -5.212   8.251 -28.238  1.00  0.00    -0.322 OA
HETATM   29  C   UNL     1      -6.575   7.843 -28.109  1.00  0.00     0.213 C 
ENDBRANCH  26  28
ENDBRANCH  23  26
ENDBRANCH  14  17
ENDBRANCH  12  13
ENDBRANCH   2  12
BRANCH   1  30
HETATM   30  C   UNL     1      -5.566   2.264 -31.721  1.00  0.00     0.006 A 
HETATM   31  C   UNL     1      -4.155   2.405 -31.709  1.00  0.00     0.077 A 
HETATM   32  C   UNL     1      -3.341   1.324 -31.348  1.00  0.00     0.037 A 
HETATM   33  C   UNL     1      -3.903   0.097 -31.003  1.00  0.00     0.003 A 
HETATM   34  C   UNL     1      -5.280  -0.063 -31.026  1.00  0.00     0.001 A 
HETATM   35  C   UNL     1      -6.101   1.008 -31.383  1.00  0.00     0.012 A 
BRANCH  31  36
HETATM   36  O   UNL     1      -3.677   3.635 -32.082  1.00  0.00    -0.351 OA
BRANCH  36  37
HETATM   37  C   UNL     1      -2.605   3.728 -33.024  1.00  0.00     0.171 C 
HETATM   38  C   UNL     1      -2.769   4.935 -33.932  1.00  0.00     0.034 C 
ENDBRANCH  36  37
ENDBRANCH  31  36
ENDBRANCH   1  30
BRANCH   6  39
HETATM   39  O   UNL     1      -8.709   1.932 -30.688  1.00  0.00    -0.389 OA
HETATM   40  H   UNL     1      -8.308   1.204 -31.198  1.00  0.00     0.210 HD
ENDBRANCH   6  39
TORSDOF 9
ENDMDL
