MODEL 1
REMARK VINA RESULT:      -9.4      0.000      0.000
REMARK  9 active torsions:
REMARK  status: ('A' for Active; 'I' for Inactive)
REMARK    1  A    between atoms: O_2  and  C_3 
REMARK    2  A    between atoms: C_6  and  N_7 
REMARK    3  A    between atoms: N_10  and  C_12 
REMARK    4  A    between atoms: C_12  and  C_13 
REMARK    5  A    between atoms: C_13  and  C_14 
REMARK    6  A    between atoms: C_14  and  N_15 
REMARK       I    between atoms: N_15  and  C_16 
REMARK    7  A    between atoms: C_16  and  C_17 
REMARK    8  A    between atoms: C_17  and  C_18 
REMARK    9  A    between atoms: C_18  and  C_19 
ROOT
HETATM    1  N   UNL     1      -3.013   6.150 -34.550  1.00  0.00    -0.361 N 
HETATM    2  C   UNL     1      -1.638   6.045 -34.491  1.00  0.00     0.217 C 
HETATM    3  O   UNL     1      -1.001   5.286 -35.217  1.00  0.00    -0.274 OA
HETATM    4  H   UNL     1      -3.462   6.623 -33.767  1.00  0.00     0.162 HD
ENDROOT
BRANCH   1   5
HETATM    5  C   UNL     1      -3.793   5.212 -35.328  1.00  0.00     0.124 C 
BRANCH   5   6
HETATM    6  C   UNL     1      -4.953   4.591 -34.540  1.00  0.00     0.047 C 
BRANCH   6   7
HETATM    7  C   UNL     1      -4.836   4.942 -33.062  1.00  0.00     0.236 C 
BRANCH   7   8
HETATM    8  N   UNL     1      -5.297   3.787 -32.196  1.00  0.00    -0.068 N 
HETATM    9  C   UNL     1      -6.646   3.202 -32.659  1.00  0.00     0.254 C 
HETATM   10  C   UNL     1      -7.061   2.005 -31.773  1.00  0.00     0.150 C 
HETATM   11  N   UNL     1      -5.994   0.989 -31.700  1.00  0.00    -0.378 N 
HETATM   12  C   UNL     1      -4.704   1.527 -31.220  1.00  0.00     0.150 C 
HETATM   13  C   UNL     1      -4.232   2.682 -32.128  1.00  0.00     0.254 C 
HETATM   14  H   UNL     1      -5.431   4.129 -31.236  1.00  0.00     0.280 HD
BRANCH  11  15
HETATM   15  C   UNL     1      -5.938  -0.060 -32.622  1.00  0.00     0.030 A 
HETATM   16  C   UNL     1      -6.986  -0.379 -33.500  1.00  0.00     0.032 A 
HETATM   17  C   UNL     1      -6.889  -1.431 -34.427  1.00  0.00     0.039 A 
HETATM   18  C   UNL     1      -5.741  -2.212 -34.489  1.00  0.00     0.068 A 
HETATM   19  C   UNL     1      -4.707  -1.943 -33.601  1.00  0.00     0.039 A 
HETATM   20  C   UNL     1      -4.808  -0.892 -32.680  1.00  0.00     0.032 A 
BRANCH  18  21
HETATM   21  O   UNL     1      -5.513  -3.255 -35.340  1.00  0.00    -0.356 OA
HETATM   22  C   UNL     1      -5.696  -4.567 -34.824  1.00  0.00     0.210 C 
ENDBRANCH  18  21
ENDBRANCH  11  15
ENDBRANCH   7   8
ENDBRANCH   6   7
ENDBRANCH   5   6
ENDBRANCH   1   5
BRANCH   2  23
HETATM   23  C   UNL     1      -0.976   6.935 -33.462  1.00  0.00     0.105 C 
BRANCH  23  24
HETATM   24  C   UNL     1      -1.880   7.284 -32.280  1.00  0.00     0.046 C 
BRANCH  24  25
HETATM   25  C   UNL     1      -1.664   6.434 -31.028  1.00  0.00     0.203 A 
HETATM   26  N   UNL     1      -0.498   6.940 -30.261  1.00  0.00    -0.257 NA
HETATM   27  C   UNL     1      -1.006   7.327 -29.127  1.00  0.00     0.147 A 
HETATM   28  N   UNL     1      -2.347   7.149 -28.934  1.00  0.00    -0.239 N 
HETATM   29  C   UNL     1      -0.220   7.943 -28.052  1.00  0.00     0.037 A 
HETATM   30  C   UNL     1      -3.032   7.514 -27.769  1.00  0.00     0.187 A 
HETATM   31  C   UNL     1      -2.841   6.562 -30.079  1.00  0.00     0.257 A 
HETATM   32  S   UNL     1      -4.664   7.330 -27.453  1.00  0.00    -0.040 SA
HETATM   33  N   UNL     1      -2.267   8.089 -26.778  1.00  0.00    -0.332 N 
HETATM   34  C   UNL     1      -0.892   8.313 -26.889  1.00  0.00     0.048 A 
HETATM   35  H   UNL     1      -2.754   8.363 -25.930  1.00  0.00     0.168 HD
HETATM   36  C   UNL     1      -0.197   8.910 -25.838  1.00  0.00     0.030 A 
HETATM   37  C   UNL     1       1.176   9.137 -25.962  1.00  0.00     0.002 A 
HETATM   38  C   UNL     1       1.849   8.767 -27.130  1.00  0.00     0.001 A 
HETATM   39  C   UNL     1       1.151   8.168 -28.180  1.00  0.00     0.017 A 
HETATM   40  O   UNL     1      -3.968   6.180 -30.350  1.00  0.00    -0.270 OA
ENDBRANCH  24  25
ENDBRANCH  23  24
ENDBRANCH   2  23
TORSDOF 9
ENDMDL
MODEL 2
REMARK VINA RESULT:      -9.3      2.830     10.534
REMARK  9 active torsions:
REMARK  status: ('A' for Active; 'I' for Inactive)
REMARK    1  A    between atoms: O_2  and  C_3 
REMARK    2  A    between atoms: C_6  and  N_7 
REMARK    3  A    between atoms: N_10  and  C_12 
REMARK    4  A    between atoms: C_12  and  C_13 
REMARK    5  A    between atoms: C_13  and  C_14 
REMARK    6  A    between atoms: C_14  and  N_15 
REMARK       I    between atoms: N_15  and  C_16 
REMARK    7  A    between atoms: C_16  and  C_17 
REMARK    8  A    between atoms: C_17  and  C_18 
REMARK    9  A    between atoms: C_18  and  C_19 
ROOT
HETATM    1  N   UNL     1      -7.219   4.011 -33.847  1.00  0.00    -0.361 N 
HETATM    2  C   UNL     1      -8.596   4.086 -33.791  1.00  0.00     0.217 C 
HETATM    3  O   UNL     1      -9.201   5.155 -33.798  1.00  0.00    -0.274 OA
HETATM    4  H   UNL     1      -6.807   3.111 -33.605  1.00  0.00     0.162 HD
ENDROOT
BRANCH   1   5
HETATM    5  C   UNL     1      -6.408   5.201 -33.703  1.00  0.00     0.124 C 
BRANCH   5   6
HETATM    6  C   UNL     1      -4.971   5.016 -34.204  1.00  0.00     0.047 C 
BRANCH   6   7
HETATM    7  C   UNL     1      -4.097   4.431 -33.100  1.00  0.00     0.236 C 
BRANCH   7   8
HETATM    8  N   UNL     1      -2.723   5.069 -33.105  1.00  0.00    -0.068 N 
HETATM    9  C   UNL     1      -2.786   6.610 -33.104  1.00  0.00     0.254 C 
HETATM   10  C   UNL     1      -1.366   7.220 -33.072  1.00  0.00     0.150 C 
HETATM   11  N   UNL     1      -0.570   6.681 -31.952  1.00  0.00    -0.378 N 
HETATM   12  C   UNL     1      -0.468   5.206 -31.961  1.00  0.00     0.150 C 
HETATM   13  C   UNL     1      -1.874   4.571 -31.926  1.00  0.00     0.254 C 
HETATM   14  H   UNL     1      -2.233   4.789 -33.964  1.00  0.00     0.280 HD
BRANCH  11  15
HETATM   15  C   UNL     1      -0.575   7.307 -30.702  1.00  0.00     0.030 A 
HETATM   16  C   UNL     1      -1.548   8.237 -30.303  1.00  0.00     0.032 A 
HETATM   17  C   UNL     1      -1.532   8.835 -29.031  1.00  0.00     0.039 A 
HETATM   18  C   UNL     1      -0.524   8.533 -28.123  1.00  0.00     0.068 A 
HETATM   19  C   UNL     1       0.475   7.648 -28.510  1.00  0.00     0.039 A 
HETATM   20  C   UNL     1       0.452   7.054 -29.779  1.00  0.00     0.032 A 
BRANCH  18  21
HETATM   21  O   UNL     1      -0.392   9.033 -26.860  1.00  0.00    -0.356 OA
HETATM   22  C   UNL     1       0.546   8.394 -26.003  1.00  0.00     0.210 C 
ENDBRANCH  18  21
ENDBRANCH  11  15
ENDBRANCH   7   8
ENDBRANCH   6   7
ENDBRANCH   5   6
ENDBRANCH   1   5
BRANCH   2  23
HETATM   23  C   UNL     1      -9.303   2.751 -33.718  1.00  0.00     0.105 C 
BRANCH  23  24
HETATM   24  C   UNL     1      -8.449   1.577 -34.199  1.00  0.00     0.046 C 
BRANCH  24  25
HETATM   25  C   UNL     1      -8.059   0.574 -33.115  1.00  0.00     0.203 A 
HETATM   26  N   UNL     1      -7.980  -0.794 -33.688  1.00  0.00    -0.257 NA
HETATM   27  C   UNL     1      -6.730  -1.128 -33.543  1.00  0.00     0.147 A 
HETATM   28  N   UNL     1      -5.899  -0.238 -32.922  1.00  0.00    -0.239 N 
HETATM   29  C   UNL     1      -6.169  -2.401 -34.008  1.00  0.00     0.037 A 
HETATM   30  C   UNL     1      -4.535  -0.458 -32.694  1.00  0.00     0.187 A 
HETATM   31  C   UNL     1      -6.664   0.859 -32.590  1.00  0.00     0.257 A 
HETATM   32  S   UNL     1      -3.454   0.573 -31.944  1.00  0.00    -0.040 SA
HETATM   33  N   UNL     1      -4.039  -1.663 -33.142  1.00  0.00    -0.332 N 
HETATM   34  C   UNL     1      -4.812  -2.630 -33.790  1.00  0.00     0.048 A 
HETATM   35  H   UNL     1      -3.049  -1.832 -32.987  1.00  0.00     0.168 HD
HETATM   36  C   UNL     1      -4.224  -3.819 -34.219  1.00  0.00     0.030 A 
HETATM   37  C   UNL     1      -5.005  -4.776 -34.872  1.00  0.00     0.002 A 
HETATM   38  C   UNL     1      -6.365  -4.545 -35.093  1.00  0.00     0.001 A 
HETATM   39  C   UNL     1      -6.952  -3.355 -34.661  1.00  0.00     0.017 A 
HETATM   40  O   UNL     1      -6.368   1.879 -31.990  1.00  0.00    -0.270 OA
ENDBRANCH  24  25
ENDBRANCH  23  24
ENDBRANCH   2  23
TORSDOF 9
ENDMDL
MODEL 3
REMARK VINA RESULT:      -9.2      2.916     10.081
REMARK  9 active torsions:
REMARK  status: ('A' for Active; 'I' for Inactive)
REMARK    1  A    between atoms: O_2  and  C_3 
REMARK    2  A    between atoms: C_6  and  N_7 
REMARK    3  A    between atoms: N_10  and  C_12 
REMARK    4  A    between atoms: C_12  and  C_13 
REMARK    5  A    between atoms: C_13  and  C_14 
REMARK    6  A    between atoms: C_14  and  N_15 
REMARK       I    between atoms: N_15  and  C_16 
REMARK    7  A    between atoms: C_16  and  C_17 
REMARK    8  A    between atoms: C_17  and  C_18 
REMARK    9  A    between atoms: C_18  and  C_19 
ROOT
HETATM    1  N   UNL     1      -7.705   5.035 -32.181  1.00  0.00    -0.361 N 
HETATM    2  C   UNL     1      -8.379   4.672 -33.329  1.00  0.00     0.217 C 
HETATM    3  O   UNL     1      -8.291   5.308 -34.376  1.00  0.00    -0.274 OA
HETATM    4  H   UNL     1      -8.015   4.592 -31.317  1.00  0.00     0.162 HD
ENDROOT
BRANCH   1   5
HETATM    5  C   UNL     1      -7.025   6.310 -32.095  1.00  0.00     0.124 C 
BRANCH   5   6
HETATM    6  C   UNL     1      -5.504   6.174 -31.960  1.00  0.00     0.047 C 
BRANCH   6   7
HETATM    7  C   UNL     1      -4.924   5.470 -33.180  1.00  0.00     0.236 C 
BRANCH   7   8
HETATM    8  N   UNL     1      -3.470   5.846 -33.380  1.00  0.00    -0.068 N 
HETATM    9  C   UNL     1      -3.113   7.199 -32.731  1.00  0.00     0.254 C 
HETATM   10  C   UNL     1      -1.616   7.526 -32.926  1.00  0.00     0.150 C 
HETATM   11  N   UNL     1      -0.755   6.424 -32.456  1.00  0.00    -0.378 N 
HETATM   12  C   UNL     1      -1.058   5.128 -33.097  1.00  0.00     0.150 C 
HETATM   13  C   UNL     1      -2.534   4.744 -32.861  1.00  0.00     0.254 C 
HETATM   14  H   UNL     1      -3.290   5.939 -34.387  1.00  0.00     0.280 HD
BRANCH  11  15
HETATM   15  C   UNL     1      -0.297   6.385 -31.135  1.00  0.00     0.030 A 
HETATM   16  C   UNL     1       0.237   5.235 -30.532  1.00  0.00     0.032 A 
HETATM   17  C   UNL     1       0.704   5.236 -29.206  1.00  0.00     0.039 A 
HETATM   18  C   UNL     1       0.630   6.389 -28.434  1.00  0.00     0.068 A 
HETATM   19  C   UNL     1       0.067   7.529 -28.995  1.00  0.00     0.039 A 
HETATM   20  C   UNL     1      -0.395   7.523 -30.317  1.00  0.00     0.032 A 
BRANCH  18  21
HETATM   21  O   UNL     1       1.050   6.530 -27.143  1.00  0.00    -0.356 OA
HETATM   22  C   UNL     1       1.112   7.851 -26.621  1.00  0.00     0.210 C 
ENDBRANCH  18  21
ENDBRANCH  11  15
ENDBRANCH   7   8
ENDBRANCH   6   7
ENDBRANCH   5   6
ENDBRANCH   1   5
BRANCH   2  23
HETATM   23  C   UNL     1      -9.235   3.432 -33.198  1.00  0.00     0.105 C 
BRANCH  23  24
HETATM   24  C   UNL     1      -8.591   2.176 -33.787  1.00  0.00     0.046 C 
BRANCH  24  25
HETATM   25  C   UNL     1      -8.136   1.140 -32.761  1.00  0.00     0.203 A 
HETATM   26  N   UNL     1      -8.083  -0.207 -33.383  1.00  0.00    -0.257 NA
HETATM   27  C   UNL     1      -6.826  -0.538 -33.319  1.00  0.00     0.147 A 
HETATM   28  N   UNL     1      -5.966   0.336 -32.716  1.00  0.00    -0.239 N 
HETATM   29  C   UNL     1      -6.286  -1.792 -33.857  1.00  0.00     0.037 A 
HETATM   30  C   UNL     1      -4.590   0.117 -32.572  1.00  0.00     0.187 A 
HETATM   31  C   UNL     1      -6.715   1.416 -32.306  1.00  0.00     0.257 A 
HETATM   32  S   UNL     1      -3.472   1.129 -31.850  1.00  0.00    -0.040 SA
HETATM   33  N   UNL     1      -4.114  -1.069 -33.088  1.00  0.00    -0.332 N 
HETATM   34  C   UNL     1      -4.918  -2.019 -33.723  1.00  0.00     0.048 A 
HETATM   35  H   UNL     1      -3.117  -1.237 -32.995  1.00  0.00     0.168 HD
HETATM   36  C   UNL     1      -4.350  -3.189 -34.224  1.00  0.00     0.030 A 
HETATM   37  C   UNL     1      -5.162  -4.129 -34.864  1.00  0.00     0.002 A 
HETATM   38  C   UNL     1      -6.533  -3.899 -35.001  1.00  0.00     0.001 A 
HETATM   39  C   UNL     1      -7.101  -2.728 -34.497  1.00  0.00     0.017 A 
HETATM   40  O   UNL     1      -6.391   2.418 -31.689  1.00  0.00    -0.270 OA
ENDBRANCH  24  25
ENDBRANCH  23  24
ENDBRANCH   2  23
TORSDOF 9
ENDMDL
MODEL 4
REMARK VINA RESULT:      -9.0      1.951      2.753
REMARK  9 active torsions:
REMARK  status: ('A' for Active; 'I' for Inactive)
REMARK    1  A    between atoms: O_2  and  C_3 
REMARK    2  A    between atoms: C_6  and  N_7 
REMARK    3  A    between atoms: N_10  and  C_12 
REMARK    4  A    between atoms: C_12  and  C_13 
REMARK    5  A    between atoms: C_13  and  C_14 
REMARK    6  A    between atoms: C_14  and  N_15 
REMARK       I    between atoms: N_15  and  C_16 
REMARK    7  A    between atoms: C_16  and  C_17 
REMARK    8  A    between atoms: C_17  and  C_18 
REMARK    9  A    between atoms: C_18  and  C_19 
ROOT
HETATM    1  N   UNL     1      -2.016   5.240 -30.855  1.00  0.00    -0.361 N 
HETATM    2  C   UNL     1      -0.908   5.730 -31.516  1.00  0.00     0.217 C 
HETATM    3  O   UNL     1      -0.956   6.137 -32.674  1.00  0.00    -0.274 OA
HETATM    4  H   UNL     1      -1.836   4.720 -29.997  1.00  0.00     0.162 HD
ENDROOT
BRANCH   1   5
HETATM    5  C   UNL     1      -3.249   4.985 -31.568  1.00  0.00     0.124 C 
BRANCH   5   6
HETATM    6  C   UNL     1      -3.769   3.554 -31.383  1.00  0.00     0.047 C 
BRANCH   6   7
HETATM    7  C   UNL     1      -5.142   3.572 -30.722  1.00  0.00     0.236 C 
BRANCH   7   8
HETATM    8  N   UNL     1      -6.157   2.829 -31.566  1.00  0.00    -0.068 N 
HETATM    9  C   UNL     1      -5.712   2.684 -33.036  1.00  0.00     0.254 C 
HETATM   10  C   UNL     1      -6.756   1.890 -33.853  1.00  0.00     0.150 C 
HETATM   11  N   UNL     1      -7.066   0.593 -33.221  1.00  0.00    -0.378 N 
HETATM   12  C   UNL     1      -7.532   0.717 -31.823  1.00  0.00     0.150 C 
HETATM   13  C   UNL     1      -6.476   1.450 -30.969  1.00  0.00     0.254 C 
HETATM   14  H   UNL     1      -7.036   3.362 -31.570  1.00  0.00     0.280 HD
BRANCH  11  15
HETATM   15  C   UNL     1      -6.337  -0.555 -33.544  1.00  0.00     0.030 A 
HETATM   16  C   UNL     1      -4.989  -0.743 -33.198  1.00  0.00     0.032 A 
HETATM   17  C   UNL     1      -4.291  -1.919 -33.525  1.00  0.00     0.039 A 
HETATM   18  C   UNL     1      -4.920  -2.938 -34.231  1.00  0.00     0.068 A 
HETATM   19  C   UNL     1      -6.241  -2.758 -34.622  1.00  0.00     0.039 A 
HETATM   20  C   UNL     1      -6.932  -1.585 -34.292  1.00  0.00     0.032 A 
BRANCH  18  21
HETATM   21  O   UNL     1      -4.365  -4.127 -34.606  1.00  0.00    -0.356 OA
HETATM   22  C   UNL     1      -3.495  -4.760 -33.676  1.00  0.00     0.210 C 
ENDBRANCH  18  21
ENDBRANCH  11  15
ENDBRANCH   7   8
ENDBRANCH   6   7
ENDBRANCH   5   6
ENDBRANCH   1   5
BRANCH   2  23
HETATM   23  C   UNL     1       0.369   5.725 -30.705  1.00  0.00     0.105 C 
BRANCH  23  24
HETATM   24  C   UNL     1       0.468   6.880 -29.708  1.00  0.00     0.046 C 
BRANCH  24  25
HETATM   25  C   UNL     1       0.093   6.526 -28.269  1.00  0.00     0.203 A 
HETATM   26  N   UNL     1       1.131   7.026 -27.333  1.00  0.00    -0.257 NA
HETATM   27  C   UNL     1       0.505   7.900 -26.600  1.00  0.00     0.147 A 
HETATM   28  N   UNL     1      -0.830   8.086 -26.828  1.00  0.00    -0.239 N 
HETATM   29  C   UNL     1       1.151   8.692 -25.547  1.00  0.00     0.037 A 
HETATM   30  C   UNL     1      -1.634   8.988 -26.121  1.00  0.00     0.187 A 
HETATM   31  C   UNL     1      -1.182   7.235 -27.852  1.00  0.00     0.257 A 
HETATM   32  S   UNL     1      -3.267   9.275 -26.336  1.00  0.00    -0.040 SA
HETATM   33  N   UNL     1      -0.998   9.717 -25.139  1.00  0.00    -0.332 N 
HETATM   34  C   UNL     1       0.361   9.595 -24.838  1.00  0.00     0.048 A 
HETATM   35  H   UNL     1      -1.570  10.378 -24.622  1.00  0.00     0.168 HD
HETATM   36  C   UNL     1       0.925  10.380 -23.834  1.00  0.00     0.030 A 
HETATM   37  C   UNL     1       2.286  10.256 -23.546  1.00  0.00     0.002 A 
HETATM   38  C   UNL     1       3.078   9.352 -24.258  1.00  0.00     0.001 A 
HETATM   39  C   UNL     1       2.512   8.566 -25.263  1.00  0.00     0.017 A 
HETATM   40  O   UNL     1      -2.268   7.021 -28.367  1.00  0.00    -0.270 OA
ENDBRANCH  24  25
ENDBRANCH  23  24
ENDBRANCH   2  23
TORSDOF 9
ENDMDL
MODEL 5
REMARK VINA RESULT:      -8.9      2.126      2.893
REMARK  9 active torsions:
REMARK  status: ('A' for Active; 'I' for Inactive)
REMARK    1  A    between atoms: O_2  and  C_3 
REMARK    2  A    between atoms: C_6  and  N_7 
REMARK    3  A    between atoms: N_10  and  C_12 
REMARK    4  A    between atoms: C_12  and  C_13 
REMARK    5  A    between atoms: C_13  and  C_14 
REMARK    6  A    between atoms: C_14  and  N_15 
REMARK       I    between atoms: N_15  and  C_16 
REMARK    7  A    between atoms: C_16  and  C_17 
REMARK    8  A    between atoms: C_17  and  C_18 
REMARK    9  A    between atoms: C_18  and  C_19 
ROOT
HETATM    1  N   UNL     1      -4.166   5.581 -33.284  1.00  0.00    -0.361 N 
HETATM    2  C   UNL     1      -3.449   5.267 -34.422  1.00  0.00     0.217 C 
HETATM    3  O   UNL     1      -3.916   5.391 -35.551  1.00  0.00    -0.274 OA
HETATM    4  H   UNL     1      -3.788   5.233 -32.404  1.00  0.00     0.162 HD
ENDROOT
BRANCH   1   5
HETATM    5  C   UNL     1      -5.582   5.870 -33.360  1.00  0.00     0.124 C 
BRANCH   5   6
HETATM    6  C   UNL     1      -6.445   4.619 -33.558  1.00  0.00     0.047 C 
BRANCH   6   7
HETATM    7  C   UNL     1      -7.616   4.623 -32.583  1.00  0.00     0.236 C 
BRANCH   7   8
HETATM    8  N   UNL     1      -7.686   3.317 -31.818  1.00  0.00    -0.068 N 
HETATM    9  C   UNL     1      -8.642   2.299 -32.471  1.00  0.00     0.254 C 
HETATM   10  C   UNL     1      -8.656   0.970 -31.681  1.00  0.00     0.150 C 
HETATM   11  N   UNL     1      -7.293   0.436 -31.497  1.00  0.00    -0.378 N 
HETATM   12  C   UNL     1      -6.374   1.386 -30.836  1.00  0.00     0.150 C 
HETATM   13  C   UNL     1      -6.290   2.700 -31.642  1.00  0.00     0.254 C 
HETATM   14  H   UNL     1      -8.048   3.508 -30.875  1.00  0.00     0.280 HD
BRANCH  11  15
HETATM   15  C   UNL     1      -6.733  -0.439 -32.433  1.00  0.00     0.030 A 
HETATM   16  C   UNL     1      -5.378  -0.807 -32.438  1.00  0.00     0.032 A 
HETATM   17  C   UNL     1      -4.852  -1.703 -33.384  1.00  0.00     0.039 A 
HETATM   18  C   UNL     1      -5.667  -2.244 -34.371  1.00  0.00     0.068 A 
HETATM   19  C   UNL     1      -7.002  -1.862 -34.413  1.00  0.00     0.039 A 
HETATM   20  C   UNL     1      -7.521  -0.970 -33.467  1.00  0.00     0.032 A 
BRANCH  18  21
HETATM   21  O   UNL     1      -5.289  -3.126 -35.343  1.00  0.00    -0.356 OA
HETATM   22  C   UNL     1      -6.013  -4.347 -35.429  1.00  0.00     0.210 C 
ENDBRANCH  18  21
ENDBRANCH  11  15
ENDBRANCH   7   8
ENDBRANCH   6   7
ENDBRANCH   5   6
ENDBRANCH   1   5
BRANCH   2  23
HETATM   23  C   UNL     1      -2.047   4.760 -34.169  1.00  0.00     0.105 C 
BRANCH  23  24
HETATM   24  C   UNL     1      -1.635   4.801 -32.698  1.00  0.00     0.046 C 
BRANCH  24  25
HETATM   25  C   UNL     1      -0.699   5.948 -32.319  1.00  0.00     0.203 A 
HETATM   26  N   UNL     1      -1.471   7.207 -32.160  1.00  0.00    -0.257 NA
HETATM   27  C   UNL     1      -1.313   7.520 -30.907  1.00  0.00     0.147 A 
HETATM   28  N   UNL     1      -0.521   6.712 -30.141  1.00  0.00    -0.239 N 
HETATM   29  C   UNL     1      -1.939   8.687 -30.275  1.00  0.00     0.037 A 
HETATM   30  C   UNL     1      -0.259   6.922 -28.782  1.00  0.00     0.187 A 
HETATM   31  C   UNL     1      -0.065   5.705 -30.963  1.00  0.00     0.257 A 
HETATM   32  S   UNL     1       0.696   5.987 -27.777  1.00  0.00    -0.040 SA
HETATM   33  N   UNL     1      -0.861   8.026 -28.218  1.00  0.00    -0.332 N 
HETATM   34  C   UNL     1      -1.688   8.905 -28.922  1.00  0.00     0.048 A 
HETATM   35  H   UNL     1      -0.682   8.186 -27.231  1.00  0.00     0.168 HD
HETATM   36  C   UNL     1      -2.265   9.993 -28.269  1.00  0.00     0.030 A 
HETATM   37  C   UNL     1      -3.097  10.861 -28.980  1.00  0.00     0.002 A 
HETATM   38  C   UNL     1      -3.350  10.641 -30.337  1.00  0.00     0.001 A 
HETATM   39  C   UNL     1      -2.771   9.552 -30.989  1.00  0.00     0.017 A 
HETATM   40  O   UNL     1       0.700   4.781 -30.735  1.00  0.00    -0.270 OA
ENDBRANCH  24  25
ENDBRANCH  23  24
ENDBRANCH   2  23
TORSDOF 9
ENDMDL
MODEL 6
REMARK VINA RESULT:      -8.8      3.762      9.600
REMARK  9 active torsions:
REMARK  status: ('A' for Active; 'I' for Inactive)
REMARK    1  A    between atoms: O_2  and  C_3 
REMARK    2  A    between atoms: C_6  and  N_7 
REMARK    3  A    between atoms: N_10  and  C_12 
REMARK    4  A    between atoms: C_12  and  C_13 
REMARK    5  A    between atoms: C_13  and  C_14 
REMARK    6  A    between atoms: C_14  and  N_15 
REMARK       I    between atoms: N_15  and  C_16 
REMARK    7  A    between atoms: C_16  and  C_17 
REMARK    8  A    between atoms: C_17  and  C_18 
REMARK    9  A    between atoms: C_18  and  C_19 
ROOT
HETATM    1  N   UNL     1     -11.195   3.425 -32.014  1.00  0.00    -0.361 N 
HETATM    2  C   UNL     1     -12.113   2.826 -32.852  1.00  0.00     0.217 C 
HETATM    3  O   UNL     1     -13.311   3.097 -32.821  1.00  0.00    -0.274 OA
HETATM    4  H   UNL     1     -10.282   2.978 -31.953  1.00  0.00     0.162 HD
ENDROOT
BRANCH   1   5
HETATM    5  C   UNL     1     -11.632   4.252 -30.909  1.00  0.00     0.124 C 
BRANCH   5   6
HETATM    6  C   UNL     1     -10.735   5.474 -30.678  1.00  0.00     0.047 C 
BRANCH   6   7
HETATM    7  C   UNL     1      -9.286   5.041 -30.496  1.00  0.00     0.236 C 
BRANCH   7   8
HETATM    8  N   UNL     1      -8.412   5.606 -31.597  1.00  0.00    -0.068 N 
HETATM    9  C   UNL     1      -7.413   6.660 -31.077  1.00  0.00     0.254 C 
HETATM   10  C   UNL     1      -6.517   7.183 -32.223  1.00  0.00     0.150 C 
HETATM   11  N   UNL     1      -5.857   6.077 -32.942  1.00  0.00    -0.378 N 
HETATM   12  C   UNL     1      -6.804   5.078 -33.480  1.00  0.00     0.150 C 
HETATM   13  C   UNL     1      -7.666   4.490 -32.344  1.00  0.00     0.254 C 
HETATM   14  H   UNL     1      -9.013   6.075 -32.285  1.00  0.00     0.280 HD
BRANCH  11  15
HETATM   15  C   UNL     1      -4.603   5.607 -32.539  1.00  0.00     0.030 A 
HETATM   16  C   UNL     1      -3.947   4.524 -33.146  1.00  0.00     0.032 A 
HETATM   17  C   UNL     1      -2.678   4.089 -32.726  1.00  0.00     0.039 A 
HETATM   18  C   UNL     1      -2.034   4.717 -31.667  1.00  0.00     0.068 A 
HETATM   19  C   UNL     1      -2.681   5.764 -31.022  1.00  0.00     0.039 A 
HETATM   20  C   UNL     1      -3.944   6.194 -31.446  1.00  0.00     0.032 A 
BRANCH  18  21
HETATM   21  O   UNL     1      -0.805   4.402 -31.164  1.00  0.00    -0.356 OA
HETATM   22  C   UNL     1       0.187   5.422 -31.185  1.00  0.00     0.210 C 
ENDBRANCH  18  21
ENDBRANCH  11  15
ENDBRANCH   7   8
ENDBRANCH   6   7
ENDBRANCH   5   6
ENDBRANCH   1   5
BRANCH   2  23
HETATM   23  C   UNL     1     -11.531   1.810 -33.809  1.00  0.00     0.105 C 
BRANCH  23  24
HETATM   24  C   UNL     1     -10.019   1.632 -33.671  1.00  0.00     0.046 C 
BRANCH  24  25
HETATM   25  C   UNL     1      -9.583   0.458 -32.795  1.00  0.00     0.203 A 
HETATM   26  N   UNL     1      -8.811  -0.522 -33.600  1.00  0.00    -0.257 NA
HETATM   27  C   UNL     1      -7.627  -0.515 -33.060  1.00  0.00     0.147 A 
HETATM   28  N   UNL     1      -7.427   0.284 -31.970  1.00  0.00    -0.239 N 
HETATM   29  C   UNL     1      -6.501  -1.314 -33.558  1.00  0.00     0.037 A 
HETATM   30  C   UNL     1      -6.211   0.395 -31.284  1.00  0.00     0.187 A 
HETATM   31  C   UNL     1      -8.624   0.917 -31.713  1.00  0.00     0.257 A 
HETATM   32  S   UNL     1      -5.884   1.343 -29.947  1.00  0.00    -0.040 SA
HETATM   33  N   UNL     1      -5.174  -0.368 -31.776  1.00  0.00    -0.332 N 
HETATM   34  C   UNL     1      -5.285  -1.209 -32.886  1.00  0.00     0.048 A 
HETATM   35  H   UNL     1      -4.285  -0.292 -31.290  1.00  0.00     0.168 HD
HETATM   36  C   UNL     1      -4.179  -1.938 -33.321  1.00  0.00     0.030 A 
HETATM   37  C   UNL     1      -4.300  -2.770 -34.436  1.00  0.00     0.002 A 
HETATM   38  C   UNL     1      -5.518  -2.873 -35.111  1.00  0.00     0.001 A 
HETATM   39  C   UNL     1      -6.625  -2.144 -34.673  1.00  0.00     0.017 A 
HETATM   40  O   UNL     1      -8.937   1.687 -30.820  1.00  0.00    -0.270 OA
ENDBRANCH  24  25
ENDBRANCH  23  24
ENDBRANCH   2  23
TORSDOF 9
ENDMDL
MODEL 7
REMARK VINA RESULT:      -8.7      4.168      9.200
REMARK  9 active torsions:
REMARK  status: ('A' for Active; 'I' for Inactive)
REMARK    1  A    between atoms: O_2  and  C_3 
REMARK    2  A    between atoms: C_6  and  N_7 
REMARK    3  A    between atoms: N_10  and  C_12 
REMARK    4  A    between atoms: C_12  and  C_13 
REMARK    5  A    between atoms: C_13  and  C_14 
REMARK    6  A    between atoms: C_14  and  N_15 
REMARK       I    between atoms: N_15  and  C_16 
REMARK    7  A    between atoms: C_16  and  C_17 
REMARK    8  A    between atoms: C_17  and  C_18 
REMARK    9  A    between atoms: C_18  and  C_19 
ROOT
HETATM    1  N   UNL     1      -5.540   3.968 -34.158  1.00  0.00    -0.361 N 
HETATM    2  C   UNL     1      -6.843   4.354 -33.918  1.00  0.00     0.217 C 
HETATM    3  O   UNL     1      -7.173   5.532 -33.806  1.00  0.00    -0.274 OA
HETATM    4  H   UNL     1      -5.327   2.983 -34.006  1.00  0.00     0.162 HD
ENDROOT
BRANCH   1   5
HETATM    5  C   UNL     1      -4.458   4.926 -34.080  1.00  0.00     0.124 C 
BRANCH   5   6
HETATM    6  C   UNL     1      -3.681   4.854 -32.760  1.00  0.00     0.047 C 
BRANCH   6   7
HETATM    7  C   UNL     1      -3.643   6.224 -32.093  1.00  0.00     0.236 C 
BRANCH   7   8
HETATM    8  N   UNL     1      -4.624   6.290 -30.940  1.00  0.00    -0.068 N 
HETATM    9  C   UNL     1      -5.791   7.261 -31.212  1.00  0.00     0.254 C 
HETATM   10  C   UNL     1      -6.786   7.272 -30.029  1.00  0.00     0.150 C 
HETATM   11  N   UNL     1      -7.244   5.910 -29.695  1.00  0.00    -0.378 N 
HETATM   12  C   UNL     1      -6.138   4.976 -29.394  1.00  0.00     0.150 C 
HETATM   13  C   UNL     1      -5.163   4.896 -30.587  1.00  0.00     0.254 C 
HETATM   14  H   UNL     1      -4.131   6.638 -30.108  1.00  0.00     0.280 HD
BRANCH  11  15
HETATM   15  C   UNL     1      -8.383   5.368 -30.298  1.00  0.00     0.030 A 
HETATM   16  C   UNL     1      -9.293   6.121 -31.056  1.00  0.00     0.032 A 
HETATM   17  C   UNL     1     -10.420   5.539 -31.662  1.00  0.00     0.039 A 
HETATM   18  C   UNL     1     -10.681   4.183 -31.510  1.00  0.00     0.068 A 
HETATM   19  C   UNL     1      -9.818   3.424 -30.729  1.00  0.00     0.039 A 
HETATM   20  C   UNL     1      -8.696   4.009 -30.128  1.00  0.00     0.032 A 
BRANCH  18  21
HETATM   21  O   UNL     1     -11.729   3.492 -32.046  1.00  0.00    -0.356 OA
HETATM   22  C   UNL     1     -11.461   2.691 -33.190  1.00  0.00     0.210 C 
ENDBRANCH  18  21
ENDBRANCH  11  15
ENDBRANCH   7   8
ENDBRANCH   6   7
ENDBRANCH   5   6
ENDBRANCH   1   5
BRANCH   2  23
HETATM   23  C   UNL     1      -7.831   3.215 -33.802  1.00  0.00     0.105 C 
BRANCH  23  24
HETATM   24  C   UNL     1      -7.279   1.871 -34.277  1.00  0.00     0.046 C 
BRANCH  24  25
HETATM   25  C   UNL     1      -7.236   0.776 -33.211  1.00  0.00     0.203 A 
HETATM   26  N   UNL     1      -7.369  -0.560 -33.845  1.00  0.00    -0.257 NA
HETATM   27  C   UNL     1      -6.242  -1.152 -33.578  1.00  0.00     0.147 A 
HETATM   28  N   UNL     1      -5.328  -0.475 -32.821  1.00  0.00    -0.239 N 
HETATM   29  C   UNL     1      -5.900  -2.500 -34.046  1.00  0.00     0.037 A 
HETATM   30  C   UNL     1      -4.076  -0.982 -32.453  1.00  0.00     0.187 A 
HETATM   31  C   UNL     1      -5.887   0.747 -32.519  1.00  0.00     0.257 A 
HETATM   32  S   UNL     1      -2.905  -0.223 -31.532  1.00  0.00    -0.040 SA
HETATM   33  N   UNL     1      -3.785  -2.250 -32.908  1.00  0.00    -0.332 N 
HETATM   34  C   UNL     1      -4.655  -3.014 -33.689  1.00  0.00     0.048 A 
HETATM   35  H   UNL     1      -2.877  -2.627 -32.652  1.00  0.00     0.168 HD
HETATM   36  C   UNL     1      -4.275  -4.287 -34.114  1.00  0.00     0.030 A 
HETATM   37  C   UNL     1      -5.150  -5.039 -34.902  1.00  0.00     0.002 A 
HETATM   38  C   UNL     1      -6.397  -4.522 -35.261  1.00  0.00     0.001 A 
HETATM   39  C   UNL     1      -6.777  -3.249 -34.834  1.00  0.00     0.017 A 
HETATM   40  O   UNL     1      -5.463   1.665 -31.835  1.00  0.00    -0.270 OA
ENDBRANCH  24  25
ENDBRANCH  23  24
ENDBRANCH   2  23
TORSDOF 9
ENDMDL
MODEL 8
REMARK VINA RESULT:      -8.4      4.384      9.926
REMARK  9 active torsions:
REMARK  status: ('A' for Active; 'I' for Inactive)
REMARK    1  A    between atoms: O_2  and  C_3 
REMARK    2  A    between atoms: C_6  and  N_7 
REMARK    3  A    between atoms: N_10  and  C_12 
REMARK    4  A    between atoms: C_12  and  C_13 
REMARK    5  A    between atoms: C_13  and  C_14 
REMARK    6  A    between atoms: C_14  and  N_15 
REMARK       I    between atoms: N_15  and  C_16 
REMARK    7  A    between atoms: C_16  and  C_17 
REMARK    8  A    between atoms: C_17  and  C_18 
REMARK    9  A    between atoms: C_18  and  C_19 
ROOT
HETATM    1  N   UNL     1     -11.758   2.651 -32.651  1.00  0.00    -0.361 N 
HETATM    2  C   UNL     1     -11.055   2.767 -33.834  1.00  0.00     0.217 C 
HETATM    3  O   UNL     1     -10.970   3.826 -34.451  1.00  0.00    -0.274 OA
HETATM    4  H   UNL     1     -11.962   1.703 -32.340  1.00  0.00     0.162 HD
ENDROOT
BRANCH   1   5
HETATM    5  C   UNL     1     -12.609   3.727 -32.189  1.00  0.00     0.124 C 
BRANCH   5   6
HETATM    6  C   UNL     1     -12.224   4.246 -30.799  1.00  0.00     0.047 C 
BRANCH   6   7
HETATM    7  C   UNL     1     -11.161   5.332 -30.915  1.00  0.00     0.236 C 
BRANCH   7   8
HETATM    8  N   UNL     1      -9.996   5.046 -29.990  1.00  0.00    -0.068 N 
HETATM    9  C   UNL     1      -9.103   3.896 -30.499  1.00  0.00     0.254 C 
HETATM   10  C   UNL     1      -7.908   3.662 -29.547  1.00  0.00     0.150 C 
HETATM   11  N   UNL     1      -7.154   4.907 -29.310  1.00  0.00    -0.378 N 
HETATM   12  C   UNL     1      -7.987   6.009 -28.784  1.00  0.00     0.150 C 
HETATM   13  C   UNL     1      -9.152   6.308 -29.751  1.00  0.00     0.254 C 
HETATM   14  H   UNL     1     -10.365   4.758 -29.075  1.00  0.00     0.280 HD
BRANCH  11  15
HETATM   15  C   UNL     1      -6.081   5.264 -30.133  1.00  0.00     0.030 A 
HETATM   16  C   UNL     1      -5.962   6.516 -30.756  1.00  0.00     0.032 A 
HETATM   17  C   UNL     1      -4.861   6.847 -31.563  1.00  0.00     0.039 A 
HETATM   18  C   UNL     1      -3.849   5.921 -31.789  1.00  0.00     0.068 A 
HETATM   19  C   UNL     1      -3.965   4.659 -31.218  1.00  0.00     0.039 A 
HETATM   20  C   UNL     1      -5.064   4.336 -30.413  1.00  0.00     0.032 A 
BRANCH  18  21
HETATM   21  O   UNL     1      -2.727   6.112 -32.542  1.00  0.00    -0.356 OA
HETATM   22  C   UNL     1      -2.004   4.952 -32.936  1.00  0.00     0.210 C 
ENDBRANCH  18  21
ENDBRANCH  11  15
ENDBRANCH   7   8
ENDBRANCH   6   7
ENDBRANCH   5   6
ENDBRANCH   1   5
BRANCH   2  23
HETATM   23  C   UNL     1     -10.399   1.490 -34.310  1.00  0.00     0.105 C 
BRANCH  23  24
HETATM   24  C   UNL     1      -8.875   1.502 -34.195  1.00  0.00     0.046 C 
BRANCH  24  25
HETATM   25  C   UNL     1      -8.301   0.595 -33.107  1.00  0.00     0.203 A 
HETATM   26  N   UNL     1      -8.177  -0.795 -33.613  1.00  0.00    -0.257 NA
HETATM   27  C   UNL     1      -6.898  -1.032 -33.583  1.00  0.00     0.147 A 
HETATM   28  N   UNL     1      -6.078  -0.051 -33.102  1.00  0.00    -0.239 N 
HETATM   29  C   UNL     1      -6.292  -2.288 -34.038  1.00  0.00     0.037 A 
HETATM   30  C   UNL     1      -4.685  -0.160 -33.009  1.00  0.00     0.187 A 
HETATM   31  C   UNL     1      -6.886   1.008 -32.749  1.00  0.00     0.257 A 
HETATM   32  S   UNL     1      -3.614   0.987 -32.433  1.00  0.00    -0.040 SA
HETATM   33  N   UNL     1      -4.147  -1.352 -33.443  1.00  0.00    -0.332 N 
HETATM   34  C   UNL     1      -4.907  -2.408 -33.953  1.00  0.00     0.048 A 
HETATM   35  H   UNL     1      -3.137  -1.442 -33.386  1.00  0.00     0.168 HD
HETATM   36  C   UNL     1      -4.277  -3.577 -34.380  1.00  0.00     0.030 A 
HETATM   37  C   UNL     1      -5.046  -4.623 -34.895  1.00  0.00     0.002 A 
HETATM   38  C   UNL     1      -6.435  -4.502 -34.982  1.00  0.00     0.001 A 
HETATM   39  C   UNL     1      -7.063  -3.332 -34.553  1.00  0.00     0.017 A 
HETATM   40  O   UNL     1      -6.608   2.082 -32.239  1.00  0.00    -0.270 OA
ENDBRANCH  24  25
ENDBRANCH  23  24
ENDBRANCH   2  23
TORSDOF 9
ENDMDL
MODEL 9
REMARK VINA RESULT:      -8.4      2.364      3.829
REMARK  9 active torsions:
REMARK  status: ('A' for Active; 'I' for Inactive)
REMARK    1  A    between atoms: O_2  and  C_3 
REMARK    2  A    between atoms: C_6  and  N_7 
REMARK    3  A    between atoms: N_10  and  C_12 
REMARK    4  A    between atoms: C_12  and  C_13 
REMARK    5  A    between atoms: C_13  and  C_14 
REMARK    6  A    between atoms: C_14  and  N_15 
REMARK       I    between atoms: N_15  and  C_16 
REMARK    7  A    between atoms: C_16  and  C_17 
REMARK    8  A    between atoms: C_17  and  C_18 
REMARK    9  A    between atoms: C_18  and  C_19 
ROOT
HETATM    1  N   UNL     1      -6.199   6.382 -29.286  1.00  0.00    -0.361 N 
HETATM    2  C   UNL     1      -5.775   7.281 -28.328  1.00  0.00     0.217 C 
HETATM    3  O   UNL     1      -5.738   7.003 -27.132  1.00  0.00    -0.274 OA
HETATM    4  H   UNL     1      -6.411   6.769 -30.204  1.00  0.00     0.162 HD
ENDROOT
BRANCH   1   5
HETATM    5  C   UNL     1      -6.824   5.134 -28.904  1.00  0.00     0.124 C 
BRANCH   5   6
HETATM    6  C   UNL     1      -6.174   3.908 -29.555  1.00  0.00     0.047 C 
BRANCH   6   7
HETATM    7  C   UNL     1      -6.219   4.028 -31.073  1.00  0.00     0.236 C 
BRANCH   7   8
HETATM    8  N   UNL     1      -7.110   2.960 -31.673  1.00  0.00    -0.068 N 
HETATM    9  C   UNL     1      -6.880   2.777 -33.187  1.00  0.00     0.254 C 
HETATM   10  C   UNL     1      -7.781   1.655 -33.750  1.00  0.00     0.150 C 
HETATM   11  N   UNL     1      -7.618   0.399 -32.994  1.00  0.00    -0.378 N 
HETATM   12  C   UNL     1      -7.874   0.549 -31.546  1.00  0.00     0.150 C 
HETATM   13  C   UNL     1      -6.939   1.618 -30.943  1.00  0.00     0.254 C 
HETATM   14  H   UNL     1      -8.091   3.242 -31.550  1.00  0.00     0.280 HD
BRANCH  11  15
HETATM   15  C   UNL     1      -6.662  -0.548 -33.373  1.00  0.00     0.030 A 
HETATM   16  C   UNL     1      -5.303  -0.459 -33.031  1.00  0.00     0.032 A 
HETATM   17  C   UNL     1      -4.372  -1.439 -33.415  1.00  0.00     0.039 A 
HETATM   18  C   UNL     1      -4.772  -2.533 -34.174  1.00  0.00     0.068 A 
HETATM   19  C   UNL     1      -6.103  -2.621 -34.561  1.00  0.00     0.039 A 
HETATM   20  C   UNL     1      -7.027  -1.642 -34.174  1.00  0.00     0.032 A 
BRANCH  18  21
HETATM   21  O   UNL     1      -3.977  -3.555 -34.607  1.00  0.00    -0.356 OA
HETATM   22  C   UNL     1      -3.851  -4.686 -33.754  1.00  0.00     0.210 C 
ENDBRANCH  18  21
ENDBRANCH  11  15
ENDBRANCH   7   8
ENDBRANCH   6   7
ENDBRANCH   5   6
ENDBRANCH   1   5
BRANCH   2  23
HETATM   23  C   UNL     1      -5.359   8.632 -28.865  1.00  0.00     0.105 C 
BRANCH  23  24
HETATM   24  C   UNL     1      -5.406   8.728 -30.390  1.00  0.00     0.046 C 
BRANCH  24  25
HETATM   25  C   UNL     1      -4.046   8.663 -31.084  1.00  0.00     0.203 A 
HETATM   26  N   UNL     1      -2.960   8.939 -30.109  1.00  0.00    -0.257 NA
HETATM   27  C   UNL     1      -2.275   7.834 -30.075  1.00  0.00     0.147 A 
HETATM   28  N   UNL     1      -2.665   6.814 -30.896  1.00  0.00    -0.239 N 
HETATM   29  C   UNL     1      -1.111   7.624 -29.205  1.00  0.00     0.037 A 
HETATM   30  C   UNL     1      -2.027   5.570 -30.970  1.00  0.00     0.187 A 
HETATM   31  C   UNL     1      -3.765   7.263 -31.594  1.00  0.00     0.257 A 
HETATM   32  S   UNL     1      -2.439   4.275 -31.944  1.00  0.00    -0.040 SA
HETATM   33  N   UNL     1      -0.938   5.404 -30.142  1.00  0.00    -0.332 N 
HETATM   34  C   UNL     1      -0.470   6.389 -29.267  1.00  0.00     0.048 A 
HETATM   35  H   UNL     1      -0.470   4.504 -30.182  1.00  0.00     0.168 HD
HETATM   36  C   UNL     1       0.635   6.132 -28.457  1.00  0.00     0.030 A 
HETATM   37  C   UNL     1       1.091   7.120 -27.581  1.00  0.00     0.002 A 
HETATM   38  C   UNL     1       0.446   8.358 -27.518  1.00  0.00     0.001 A 
HETATM   39  C   UNL     1      -0.659   8.614 -28.331  1.00  0.00     0.017 A 
HETATM   40  O   UNL     1      -4.426   6.721 -32.466  1.00  0.00    -0.270 OA
ENDBRANCH  24  25
ENDBRANCH  23  24
ENDBRANCH   2  23
TORSDOF 9
ENDMDL
MODEL 10
REMARK VINA RESULT:      -8.3      5.759      9.837
REMARK  9 active torsions:
REMARK  status: ('A' for Active; 'I' for Inactive)
REMARK    1  A    between atoms: O_2  and  C_3 
REMARK    2  A    between atoms: C_6  and  N_7 
REMARK    3  A    between atoms: N_10  and  C_12 
REMARK    4  A    between atoms: C_12  and  C_13 
REMARK    5  A    between atoms: C_13  and  C_14 
REMARK    6  A    between atoms: C_14  and  N_15 
REMARK       I    between atoms: N_15  and  C_16 
REMARK    7  A    between atoms: C_16  and  C_17 
REMARK    8  A    between atoms: C_17  and  C_18 
REMARK    9  A    between atoms: C_18  and  C_19 
ROOT
HETATM    1  N   UNL     1     -10.096   2.531 -31.640  1.00  0.00    -0.361 N 
HETATM    2  C   UNL     1      -9.621   1.309 -32.071  1.00  0.00     0.217 C 
HETATM    3  O   UNL     1      -8.987   0.551 -31.341  1.00  0.00    -0.274 OA
HETATM    4  H   UNL     1     -10.402   3.177 -32.367  1.00  0.00     0.162 HD
ENDROOT
BRANCH   1   5
HETATM    5  C   UNL     1      -9.685   3.075 -30.363  1.00  0.00     0.124 C 
BRANCH   5   6
HETATM    6  C   UNL     1      -8.447   3.973 -30.460  1.00  0.00     0.047 C 
BRANCH   6   7
HETATM    7  C   UNL     1      -7.281   3.351 -29.700  1.00  0.00     0.236 C 
BRANCH   7   8
HETATM    8  N   UNL     1      -6.132   3.039 -30.637  1.00  0.00    -0.068 N 
HETATM    9  C   UNL     1      -5.396   1.738 -30.258  1.00  0.00     0.254 C 
HETATM   10  C   UNL     1      -4.257   1.438 -31.259  1.00  0.00     0.150 C 
HETATM   11  N   UNL     1      -4.746   1.432 -32.651  1.00  0.00    -0.378 N 
HETATM   12  C   UNL     1      -5.420   2.687 -33.042  1.00  0.00     0.150 C 
HETATM   13  C   UNL     1      -6.606   2.977 -32.097  1.00  0.00     0.254 C 
HETATM   14  H   UNL     1      -5.445   3.801 -30.579  1.00  0.00     0.280 HD
BRANCH  11  15
HETATM   15  C   UNL     1      -5.211   0.253 -33.242  1.00  0.00     0.030 A 
HETATM   16  C   UNL     1      -4.630  -1.006 -33.027  1.00  0.00     0.032 A 
HETATM   17  C   UNL     1      -5.135  -2.174 -33.625  1.00  0.00     0.039 A 
HETATM   18  C   UNL     1      -6.231  -2.111 -34.477  1.00  0.00     0.068 A 
HETATM   19  C   UNL     1      -6.797  -0.870 -34.740  1.00  0.00     0.039 A 
HETATM   20  C   UNL     1      -6.291   0.290 -34.140  1.00  0.00     0.032 A 
BRANCH  18  21
HETATM   21  O   UNL     1      -6.823  -3.162 -35.116  1.00  0.00    -0.356 OA
HETATM   22  C   UNL     1      -6.159  -4.418 -35.054  1.00  0.00     0.210 C 
ENDBRANCH  18  21
ENDBRANCH  11  15
ENDBRANCH   7   8
ENDBRANCH   6   7
ENDBRANCH   5   6
ENDBRANCH   1   5
BRANCH   2  23
HETATM   23  C   UNL     1      -9.942   0.975 -33.511  1.00  0.00     0.105 C 
BRANCH  23  24
HETATM   24  C   UNL     1      -9.594   2.093 -34.493  1.00  0.00     0.046 C 
BRANCH  24  25
HETATM   25  C   UNL     1     -10.796   2.795 -35.126  1.00  0.00     0.203 A 
HETATM   26  N   UNL     1     -12.059   2.260 -34.557  1.00  0.00    -0.257 NA
HETATM   27  C   UNL     1     -12.595   3.282 -33.957  1.00  0.00     0.147 A 
HETATM   28  N   UNL     1     -11.943   4.481 -34.031  1.00  0.00    -0.239 N 
HETATM   29  C   UNL     1     -13.855   3.217 -33.207  1.00  0.00     0.037 A 
HETATM   30  C   UNL     1     -12.398   5.665 -33.437  1.00  0.00     0.187 A 
HETATM   31  C   UNL     1     -10.805   4.271 -34.779  1.00  0.00     0.257 A 
HETATM   32  S   UNL     1     -11.664   7.167 -33.481  1.00  0.00    -0.040 SA
HETATM   33  N   UNL     1     -13.583   5.571 -32.741  1.00  0.00    -0.332 N 
HETATM   34  C   UNL     1     -14.315   4.388 -32.609  1.00  0.00     0.048 A 
HETATM   35  H   UNL     1     -13.920   6.422 -32.301  1.00  0.00     0.168 HD
HETATM   36  C   UNL     1     -15.501   4.381 -31.877  1.00  0.00     0.030 A 
HETATM   37  C   UNL     1     -16.222   3.191 -31.745  1.00  0.00     0.002 A 
HETATM   38  C   UNL     1     -15.758   2.017 -32.343  1.00  0.00     0.001 A 
HETATM   39  C   UNL     1     -14.571   2.026 -33.077  1.00  0.00     0.017 A 
HETATM   40  O   UNL     1      -9.942   5.053 -35.144  1.00  0.00    -0.270 OA
ENDBRANCH  24  25
ENDBRANCH  23  24
ENDBRANCH   2  23
TORSDOF 9
ENDMDL
