MODEL 1
REMARK VINA RESULT:     -10.6      0.000      0.000
REMARK  8 active torsions:
REMARK  status: ('A' for Active; 'I' for Inactive)
REMARK    1  A    between atoms: C_4  and  C_5 
REMARK    2  A    between atoms: C_5  and  N_6 
REMARK    3  A    between atoms: C_5  and  C_31 
REMARK       I    between atoms: N_6  and  C_7 
REMARK    4  A    between atoms: N_6  and  C_21 
REMARK    5  A    between atoms: C_7  and  C_8 
REMARK    6  A    between atoms: C_11  and  C_12 
REMARK    7  A    between atoms: C_21  and  C_22 
REMARK       I    between atoms: C_31  and  N_32 
REMARK    8  A    between atoms: N_32  and  C_33 
ROOT
HETATM    1  N   UNL     1      -8.253   2.892 -32.371  1.00  0.00    -0.323 N 
HETATM    2  C   UNL     1      -7.494   1.730 -32.217  1.00  0.00     0.271 C 
HETATM    3  O   UNL     1      -6.994   1.443 -31.129  1.00  0.00    -0.266 OA
ENDROOT
BRANCH   1   4
HETATM    4  C   UNL     1      -8.359   3.773 -31.190  1.00  0.00     0.237 C 
BRANCH   4   5
HETATM    5  C   UNL     1      -9.689   4.478 -31.191  1.00  0.00     0.085 A 
HETATM    6  O   UNL     1     -10.798   3.826 -30.725  1.00  0.00    -0.317 OA
HETATM    7  C   UNL     1     -11.856   4.674 -30.853  1.00  0.00     0.049 A 
HETATM    8  C   UNL     1     -13.174   4.148 -30.447  1.00  0.00     0.076 C 
HETATM    9  C   UNL     1     -11.434   5.885 -31.357  1.00  0.00     0.035 A 
HETATM   10  C   UNL     1     -10.040   5.760 -31.573  1.00  0.00     0.038 A 
ENDBRANCH   4   5
BRANCH   4  11
HETATM   11  C   UNL     1      -7.080   4.627 -30.975  1.00  0.00     0.247 C 
HETATM   12  N   UNL     1      -6.090   4.560 -31.924  1.00  0.00    -0.354 N 
HETATM   13  H   UNL     1      -6.269   3.948 -32.716  1.00  0.00     0.162 HD
HETATM   14  O   UNL     1      -6.956   5.298 -29.949  1.00  0.00    -0.271 OA
BRANCH  12  15
HETATM   15  C   UNL     1      -4.803   5.253 -31.934  1.00  0.00     0.084 C 
HETATM   16  C   UNL     1      -3.652   4.442 -31.320  1.00  0.00     0.025 C 
HETATM   17  C   UNL     1      -2.815   3.642 -32.314  1.00  0.00     0.002 C 
HETATM   18  C   UNL     1      -2.405   4.477 -33.520  1.00  0.00     0.000 C 
HETATM   19  C   UNL     1      -3.614   5.082 -34.220  1.00  0.00     0.002 C 
HETATM   20  C   UNL     1      -4.463   5.923 -33.271  1.00  0.00     0.025 C 
ENDBRANCH  12  15
ENDBRANCH   4  11
ENDBRANCH   1   4
BRANCH   1  21
HETATM   21  C   UNL     1      -8.799   3.390 -33.637  1.00  0.00     0.166 C 
BRANCH  21  22
HETATM   22  C   UNL     1     -10.201   2.968 -34.026  1.00  0.00    -0.037 A 
HETATM   23  C   UNL     1     -10.674   1.742 -33.514  1.00  0.00     0.048 A 
HETATM   24  C   UNL     1     -11.933   1.312 -33.876  1.00  0.00     0.105 A 
HETATM   25  C   UNL     1     -12.728   2.038 -34.726  1.00  0.00     0.105 A 
HETATM   26  O   UNL     1     -12.527   0.161 -33.462  1.00  0.00    -0.323 OA
HETATM   27  O   UNL     1     -13.927   1.440 -34.955  1.00  0.00    -0.323 OA
HETATM   28  C   UNL     1     -12.308   3.236 -35.256  1.00  0.00     0.040 A 
HETATM   29  C   UNL     1     -13.790   0.248 -34.156  1.00  0.00     0.352 A 
HETATM   30  C   UNL     1     -11.035   3.701 -34.899  1.00  0.00     0.012 A 
ENDBRANCH  21  22
ENDBRANCH   1  21
BRANCH   2  31
HETATM   31  C   UNL     1      -7.207   0.881 -33.355  1.00  0.00     0.101 A 
HETATM   32  N   UNL     1      -6.776  -0.414 -33.151  1.00  0.00    -0.351 N 
HETATM   33  H   UNL     1      -6.668  -0.822 -32.230  1.00  0.00     0.166 HD
HETATM   34  C   UNL     1      -6.499  -1.050 -34.338  1.00  0.00     0.043 A 
HETATM   35  C   UNL     1      -6.882  -0.172 -35.336  1.00  0.00     0.033 A 
HETATM   36  C   UNL     1      -7.341   1.024 -34.724  1.00  0.00     0.037 A 
BRANCH  34  37
HETATM   37  C   UNL     1      -5.956  -2.409 -34.401  1.00  0.00    -0.009 A 
HETATM   38  C   UNL     1      -4.627  -2.663 -34.038  1.00  0.00     0.013 A 
HETATM   39  C   UNL     1      -4.103  -3.958 -34.102  1.00  0.00     0.001 A 
HETATM   40  C   UNL     1      -4.904  -5.016 -34.527  1.00  0.00     0.000 A 
HETATM   41  C   UNL     1      -6.229  -4.781 -34.884  1.00  0.00     0.001 A 
HETATM   42  C   UNL     1      -6.752  -3.488 -34.819  1.00  0.00     0.013 A 
ENDBRANCH  34  37
ENDBRANCH   2  31
TORSDOF 8
ENDMDL
MODEL 2
REMARK VINA RESULT:     -10.4      1.803      2.766
REMARK  8 active torsions:
REMARK  status: ('A' for Active; 'I' for Inactive)
REMARK    1  A    between atoms: C_4  and  C_5 
REMARK    2  A    between atoms: C_5  and  N_6 
REMARK    3  A    between atoms: C_5  and  C_31 
REMARK       I    between atoms: N_6  and  C_7 
REMARK    4  A    between atoms: N_6  and  C_21 
REMARK    5  A    between atoms: C_7  and  C_8 
REMARK    6  A    between atoms: C_11  and  C_12 
REMARK    7  A    between atoms: C_21  and  C_22 
REMARK       I    between atoms: C_31  and  N_32 
REMARK    8  A    between atoms: N_32  and  C_33 
ROOT
HETATM    1  N   UNL     1      -5.977   2.355 -32.133  1.00  0.00    -0.323 N 
HETATM    2  C   UNL     1      -4.979   1.753 -31.366  1.00  0.00     0.271 C 
HETATM    3  O   UNL     1      -4.504   2.327 -30.385  1.00  0.00    -0.266 OA
ENDROOT
BRANCH   1   4
HETATM    4  C   UNL     1      -6.374   3.725 -31.745  1.00  0.00     0.237 C 
BRANCH   4   5
HETATM    5  C   UNL     1      -7.825   3.748 -31.346  1.00  0.00     0.085 A 
HETATM    6  O   UNL     1      -8.721   4.449 -32.105  1.00  0.00    -0.317 OA
HETATM    7  C   UNL     1      -9.944   4.319 -31.518  1.00  0.00     0.049 A 
HETATM    8  C   UNL     1     -11.060   5.044 -32.157  1.00  0.00     0.076 C 
HETATM    9  C   UNL     1      -9.854   3.505 -30.412  1.00  0.00     0.035 A 
HETATM   10  C   UNL     1      -8.492   3.135 -30.300  1.00  0.00     0.038 A 
ENDBRANCH   4   5
BRANCH   4  11
HETATM   11  C   UNL     1      -5.878   4.790 -32.761  1.00  0.00     0.247 C 
HETATM   12  N   UNL     1      -4.535   5.076 -32.796  1.00  0.00    -0.354 N 
HETATM   13  H   UNL     1      -3.951   4.559 -32.146  1.00  0.00     0.162 HD
HETATM   14  O   UNL     1      -6.692   5.387 -33.468  1.00  0.00    -0.271 OA
BRANCH  12  15
HETATM   15  C   UNL     1      -3.843   6.041 -33.647  1.00  0.00     0.084 C 
HETATM   16  C   UNL     1      -2.820   6.911 -32.902  1.00  0.00     0.025 C 
HETATM   17  C   UNL     1      -1.382   6.400 -32.936  1.00  0.00     0.002 C 
HETATM   18  C   UNL     1      -0.947   6.007 -34.341  1.00  0.00     0.000 C 
HETATM   19  C   UNL     1      -1.885   4.973 -34.950  1.00  0.00     0.002 C 
HETATM   20  C   UNL     1      -3.333   5.456 -34.970  1.00  0.00     0.025 C 
ENDBRANCH  12  15
ENDBRANCH   4  11
ENDBRANCH   1   4
BRANCH   1  21
HETATM   21  C   UNL     1      -6.534   1.817 -33.378  1.00  0.00     0.166 C 
BRANCH  21  22
HETATM   22  C   UNL     1      -7.972   1.341 -33.371  1.00  0.00    -0.037 A 
HETATM   23  C   UNL     1      -8.885   2.028 -34.199  1.00  0.00     0.048 A 
HETATM   24  C   UNL     1     -10.209   1.642 -34.190  1.00  0.00     0.105 A 
HETATM   25  C   UNL     1     -10.659   0.619 -33.394  1.00  0.00     0.105 A 
HETATM   26  O   UNL     1     -11.203   2.200 -34.933  1.00  0.00    -0.323 OA
HETATM   27  O   UNL     1     -11.993   0.399 -33.534  1.00  0.00    -0.323 OA
HETATM   28  C   UNL     1      -9.808  -0.075 -32.566  1.00  0.00     0.040 A 
HETATM   29  C   UNL     1     -12.332   1.408 -34.506  1.00  0.00     0.352 A 
HETATM   30  C   UNL     1      -8.455   0.291 -32.560  1.00  0.00     0.012 A 
ENDBRANCH  21  22
ENDBRANCH   1  21
BRANCH   2  31
HETATM   31  C   UNL     1      -4.418   0.475 -31.756  1.00  0.00     0.101 A 
HETATM   32  N   UNL     1      -5.112  -0.339 -32.627  1.00  0.00    -0.351 N 
HETATM   33  H   UNL     1      -6.002  -0.081 -33.035  1.00  0.00     0.166 HD
HETATM   34  C   UNL     1      -4.458  -1.530 -32.839  1.00  0.00     0.043 A 
HETATM   35  C   UNL     1      -3.248  -1.419 -32.178  1.00  0.00     0.033 A 
HETATM   36  C   UNL     1      -3.214  -0.162 -31.519  1.00  0.00     0.037 A 
BRANCH  34  37
HETATM   37  C   UNL     1      -5.015  -2.604 -33.665  1.00  0.00    -0.009 A 
HETATM   38  C   UNL     1      -4.308  -3.799 -33.852  1.00  0.00     0.013 A 
HETATM   39  C   UNL     1      -4.833  -4.825 -34.643  1.00  0.00     0.001 A 
HETATM   40  C   UNL     1      -6.075  -4.669 -35.255  1.00  0.00     0.000 A 
HETATM   41  C   UNL     1      -6.794  -3.490 -35.073  1.00  0.00     0.001 A 
HETATM   42  C   UNL     1      -6.269  -2.466 -34.282  1.00  0.00     0.013 A 
ENDBRANCH  34  37
ENDBRANCH   2  31
TORSDOF 8
ENDMDL
MODEL 3
REMARK VINA RESULT:     -10.3      2.809      4.507
REMARK  8 active torsions:
REMARK  status: ('A' for Active; 'I' for Inactive)
REMARK    1  A    between atoms: C_4  and  C_5 
REMARK    2  A    between atoms: C_5  and  N_6 
REMARK    3  A    between atoms: C_5  and  C_31 
REMARK       I    between atoms: N_6  and  C_7 
REMARK    4  A    between atoms: N_6  and  C_21 
REMARK    5  A    between atoms: C_7  and  C_8 
REMARK    6  A    between atoms: C_11  and  C_12 
REMARK    7  A    between atoms: C_21  and  C_22 
REMARK       I    between atoms: C_31  and  N_32 
REMARK    8  A    between atoms: N_32  and  C_33 
ROOT
HETATM    1  N   UNL     1      -4.334   3.086 -31.118  1.00  0.00    -0.323 N 
HETATM    2  C   UNL     1      -3.453   2.384 -31.942  1.00  0.00     0.271 C 
HETATM    3  O   UNL     1      -2.730   2.977 -32.744  1.00  0.00    -0.266 OA
ENDROOT
BRANCH   1   4
HETATM    4  C   UNL     1      -4.393   4.550 -31.310  1.00  0.00     0.237 C 
BRANCH   4   5
HETATM    5  C   UNL     1      -5.556   4.907 -32.196  1.00  0.00     0.085 A 
HETATM    6  O   UNL     1      -6.478   5.820 -31.763  1.00  0.00    -0.317 OA
HETATM    7  C   UNL     1      -7.422   5.943 -32.738  1.00  0.00     0.049 A 
HETATM    8  C   UNL     1      -8.547   6.855 -32.452  1.00  0.00     0.076 C 
HETATM    9  C   UNL     1      -7.095   5.151 -33.816  1.00  0.00     0.035 A 
HETATM   10  C   UNL     1      -5.895   4.485 -33.469  1.00  0.00     0.038 A 
ENDBRANCH   4   5
BRANCH   4  11
HETATM   11  C   UNL     1      -3.003   5.156 -31.650  1.00  0.00     0.247 C 
HETATM   12  N   UNL     1      -2.024   5.110 -30.689  1.00  0.00    -0.354 N 
HETATM   13  H   UNL     1      -2.282   4.671 -29.809  1.00  0.00     0.162 HD
HETATM   14  O   UNL     1      -2.824   5.703 -32.740  1.00  0.00    -0.271 OA
BRANCH  12  15
HETATM   15  C   UNL     1      -0.658   5.621 -30.770  1.00  0.00     0.084 C 
HETATM   16  C   UNL     1      -0.567   7.153 -30.837  1.00  0.00     0.025 C 
HETATM   17  C   UNL     1      -0.361   7.854 -29.497  1.00  0.00     0.002 C 
HETATM   18  C   UNL     1       0.748   7.207 -28.677  1.00  0.00     0.000 C 
HETATM   19  C   UNL     1       0.491   5.723 -28.459  1.00  0.00     0.002 C 
HETATM   20  C   UNL     1       0.313   4.972 -29.776  1.00  0.00     0.025 C 
ENDBRANCH  12  15
ENDBRANCH   4  11
ENDBRANCH   1   4
BRANCH   1  21
HETATM   21  C   UNL     1      -5.315   2.483 -30.212  1.00  0.00     0.166 C 
BRANCH  21  22
HETATM   22  C   UNL     1      -6.746   2.351 -30.693  1.00  0.00    -0.037 A 
HETATM   23  C   UNL     1      -6.995   1.445 -31.744  1.00  0.00     0.048 A 
HETATM   24  C   UNL     1      -8.280   1.326 -32.229  1.00  0.00     0.105 A 
HETATM   25  C   UNL     1      -9.315   2.071 -31.724  1.00  0.00     0.105 A 
HETATM   26  O   UNL     1      -8.677   0.496 -33.231  1.00  0.00    -0.323 OA
HETATM   27  O   UNL     1     -10.498   1.805 -32.339  1.00  0.00    -0.323 OA
HETATM   28  C   UNL     1      -9.120   2.973 -30.703  1.00  0.00     0.040 A 
HETATM   29  C   UNL     1     -10.084   0.810 -33.297  1.00  0.00     0.352 A 
HETATM   30  C   UNL     1      -7.825   3.108 -30.186  1.00  0.00     0.012 A 
ENDBRANCH  21  22
ENDBRANCH   1  21
BRANCH   2  31
HETATM   31  C   UNL     1      -3.431   0.935 -31.934  1.00  0.00     0.101 A 
HETATM   32  N   UNL     1      -4.152   0.235 -32.880  1.00  0.00    -0.351 N 
HETATM   33  H   UNL     1      -4.690   0.686 -33.610  1.00  0.00     0.166 HD
HETATM   34  C   UNL     1      -4.060  -1.123 -32.685  1.00  0.00     0.043 A 
HETATM   35  C   UNL     1      -3.152  -1.297 -31.656  1.00  0.00     0.033 A 
HETATM   36  C   UNL     1      -2.745  -0.015 -31.200  1.00  0.00     0.037 A 
BRANCH  34  37
HETATM   37  C   UNL     1      -4.790  -2.093 -33.506  1.00  0.00    -0.009 A 
HETATM   38  C   UNL     1      -6.073  -1.798 -33.985  1.00  0.00     0.013 A 
HETATM   39  C   UNL     1      -6.775  -2.723 -34.764  1.00  0.00     0.001 A 
HETATM   40  C   UNL     1      -6.200  -3.953 -35.076  1.00  0.00     0.000 A 
HETATM   41  C   UNL     1      -4.923  -4.258 -34.614  1.00  0.00     0.001 A 
HETATM   42  C   UNL     1      -4.221  -3.334 -33.835  1.00  0.00     0.013 A 
ENDBRANCH  34  37
ENDBRANCH   2  31
TORSDOF 8
ENDMDL
MODEL 4
REMARK VINA RESULT:     -10.2      1.771      2.755
REMARK  8 active torsions:
REMARK  status: ('A' for Active; 'I' for Inactive)
REMARK    1  A    between atoms: C_4  and  C_5 
REMARK    2  A    between atoms: C_5  and  N_6 
REMARK    3  A    between atoms: C_5  and  C_31 
REMARK       I    between atoms: N_6  and  C_7 
REMARK    4  A    between atoms: N_6  and  C_21 
REMARK    5  A    between atoms: C_7  and  C_8 
REMARK    6  A    between atoms: C_11  and  C_12 
REMARK    7  A    between atoms: C_21  and  C_22 
REMARK       I    between atoms: C_31  and  N_32 
REMARK    8  A    between atoms: N_32  and  C_33 
ROOT
HETATM    1  N   UNL     1      -6.837   2.609 -31.896  1.00  0.00    -0.323 N 
HETATM    2  C   UNL     1      -6.231   2.410 -33.138  1.00  0.00     0.271 C 
HETATM    3  O   UNL     1      -5.448   3.241 -33.598  1.00  0.00    -0.266 OA
ENDROOT
BRANCH   1   4
HETATM    4  C   UNL     1      -6.538   3.885 -31.212  1.00  0.00     0.237 C 
BRANCH   4   5
HETATM    5  C   UNL     1      -7.260   5.016 -31.892  1.00  0.00     0.085 A 
HETATM    6  O   UNL     1      -7.004   6.305 -31.511  1.00  0.00    -0.317 OA
HETATM    7  C   UNL     1      -7.794   7.119 -32.265  1.00  0.00     0.049 A 
HETATM    8  C   UNL     1      -7.709   8.565 -31.980  1.00  0.00     0.076 C 
HETATM    9  C   UNL     1      -8.527   6.372 -33.160  1.00  0.00     0.035 A 
HETATM   10  C   UNL     1      -8.183   5.020 -32.923  1.00  0.00     0.038 A 
ENDBRANCH   4   5
BRANCH   4  11
HETATM   11  C   UNL     1      -5.021   4.055 -30.923  1.00  0.00     0.247 C 
HETATM   12  N   UNL     1      -4.360   5.098 -31.523  1.00  0.00    -0.354 N 
HETATM   13  H   UNL     1      -4.921   5.698 -32.122  1.00  0.00     0.162 HD
HETATM   14  O   UNL     1      -4.437   3.234 -30.213  1.00  0.00    -0.271 OA
BRANCH  12  15
HETATM   15  C   UNL     1      -2.946   5.449 -31.416  1.00  0.00     0.084 C 
HETATM   16  C   UNL     1      -2.020   4.591 -32.292  1.00  0.00     0.025 C 
HETATM   17  C   UNL     1      -1.686   5.180 -33.660  1.00  0.00     0.002 C 
HETATM   18  C   UNL     1      -1.266   6.641 -33.567  1.00  0.00     0.000 C 
HETATM   19  C   UNL     1      -2.326   7.487 -32.876  1.00  0.00     0.002 C 
HETATM   20  C   UNL     1      -2.667   6.956 -31.487  1.00  0.00     0.025 C 
ENDBRANCH  12  15
ENDBRANCH   4  11
ENDBRANCH   1   4
BRANCH   1  21
HETATM   21  C   UNL     1      -7.864   1.749 -31.302  1.00  0.00     0.166 C 
BRANCH  21  22
HETATM   22  C   UNL     1      -9.119   1.475 -32.106  1.00  0.00    -0.037 A 
HETATM   23  C   UNL     1      -9.873   2.590 -32.530  1.00  0.00     0.048 A 
HETATM   24  C   UNL     1     -11.039   2.375 -33.234  1.00  0.00     0.105 A 
HETATM   25  C   UNL     1     -11.487   1.110 -33.521  1.00  0.00     0.105 A 
HETATM   26  O   UNL     1     -11.866   3.342 -33.712  1.00  0.00    -0.323 OA
HETATM   27  O   UNL     1     -12.653   1.117 -34.220  1.00  0.00    -0.323 OA
HETATM   28  C   UNL     1     -10.790  -0.007 -33.123  1.00  0.00     0.040 A 
HETATM   29  C   UNL     1     -12.890   2.535 -34.332  1.00  0.00     0.352 A 
HETATM   30  C   UNL     1      -9.597   0.182 -32.413  1.00  0.00     0.012 A 
ENDBRANCH  21  22
ENDBRANCH   1  21
BRANCH   2  31
HETATM   31  C   UNL     1      -6.579   1.263 -33.952  1.00  0.00     0.101 A 
HETATM   32  N   UNL     1      -6.030   0.030 -33.665  1.00  0.00    -0.351 N 
HETATM   33  H   UNL     1      -5.401  -0.128 -32.888  1.00  0.00     0.166 HD
HETATM   34  C   UNL     1      -6.426  -0.925 -34.572  1.00  0.00     0.043 A 
HETATM   35  C   UNL     1      -7.354  -0.307 -35.391  1.00  0.00     0.033 A 
HETATM   36  C   UNL     1      -7.464   1.051 -34.993  1.00  0.00     0.037 A 
BRANCH  34  37
HETATM   37  C   UNL     1      -5.930  -2.303 -34.540  1.00  0.00    -0.009 A 
HETATM   38  C   UNL     1      -6.765  -3.370 -34.896  1.00  0.00     0.013 A 
HETATM   39  C   UNL     1      -6.297  -4.687 -34.861  1.00  0.00     0.001 A 
HETATM   40  C   UNL     1      -4.985  -4.952 -34.473  1.00  0.00     0.000 A 
HETATM   41  C   UNL     1      -4.140  -3.903 -34.124  1.00  0.00     0.001 A 
HETATM   42  C   UNL     1      -4.608  -2.587 -34.159  1.00  0.00     0.013 A 
ENDBRANCH  34  37
ENDBRANCH   2  31
TORSDOF 8
ENDMDL
MODEL 5
REMARK VINA RESULT:     -10.1      2.703      8.316
REMARK  8 active torsions:
REMARK  status: ('A' for Active; 'I' for Inactive)
REMARK    1  A    between atoms: C_4  and  C_5 
REMARK    2  A    between atoms: C_5  and  N_6 
REMARK    3  A    between atoms: C_5  and  C_31 
REMARK       I    between atoms: N_6  and  C_7 
REMARK    4  A    between atoms: N_6  and  C_21 
REMARK    5  A    between atoms: C_7  and  C_8 
REMARK    6  A    between atoms: C_11  and  C_12 
REMARK    7  A    between atoms: C_21  and  C_22 
REMARK       I    between atoms: C_31  and  N_32 
REMARK    8  A    between atoms: N_32  and  C_33 
ROOT
HETATM    1  N   UNL     1      -4.681   1.556 -32.297  1.00  0.00    -0.323 N 
HETATM    2  C   UNL     1      -3.431   1.909 -31.787  1.00  0.00     0.271 C 
HETATM    3  O   UNL     1      -2.828   1.160 -31.016  1.00  0.00    -0.266 OA
ENDROOT
BRANCH   1   4
HETATM    4  C   UNL     1      -5.257   0.284 -31.812  1.00  0.00     0.237 C 
BRANCH   4   5
HETATM    5  C   UNL     1      -5.078  -0.791 -32.850  1.00  0.00     0.085 A 
HETATM    6  O   UNL     1      -6.172  -1.468 -33.315  1.00  0.00    -0.317 OA
HETATM    7  C   UNL     1      -5.733  -2.385 -34.220  1.00  0.00     0.049 A 
HETATM    8  C   UNL     1      -6.758  -3.264 -34.817  1.00  0.00     0.076 C 
HETATM    9  C   UNL     1      -4.369  -2.278 -34.378  1.00  0.00     0.035 A 
HETATM   10  C   UNL     1      -3.947  -1.253 -33.499  1.00  0.00     0.038 A 
ENDBRANCH   4   5
BRANCH   4  11
HETATM   11  C   UNL     1      -6.669   0.475 -31.193  1.00  0.00     0.247 C 
HETATM   12  N   UNL     1      -7.742   0.570 -32.045  1.00  0.00    -0.354 N 
HETATM   13  H   UNL     1      -7.532   0.503 -33.037  1.00  0.00     0.162 HD
HETATM   14  O   UNL     1      -6.792   0.589 -29.972  1.00  0.00    -0.271 OA
BRANCH  12  15
HETATM   15  C   UNL     1      -9.149   0.764 -31.703  1.00  0.00     0.084 C 
HETATM   16  C   UNL     1      -9.508   2.212 -31.335  1.00  0.00     0.025 C 
HETATM   17  C   UNL     1     -10.048   3.061 -32.482  1.00  0.00     0.002 C 
HETATM   18  C   UNL     1     -11.134   2.339 -33.269  1.00  0.00     0.000 C 
HETATM   19  C   UNL     1     -10.645   0.996 -33.795  1.00  0.00     0.002 C 
HETATM   20  C   UNL     1     -10.128   0.096 -32.677  1.00  0.00     0.025 C 
ENDBRANCH  12  15
ENDBRANCH   4  11
ENDBRANCH   1   4
BRANCH   1  21
HETATM   21  C   UNL     1      -5.534   2.411 -33.126  1.00  0.00     0.166 C 
BRANCH  21  22
HETATM   22  C   UNL     1      -5.956   3.756 -32.570  1.00  0.00    -0.037 A 
HETATM   23  C   UNL     1      -6.262   3.820 -31.195  1.00  0.00     0.048 A 
HETATM   24  C   UNL     1      -6.682   5.021 -30.663  1.00  0.00     0.105 A 
HETATM   25  C   UNL     1      -6.819   6.146 -31.437  1.00  0.00     0.105 A 
HETATM   26  O   UNL     1      -7.007   5.242 -29.361  1.00  0.00    -0.323 OA
HETATM   27  O   UNL     1      -7.244   7.221 -30.722  1.00  0.00    -0.323 OA
HETATM   28  C   UNL     1      -6.538   6.131 -32.783  1.00  0.00     0.040 A 
HETATM   29  C   UNL     1      -7.368   6.639 -29.409  1.00  0.00     0.352 A 
HETATM   30  C   UNL     1      -6.102   4.925 -33.349  1.00  0.00     0.012 A 
ENDBRANCH  21  22
ENDBRANCH   1  21
BRANCH   2  31
HETATM   31  C   UNL     1      -2.852   3.204 -32.084  1.00  0.00     0.101 A 
HETATM   32  N   UNL     1      -2.377   3.994 -31.057  1.00  0.00    -0.351 N 
HETATM   33  H   UNL     1      -2.390   3.705 -30.086  1.00  0.00     0.166 HD
HETATM   34  C   UNL     1      -1.918   5.205 -31.518  1.00  0.00     0.043 A 
HETATM   35  C   UNL     1      -1.990   5.136 -32.898  1.00  0.00     0.033 A 
HETATM   36  C   UNL     1      -2.554   3.882 -33.252  1.00  0.00     0.037 A 
BRANCH  34  37
HETATM   37  C   UNL     1      -1.428   6.258 -30.626  1.00  0.00    -0.009 A 
HETATM   38  C   UNL     1      -0.221   6.101 -29.932  1.00  0.00     0.013 A 
HETATM   39  C   UNL     1       0.247   7.102 -29.075  1.00  0.00     0.001 A 
HETATM   40  C   UNL     1      -0.485   8.275 -28.906  1.00  0.00     0.000 A 
HETATM   41  C   UNL     1      -1.682   8.450 -29.594  1.00  0.00     0.001 A 
HETATM   42  C   UNL     1      -2.150   7.450 -30.450  1.00  0.00     0.013 A 
ENDBRANCH  34  37
ENDBRANCH   2  31
TORSDOF 8
ENDMDL
MODEL 6
REMARK VINA RESULT:     -10.0      2.660      8.733
REMARK  8 active torsions:
REMARK  status: ('A' for Active; 'I' for Inactive)
REMARK    1  A    between atoms: C_4  and  C_5 
REMARK    2  A    between atoms: C_5  and  N_6 
REMARK    3  A    between atoms: C_5  and  C_31 
REMARK       I    between atoms: N_6  and  C_7 
REMARK    4  A    between atoms: N_6  and  C_21 
REMARK    5  A    between atoms: C_7  and  C_8 
REMARK    6  A    between atoms: C_11  and  C_12 
REMARK    7  A    between atoms: C_21  and  C_22 
REMARK       I    between atoms: C_31  and  N_32 
REMARK    8  A    between atoms: N_32  and  C_33 
ROOT
HETATM    1  N   UNL     1      -7.049   3.835 -31.076  1.00  0.00    -0.323 N 
HETATM    2  C   UNL     1      -6.719   4.479 -29.882  1.00  0.00     0.271 C 
HETATM    3  O   UNL     1      -7.171   4.084 -28.806  1.00  0.00    -0.266 OA
ENDROOT
BRANCH   1   4
HETATM    4  C   UNL     1      -8.007   2.714 -30.979  1.00  0.00     0.237 C 
BRANCH   4   5
HETATM    5  C   UNL     1      -7.476   1.516 -31.719  1.00  0.00     0.085 A 
HETATM    6  O   UNL     1      -7.687   1.408 -33.066  1.00  0.00    -0.317 OA
HETATM    7  C   UNL     1      -7.125   0.237 -33.476  1.00  0.00     0.049 A 
HETATM    8  C   UNL     1      -7.280  -0.102 -34.905  1.00  0.00     0.076 C 
HETATM    9  C   UNL     1      -6.514  -0.392 -32.414  1.00  0.00     0.035 A 
HETATM   10  C   UNL     1      -6.738   0.431 -31.284  1.00  0.00     0.038 A 
ENDBRANCH   4   5
BRANCH   4  11
HETATM   11  C   UNL     1      -9.467   3.162 -31.266  1.00  0.00     0.247 C 
HETATM   12  N   UNL     1     -10.041   2.778 -32.453  1.00  0.00    -0.354 N 
HETATM   13  H   UNL     1      -9.461   2.215 -33.069  1.00  0.00     0.162 HD
HETATM   14  O   UNL     1     -10.055   3.886 -30.460  1.00  0.00    -0.271 OA
BRANCH  12  15
HETATM   15  C   UNL     1     -11.381   3.087 -32.946  1.00  0.00     0.084 C 
HETATM   16  C   UNL     1     -11.446   4.335 -33.840  1.00  0.00     0.025 C 
HETATM   17  C   UNL     1     -11.352   4.068 -35.340  1.00  0.00     0.002 C 
HETATM   18  C   UNL     1     -12.282   2.945 -35.782  1.00  0.00     0.000 C 
HETATM   19  C   UNL     1     -12.022   1.663 -35.004  1.00  0.00     0.002 C 
HETATM   20  C   UNL     1     -12.140   1.873 -33.497  1.00  0.00     0.025 C 
ENDBRANCH  12  15
ENDBRANCH   4  11
ENDBRANCH   1   4
BRANCH   1  21
HETATM   21  C   UNL     1      -6.664   4.281 -32.418  1.00  0.00     0.166 C 
BRANCH  21  22
HETATM   22  C   UNL     1      -5.188   4.362 -32.749  1.00  0.00    -0.037 A 
HETATM   23  C   UNL     1      -4.729   5.538 -33.378  1.00  0.00     0.048 A 
HETATM   24  C   UNL     1      -3.397   5.630 -33.724  1.00  0.00     0.105 A 
HETATM   25  C   UNL     1      -2.515   4.607 -33.482  1.00  0.00     0.105 A 
HETATM   26  O   UNL     1      -2.806   6.696 -34.328  1.00  0.00    -0.323 OA
HETATM   27  O   UNL     1      -1.254   4.897 -33.899  1.00  0.00    -0.323 OA
HETATM   28  C   UNL     1      -2.917   3.439 -32.877  1.00  0.00     0.040 A 
HETATM   29  C   UNL     1      -1.448   6.220 -34.440  1.00  0.00     0.352 A 
HETATM   30  C   UNL     1      -4.264   3.321 -32.508  1.00  0.00     0.012 A 
ENDBRANCH  21  22
ENDBRANCH   1  21
BRANCH   2  31
HETATM   31  C   UNL     1      -5.908   5.680 -29.891  1.00  0.00     0.101 A 
HETATM   32  N   UNL     1      -4.535   5.578 -29.805  1.00  0.00    -0.351 N 
HETATM   33  H   UNL     1      -4.048   4.691 -29.756  1.00  0.00     0.166 HD
HETATM   34  C   UNL     1      -3.935   6.815 -29.771  1.00  0.00     0.043 A 
HETATM   35  C   UNL     1      -4.951   7.733 -29.966  1.00  0.00     0.033 A 
HETATM   36  C   UNL     1      -6.178   7.025 -30.061  1.00  0.00     0.037 A 
BRANCH  34  37
HETATM   37  C   UNL     1      -2.490   6.991 -29.608  1.00  0.00    -0.009 A 
HETATM   38  C   UNL     1      -1.962   7.468 -28.401  1.00  0.00     0.013 A 
HETATM   39  C   UNL     1      -0.584   7.643 -28.242  1.00  0.00     0.001 A 
HETATM   40  C   UNL     1       0.283   7.339 -29.289  1.00  0.00     0.000 A 
HETATM   41  C   UNL     1      -0.224   6.857 -30.492  1.00  0.00     0.001 A 
HETATM   42  C   UNL     1      -1.602   6.682 -30.650  1.00  0.00     0.013 A 
ENDBRANCH  34  37
ENDBRANCH   2  31
TORSDOF 8
ENDMDL
MODEL 7
REMARK VINA RESULT:     -10.0      2.294      4.924
REMARK  8 active torsions:
REMARK  status: ('A' for Active; 'I' for Inactive)
REMARK    1  A    between atoms: C_4  and  C_5 
REMARK    2  A    between atoms: C_5  and  N_6 
REMARK    3  A    between atoms: C_5  and  C_31 
REMARK       I    between atoms: N_6  and  C_7 
REMARK    4  A    between atoms: N_6  and  C_21 
REMARK    5  A    between atoms: C_7  and  C_8 
REMARK    6  A    between atoms: C_11  and  C_12 
REMARK    7  A    between atoms: C_21  and  C_22 
REMARK       I    between atoms: C_31  and  N_32 
REMARK    8  A    between atoms: N_32  and  C_33 
ROOT
HETATM    1  N   UNL     1      -8.077   2.925 -32.255  1.00  0.00    -0.323 N 
HETATM    2  C   UNL     1      -8.209   1.536 -32.261  1.00  0.00     0.271 C 
HETATM    3  O   UNL     1      -8.657   0.940 -31.281  1.00  0.00    -0.266 OA
ENDROOT
BRANCH   1   4
HETATM    4  C   UNL     1      -8.436   3.617 -30.999  1.00  0.00     0.237 C 
BRANCH   4   5
HETATM    5  C   UNL     1      -9.541   4.607 -31.254  1.00  0.00     0.085 A 
HETATM    6  O   UNL     1      -9.670   5.698 -30.439  1.00  0.00    -0.317 OA
HETATM    7  C   UNL     1     -10.746   6.410 -30.875  1.00  0.00     0.049 A 
HETATM    8  C   UNL     1     -11.094   7.616 -30.098  1.00  0.00     0.076 C 
HETATM    9  C   UNL     1     -11.287   5.813 -31.992  1.00  0.00     0.035 A 
HETATM   10  C   UNL     1     -10.513   4.655 -32.237  1.00  0.00     0.038 A 
ENDBRANCH   4   5
BRANCH   4  11
HETATM   11  C   UNL     1      -7.185   4.104 -30.217  1.00  0.00     0.247 C 
HETATM   12  N   UNL     1      -6.883   5.443 -30.247  1.00  0.00    -0.354 N 
HETATM   13  H   UNL     1      -7.512   6.031 -30.786  1.00  0.00     0.162 HD
HETATM   14  O   UNL     1      -6.470   3.285 -29.636  1.00  0.00    -0.271 OA
BRANCH  12  15
HETATM   15  C   UNL     1      -5.761   6.127 -29.608  1.00  0.00     0.084 C 
HETATM   16  C   UNL     1      -4.497   6.203 -30.478  1.00  0.00     0.025 C 
HETATM   17  C   UNL     1      -4.341   7.485 -31.291  1.00  0.00     0.002 C 
HETATM   18  C   UNL     1      -4.584   8.730 -30.450  1.00  0.00     0.000 C 
HETATM   19  C   UNL     1      -5.952   8.697 -29.781  1.00  0.00     0.002 C 
HETATM   20  C   UNL     1      -6.140   7.447 -28.925  1.00  0.00     0.025 C 
ENDBRANCH  12  15
ENDBRANCH   4  11
ENDBRANCH   1   4
BRANCH   1  21
HETATM   21  C   UNL     1      -7.456   3.726 -33.314  1.00  0.00     0.166 C 
BRANCH  21  22
HETATM   22  C   UNL     1      -5.950   3.892 -33.296  1.00  0.00    -0.037 A 
HETATM   23  C   UNL     1      -5.406   4.949 -34.054  1.00  0.00     0.048 A 
HETATM   24  C   UNL     1      -4.037   5.107 -34.087  1.00  0.00     0.105 A 
HETATM   25  C   UNL     1      -3.195   4.260 -33.413  1.00  0.00     0.105 A 
HETATM   26  O   UNL     1      -3.366   6.077 -34.765  1.00  0.00    -0.323 OA
HETATM   27  O   UNL     1      -1.886   4.588 -33.576  1.00  0.00    -0.323 OA
HETATM   28  C   UNL     1      -3.678   3.211 -32.665  1.00  0.00     0.040 A 
HETATM   29  C   UNL     1      -2.002   5.736 -34.439  1.00  0.00     0.352 A 
HETATM   30  C   UNL     1      -5.067   3.032 -32.607  1.00  0.00     0.012 A 
ENDBRANCH  21  22
ENDBRANCH   1  21
BRANCH   2  31
HETATM   31  C   UNL     1      -7.742   0.756 -33.390  1.00  0.00     0.101 A 
HETATM   32  N   UNL     1      -7.214  -0.502 -33.181  1.00  0.00    -0.351 N 
HETATM   33  H   UNL     1      -7.153  -0.930 -32.265  1.00  0.00     0.166 HD
HETATM   34  C   UNL     1      -6.772  -1.068 -34.353  1.00  0.00     0.043 A 
HETATM   35  C   UNL     1      -7.142  -0.193 -35.359  1.00  0.00     0.033 A 
HETATM   36  C   UNL     1      -7.764   0.935 -34.761  1.00  0.00     0.037 A 
BRANCH  34  37
HETATM   37  C   UNL     1      -6.102  -2.370 -34.401  1.00  0.00    -0.009 A 
HETATM   38  C   UNL     1      -4.767  -2.500 -33.997  1.00  0.00     0.013 A 
HETATM   39  C   UNL     1      -4.122  -3.739 -34.046  1.00  0.00     0.001 A 
HETATM   40  C   UNL     1      -4.807  -4.865 -34.498  1.00  0.00     0.000 A 
HETATM   41  C   UNL     1      -6.136  -4.755 -34.896  1.00  0.00     0.001 A 
HETATM   42  C   UNL     1      -6.781  -3.516 -34.846  1.00  0.00     0.013 A 
ENDBRANCH  34  37
ENDBRANCH   2  31
TORSDOF 8
ENDMDL
MODEL 8
REMARK VINA RESULT:     -10.0      2.197      3.174
REMARK  8 active torsions:
REMARK  status: ('A' for Active; 'I' for Inactive)
REMARK    1  A    between atoms: C_4  and  C_5 
REMARK    2  A    between atoms: C_5  and  N_6 
REMARK    3  A    between atoms: C_5  and  C_31 
REMARK       I    between atoms: N_6  and  C_7 
REMARK    4  A    between atoms: N_6  and  C_21 
REMARK    5  A    between atoms: C_7  and  C_8 
REMARK    6  A    between atoms: C_11  and  C_12 
REMARK    7  A    between atoms: C_21  and  C_22 
REMARK       I    between atoms: C_31  and  N_32 
REMARK    8  A    between atoms: N_32  and  C_33 
ROOT
HETATM    1  N   UNL     1      -6.300   3.738 -33.034  1.00  0.00    -0.323 N 
HETATM    2  C   UNL     1      -5.706   2.479 -32.938  1.00  0.00     0.271 C 
HETATM    3  O   UNL     1      -4.731   2.294 -32.210  1.00  0.00    -0.266 OA
ENDROOT
BRANCH   1   4
HETATM    4  C   UNL     1      -5.656   4.831 -32.274  1.00  0.00     0.237 C 
BRANCH   4   5
HETATM    5  C   UNL     1      -6.699   5.794 -31.774  1.00  0.00     0.085 A 
HETATM    6  O   UNL     1      -7.424   5.483 -30.657  1.00  0.00    -0.317 OA
HETATM    7  C   UNL     1      -8.298   6.504 -30.437  1.00  0.00     0.049 A 
HETATM    8  C   UNL     1      -9.218   6.348 -29.294  1.00  0.00     0.076 C 
HETATM    9  C   UNL     1      -8.114   7.494 -31.377  1.00  0.00     0.035 A 
HETATM   10  C   UNL     1      -7.085   7.040 -32.236  1.00  0.00     0.038 A 
ENDBRANCH   4   5
BRANCH   4  11
HETATM   11  C   UNL     1      -4.419   5.411 -33.012  1.00  0.00     0.247 C 
HETATM   12  N   UNL     1      -3.303   5.710 -32.270  1.00  0.00    -0.354 N 
HETATM   13  H   UNL     1      -3.366   5.523 -31.273  1.00  0.00     0.162 HD
HETATM   14  O   UNL     1      -4.479   5.638 -34.222  1.00  0.00    -0.271 OA
BRANCH  12  15
HETATM   15  C   UNL     1      -2.037   6.273 -32.734  1.00  0.00     0.084 C 
HETATM   16  C   UNL     1      -1.716   7.657 -32.150  1.00  0.00     0.025 C 
HETATM   17  C   UNL     1      -0.835   7.650 -30.903  1.00  0.00     0.002 C 
HETATM   18  C   UNL     1       0.385   6.754 -31.069  1.00  0.00     0.000 C 
HETATM   19  C   UNL     1      -0.011   5.331 -31.439  1.00  0.00     0.002 C 
HETATM   20  C   UNL     1      -0.864   5.285 -32.703  1.00  0.00     0.025 C 
ENDBRANCH  12  15
ENDBRANCH   4  11
ENDBRANCH   1   4
BRANCH   1  21
HETATM   21  C   UNL     1      -7.387   4.100 -33.947  1.00  0.00     0.166 C 
BRANCH  21  22
HETATM   22  C   UNL     1      -8.813   3.936 -33.462  1.00  0.00    -0.037 A 
HETATM   23  C   UNL     1      -9.827   4.576 -34.204  1.00  0.00     0.048 A 
HETATM   24  C   UNL     1     -11.132   4.476 -33.770  1.00  0.00     0.105 A 
HETATM   25  C   UNL     1     -11.465   3.783 -32.635  1.00  0.00     0.105 A 
HETATM   26  O   UNL     1     -12.215   5.030 -34.379  1.00  0.00    -0.323 OA
HETATM   27  O   UNL     1     -12.801   3.807 -32.383  1.00  0.00    -0.323 OA
HETATM   28  C   UNL     1     -10.511   3.148 -31.874  1.00  0.00     0.040 A 
HETATM   29  C   UNL     1     -13.269   4.605 -33.488  1.00  0.00     0.352 A 
HETATM   30  C   UNL     1      -9.177   3.226 -32.297  1.00  0.00     0.012 A 
ENDBRANCH  21  22
ENDBRANCH   1  21
BRANCH   2  31
HETATM   31  C   UNL     1      -6.171   1.380 -33.761  1.00  0.00     0.101 A 
HETATM   32  N   UNL     1      -5.703   0.104 -33.527  1.00  0.00    -0.351 N 
HETATM   33  H   UNL     1      -5.054  -0.119 -32.782  1.00  0.00     0.166 HD
HETATM   34  C   UNL     1      -6.207  -0.797 -34.436  1.00  0.00     0.043 A 
HETATM   35  C   UNL     1      -7.122  -0.093 -35.198  1.00  0.00     0.033 A 
HETATM   36  C   UNL     1      -7.114   1.260 -34.766  1.00  0.00     0.037 A 
BRANCH  34  37
HETATM   37  C   UNL     1      -5.812  -2.207 -34.456  1.00  0.00    -0.009 A 
HETATM   38  C   UNL     1      -6.723  -3.197 -34.849  1.00  0.00     0.013 A 
HETATM   39  C   UNL     1      -6.352  -4.545 -34.864  1.00  0.00     0.001 A 
HETATM   40  C   UNL     1      -5.063  -4.919 -34.491  1.00  0.00     0.000 A 
HETATM   41  C   UNL     1      -4.144  -3.947 -34.105  1.00  0.00     0.001 A 
HETATM   42  C   UNL     1      -4.515  -2.600 -34.090  1.00  0.00     0.013 A 
ENDBRANCH  34  37
ENDBRANCH   2  31
TORSDOF 8
ENDMDL
MODEL 9
REMARK VINA RESULT:      -9.9      2.039      4.769
REMARK  8 active torsions:
REMARK  status: ('A' for Active; 'I' for Inactive)
REMARK    1  A    between atoms: C_4  and  C_5 
REMARK    2  A    between atoms: C_5  and  N_6 
REMARK    3  A    between atoms: C_5  and  C_31 
REMARK       I    between atoms: N_6  and  C_7 
REMARK    4  A    between atoms: N_6  and  C_21 
REMARK    5  A    between atoms: C_7  and  C_8 
REMARK    6  A    between atoms: C_11  and  C_12 
REMARK    7  A    between atoms: C_21  and  C_22 
REMARK       I    between atoms: C_31  and  N_32 
REMARK    8  A    between atoms: N_32  and  C_33 
ROOT
HETATM    1  N   UNL     1      -8.811   2.517 -32.367  1.00  0.00    -0.323 N 
HETATM    2  C   UNL     1      -8.775   1.123 -32.435  1.00  0.00     0.271 C 
HETATM    3  O   UNL     1      -9.270   0.435 -31.542  1.00  0.00    -0.266 OA
ENDROOT
BRANCH   1   4
HETATM    4  C   UNL     1      -9.407   3.104 -31.149  1.00  0.00     0.237 C 
BRANCH   4   5
HETATM    5  C   UNL     1     -10.785   3.630 -31.451  1.00  0.00     0.085 A 
HETATM    6  O   UNL     1     -11.448   4.364 -30.506  1.00  0.00    -0.317 OA
HETATM    7  C   UNL     1     -12.663   4.696 -31.024  1.00  0.00     0.049 A 
HETATM    8  C   UNL     1     -13.568   5.458 -30.141  1.00  0.00     0.076 C 
HETATM    9  C   UNL     1     -12.774   4.222 -32.312  1.00  0.00     0.035 A 
HETATM   10  C   UNL     1     -11.566   3.538 -32.588  1.00  0.00     0.038 A 
ENDBRANCH   4   5
BRANCH   4  11
HETATM   11  C   UNL     1      -8.416   4.037 -30.400  1.00  0.00     0.247 C 
HETATM   12  N   UNL     1      -8.523   5.391 -30.602  1.00  0.00    -0.354 N 
HETATM   13  H   UNL     1      -9.258   5.692 -31.236  1.00  0.00     0.162 HD
HETATM   14  O   UNL     1      -7.534   3.550 -29.690  1.00  0.00    -0.271 OA
BRANCH  12  15
HETATM   15  C   UNL     1      -7.703   6.454 -30.026  1.00  0.00     0.084 C 
HETATM   16  C   UNL     1      -7.666   6.453 -28.490  1.00  0.00     0.025 C 
HETATM   17  C   UNL     1      -6.488   5.707 -27.868  1.00  0.00     0.002 C 
HETATM   18  C   UNL     1      -5.163   6.087 -28.515  1.00  0.00     0.000 C 
HETATM   19  C   UNL     1      -5.189   5.861 -30.020  1.00  0.00     0.002 C 
HETATM   20  C   UNL     1      -6.331   6.618 -30.693  1.00  0.00     0.025 C 
ENDBRANCH  12  15
ENDBRANCH   4  11
ENDBRANCH   1   4
BRANCH   1  21
HETATM   21  C   UNL     1      -8.161   3.432 -33.309  1.00  0.00     0.166 C 
BRANCH  21  22
HETATM   22  C   UNL     1      -6.662   3.626 -33.199  1.00  0.00    -0.037 A 
HETATM   23  C   UNL     1      -6.092   4.691 -33.927  1.00  0.00     0.048 A 
HETATM   24  C   UNL     1      -4.726   4.875 -33.876  1.00  0.00     0.105 A 
HETATM   25  C   UNL     1      -3.912   4.046 -33.146  1.00  0.00     0.105 A 
HETATM   26  O   UNL     1      -4.033   5.855 -34.515  1.00  0.00    -0.323 OA
HETATM   27  O   UNL     1      -2.602   4.398 -33.229  1.00  0.00    -0.323 OA
HETATM   28  C   UNL     1      -4.421   2.991 -32.425  1.00  0.00     0.040 A 
HETATM   29  C   UNL     1      -2.685   5.541 -34.103  1.00  0.00     0.352 A 
HETATM   30  C   UNL     1      -5.807   2.785 -32.453  1.00  0.00     0.012 A 
ENDBRANCH  21  22
ENDBRANCH   1  21
BRANCH   2  31
HETATM   31  C   UNL     1      -8.078   0.455 -33.516  1.00  0.00     0.101 A 
HETATM   32  N   UNL     1      -7.516  -0.787 -33.303  1.00  0.00    -0.351 N 
HETATM   33  H   UNL     1      -7.582  -1.280 -32.421  1.00  0.00     0.166 HD
HETATM   34  C   UNL     1      -6.850  -1.240 -34.418  1.00  0.00     0.043 A 
HETATM   35  C   UNL     1      -7.101  -0.311 -35.412  1.00  0.00     0.033 A 
HETATM   36  C   UNL     1      -7.882   0.736 -34.856  1.00  0.00     0.037 A 
BRANCH  34  37
HETATM   37  C   UNL     1      -6.103  -2.499 -34.437  1.00  0.00    -0.009 A 
HETATM   38  C   UNL     1      -6.710  -3.683 -34.877  1.00  0.00     0.013 A 
HETATM   39  C   UNL     1      -6.001  -4.888 -34.891  1.00  0.00     0.001 A 
HETATM   40  C   UNL     1      -4.674  -4.923 -34.468  1.00  0.00     0.000 A 
HETATM   41  C   UNL     1      -4.054  -3.755 -34.035  1.00  0.00     0.001 A 
HETATM   42  C   UNL     1      -4.762  -2.550 -34.021  1.00  0.00     0.013 A 
ENDBRANCH  34  37
ENDBRANCH   2  31
TORSDOF 8
ENDMDL
MODEL 10
REMARK VINA RESULT:      -9.8      2.350      6.687
REMARK  8 active torsions:
REMARK  status: ('A' for Active; 'I' for Inactive)
REMARK    1  A    between atoms: C_4  and  C_5 
REMARK    2  A    between atoms: C_5  and  N_6 
REMARK    3  A    between atoms: C_5  and  C_31 
REMARK       I    between atoms: N_6  and  C_7 
REMARK    4  A    between atoms: N_6  and  C_21 
REMARK    5  A    between atoms: C_7  and  C_8 
REMARK    6  A    between atoms: C_11  and  C_12 
REMARK    7  A    between atoms: C_21  and  C_22 
REMARK       I    between atoms: C_31  and  N_32 
REMARK    8  A    between atoms: N_32  and  C_33 
ROOT
HETATM    1  N   UNL     1      -7.237   3.818 -33.342  1.00  0.00    -0.323 N 
HETATM    2  C   UNL     1      -7.695   2.933 -32.365  1.00  0.00     0.271 C 
HETATM    3  O   UNL     1      -8.669   3.215 -31.665  1.00  0.00    -0.266 OA
ENDROOT
BRANCH   1   4
HETATM    4  C   UNL     1      -7.935   5.117 -33.438  1.00  0.00     0.237 C 
BRANCH   4   5
HETATM    5  C   UNL     1      -7.968   5.784 -32.089  1.00  0.00     0.085 A 
HETATM    6  O   UNL     1      -9.170   6.157 -31.551  1.00  0.00    -0.317 OA
HETATM    7  C   UNL     1      -8.915   6.746 -30.349  1.00  0.00     0.049 A 
HETATM    8  C   UNL     1     -10.083   7.269 -29.613  1.00  0.00     0.076 C 
HETATM    9  C   UNL     1      -7.564   6.718 -30.086  1.00  0.00     0.035 A 
HETATM   10  C   UNL     1      -6.954   6.098 -31.202  1.00  0.00     0.038 A 
ENDBRANCH   4   5
BRANCH   4  11
HETATM   11  C   UNL     1      -9.265   5.013 -34.234  1.00  0.00     0.247 C 
HETATM   12  N   UNL     1     -10.287   4.272 -33.694  1.00  0.00    -0.354 N 
HETATM   13  H   UNL     1     -10.099   3.840 -32.794  1.00  0.00     0.162 HD
HETATM   14  O   UNL     1      -9.358   5.545 -35.342  1.00  0.00    -0.271 OA
BRANCH  12  15
HETATM   15  C   UNL     1     -11.611   4.019 -34.259  1.00  0.00     0.084 C 
HETATM   16  C   UNL     1     -11.748   2.651 -34.944  1.00  0.00     0.025 C 
HETATM   17  C   UNL     1     -12.310   1.536 -34.067  1.00  0.00     0.002 C 
HETATM   18  C   UNL     1     -13.559   1.974 -33.314  1.00  0.00     0.000 C 
HETATM   19  C   UNL     1     -13.301   3.219 -32.476  1.00  0.00     0.002 C 
HETATM   20  C   UNL     1     -12.770   4.375 -33.319  1.00  0.00     0.025 C 
ENDBRANCH  12  15
ENDBRANCH   4  11
ENDBRANCH   1   4
BRANCH   1  21
HETATM   21  C   UNL     1      -6.029   3.639 -34.153  1.00  0.00     0.166 C 
BRANCH  21  22
HETATM   22  C   UNL     1      -4.725   4.203 -33.627  1.00  0.00    -0.037 A 
HETATM   23  C   UNL     1      -4.239   5.382 -34.231  1.00  0.00     0.048 A 
HETATM   24  C   UNL     1      -3.037   5.903 -33.799  1.00  0.00     0.105 A 
HETATM   25  C   UNL     1      -2.302   5.301 -32.810  1.00  0.00     0.105 A 
HETATM   26  O   UNL     1      -2.443   7.029 -34.277  1.00  0.00    -0.323 OA
HETATM   27  O   UNL     1      -1.152   5.972 -32.534  1.00  0.00    -0.323 OA
HETATM   28  C   UNL     1      -2.732   4.147 -32.196  1.00  0.00     0.040 A 
HETATM   29  C   UNL     1      -1.246   7.062 -33.472  1.00  0.00     0.352 A 
HETATM   30  C   UNL     1      -3.953   3.600 -32.609  1.00  0.00     0.012 A 
ENDBRANCH  21  22
ENDBRANCH   1  21
BRANCH   2  31
HETATM   31  C   UNL     1      -6.984   1.701 -32.094  1.00  0.00     0.101 A 
HETATM   32  N   UNL     1      -6.826   0.766 -33.097  1.00  0.00    -0.351 N 
HETATM   33  H   UNL     1      -7.168   0.905 -34.040  1.00  0.00     0.166 HD
HETATM   34  C   UNL     1      -6.178  -0.360 -32.645  1.00  0.00     0.043 A 
HETATM   35  C   UNL     1      -5.802  -0.082 -31.343  1.00  0.00     0.033 A 
HETATM   36  C   UNL     1      -6.287   1.209 -31.005  1.00  0.00     0.037 A 
BRANCH  34  37
HETATM   37  C   UNL     1      -5.948  -1.534 -33.489  1.00  0.00    -0.009 A 
HETATM   38  C   UNL     1      -7.022  -2.189 -34.106  1.00  0.00     0.013 A 
HETATM   39  C   UNL     1      -6.808  -3.315 -34.909  1.00  0.00     0.001 A 
HETATM   40  C   UNL     1      -5.515  -3.796 -35.106  1.00  0.00     0.000 A 
HETATM   41  C   UNL     1      -4.437  -3.151 -34.506  1.00  0.00     0.001 A 
HETATM   42  C   UNL     1      -4.651  -2.027 -33.705  1.00  0.00     0.013 A 
ENDBRANCH  34  37
ENDBRANCH   2  31
TORSDOF 8
ENDMDL
