MODEL 1
REMARK VINA RESULT:      -7.7      0.000      0.000
REMARK  2 active torsions:
REMARK  status: ('A' for Active; 'I' for Inactive)
REMARK    1  A    between atoms: C_6  and  N_7 
REMARK       I    between atoms: N_7  and  C_8 
REMARK       I    between atoms: C_8  and  N_9 
REMARK    2  A    between atoms: N_9  and  C_10 
ROOT
HETATM    1  N   UNL     1      -4.510   2.925 -31.927  1.00  0.00    -0.306 N 
HETATM    2  C   UNL     1      -4.895   1.624 -31.988  1.00  0.00     0.321 C 
HETATM    3  N   UNL     1      -4.856   0.985 -33.186  1.00  0.00    -0.338 N 
HETATM    4  O   UNL     1      -5.395   1.107 -30.991  1.00  0.00    -0.247 OA
HETATM    5  H   UNL     1      -4.846   3.339 -31.064  1.00  0.00     0.171 HD
HETATM    6  H   UNL     1      -4.133   1.291 -33.823  1.00  0.00     0.164 HD
ENDROOT
BRANCH   3   7
HETATM    7  C   UNL     1      -5.357  -0.368 -33.389  1.00  0.00     0.092 C 
HETATM    8  C   UNL     1      -4.200  -1.395 -33.551  1.00  0.00     0.084 C 
HETATM    9  C   UNL     1      -4.751  -2.685 -33.999  1.00  0.00     0.034 A 
HETATM   10  C   UNL     1      -6.016  -2.886 -34.506  1.00  0.00     0.033 A 
HETATM   11  N   UNL     1      -4.123  -3.912 -34.035  1.00  0.00    -0.354 N 
HETATM   12  N   UNL     1      -6.097  -4.227 -34.814  1.00  0.00    -0.354 N 
HETATM   13  C   UNL     1      -7.059  -1.852 -34.643  1.00  0.00     0.061 C 
HETATM   14  H   UNL     1      -6.912  -4.690 -35.212  1.00  0.00     0.166 HD
HETATM   15  C   UNL     1      -4.942  -4.842 -34.536  1.00  0.00     0.180 A 
HETATM   16  C   UNL     1      -6.413  -0.454 -34.530  1.00  0.00     0.031 C 
HETATM   17  H   UNL     1      -3.163  -4.087 -33.743  1.00  0.00     0.166 HD
ENDBRANCH   3   7
BRANCH   1  18
HETATM   18  C   UNL     1      -4.016   3.830 -32.894  1.00  0.00     0.077 A 
HETATM   19  C   UNL     1      -4.737   4.619 -33.795  1.00  0.00     0.152 A 
HETATM   20  N   UNL     1      -4.183   5.511 -34.651  1.00  0.00    -0.247 NA
HETATM   21 CL   UNL     1      -6.428   4.452 -34.087  1.00  0.00    -0.060 Cl
HETATM   22  C   UNL     1      -2.840   5.602 -34.657  1.00  0.00     0.118 A 
HETATM   23  C   UNL     1      -2.023   4.825 -33.857  1.00  0.00     0.022 A 
HETATM   24  C   UNL     1      -2.621   3.924 -32.977  1.00  0.00     0.034 A 
ENDBRANCH   1  18
TORSDOF 2
ENDMDL
MODEL 2
REMARK VINA RESULT:      -7.4      4.666      5.881
REMARK  2 active torsions:
REMARK  status: ('A' for Active; 'I' for Inactive)
REMARK    1  A    between atoms: C_6  and  N_7 
REMARK       I    between atoms: N_7  and  C_8 
REMARK       I    between atoms: C_8  and  N_9 
REMARK    2  A    between atoms: N_9  and  C_10 
ROOT
HETATM    1  N   UNL     1     -10.617   1.580 -32.612  1.00  0.00    -0.306 N 
HETATM    2  C   UNL     1      -9.518   0.805 -32.429  1.00  0.00     0.321 C 
HETATM    3  N   UNL     1      -8.854   0.343 -33.520  1.00  0.00    -0.338 N 
HETATM    4  O   UNL     1      -9.237   0.434 -31.292  1.00  0.00    -0.247 OA
HETATM    5  H   UNL     1     -11.154   1.617 -31.752  1.00  0.00     0.171 HD
HETATM    6  H   UNL     1      -8.876   0.942 -34.335  1.00  0.00     0.164 HD
ENDROOT
BRANCH   3   7
HETATM    7  C   UNL     1      -7.739  -0.592 -33.444  1.00  0.00     0.092 C 
HETATM    8  C   UNL     1      -6.632  -0.091 -32.472  1.00  0.00     0.084 C 
HETATM    9  C   UNL     1      -5.434  -0.935 -32.621  1.00  0.00     0.034 A 
HETATM   10  C   UNL     1      -5.190  -1.811 -33.656  1.00  0.00     0.033 A 
HETATM   11  N   UNL     1      -4.327  -0.994 -31.799  1.00  0.00    -0.354 N 
HETATM   12  N   UNL     1      -3.954  -2.366 -33.406  1.00  0.00    -0.354 N 
HETATM   13  C   UNL     1      -6.111  -2.093 -34.772  1.00  0.00     0.061 C 
HETATM   14  H   UNL     1      -3.489  -3.054 -33.996  1.00  0.00     0.166 HD
HETATM   15  C   UNL     1      -3.431  -1.858 -32.284  1.00  0.00     0.180 A 
HETATM   16  C   UNL     1      -7.186  -0.988 -34.845  1.00  0.00     0.031 C 
HETATM   17  H   UNL     1      -4.197  -0.443 -30.953  1.00  0.00     0.166 HD
ENDBRANCH   3   7
BRANCH   1  18
HETATM   18  C   UNL     1     -11.266   2.076 -33.766  1.00  0.00     0.077 A 
HETATM   19  C   UNL     1     -12.429   1.602 -34.381  1.00  0.00     0.152 A 
HETATM   20  N   UNL     1     -13.021   2.178 -35.455  1.00  0.00    -0.247 NA
HETATM   21 CL   UNL     1     -13.192   0.108 -33.983  1.00  0.00    -0.060 Cl
HETATM   22  C   UNL     1     -12.412   3.255 -35.987  1.00  0.00     0.118 A 
HETATM   23  C   UNL     1     -11.225   3.771 -35.503  1.00  0.00     0.022 A 
HETATM   24  C   UNL     1     -10.644   3.166 -34.389  1.00  0.00     0.034 A 
ENDBRANCH   1  18
TORSDOF 2
ENDMDL
MODEL 3
REMARK VINA RESULT:      -7.2      4.441      6.197
REMARK  2 active torsions:
REMARK  status: ('A' for Active; 'I' for Inactive)
REMARK    1  A    between atoms: C_6  and  N_7 
REMARK       I    between atoms: N_7  and  C_8 
REMARK       I    between atoms: C_8  and  N_9 
REMARK    2  A    between atoms: N_9  and  C_10 
ROOT
HETATM    1  N   UNL     1     -10.013   2.574 -34.169  1.00  0.00    -0.306 N 
HETATM    2  C   UNL     1      -8.745   2.089 -34.118  1.00  0.00     0.321 C 
HETATM    3  N   UNL     1      -8.556   0.745 -34.173  1.00  0.00    -0.338 N 
HETATM    4  O   UNL     1      -7.822   2.867 -33.886  1.00  0.00    -0.247 OA
HETATM    5  H   UNL     1     -10.022   3.536 -33.845  1.00  0.00     0.171 HD
HETATM    6  H   UNL     1      -9.235   0.228 -34.714  1.00  0.00     0.164 HD
ENDROOT
BRANCH   3   7
HETATM    7  C   UNL     1      -7.254   0.112 -34.006  1.00  0.00     0.092 C 
HETATM    8  C   UNL     1      -7.122  -1.174 -34.872  1.00  0.00     0.084 C 
HETATM    9  C   UNL     1      -5.903  -1.903 -34.481  1.00  0.00     0.034 A 
HETATM   10  C   UNL     1      -5.167  -1.683 -33.338  1.00  0.00     0.033 A 
HETATM   11  N   UNL     1      -5.287  -2.946 -35.141  1.00  0.00    -0.354 N 
HETATM   12  N   UNL     1      -4.135  -2.596 -33.365  1.00  0.00    -0.354 N 
HETATM   13  C   UNL     1      -5.444  -0.645 -32.327  1.00  0.00     0.061 C 
HETATM   14  H   UNL     1      -3.414  -2.689 -32.652  1.00  0.00     0.166 HD
HETATM   15  C   UNL     1      -4.219  -3.366 -34.456  1.00  0.00     0.180 A 
HETATM   16  C   UNL     1      -6.883  -0.119 -32.511  1.00  0.00     0.031 C 
HETATM   17  H   UNL     1      -5.608  -3.356 -36.016  1.00  0.00     0.166 HD
ENDBRANCH   3   7
BRANCH   1  18
HETATM   18  C   UNL     1     -11.276   1.955 -34.301  1.00  0.00     0.077 A 
HETATM   19  C   UNL     1     -12.342   2.322 -35.129  1.00  0.00     0.152 A 
HETATM   20  N   UNL     1     -13.503   1.633 -35.240  1.00  0.00    -0.247 NA
HETATM   21 CL   UNL     1     -12.420   3.807 -36.001  1.00  0.00    -0.060 Cl
HETATM   22  C   UNL     1     -13.646   0.544 -34.460  1.00  0.00     0.118 A 
HETATM   23  C   UNL     1     -12.687   0.125 -33.558  1.00  0.00     0.022 A 
HETATM   24  C   UNL     1     -11.497   0.846 -33.473  1.00  0.00     0.034 A 
ENDBRANCH   1  18
TORSDOF 2
ENDMDL
MODEL 4
REMARK VINA RESULT:      -7.2      3.622      7.348
REMARK  2 active torsions:
REMARK  status: ('A' for Active; 'I' for Inactive)
REMARK    1  A    between atoms: C_6  and  N_7 
REMARK       I    between atoms: N_7  and  C_8 
REMARK       I    between atoms: C_8  and  N_9 
REMARK    2  A    between atoms: N_9  and  C_10 
ROOT
HETATM    1  N   UNL     1      -4.127  -1.785 -33.581  1.00  0.00    -0.306 N 
HETATM    2  C   UNL     1      -4.539  -0.639 -32.979  1.00  0.00     0.321 C 
HETATM    3  N   UNL     1      -5.871  -0.386 -32.895  1.00  0.00    -0.338 N 
HETATM    4  O   UNL     1      -3.697   0.194 -32.652  1.00  0.00    -0.247 OA
HETATM    5  H   UNL     1      -3.143  -1.710 -33.815  1.00  0.00     0.171 HD
HETATM    6  H   UNL     1      -6.468  -1.198 -32.818  1.00  0.00     0.164 HD
ENDROOT
BRANCH   3   7
HETATM    7  C   UNL     1      -6.419   0.862 -32.381  1.00  0.00     0.092 C 
HETATM    8  C   UNL     1      -7.753   0.635 -31.614  1.00  0.00     0.084 C 
HETATM    9  C   UNL     1      -8.385   1.936 -31.337  1.00  0.00     0.034 A 
HETATM   10  C   UNL     1      -8.044   3.136 -31.922  1.00  0.00     0.033 A 
HETATM   11  N   UNL     1      -9.437   2.207 -30.487  1.00  0.00    -0.354 N 
HETATM   12  N   UNL     1      -8.899   4.078 -31.391  1.00  0.00    -0.354 N 
HETATM   13  C   UNL     1      -6.954   3.336 -32.895  1.00  0.00     0.061 C 
HETATM   14  H   UNL     1      -8.901   5.069 -31.627  1.00  0.00     0.166 HD
HETATM   15  C   UNL     1      -9.748   3.507 -30.529  1.00  0.00     0.180 A 
HETATM   16  C   UNL     1      -6.522   1.970 -33.470  1.00  0.00     0.031 C 
HETATM   17  H   UNL     1      -9.925   1.516 -29.921  1.00  0.00     0.166 HD
ENDBRANCH   3   7
BRANCH   1  18
HETATM   18  C   UNL     1      -4.820  -2.870 -34.164  1.00  0.00     0.077 A 
HETATM   19  C   UNL     1      -4.516  -4.233 -34.096  1.00  0.00     0.152 A 
HETATM   20  N   UNL     1      -5.274  -5.218 -34.636  1.00  0.00    -0.247 NA
HETATM   21 CL   UNL     1      -3.037  -4.863 -33.473  1.00  0.00    -0.060 Cl
HETATM   22  C   UNL     1      -6.370  -4.842 -35.322  1.00  0.00     0.118 A 
HETATM   23  C   UNL     1      -6.732  -3.522 -35.510  1.00  0.00     0.022 A 
HETATM   24  C   UNL     1      -5.941  -2.529 -34.933  1.00  0.00     0.034 A 
ENDBRANCH   1  18
TORSDOF 2
ENDMDL
MODEL 5
REMARK VINA RESULT:      -7.1      6.714      8.536
REMARK  2 active torsions:
REMARK  status: ('A' for Active; 'I' for Inactive)
REMARK    1  A    between atoms: C_6  and  N_7 
REMARK       I    between atoms: N_7  and  C_8 
REMARK       I    between atoms: C_8  and  N_9 
REMARK    2  A    between atoms: N_9  and  C_10 
ROOT
HETATM    1  N   UNL     1      -8.808   2.150 -34.568  1.00  0.00    -0.306 N 
HETATM    2  C   UNL     1     -10.124   2.479 -34.505  1.00  0.00     0.321 C 
HETATM    3  N   UNL     1     -10.999   1.581 -33.982  1.00  0.00    -0.338 N 
HETATM    4  O   UNL     1     -10.503   3.516 -35.044  1.00  0.00    -0.247 OA
HETATM    5  H   UNL     1      -8.333   2.773 -35.213  1.00  0.00     0.171 HD
HETATM    6  H   UNL     1     -10.630   0.978 -33.258  1.00  0.00     0.164 HD
ENDROOT
BRANCH   3   7
HETATM    7  C   UNL     1     -12.442   1.778 -33.975  1.00  0.00     0.092 C 
HETATM    8  C   UNL     1     -12.897   2.679 -32.791  1.00  0.00     0.084 C 
HETATM    9  C   UNL     1     -14.366   2.640 -32.685  1.00  0.00     0.034 A 
HETATM   10  C   UNL     1     -15.193   1.726 -33.299  1.00  0.00     0.033 A 
HETATM   11  N   UNL     1     -15.186   3.464 -31.943  1.00  0.00    -0.354 N 
HETATM   12  N   UNL     1     -16.475   2.046 -32.909  1.00  0.00    -0.354 N 
HETATM   13  C   UNL     1     -14.755   0.654 -34.213  1.00  0.00     0.061 C 
HETATM   14  H   UNL     1     -17.318   1.550 -33.196  1.00  0.00     0.166 HD
HETATM   15  C   UNL     1     -16.464   3.094 -32.078  1.00  0.00     0.180 A 
HETATM   16  C   UNL     1     -13.234   0.440 -34.062  1.00  0.00     0.031 C 
HETATM   17  H   UNL     1     -14.868   4.233 -31.356  1.00  0.00     0.166 HD
ENDBRANCH   3   7
BRANCH   1  18
HETATM   18  C   UNL     1      -8.079   1.010 -34.161  1.00  0.00     0.077 A 
HETATM   19  C   UNL     1      -7.743   0.611 -32.864  1.00  0.00     0.152 A 
HETATM   20  N   UNL     1      -7.090  -0.536 -32.557  1.00  0.00    -0.247 NA
HETATM   21 CL   UNL     1      -7.942   1.600 -31.466  1.00  0.00    -0.060 Cl
HETATM   22  C   UNL     1      -6.704  -1.316 -33.585  1.00  0.00     0.118 A 
HETATM   23  C   UNL     1      -6.925  -0.990 -34.909  1.00  0.00     0.022 A 
HETATM   24  C   UNL     1      -7.609   0.191 -35.196  1.00  0.00     0.034 A 
ENDBRANCH   1  18
TORSDOF 2
ENDMDL
MODEL 6
REMARK VINA RESULT:      -6.8      2.095      7.401
REMARK  2 active torsions:
REMARK  status: ('A' for Active; 'I' for Inactive)
REMARK    1  A    between atoms: C_6  and  N_7 
REMARK       I    between atoms: N_7  and  C_8 
REMARK       I    between atoms: C_8  and  N_9 
REMARK    2  A    between atoms: N_9  and  C_10 
ROOT
HETATM    1  N   UNL     1      -6.141   0.504 -31.854  1.00  0.00    -0.306 N 
HETATM    2  C   UNL     1      -5.664   1.766 -31.698  1.00  0.00     0.321 C 
HETATM    3  N   UNL     1      -4.713   2.217 -32.556  1.00  0.00    -0.338 N 
HETATM    4  O   UNL     1      -6.006   2.410 -30.708  1.00  0.00    -0.247 OA
HETATM    5  H   UNL     1      -6.619   0.214 -31.007  1.00  0.00     0.171 HD
HETATM    6  H   UNL     1      -4.755   1.844 -33.494  1.00  0.00     0.164 HD
ENDROOT
BRANCH   3   7
HETATM    7  C   UNL     1      -4.046   3.504 -32.408  1.00  0.00     0.092 C 
HETATM    8  C   UNL     1      -3.834   4.206 -33.781  1.00  0.00     0.084 C 
HETATM    9  C   UNL     1      -2.945   5.367 -33.604  1.00  0.00     0.034 A 
HETATM   10  C   UNL     1      -2.165   5.621 -32.497  1.00  0.00     0.033 A 
HETATM   11  N   UNL     1      -2.693   6.388 -34.495  1.00  0.00    -0.354 N 
HETATM   12  N   UNL     1      -1.486   6.789 -32.767  1.00  0.00    -0.354 N 
HETATM   13  C   UNL     1      -2.121   4.799 -31.274  1.00  0.00     0.061 C 
HETATM   14  H   UNL     1      -0.823   7.241 -32.140  1.00  0.00     0.166 HD
HETATM   15  C   UNL     1      -1.802   7.244 -33.985  1.00  0.00     0.180 A 
HETATM   16  C   UNL     1      -2.742   3.415 -31.561  1.00  0.00     0.031 C 
HETATM   17  H   UNL     1      -3.107   6.473 -35.422  1.00  0.00     0.166 HD
ENDBRANCH   3   7
BRANCH   1  18
HETATM   18  C   UNL     1      -5.872  -0.518 -32.792  1.00  0.00     0.077 A 
HETATM   19  C   UNL     1      -4.724  -1.306 -32.914  1.00  0.00     0.152 A 
HETATM   20  N   UNL     1      -4.573  -2.312 -33.808  1.00  0.00    -0.247 NA
HETATM   21 CL   UNL     1      -3.251  -1.004 -32.070  1.00  0.00    -0.060 Cl
HETATM   22  C   UNL     1      -5.589  -2.530 -34.664  1.00  0.00     0.118 A 
HETATM   23  C   UNL     1      -6.744  -1.772 -34.679  1.00  0.00     0.022 A 
HETATM   24  C   UNL     1      -6.878  -0.750 -33.740  1.00  0.00     0.034 A 
ENDBRANCH   1  18
TORSDOF 2
ENDMDL
MODEL 7
REMARK VINA RESULT:      -6.8      4.064      4.913
REMARK  2 active torsions:
REMARK  status: ('A' for Active; 'I' for Inactive)
REMARK    1  A    between atoms: C_6  and  N_7 
REMARK       I    between atoms: N_7  and  C_8 
REMARK       I    between atoms: C_8  and  N_9 
REMARK    2  A    between atoms: N_9  and  C_10 
ROOT
HETATM    1  N   UNL     1      -1.949   4.191 -31.865  1.00  0.00    -0.306 N 
HETATM    2  C   UNL     1      -3.012   3.388 -31.602  1.00  0.00     0.321 C 
HETATM    3  N   UNL     1      -4.259   3.928 -31.618  1.00  0.00    -0.338 N 
HETATM    4  O   UNL     1      -2.807   2.236 -31.225  1.00  0.00    -0.247 OA
HETATM    5  H   UNL     1      -1.096   3.737 -31.552  1.00  0.00     0.171 HD
HETATM    6  H   UNL     1      -4.397   4.696 -32.261  1.00  0.00     0.164 HD
ENDROOT
BRANCH   3   7
HETATM    7  C   UNL     1      -5.456   3.192 -31.234  1.00  0.00     0.092 C 
HETATM    8  C   UNL     1      -6.057   2.402 -32.432  1.00  0.00     0.084 C 
HETATM    9  C   UNL     1      -7.386   1.886 -32.059  1.00  0.00     0.034 A 
HETATM   10  C   UNL     1      -8.128   2.289 -30.971  1.00  0.00     0.033 A 
HETATM   11  N   UNL     1      -8.151   0.949 -32.722  1.00  0.00    -0.354 N 
HETATM   12  N   UNL     1      -9.302   1.569 -31.021  1.00  0.00    -0.354 N 
HETATM   13  C   UNL     1      -7.701   3.273 -29.960  1.00  0.00     0.061 C 
HETATM   14  H   UNL     1     -10.065   1.643 -30.350  1.00  0.00     0.166 HD
HETATM   15  C   UNL     1      -9.315   0.766 -32.090  1.00  0.00     0.180 A 
HETATM   16  C   UNL     1      -6.504   4.082 -30.504  1.00  0.00     0.031 C 
HETATM   17  H   UNL     1      -7.882   0.476 -33.582  1.00  0.00     0.166 HD
ENDBRANCH   3   7
BRANCH   1  18
HETATM   18  C   UNL     1      -1.833   5.558 -32.201  1.00  0.00     0.077 A 
HETATM   19  C   UNL     1      -1.744   6.137 -33.471  1.00  0.00     0.152 A 
HETATM   20  N   UNL     1      -1.698   7.470 -33.707  1.00  0.00    -0.247 NA
HETATM   21 CL   UNL     1      -1.495   5.244 -34.924  1.00  0.00    -0.060 Cl
HETATM   22  C   UNL     1      -1.693   8.284 -32.634  1.00  0.00     0.118 A 
HETATM   23  C   UNL     1      -1.712   7.821 -31.332  1.00  0.00     0.022 A 
HETATM   24  C   UNL     1      -1.771   6.445 -31.118  1.00  0.00     0.034 A 
ENDBRANCH   1  18
TORSDOF 2
ENDMDL
MODEL 8
REMARK VINA RESULT:      -6.6      2.328      2.665
REMARK  2 active torsions:
REMARK  status: ('A' for Active; 'I' for Inactive)
REMARK    1  A    between atoms: C_6  and  N_7 
REMARK       I    between atoms: N_7  and  C_8 
REMARK       I    between atoms: C_8  and  N_9 
REMARK    2  A    between atoms: N_9  and  C_10 
ROOT
HETATM    1  N   UNL     1      -3.597   4.321 -31.008  1.00  0.00    -0.306 N 
HETATM    2  C   UNL     1      -4.205   3.114 -31.136  1.00  0.00     0.321 C 
HETATM    3  N   UNL     1      -4.073   2.434 -32.304  1.00  0.00    -0.338 N 
HETATM    4  O   UNL     1      -4.966   2.736 -30.246  1.00  0.00    -0.247 OA
HETATM    5  H   UNL     1      -3.998   4.822 -30.222  1.00  0.00     0.171 HD
HETATM    6  H   UNL     1      -3.203   2.576 -32.799  1.00  0.00     0.164 HD
ENDROOT
BRANCH   3   7
HETATM    7  C   UNL     1      -4.778   1.192 -32.594  1.00  0.00     0.092 C 
HETATM    8  C   UNL     1      -3.805   0.070 -33.055  1.00  0.00     0.084 C 
HETATM    9  C   UNL     1      -4.583  -1.070 -33.569  1.00  0.00     0.034 A 
HETATM   10  C   UNL     1      -5.921  -1.048 -33.898  1.00  0.00     0.033 A 
HETATM   11  N   UNL     1      -4.139  -2.345 -33.851  1.00  0.00    -0.354 N 
HETATM   12  N   UNL     1      -6.225  -2.313 -34.353  1.00  0.00    -0.354 N 
HETATM   13  C   UNL     1      -6.820   0.111 -33.746  1.00  0.00     0.061 C 
HETATM   14  H   UNL     1      -7.142  -2.616 -34.676  1.00  0.00     0.166 HD
HETATM   15  C   UNL     1      -5.138  -3.092 -34.332  1.00  0.00     0.180 A 
HETATM   16  C   UNL     1      -5.981   1.393 -33.562  1.00  0.00     0.031 C 
HETATM   17  H   UNL     1      -3.182  -2.672 -33.732  1.00  0.00     0.166 HD
ENDBRANCH   3   7
BRANCH   1  18
HETATM   18  C   UNL     1      -2.774   5.081 -31.870  1.00  0.00     0.077 A 
HETATM   19  C   UNL     1      -1.400   5.320 -31.772  1.00  0.00     0.152 A 
HETATM   20  N   UNL     1      -0.673   6.013 -32.681  1.00  0.00    -0.247 NA
HETATM   21 CL   UNL     1      -0.447   4.927 -30.391  1.00  0.00    -0.060 Cl
HETATM   22  C   UNL     1      -1.340   6.543 -33.725  1.00  0.00     0.118 A 
HETATM   23  C   UNL     1      -2.708   6.427 -33.889  1.00  0.00     0.022 A 
HETATM   24  C   UNL     1      -3.429   5.697 -32.944  1.00  0.00     0.034 A 
ENDBRANCH   1  18
TORSDOF 2
ENDMDL
MODEL 9
REMARK VINA RESULT:      -6.6      5.735      7.326
REMARK  2 active torsions:
REMARK  status: ('A' for Active; 'I' for Inactive)
REMARK    1  A    between atoms: C_6  and  N_7 
REMARK       I    between atoms: N_7  and  C_8 
REMARK       I    between atoms: C_8  and  N_9 
REMARK    2  A    between atoms: N_9  and  C_10 
ROOT
HETATM    1  N   UNL     1     -11.585   3.312 -33.897  1.00  0.00    -0.306 N 
HETATM    2  C   UNL     1     -10.292   2.904 -33.829  1.00  0.00     0.321 C 
HETATM    3  N   UNL     1     -10.025   1.648 -33.387  1.00  0.00    -0.338 N 
HETATM    4  O   UNL     1      -9.400   3.724 -34.037  1.00  0.00    -0.247 OA
HETATM    5  H   UNL     1     -11.619   4.324 -33.971  1.00  0.00     0.171 HD
HETATM    6  H   UNL     1     -10.727   0.951 -33.593  1.00  0.00     0.164 HD
ENDROOT
BRANCH   3   7
HETATM    7  C   UNL     1      -8.675   1.148 -33.159  1.00  0.00     0.092 C 
HETATM    8  C   UNL     1      -8.225   0.169 -34.281  1.00  0.00     0.084 C 
HETATM    9  C   UNL     1      -6.972  -0.492 -33.879  1.00  0.00     0.034 A 
HETATM   10  C   UNL     1      -6.443  -0.506 -32.607  1.00  0.00     0.033 A 
HETATM   11  N   UNL     1      -6.115  -1.239 -34.660  1.00  0.00    -0.354 N 
HETATM   12  N   UNL     1      -5.286  -1.251 -32.681  1.00  0.00    -0.354 N 
HETATM   13  C   UNL     1      -7.014   0.182 -31.434  1.00  0.00     0.061 C 
HETATM   14  H   UNL     1      -4.663  -1.449 -31.899  1.00  0.00     0.166 HD
HETATM   15  C   UNL     1      -5.098  -1.702 -33.926  1.00  0.00     0.180 A 
HETATM   16  C   UNL     1      -8.480   0.567 -31.728  1.00  0.00     0.031 C 
HETATM   17  H   UNL     1      -6.245  -1.432 -35.651  1.00  0.00     0.166 HD
ENDBRANCH   3   7
BRANCH   1  18
HETATM   18  C   UNL     1     -12.814   2.673 -33.615  1.00  0.00     0.077 A 
HETATM   19  C   UNL     1     -13.684   2.894 -32.544  1.00  0.00     0.152 A 
HETATM   20  N   UNL     1     -14.878   2.277 -32.382  1.00  0.00    -0.247 NA
HETATM   21 CL   UNL     1     -13.293   3.852 -31.164  1.00  0.00    -0.060 Cl
HETATM   22  C   UNL     1     -15.221   1.354 -33.301  1.00  0.00     0.118 A 
HETATM   23  C   UNL     1     -14.412   1.006 -34.366  1.00  0.00     0.022 A 
HETATM   24  C   UNL     1     -13.192   1.666 -34.514  1.00  0.00     0.034 A 
ENDBRANCH   1  18
TORSDOF 2
ENDMDL
MODEL 10
REMARK VINA RESULT:      -6.5      4.728      5.887
REMARK  2 active torsions:
REMARK  status: ('A' for Active; 'I' for Inactive)
REMARK    1  A    between atoms: C_6  and  N_7 
REMARK       I    between atoms: N_7  and  C_8 
REMARK       I    between atoms: C_8  and  N_9 
REMARK    2  A    between atoms: N_9  and  C_10 
ROOT
HETATM    1  N   UNL     1     -11.241   1.185 -33.206  1.00  0.00    -0.306 N 
HETATM    2  C   UNL     1     -10.038   0.582 -33.022  1.00  0.00     0.321 C 
HETATM    3  N   UNL     1      -8.931   1.153 -33.564  1.00  0.00    -0.338 N 
HETATM    4  O   UNL     1     -10.005  -0.526 -32.491  1.00  0.00    -0.247 OA
HETATM    5  H   UNL     1     -11.986   0.527 -32.997  1.00  0.00     0.171 HD
HETATM    6  H   UNL     1      -8.946   2.162 -33.633  1.00  0.00     0.164 HD
ENDROOT
BRANCH   3   7
HETATM    7  C   UNL     1      -7.613   0.533 -33.533  1.00  0.00     0.092 C 
HETATM    8  C   UNL     1      -7.527  -0.690 -34.490  1.00  0.00     0.084 C 
HETATM    9  C   UNL     1      -6.273  -1.421 -34.236  1.00  0.00     0.034 A 
HETATM   10  C   UNL     1      -5.460  -1.264 -33.136  1.00  0.00     0.033 A 
HETATM   11  N   UNL     1      -5.693  -2.407 -35.006  1.00  0.00    -0.354 N 
HETATM   12  N   UNL     1      -4.421  -2.155 -33.297  1.00  0.00    -0.354 N 
HETATM   13  C   UNL     1      -5.676  -0.300 -32.041  1.00  0.00     0.061 C 
HETATM   14  H   UNL     1      -3.649  -2.282 -32.645  1.00  0.00     0.166 HD
HETATM   15  C   UNL     1      -4.573  -2.853 -34.428  1.00  0.00     0.180 A 
HETATM   16  C   UNL     1      -7.132   0.211 -32.087  1.00  0.00     0.031 C 
HETATM   17  H   UNL     1      -6.071  -2.765 -35.882  1.00  0.00     0.166 HD
ENDBRANCH   3   7
BRANCH   1  18
HETATM   18  C   UNL     1     -11.634   2.374 -33.861  1.00  0.00     0.077 A 
HETATM   19  C   UNL     1     -11.586   3.686 -33.383  1.00  0.00     0.152 A 
HETATM   20  N   UNL     1     -11.927   4.781 -34.105  1.00  0.00    -0.247 NA
HETATM   21 CL   UNL     1     -11.262   4.106 -31.743  1.00  0.00    -0.060 Cl
HETATM   22  C   UNL     1     -12.384   4.574 -35.355  1.00  0.00     0.118 A 
HETATM   23  C   UNL     1     -12.535   3.317 -35.909  1.00  0.00     0.022 A 
HETATM   24  C   UNL     1     -12.166   2.208 -35.147  1.00  0.00     0.034 A 
ENDBRANCH   1  18
TORSDOF 2
ENDMDL
