MODEL 1
REMARK VINA RESULT:      -9.0      0.000      0.000
REMARK  8 active torsions:
REMARK  status: ('A' for Active; 'I' for Inactive)
REMARK    1  A    between atoms: O_2  and  C_3 
REMARK    2  A    between atoms: C_5  and  C_6 
REMARK    3  A    between atoms: C_10  and  C_11 
REMARK       I    between atoms: C_11  and  N_12 
REMARK    4  A    between atoms: N_12  and  C_13 
REMARK    5  A    between atoms: C_13  and  C_14 
REMARK    6  A    between atoms: C_15  and  C_16 
REMARK    7  A    between atoms: C_16  and  O_17 
REMARK    8  A    between atoms: O_17  and  C_18 
ROOT
HETATM    1  C   UNL     1      -6.618   2.731 -33.619  1.00  0.00     0.270 C 
HETATM    2  N   UNL     1      -5.656   3.494 -34.228  1.00  0.00    -0.345 N 
HETATM    3  O   UNL     1      -7.400   3.191 -32.794  1.00  0.00    -0.266 OA
HETATM    4  H   UNL     1      -5.007   3.069 -34.873  1.00  0.00     0.163 HD
ENDROOT
BRANCH   1   5
HETATM    5  C   UNL     1      -6.651   1.352 -34.026  1.00  0.00     0.120 A 
HETATM    6  N   UNL     1      -7.528   0.901 -34.972  1.00  0.00    -0.272 N 
HETATM    7  N   UNL     1      -7.402  -0.403 -35.263  1.00  0.00    -0.174 NA
HETATM    8  H   UNL     1      -8.228   1.449 -35.463  1.00  0.00     0.189 HD
HETATM    9  C   UNL     1      -6.419  -0.836 -34.460  1.00  0.00     0.089 A 
HETATM   10  C   UNL     1      -5.924   0.235 -33.665  1.00  0.00     0.071 A 
BRANCH   9  11
HETATM   11  C   UNL     1      -5.961  -2.227 -34.474  1.00  0.00    -0.003 A 
HETATM   12  C   UNL     1      -4.783  -2.594 -33.805  1.00  0.00     0.050 A 
HETATM   13  C   UNL     1      -4.351  -3.924 -33.776  1.00  0.00     0.069 A 
HETATM   14  C   UNL     1      -5.095  -4.900 -34.441  1.00  0.00     0.037 A 
HETATM   15  C   UNL     1      -6.261  -4.547 -35.123  1.00  0.00     0.004 A 
HETATM   16  C   UNL     1      -6.694  -3.219 -35.138  1.00  0.00     0.014 A 
BRANCH  13  17
HETATM   17  O   UNL     1      -3.200  -4.137 -33.069  1.00  0.00    -0.356 OA
HETATM   18  C   UNL     1      -2.970  -3.298 -31.944  1.00  0.00     0.210 C 
ENDBRANCH  13  17
ENDBRANCH   9  11
ENDBRANCH   1   5
BRANCH   2  19
HETATM   19  C   UNL     1      -5.499   4.892 -33.922  1.00  0.00     0.217 C 
BRANCH  19  20
HETATM   20  C   UNL     1      -4.116   5.293 -34.192  1.00  0.00    -0.085 C 
HETATM   21  C   UNL     1      -2.972   5.602 -34.391  1.00  0.00    -0.078 C 
BRANCH  21  22
HETATM   22  C   UNL     1      -1.565   5.962 -34.616  1.00  0.00     0.269 C 
BRANCH  22  23
HETATM   23  O   UNL     1      -1.304   7.226 -34.014  1.00  0.00    -0.339 OA
BRANCH  23  24
HETATM   24  C   UNL     1      -1.174   7.249 -32.650  1.00  0.00     0.072 A 
HETATM   25  C   UNL     1      -0.386   6.380 -31.888  1.00  0.00     0.076 A 
HETATM   26  C   UNL     1      -0.382   6.552 -30.518  1.00  0.00     0.107 A 
HETATM   27  C   UNL     1      -1.118   7.536 -29.902  1.00  0.00     0.105 A 
HETATM   28  O   UNL     1       0.321   5.799 -29.630  1.00  0.00    -0.323 OA
HETATM   29  O   UNL     1      -0.970   7.528 -28.551  1.00  0.00    -0.323 OA
HETATM   30  C   UNL     1      -1.903   8.408 -30.622  1.00  0.00     0.042 A 
HETATM   31  C   UNL     1      -0.057   6.424 -28.385  1.00  0.00     0.352 A 
HETATM   32  C   UNL     1      -1.927   8.256 -32.012  1.00  0.00     0.040 A 
ENDBRANCH  23  24
ENDBRANCH  22  23
ENDBRANCH  21  22
ENDBRANCH  19  20
ENDBRANCH   2  19
TORSDOF 8
ENDMDL
MODEL 2
REMARK VINA RESULT:      -8.5      3.433     11.768
REMARK  8 active torsions:
REMARK  status: ('A' for Active; 'I' for Inactive)
REMARK    1  A    between atoms: O_2  and  C_3 
REMARK    2  A    between atoms: C_5  and  C_6 
REMARK    3  A    between atoms: C_10  and  C_11 
REMARK       I    between atoms: C_11  and  N_12 
REMARK    4  A    between atoms: N_12  and  C_13 
REMARK    5  A    between atoms: C_13  and  C_14 
REMARK    6  A    between atoms: C_15  and  C_16 
REMARK    7  A    between atoms: C_16  and  O_17 
REMARK    8  A    between atoms: O_17  and  C_18 
ROOT
HETATM    1  C   UNL     1      -0.797   5.375 -31.062  1.00  0.00     0.270 C 
HETATM    2  N   UNL     1      -2.017   5.323 -31.683  1.00  0.00    -0.345 N 
HETATM    3  O   UNL     1       0.192   4.797 -31.500  1.00  0.00    -0.266 OA
HETATM    4  H   UNL     1      -2.815   5.781 -31.270  1.00  0.00     0.163 HD
ENDROOT
BRANCH   1   5
HETATM    5  C   UNL     1      -0.757   6.165 -29.861  1.00  0.00     0.120 A 
HETATM    6  N   UNL     1      -1.897   6.538 -29.207  1.00  0.00    -0.272 N 
HETATM    7  N   UNL     1      -1.683   7.240 -28.084  1.00  0.00    -0.174 NA
HETATM    8  H   UNL     1      -2.852   6.325 -29.479  1.00  0.00     0.189 HD
HETATM    9  C   UNL     1      -0.349   7.357 -28.006  1.00  0.00     0.089 A 
HETATM   10  C   UNL     1       0.268   6.699 -29.105  1.00  0.00     0.071 A 
BRANCH   9  11
HETATM   11  C   UNL     1       0.306   8.061 -26.901  1.00  0.00    -0.003 A 
HETATM   12  C   UNL     1      -0.424   8.940 -26.087  1.00  0.00     0.050 A 
HETATM   13  C   UNL     1       0.177   9.591 -25.004  1.00  0.00     0.069 A 
HETATM   14  C   UNL     1       1.530   9.377 -24.742  1.00  0.00     0.037 A 
HETATM   15  C   UNL     1       2.272   8.515 -25.552  1.00  0.00     0.004 A 
HETATM   16  C   UNL     1       1.664   7.858 -26.624  1.00  0.00     0.014 A 
BRANCH  13  17
HETATM   17  O   UNL     1      -0.661  10.401 -24.287  1.00  0.00    -0.356 OA
HETATM   18  C   UNL     1      -0.967   9.997 -22.959  1.00  0.00     0.210 C 
ENDBRANCH  13  17
ENDBRANCH   9  11
ENDBRANCH   1   5
BRANCH   2  19
HETATM   19  C   UNL     1      -2.213   4.569 -32.894  1.00  0.00     0.217 C 
BRANCH  19  20
HETATM   20  C   UNL     1      -3.110   3.443 -32.622  1.00  0.00    -0.085 C 
HETATM   21  C   UNL     1      -3.836   2.519 -32.369  1.00  0.00    -0.078 C 
BRANCH  21  22
HETATM   22  C   UNL     1      -4.716   1.392 -32.033  1.00  0.00     0.269 C 
BRANCH  22  23
HETATM   23  O   UNL     1      -5.391   0.960 -33.211  1.00  0.00    -0.339 OA
BRANCH  23  24
HETATM   24  C   UNL     1      -5.279  -0.366 -33.540  1.00  0.00     0.072 A 
HETATM   25  C   UNL     1      -4.306  -1.248 -33.062  1.00  0.00     0.076 A 
HETATM   26  C   UNL     1      -4.347  -2.554 -33.510  1.00  0.00     0.107 A 
HETATM   27  C   UNL     1      -5.305  -2.994 -34.393  1.00  0.00     0.105 A 
HETATM   28  O   UNL     1      -3.481  -3.540 -33.153  1.00  0.00    -0.323 OA
HETATM   29  O   UNL     1      -5.162  -4.310 -34.701  1.00  0.00    -0.323 OA
HETATM   30  C   UNL     1      -6.278  -2.151 -34.882  1.00  0.00     0.042 A 
HETATM   31  C   UNL     1      -4.004  -4.650 -33.912  1.00  0.00     0.352 A 
HETATM   32  C   UNL     1      -6.258  -0.823 -34.446  1.00  0.00     0.040 A 
ENDBRANCH  23  24
ENDBRANCH  22  23
ENDBRANCH  21  22
ENDBRANCH  19  20
ENDBRANCH   2  19
TORSDOF 8
ENDMDL
MODEL 3
REMARK VINA RESULT:      -8.4      4.191     12.106
REMARK  8 active torsions:
REMARK  status: ('A' for Active; 'I' for Inactive)
REMARK    1  A    between atoms: O_2  and  C_3 
REMARK    2  A    between atoms: C_5  and  C_6 
REMARK    3  A    between atoms: C_10  and  C_11 
REMARK       I    between atoms: C_11  and  N_12 
REMARK    4  A    between atoms: N_12  and  C_13 
REMARK    5  A    between atoms: C_13  and  C_14 
REMARK    6  A    between atoms: C_15  and  C_16 
REMARK    7  A    between atoms: C_16  and  O_17 
REMARK    8  A    between atoms: O_17  and  C_18 
ROOT
HETATM    1  C   UNL     1       0.109   5.433 -30.430  1.00  0.00     0.270 C 
HETATM    2  N   UNL     1      -0.936   5.867 -31.203  1.00  0.00    -0.345 N 
HETATM    3  O   UNL     1       0.854   4.522 -30.778  1.00  0.00    -0.266 OA
HETATM    4  H   UNL     1      -1.549   6.592 -30.864  1.00  0.00     0.163 HD
ENDROOT
BRANCH   1   5
HETATM    5  C   UNL     1       0.275   6.129 -29.183  1.00  0.00     0.120 A 
HETATM    6  N   UNL     1      -0.111   5.577 -27.993  1.00  0.00    -0.272 N 
HETATM    7  N   UNL     1       0.148   6.342 -26.922  1.00  0.00    -0.174 NA
HETATM    8  H   UNL     1      -0.545   4.669 -27.856  1.00  0.00     0.189 HD
HETATM    9  C   UNL     1       0.704   7.454 -27.425  1.00  0.00     0.089 A 
HETATM   10  C   UNL     1       0.798   7.360 -28.841  1.00  0.00     0.071 A 
BRANCH   9  11
HETATM   11  C   UNL     1       1.148   8.556 -26.569  1.00  0.00    -0.003 A 
HETATM   12  C   UNL     1       2.062   8.326 -25.530  1.00  0.00     0.050 A 
HETATM   13  C   UNL     1       2.525   9.374 -24.727  1.00  0.00     0.069 A 
HETATM   14  C   UNL     1       2.053  10.667 -24.951  1.00  0.00     0.037 A 
HETATM   15  C   UNL     1       1.132  10.909 -25.972  1.00  0.00     0.004 A 
HETATM   16  C   UNL     1       0.683   9.862 -26.779  1.00  0.00     0.014 A 
BRANCH  13  17
HETATM   17  O   UNL     1       3.429   9.004 -23.769  1.00  0.00    -0.356 OA
HETATM   18  C   UNL     1       4.739   9.548 -23.876  1.00  0.00     0.210 C 
ENDBRANCH  13  17
ENDBRANCH   9  11
ENDBRANCH   1   5
BRANCH   2  19
HETATM   19  C   UNL     1      -1.229   5.265 -32.478  1.00  0.00     0.217 C 
BRANCH  19  20
HETATM   20  C   UNL     1      -2.235   4.215 -32.296  1.00  0.00    -0.085 C 
HETATM   21  C   UNL     1      -3.077   3.374 -32.131  1.00  0.00    -0.078 C 
BRANCH  21  22
HETATM   22  C   UNL     1      -4.123   2.365 -31.916  1.00  0.00     0.269 C 
BRANCH  22  23
HETATM   23  O   UNL     1      -3.553   1.066 -32.050  1.00  0.00    -0.339 OA
BRANCH  23  24
HETATM   24  C   UNL     1      -4.314   0.116 -32.678  1.00  0.00     0.072 A 
HETATM   25  C   UNL     1      -3.827  -0.993 -33.377  1.00  0.00     0.076 A 
HETATM   26  C   UNL     1      -4.749  -1.846 -33.952  1.00  0.00     0.107 A 
HETATM   27  C   UNL     1      -6.104  -1.632 -33.853  1.00  0.00     0.105 A 
HETATM   28  O   UNL     1      -4.453  -2.965 -34.666  1.00  0.00    -0.323 OA
HETATM   29  O   UNL     1      -6.829  -2.589 -34.489  1.00  0.00    -0.323 OA
HETATM   30  C   UNL     1      -6.616  -0.551 -33.171  1.00  0.00     0.042 A 
HETATM   31  C   UNL     1      -5.776  -3.431 -35.003  1.00  0.00     0.352 A 
HETATM   32  C   UNL     1      -5.704   0.330 -32.580  1.00  0.00     0.040 A 
ENDBRANCH  23  24
ENDBRANCH  22  23
ENDBRANCH  21  22
ENDBRANCH  19  20
ENDBRANCH   2  19
TORSDOF 8
ENDMDL
MODEL 4
REMARK VINA RESULT:      -8.4      1.904      2.767
REMARK  8 active torsions:
REMARK  status: ('A' for Active; 'I' for Inactive)
REMARK    1  A    between atoms: O_2  and  C_3 
REMARK    2  A    between atoms: C_5  and  C_6 
REMARK    3  A    between atoms: C_10  and  C_11 
REMARK       I    between atoms: C_11  and  N_12 
REMARK    4  A    between atoms: N_12  and  C_13 
REMARK    5  A    between atoms: C_13  and  C_14 
REMARK    6  A    between atoms: C_15  and  C_16 
REMARK    7  A    between atoms: C_16  and  O_17 
REMARK    8  A    between atoms: O_17  and  C_18 
ROOT
HETATM    1  C   UNL     1      -5.233   3.189 -32.005  1.00  0.00     0.270 C 
HETATM    2  N   UNL     1      -4.840   3.840 -33.145  1.00  0.00    -0.345 N 
HETATM    3  O   UNL     1      -5.858   3.747 -31.109  1.00  0.00    -0.266 OA
HETATM    4  H   UNL     1      -4.294   3.356 -33.841  1.00  0.00     0.163 HD
ENDROOT
BRANCH   1   5
HETATM    5  C   UNL     1      -4.866   1.801 -31.938  1.00  0.00     0.120 A 
HETATM    6  N   UNL     1      -4.468   1.216 -30.769  1.00  0.00    -0.272 N 
HETATM    7  N   UNL     1      -4.197  -0.094 -30.872  1.00  0.00    -0.174 NA
HETATM    8  H   UNL     1      -4.378   1.667 -29.863  1.00  0.00     0.189 HD
HETATM    9  C   UNL     1      -4.400  -0.382 -32.166  1.00  0.00     0.089 A 
HETATM   10  C   UNL     1      -4.817   0.782 -32.870  1.00  0.00     0.071 A 
BRANCH   9  11
HETATM   11  C   UNL     1      -4.218  -1.733 -32.699  1.00  0.00    -0.003 A 
HETATM   12  C   UNL     1      -4.918  -2.146 -33.843  1.00  0.00     0.050 A 
HETATM   13  C   UNL     1      -4.728  -3.420 -34.388  1.00  0.00     0.069 A 
HETATM   14  C   UNL     1      -3.842  -4.303 -33.771  1.00  0.00     0.037 A 
HETATM   15  C   UNL     1      -3.149  -3.911 -32.623  1.00  0.00     0.004 A 
HETATM   16  C   UNL     1      -3.334  -2.634 -32.091  1.00  0.00     0.014 A 
BRANCH  13  17
HETATM   17  O   UNL     1      -5.459  -3.676 -35.515  1.00  0.00    -0.356 OA
HETATM   18  C   UNL     1      -6.542  -4.590 -35.387  1.00  0.00     0.210 C 
ENDBRANCH  13  17
ENDBRANCH   9  11
ENDBRANCH   1   5
BRANCH   2  19
HETATM   19  C   UNL     1      -5.133   5.234 -33.354  1.00  0.00     0.217 C 
BRANCH  19  20
HETATM   20  C   UNL     1      -3.877   5.976 -33.496  1.00  0.00    -0.085 C 
HETATM   21  C   UNL     1      -2.864   6.611 -33.612  1.00  0.00    -0.078 C 
BRANCH  21  22
HETATM   22  C   UNL     1      -1.639   7.411 -33.752  1.00  0.00     0.269 C 
BRANCH  22  23
HETATM   23  O   UNL     1      -1.483   8.231 -32.597  1.00  0.00    -0.339 OA
BRANCH  23  24
HETATM   24  C   UNL     1      -1.018   7.622 -31.461  1.00  0.00     0.072 A 
HETATM   25  C   UNL     1      -1.445   7.887 -30.156  1.00  0.00     0.076 A 
HETATM   26  C   UNL     1      -0.855   7.175 -29.131  1.00  0.00     0.107 A 
HETATM   27  C   UNL     1       0.118   6.232 -29.360  1.00  0.00     0.105 A 
HETATM   28  O   UNL     1      -1.146   7.307 -27.809  1.00  0.00    -0.323 OA
HETATM   29  O   UNL     1       0.560   5.651 -28.214  1.00  0.00    -0.323 OA
HETATM   30  C   UNL     1       0.560   5.946 -30.633  1.00  0.00     0.042 A 
HETATM   31  C   UNL     1      -0.245   6.337 -27.234  1.00  0.00     0.352 A 
HETATM   32  C   UNL     1      -0.019   6.655 -31.691  1.00  0.00     0.040 A 
ENDBRANCH  23  24
ENDBRANCH  22  23
ENDBRANCH  21  22
ENDBRANCH  19  20
ENDBRANCH   2  19
TORSDOF 8
ENDMDL
MODEL 5
REMARK VINA RESULT:      -8.4      1.683      2.137
REMARK  8 active torsions:
REMARK  status: ('A' for Active; 'I' for Inactive)
REMARK    1  A    between atoms: O_2  and  C_3 
REMARK    2  A    between atoms: C_5  and  C_6 
REMARK    3  A    between atoms: C_10  and  C_11 
REMARK       I    between atoms: C_11  and  N_12 
REMARK    4  A    between atoms: N_12  and  C_13 
REMARK    5  A    between atoms: C_13  and  C_14 
REMARK    6  A    between atoms: C_15  and  C_16 
REMARK    7  A    between atoms: C_16  and  O_17 
REMARK    8  A    between atoms: O_17  and  C_18 
ROOT
HETATM    1  C   UNL     1      -6.260   2.603 -33.084  1.00  0.00     0.270 C 
HETATM    2  N   UNL     1      -5.080   2.917 -32.463  1.00  0.00    -0.345 N 
HETATM    3  O   UNL     1      -7.203   3.384 -33.144  1.00  0.00    -0.266 OA
HETATM    4  H   UNL     1      -4.342   2.233 -32.402  1.00  0.00     0.163 HD
ENDROOT
BRANCH   1   5
HETATM    5  C   UNL     1      -6.308   1.291 -33.671  1.00  0.00     0.120 A 
HETATM    6  N   UNL     1      -6.975   1.049 -34.839  1.00  0.00    -0.272 N 
HETATM    7  N   UNL     1      -6.891  -0.220 -35.269  1.00  0.00    -0.174 NA
HETATM    8  H   UNL     1      -7.495   1.722 -35.394  1.00  0.00     0.189 HD
HETATM    9  C   UNL     1      -6.160  -0.846 -34.335  1.00  0.00     0.089 A 
HETATM   10  C   UNL     1      -5.779   0.067 -33.314  1.00  0.00     0.071 A 
BRANCH   9  11
HETATM   11  C   UNL     1      -5.826  -2.269 -34.436  1.00  0.00    -0.003 A 
HETATM   12  C   UNL     1      -4.664  -2.770 -33.830  1.00  0.00     0.050 A 
HETATM   13  C   UNL     1      -4.349  -4.132 -33.884  1.00  0.00     0.069 A 
HETATM   14  C   UNL     1      -5.195  -5.003 -34.570  1.00  0.00     0.037 A 
HETATM   15  C   UNL     1      -6.348  -4.516 -35.189  1.00  0.00     0.004 A 
HETATM   16  C   UNL     1      -6.664  -3.158 -35.122  1.00  0.00     0.014 A 
BRANCH  13  17
HETATM   17  O   UNL     1      -3.198  -4.480 -33.231  1.00  0.00    -0.356 OA
HETATM   18  C   UNL     1      -2.918  -3.801 -32.013  1.00  0.00     0.210 C 
ENDBRANCH  13  17
ENDBRANCH   9  11
ENDBRANCH   1   5
BRANCH   2  19
HETATM   19  C   UNL     1      -4.882   4.194 -31.827  1.00  0.00     0.217 C 
BRANCH  19  20
HETATM   20  C   UNL     1      -3.452   4.514 -31.819  1.00  0.00    -0.085 C 
HETATM   21  C   UNL     1      -2.277   4.764 -31.784  1.00  0.00    -0.078 C 
BRANCH  21  22
HETATM   22  C   UNL     1      -0.839   5.057 -31.716  1.00  0.00     0.269 C 
BRANCH  22  23
HETATM   23  O   UNL     1      -0.364   4.765 -30.404  1.00  0.00    -0.339 OA
BRANCH  23  24
HETATM   24  C   UNL     1      -0.105   5.833 -29.586  1.00  0.00     0.072 A 
HETATM   25  C   UNL     1       0.697   5.811 -28.441  1.00  0.00     0.076 A 
HETATM   26  C   UNL     1       0.840   6.989 -27.735  1.00  0.00     0.107 A 
HETATM   27  C   UNL     1       0.225   8.155 -28.125  1.00  0.00     0.105 A 
HETATM   28  O   UNL     1       1.577   7.147 -26.603  1.00  0.00    -0.323 OA
HETATM   29  O   UNL     1       0.499   9.192 -27.291  1.00  0.00    -0.323 OA
HETATM   30  C   UNL     1      -0.570   8.211 -29.248  1.00  0.00     0.042 A 
HETATM   31  C   UNL     1       1.356   8.547 -26.327  1.00  0.00     0.352 A 
HETATM   32  C   UNL     1      -0.734   7.031 -29.981  1.00  0.00     0.040 A 
ENDBRANCH  23  24
ENDBRANCH  22  23
ENDBRANCH  21  22
ENDBRANCH  19  20
ENDBRANCH   2  19
TORSDOF 8
ENDMDL
MODEL 6
REMARK VINA RESULT:      -8.4      1.162      2.169
REMARK  8 active torsions:
REMARK  status: ('A' for Active; 'I' for Inactive)
REMARK    1  A    between atoms: O_2  and  C_3 
REMARK    2  A    between atoms: C_5  and  C_6 
REMARK    3  A    between atoms: C_10  and  C_11 
REMARK       I    between atoms: C_11  and  N_12 
REMARK    4  A    between atoms: N_12  and  C_13 
REMARK    5  A    between atoms: C_13  and  C_14 
REMARK    6  A    between atoms: C_15  and  C_16 
REMARK    7  A    between atoms: C_16  and  O_17 
REMARK    8  A    between atoms: O_17  and  C_18 
ROOT
HETATM    1  C   UNL     1      -6.368   3.151 -33.481  1.00  0.00     0.270 C 
HETATM    2  N   UNL     1      -5.419   3.784 -32.722  1.00  0.00    -0.345 N 
HETATM    3  O   UNL     1      -7.330   3.741 -33.962  1.00  0.00    -0.266 OA
HETATM    4  H   UNL     1      -4.664   3.255 -32.312  1.00  0.00     0.163 HD
ENDROOT
BRANCH   1   5
HETATM    5  C   UNL     1      -6.150   1.744 -33.681  1.00  0.00     0.120 A 
HETATM    6  N   UNL     1      -6.837   1.036 -34.628  1.00  0.00    -0.272 N 
HETATM    7  N   UNL     1      -6.487  -0.256 -34.710  1.00  0.00    -0.174 NA
HETATM    8  H   UNL     1      -7.548   1.394 -35.258  1.00  0.00     0.189 HD
HETATM    9  C   UNL     1      -5.550  -0.416 -33.764  1.00  0.00     0.089 A 
HETATM   10  C   UNL     1      -5.314   0.816 -33.093  1.00  0.00     0.071 A 
BRANCH   9  11
HETATM   11  C   UNL     1      -4.894  -1.703 -33.530  1.00  0.00    -0.003 A 
HETATM   12  C   UNL     1      -5.279  -2.840 -34.256  1.00  0.00     0.050 A 
HETATM   13  C   UNL     1      -4.637  -4.069 -34.072  1.00  0.00     0.069 A 
HETATM   14  C   UNL     1      -3.609  -4.171 -33.135  1.00  0.00     0.037 A 
HETATM   15  C   UNL     1      -3.223  -3.051 -32.395  1.00  0.00     0.004 A 
HETATM   16  C   UNL     1      -3.860  -1.824 -32.591  1.00  0.00     0.014 A 
BRANCH  13  17
HETATM   17  O   UNL     1      -5.104  -5.083 -34.863  1.00  0.00    -0.356 OA
HETATM   18  C   UNL     1      -6.337  -4.859 -35.536  1.00  0.00     0.210 C 
ENDBRANCH  13  17
ENDBRANCH   9  11
ENDBRANCH   1   5
BRANCH   2  19
HETATM   19  C   UNL     1      -5.503   5.192 -32.433  1.00  0.00     0.217 C 
BRANCH  19  20
HETATM   20  C   UNL     1      -4.285   5.856 -32.904  1.00  0.00    -0.085 C 
HETATM   21  C   UNL     1      -3.286   6.381 -33.315  1.00  0.00    -0.078 C 
BRANCH  21  22
HETATM   22  C   UNL     1      -2.065   7.007 -33.841  1.00  0.00     0.269 C 
BRANCH  22  23
HETATM   23  O   UNL     1      -1.564   7.932 -32.879  1.00  0.00    -0.339 OA
BRANCH  23  24
HETATM   24  C   UNL     1      -1.081   7.409 -31.708  1.00  0.00     0.072 A 
HETATM   25  C   UNL     1      -1.509   7.751 -30.421  1.00  0.00     0.076 A 
HETATM   26  C   UNL     1      -0.900   7.120 -29.354  1.00  0.00     0.107 A 
HETATM   27  C   UNL     1       0.092   6.184 -29.526  1.00  0.00     0.105 A 
HETATM   28  O   UNL     1      -1.189   7.332 -28.042  1.00  0.00    -0.323 OA
HETATM   29  O   UNL     1       0.550   5.689 -28.347  1.00  0.00    -0.323 OA
HETATM   30  C   UNL     1       0.535   5.824 -30.779  1.00  0.00     0.042 A 
HETATM   31  C   UNL     1      -0.265   6.421 -27.409  1.00  0.00     0.352 A 
HETATM   32  C   UNL     1      -0.063   6.449 -31.878  1.00  0.00     0.040 A 
ENDBRANCH  23  24
ENDBRANCH  22  23
ENDBRANCH  21  22
ENDBRANCH  19  20
ENDBRANCH   2  19
TORSDOF 8
ENDMDL
MODEL 7
REMARK VINA RESULT:      -8.3     16.633     19.260
REMARK  8 active torsions:
REMARK  status: ('A' for Active; 'I' for Inactive)
REMARK    1  A    between atoms: O_2  and  C_3 
REMARK    2  A    between atoms: C_5  and  C_6 
REMARK    3  A    between atoms: C_10  and  C_11 
REMARK       I    between atoms: C_11  and  N_12 
REMARK    4  A    between atoms: N_12  and  C_13 
REMARK    5  A    between atoms: C_13  and  C_14 
REMARK    6  A    between atoms: C_15  and  C_16 
REMARK    7  A    between atoms: C_16  and  O_17 
REMARK    8  A    between atoms: O_17  and  C_18 
ROOT
HETATM    1  C   UNL     1      -3.768 -12.563 -38.032  1.00  0.00     0.270 C 
HETATM    2  N   UNL     1      -3.644 -13.661 -37.221  1.00  0.00    -0.345 N 
HETATM    3  O   UNL     1      -2.914 -11.685 -38.089  1.00  0.00    -0.266 OA
HETATM    4  H   UNL     1      -4.387 -14.342 -37.174  1.00  0.00     0.163 HD
ENDROOT
BRANCH   1   5
HETATM    5  C   UNL     1      -4.970 -12.521 -38.820  1.00  0.00     0.120 A 
HETATM    6  N   UNL     1      -4.996 -11.956 -40.064  1.00  0.00    -0.272 N 
HETATM    7  N   UNL     1      -6.185 -12.033 -40.680  1.00  0.00    -0.174 NA
HETATM    8  H   UNL     1      -4.219 -11.514 -40.548  1.00  0.00     0.189 HD
HETATM    9  C   UNL     1      -6.984 -12.651 -39.797  1.00  0.00     0.089 A 
HETATM   10  C   UNL     1      -6.259 -12.970 -38.616  1.00  0.00     0.071 A 
BRANCH   9  11
HETATM   11  C   UNL     1      -8.389 -12.941 -40.092  1.00  0.00    -0.003 A 
HETATM   12  C   UNL     1      -8.774 -14.215 -40.536  1.00  0.00     0.050 A 
HETATM   13  C   UNL     1     -10.116 -14.521 -40.786  1.00  0.00     0.069 A 
HETATM   14  C   UNL     1     -11.086 -13.535 -40.610  1.00  0.00     0.037 A 
HETATM   15  C   UNL     1     -10.717 -12.258 -40.182  1.00  0.00     0.004 A 
HETATM   16  C   UNL     1      -9.377 -11.962 -39.922  1.00  0.00     0.014 A 
BRANCH  13  17
HETATM   17  O   UNL     1     -10.344 -15.807 -41.192  1.00  0.00    -0.356 OA
HETATM   18  C   UNL     1     -10.320 -16.814 -40.187  1.00  0.00     0.210 C 
ENDBRANCH  13  17
ENDBRANCH   9  11
ENDBRANCH   1   5
BRANCH   2  19
HETATM   19  C   UNL     1      -2.496 -13.841 -36.370  1.00  0.00     0.217 C 
BRANCH  19  20
HETATM   20  C   UNL     1      -1.340 -14.210 -37.191  1.00  0.00    -0.085 C 
HETATM   21  C   UNL     1      -0.394 -14.541 -37.854  1.00  0.00    -0.078 C 
BRANCH  21  22
HETATM   22  C   UNL     1       0.760 -14.972 -38.655  1.00  0.00     0.269 C 
BRANCH  22  23
HETATM   23  O   UNL     1       0.613 -14.484 -39.986  1.00  0.00    -0.339 OA
BRANCH  23  24
HETATM   24  C   UNL     1      -0.547 -14.807 -40.640  1.00  0.00     0.072 A 
HETATM   25  C   UNL     1      -1.513 -13.901 -41.090  1.00  0.00     0.076 A 
HETATM   26  C   UNL     1      -2.626 -14.413 -41.728  1.00  0.00     0.107 A 
HETATM   27  C   UNL     1      -2.798 -15.762 -41.928  1.00  0.00     0.105 A 
HETATM   28  O   UNL     1      -3.658 -13.681 -42.224  1.00  0.00    -0.323 OA
HETATM   29  O   UNL     1      -3.959 -16.048 -42.574  1.00  0.00    -0.323 OA
HETATM   30  C   UNL     1      -1.866 -16.680 -41.498  1.00  0.00     0.042 A 
HETATM   31  C   UNL     1      -4.500 -14.724 -42.759  1.00  0.00     0.352 A 
HETATM   32  C   UNL     1      -0.730 -16.190 -40.847  1.00  0.00     0.040 A 
ENDBRANCH  23  24
ENDBRANCH  22  23
ENDBRANCH  21  22
ENDBRANCH  19  20
ENDBRANCH   2  19
TORSDOF 8
ENDMDL
MODEL 8
REMARK VINA RESULT:      -8.1      2.767      4.844
REMARK  8 active torsions:
REMARK  status: ('A' for Active; 'I' for Inactive)
REMARK    1  A    between atoms: O_2  and  C_3 
REMARK    2  A    between atoms: C_5  and  C_6 
REMARK    3  A    between atoms: C_10  and  C_11 
REMARK       I    between atoms: C_11  and  N_12 
REMARK    4  A    between atoms: N_12  and  C_13 
REMARK    5  A    between atoms: C_13  and  C_14 
REMARK    6  A    between atoms: C_15  and  C_16 
REMARK    7  A    between atoms: C_16  and  O_17 
REMARK    8  A    between atoms: O_17  and  C_18 
ROOT
HETATM    1  C   UNL     1      -5.432   5.140 -29.845  1.00  0.00     0.270 C 
HETATM    2  N   UNL     1      -5.556   4.812 -28.520  1.00  0.00    -0.345 N 
HETATM    3  O   UNL     1      -5.497   6.296 -30.248  1.00  0.00    -0.266 OA
HETATM    4  H   UNL     1      -5.535   3.845 -28.234  1.00  0.00     0.163 HD
ENDROOT
BRANCH   1   5
HETATM    5  C   UNL     1      -5.210   4.028 -30.729  1.00  0.00     0.120 A 
HETATM    6  N   UNL     1      -3.985   3.431 -30.843  1.00  0.00    -0.272 N 
HETATM    7  N   UNL     1      -3.958   2.385 -31.683  1.00  0.00    -0.174 NA
HETATM    8  H   UNL     1      -3.134   3.693 -30.355  1.00  0.00     0.189 HD
HETATM    9  C   UNL     1      -5.208   2.302 -32.162  1.00  0.00     0.089 A 
HETATM   10  C   UNL     1      -6.023   3.318 -31.590  1.00  0.00     0.071 A 
BRANCH   9  11
HETATM   11  C   UNL     1      -5.606   1.268 -33.120  1.00  0.00    -0.003 A 
HETATM   12  C   UNL     1      -5.038  -0.013 -33.058  1.00  0.00     0.050 A 
HETATM   13  C   UNL     1      -5.434  -1.024 -33.940  1.00  0.00     0.069 A 
HETATM   14  C   UNL     1      -6.396  -0.746 -34.912  1.00  0.00     0.037 A 
HETATM   15  C   UNL     1      -6.959   0.529 -34.995  1.00  0.00     0.004 A 
HETATM   16  C   UNL     1      -6.569   1.531 -34.103  1.00  0.00     0.014 A 
BRANCH  13  17
HETATM   17  O   UNL     1      -4.812  -2.227 -33.749  1.00  0.00    -0.356 OA
HETATM   18  C   UNL     1      -5.028  -3.228 -34.736  1.00  0.00     0.210 C 
ENDBRANCH  13  17
ENDBRANCH   9  11
ENDBRANCH   1   5
BRANCH   2  19
HETATM   19  C   UNL     1      -5.784   5.818 -27.515  1.00  0.00     0.217 C 
BRANCH  19  20
HETATM   20  C   UNL     1      -4.495   6.315 -27.028  1.00  0.00    -0.085 C 
HETATM   21  C   UNL     1      -3.429   6.730 -26.658  1.00  0.00    -0.078 C 
BRANCH  21  22
HETATM   22  C   UNL     1      -2.120   7.245 -26.232  1.00  0.00     0.269 C 
BRANCH  22  23
HETATM   23  O   UNL     1      -1.490   7.889 -27.336  1.00  0.00    -0.339 OA
BRANCH  23  24
HETATM   24  C   UNL     1      -1.200   7.111 -28.426  1.00  0.00     0.072 A 
HETATM   25  C   UNL     1      -1.955   7.032 -29.600  1.00  0.00     0.076 A 
HETATM   26  C   UNL     1      -1.508   6.185 -30.595  1.00  0.00     0.107 A 
HETATM   27  C   UNL     1      -0.363   5.437 -30.459  1.00  0.00     0.105 A 
HETATM   28  O   UNL     1      -2.117   5.985 -31.795  1.00  0.00    -0.323 OA
HETATM   29  O   UNL     1      -0.107   4.674 -31.554  1.00  0.00    -0.323 OA
HETATM   30  C   UNL     1       0.403   5.492 -29.317  1.00  0.00     0.042 A 
HETATM   31  C   UNL     1      -1.223   5.026 -32.398  1.00  0.00     0.352 A 
HETATM   32  C   UNL     1      -0.027   6.340 -28.291  1.00  0.00     0.040 A 
ENDBRANCH  23  24
ENDBRANCH  22  23
ENDBRANCH  21  22
ENDBRANCH  19  20
ENDBRANCH   2  19
TORSDOF 8
ENDMDL
MODEL 9
REMARK VINA RESULT:      -8.0      1.585      2.092
REMARK  8 active torsions:
REMARK  status: ('A' for Active; 'I' for Inactive)
REMARK    1  A    between atoms: O_2  and  C_3 
REMARK    2  A    between atoms: C_5  and  C_6 
REMARK    3  A    between atoms: C_10  and  C_11 
REMARK       I    between atoms: C_11  and  N_12 
REMARK    4  A    between atoms: N_12  and  C_13 
REMARK    5  A    between atoms: C_13  and  C_14 
REMARK    6  A    between atoms: C_15  and  C_16 
REMARK    7  A    between atoms: C_16  and  O_17 
REMARK    8  A    between atoms: O_17  and  C_18 
ROOT
HETATM    1  C   UNL     1      -8.028   1.970 -32.813  1.00  0.00     0.270 C 
HETATM    2  N   UNL     1      -8.199   3.086 -33.589  1.00  0.00    -0.345 N 
HETATM    3  O   UNL     1      -8.285   1.954 -31.613  1.00  0.00    -0.266 OA
HETATM    4  H   UNL     1      -7.940   3.069 -34.563  1.00  0.00     0.163 HD
ENDROOT
BRANCH   1   5
HETATM    5  C   UNL     1      -7.533   0.813 -33.509  1.00  0.00     0.120 A 
HETATM    6  N   UNL     1      -7.446   0.776 -34.872  1.00  0.00    -0.272 N 
HETATM    7  N   UNL     1      -6.928  -0.361 -35.360  1.00  0.00    -0.174 NA
HETATM    8  H   UNL     1      -7.715   1.511 -35.519  1.00  0.00     0.189 HD
HETATM    9  C   UNL     1      -6.685  -1.116 -34.278  1.00  0.00     0.089 A 
HETATM   10  C   UNL     1      -7.055  -0.415 -33.097  1.00  0.00     0.071 A 
BRANCH   9  11
HETATM   11  C   UNL     1      -6.100  -2.454 -34.379  1.00  0.00    -0.003 A 
HETATM   12  C   UNL     1      -4.859  -2.733 -33.788  1.00  0.00     0.050 A 
HETATM   13  C   UNL     1      -4.303  -4.016 -33.843  1.00  0.00     0.069 A 
HETATM   14  C   UNL     1      -4.986  -5.030 -34.514  1.00  0.00     0.037 A 
HETATM   15  C   UNL     1      -6.216  -4.763 -35.120  1.00  0.00     0.004 A 
HETATM   16  C   UNL     1      -6.772  -3.484 -35.051  1.00  0.00     0.014 A 
BRANCH  13  17
HETATM   17  O   UNL     1      -3.100  -4.146 -33.205  1.00  0.00    -0.356 OA
HETATM   18  C   UNL     1      -2.999  -3.589 -31.900  1.00  0.00     0.210 C 
ENDBRANCH  13  17
ENDBRANCH   9  11
ENDBRANCH   1   5
BRANCH   2  19
HETATM   19  C   UNL     1      -8.686   4.322 -33.032  1.00  0.00     0.217 C 
BRANCH  19  20
HETATM   20  C   UNL     1      -7.556   5.225 -32.800  1.00  0.00    -0.085 C 
HETATM   21  C   UNL     1      -6.640   5.970 -32.579  1.00  0.00    -0.078 C 
BRANCH  21  22
HETATM   22  C   UNL     1      -5.528   6.885 -32.284  1.00  0.00     0.269 C 
BRANCH  22  23
HETATM   23  O   UNL     1      -4.424   6.565 -33.126  1.00  0.00    -0.339 OA
BRANCH  23  24
HETATM   24  C   UNL     1      -3.185   6.539 -32.541  1.00  0.00     0.072 A 
HETATM   25  C   UNL     1      -2.403   5.399 -32.330  1.00  0.00     0.076 A 
HETATM   26  C   UNL     1      -1.176   5.566 -31.719  1.00  0.00     0.107 A 
HETATM   27  C   UNL     1      -0.718   6.800 -31.324  1.00  0.00     0.105 A 
HETATM   28  O   UNL     1      -0.293   4.571 -31.435  1.00  0.00    -0.323 OA
HETATM   29  O   UNL     1       0.510   6.739 -30.745  1.00  0.00    -0.323 OA
HETATM   30  C   UNL     1      -1.462   7.942 -31.518  1.00  0.00     0.042 A 
HETATM   31  C   UNL     1       0.774   5.322 -30.818  1.00  0.00     0.352 A 
HETATM   32  C   UNL     1      -2.710   7.802 -32.134  1.00  0.00     0.040 A 
ENDBRANCH  23  24
ENDBRANCH  22  23
ENDBRANCH  21  22
ENDBRANCH  19  20
ENDBRANCH   2  19
TORSDOF 8
ENDMDL
MODEL 10
REMARK VINA RESULT:      -8.0      2.723      3.546
REMARK  8 active torsions:
REMARK  status: ('A' for Active; 'I' for Inactive)
REMARK    1  A    between atoms: O_2  and  C_3 
REMARK    2  A    between atoms: C_5  and  C_6 
REMARK    3  A    between atoms: C_10  and  C_11 
REMARK       I    between atoms: C_11  and  N_12 
REMARK    4  A    between atoms: N_12  and  C_13 
REMARK    5  A    between atoms: C_13  and  C_14 
REMARK    6  A    between atoms: C_15  and  C_16 
REMARK    7  A    between atoms: C_16  and  O_17 
REMARK    8  A    between atoms: O_17  and  C_18 
ROOT
HETATM    1  C   UNL     1      -6.678   3.806 -29.620  1.00  0.00     0.270 C 
HETATM    2  N   UNL     1      -5.593   4.322 -28.962  1.00  0.00    -0.345 N 
HETATM    3  O   UNL     1      -7.735   4.417 -29.731  1.00  0.00    -0.266 OA
HETATM    4  H   UNL     1      -4.754   3.771 -28.860  1.00  0.00     0.163 HD
ENDROOT
BRANCH   1   5
HETATM    5  C   UNL     1      -6.484   2.496 -30.181  1.00  0.00     0.120 A 
HETATM    6  N   UNL     1      -6.347   1.388 -29.393  1.00  0.00    -0.272 N 
HETATM    7  N   UNL     1      -6.211   0.240 -30.075  1.00  0.00    -0.174 NA
HETATM    8  H   UNL     1      -6.354   1.359 -28.378  1.00  0.00     0.189 HD
HETATM    9  C   UNL     1      -6.235   0.607 -31.365  1.00  0.00     0.089 A 
HETATM   10  C   UNL     1      -6.400   2.016 -31.473  1.00  0.00     0.071 A 
BRANCH   9  11
HETATM   11  C   UNL     1      -6.122  -0.368 -32.452  1.00  0.00    -0.003 A 
HETATM   12  C   UNL     1      -4.979  -1.173 -32.568  1.00  0.00     0.050 A 
HETATM   13  C   UNL     1      -4.871  -2.135 -33.577  1.00  0.00     0.069 A 
HETATM   14  C   UNL     1      -5.910  -2.283 -34.496  1.00  0.00     0.037 A 
HETATM   15  C   UNL     1      -7.048  -1.479 -34.401  1.00  0.00     0.004 A 
HETATM   16  C   UNL     1      -7.156  -0.528 -33.384  1.00  0.00     0.014 A 
BRANCH  13  17
HETATM   17  O   UNL     1      -3.711  -2.860 -33.555  1.00  0.00    -0.356 OA
HETATM   18  C   UNL     1      -3.285  -3.355 -32.292  1.00  0.00     0.210 C 
ENDBRANCH  13  17
ENDBRANCH   9  11
ENDBRANCH   1   5
BRANCH   2  19
HETATM   19  C   UNL     1      -5.636   5.623 -28.346  1.00  0.00     0.217 C 
BRANCH  19  20
HETATM   20  C   UNL     1      -5.084   6.615 -29.272  1.00  0.00    -0.085 C 
HETATM   21  C   UNL     1      -4.624   7.405 -30.051  1.00  0.00    -0.078 C 
BRANCH  21  22
HETATM   22  C   UNL     1      -4.054   8.351 -31.020  1.00  0.00     0.269 C 
BRANCH  22  23
HETATM   23  O   UNL     1      -2.730   8.691 -30.618  1.00  0.00    -0.339 OA
BRANCH  23  24
HETATM   24  C   UNL     1      -1.804   7.681 -30.616  1.00  0.00     0.072 A 
HETATM   25  C   UNL     1      -1.156   7.166 -29.489  1.00  0.00     0.076 A 
HETATM   26  C   UNL     1      -0.245   6.147 -29.681  1.00  0.00     0.107 A 
HETATM   27  C   UNL     1       0.031   5.639 -30.928  1.00  0.00     0.105 A 
HETATM   28  O   UNL     1       0.473   5.535 -28.702  1.00  0.00    -0.323 OA
HETATM   29  O   UNL     1       0.956   4.643 -30.891  1.00  0.00    -0.323 OA
HETATM   30  C   UNL     1      -0.589   6.122 -32.058  1.00  0.00     0.042 A 
HETATM   31  C   UNL     1       1.232   4.582 -29.477  1.00  0.00     0.352 A 
HETATM   32  C   UNL     1      -1.515   7.157 -31.893  1.00  0.00     0.040 A 
ENDBRANCH  23  24
ENDBRANCH  22  23
ENDBRANCH  21  22
ENDBRANCH  19  20
ENDBRANCH   2  19
TORSDOF 8
ENDMDL
