MODEL 1
REMARK VINA RESULT:      -8.9      0.000      0.000
REMARK  7 active torsions:
REMARK  status: ('A' for Active; 'I' for Inactive)
REMARK    1  A    between atoms: C_7  and  C_8 
REMARK       I    between atoms: C_8  and  N_9 
REMARK    2  A    between atoms: N_9  and  C_10 
REMARK    3  A    between atoms: C_10  and  C_11 
REMARK    4  A    between atoms: C_11  and  O_12 
REMARK    5  A    between atoms: C_11  and  C_13 
REMARK    6  A    between atoms: C_15  and  O_16 
REMARK    7  A    between atoms: O_16  and  C_17 
ROOT
HETATM    1  C   UNL     1      -3.462   2.946 -31.693  1.00  0.00     0.253 C 
HETATM    2  N   UNL     1      -4.830   2.837 -31.735  1.00  0.00    -0.354 N 
HETATM    3  O   UNL     1      -2.737   2.110 -31.166  1.00  0.00    -0.268 OA
HETATM    4  H   UNL     1      -5.403   3.602 -32.065  1.00  0.00     0.162 HD
ENDROOT
BRANCH   2   5
HETATM    5  C   UNL     1      -5.505   1.650 -31.220  1.00  0.00     0.159 C 
BRANCH   5   6
HETATM    6  C   UNL     1      -6.328   0.912 -32.295  1.00  0.00     0.169 C 
BRANCH   6   7
HETATM    7  O   UNL     1      -6.528   1.785 -33.416  1.00  0.00    -0.389 OA
HETATM    8  H   UNL     1      -7.373   1.509 -33.809  1.00  0.00     0.210 HD
ENDBRANCH   6   7
BRANCH   6   9
HETATM    9  C   UNL     1      -5.631  -0.354 -32.745  1.00  0.00    -0.025 A 
HETATM   10  C   UNL     1      -6.110  -1.119 -33.824  1.00  0.00     0.046 A 
HETATM   11  C   UNL     1      -5.440  -2.274 -34.233  1.00  0.00     0.075 A 
HETATM   12  C   UNL     1      -4.261  -2.648 -33.587  1.00  0.00     0.037 A 
HETATM   13  C   UNL     1      -3.767  -1.896 -32.522  1.00  0.00     0.003 A 
HETATM   14  C   UNL     1      -4.450  -0.757 -32.101  1.00  0.00     0.010 A 
BRANCH  11  15
HETATM   15  O   UNL     1      -5.818  -3.095 -35.259  1.00  0.00    -0.290 OA
BRANCH  15  16
HETATM   16  C   UNL     1      -6.441  -4.311 -34.882  1.00  0.00     0.505 C 
HETATM   17  F   UNL     1      -7.514  -4.035 -34.099  1.00  0.00    -0.184 F 
HETATM   18  F   UNL     1      -6.929  -4.882 -36.014  1.00  0.00    -0.184 F 
ENDBRANCH  15  16
ENDBRANCH  11  15
ENDBRANCH   6   9
ENDBRANCH   5   6
ENDBRANCH   2   5
BRANCH   1  19
HETATM   19  C   UNL     1      -2.901   4.204 -32.273  1.00  0.00     0.048 A 
HETATM   20  C   UNL     1      -2.392   4.202 -33.645  1.00  0.00     0.022 A 
HETATM   21  C   UNL     1      -1.909   5.319 -34.223  1.00  0.00     0.054 A 
HETATM   22  C   UNL     1      -1.903   6.536 -33.493  1.00  0.00     0.157 A 
HETATM   23  N   UNL     1      -2.418   6.518 -32.205  1.00  0.00    -0.291 N 
HETATM   24  N   UNL     1      -1.499   7.751 -33.788  1.00  0.00    -0.130 NA
HETATM   25  C   UNL     1      -2.308   7.818 -31.760  1.00  0.00     0.130 A 
HETATM   26  C   UNL     1      -2.917   5.368 -31.592  1.00  0.00     0.117 A 
HETATM   27  C   UNL     1      -2.741   8.287 -30.425  1.00  0.00     0.094 C 
HETATM   28  N   UNL     1      -1.752   8.554 -32.701  1.00  0.00    -0.135 NA
ENDBRANCH   1  19
TORSDOF 7
ENDMDL
MODEL 2
REMARK VINA RESULT:      -8.9      1.234      1.904
REMARK  7 active torsions:
REMARK  status: ('A' for Active; 'I' for Inactive)
REMARK    1  A    between atoms: C_7  and  C_8 
REMARK       I    between atoms: C_8  and  N_9 
REMARK    2  A    between atoms: N_9  and  C_10 
REMARK    3  A    between atoms: C_10  and  C_11 
REMARK    4  A    between atoms: C_11  and  O_12 
REMARK    5  A    between atoms: C_11  and  C_13 
REMARK    6  A    between atoms: C_15  and  O_16 
REMARK    7  A    between atoms: O_16  and  C_17 
ROOT
HETATM    1  C   UNL     1      -3.684   3.029 -31.511  1.00  0.00     0.253 C 
HETATM    2  N   UNL     1      -3.133   1.828 -31.886  1.00  0.00    -0.354 N 
HETATM    3  O   UNL     1      -4.659   3.119 -30.774  1.00  0.00    -0.268 OA
HETATM    4  H   UNL     1      -2.411   1.786 -32.592  1.00  0.00     0.162 HD
ENDROOT
BRANCH   2   5
HETATM    5  C   UNL     1      -3.635   0.569 -31.345  1.00  0.00     0.159 C 
BRANCH   5   6
HETATM    6  C   UNL     1      -3.336  -0.639 -32.254  1.00  0.00     0.169 C 
BRANCH   6   7
HETATM    7  O   UNL     1      -2.948  -1.755 -31.441  1.00  0.00    -0.389 OA
HETATM    8  H   UNL     1      -3.110  -1.475 -30.525  1.00  0.00     0.210 HD
ENDBRANCH   6   7
BRANCH   6   9
HETATM    9  C   UNL     1      -4.542  -1.006 -33.093  1.00  0.00    -0.025 A 
HETATM   10  C   UNL     1      -4.528  -2.109 -33.965  1.00  0.00     0.046 A 
HETATM   11  C   UNL     1      -5.658  -2.441 -34.715  1.00  0.00     0.075 A 
HETATM   12  C   UNL     1      -6.825  -1.689 -34.565  1.00  0.00     0.037 A 
HETATM   13  C   UNL     1      -6.859  -0.598 -33.698  1.00  0.00     0.003 A 
HETATM   14  C   UNL     1      -5.722  -0.256 -32.968  1.00  0.00     0.010 A 
BRANCH  11  15
HETATM   15  O   UNL     1      -5.756  -3.481 -35.596  1.00  0.00    -0.290 OA
BRANCH  15  16
HETATM   16  C   UNL     1      -6.195  -4.715 -35.053  1.00  0.00     0.505 C 
HETATM   17  F   UNL     1      -5.228  -5.212 -34.242  1.00  0.00    -0.184 F 
HETATM   18  F   UNL     1      -7.263  -4.447 -34.258  1.00  0.00    -0.184 F 
ENDBRANCH  15  16
ENDBRANCH  11  15
ENDBRANCH   6   9
ENDBRANCH   5   6
ENDBRANCH   2   5
BRANCH   1  19
HETATM   19  C   UNL     1      -3.061   4.239 -32.125  1.00  0.00     0.048 A 
HETATM   20  C   UNL     1      -2.471   4.150 -33.461  1.00  0.00     0.022 A 
HETATM   21  C   UNL     1      -1.929   5.222 -34.071  1.00  0.00     0.054 A 
HETATM   22  C   UNL     1      -1.937   6.478 -33.410  1.00  0.00     0.157 A 
HETATM   23  N   UNL     1      -2.528   6.543 -32.157  1.00  0.00    -0.291 N 
HETATM   24  N   UNL     1      -1.488   7.666 -33.747  1.00  0.00    -0.130 NA
HETATM   25  C   UNL     1      -2.414   7.864 -31.778  1.00  0.00     0.130 A 
HETATM   26  C   UNL     1      -3.089   5.441 -31.512  1.00  0.00     0.117 A 
HETATM   27  C   UNL     1      -2.914   8.417 -30.500  1.00  0.00     0.094 C 
HETATM   28  N   UNL     1      -1.786   8.534 -32.723  1.00  0.00    -0.135 NA
ENDBRANCH   1  19
TORSDOF 7
ENDMDL
MODEL 3
REMARK VINA RESULT:      -8.7      2.160      2.919
REMARK  7 active torsions:
REMARK  status: ('A' for Active; 'I' for Inactive)
REMARK    1  A    between atoms: C_7  and  C_8 
REMARK       I    between atoms: C_8  and  N_9 
REMARK    2  A    between atoms: N_9  and  C_10 
REMARK    3  A    between atoms: C_10  and  C_11 
REMARK    4  A    between atoms: C_11  and  O_12 
REMARK    5  A    between atoms: C_11  and  C_13 
REMARK    6  A    between atoms: C_15  and  O_16 
REMARK    7  A    between atoms: O_16  and  C_17 
ROOT
HETATM    1  C   UNL     1      -3.892   2.645 -31.796  1.00  0.00     0.253 C 
HETATM    2  N   UNL     1      -3.228   1.485 -32.114  1.00  0.00    -0.354 N 
HETATM    3  O   UNL     1      -4.851   2.682 -31.034  1.00  0.00    -0.268 OA
HETATM    4  H   UNL     1      -2.525   1.472 -32.840  1.00  0.00     0.162 HD
ENDROOT
BRANCH   2   5
HETATM    5  C   UNL     1      -3.581   0.219 -31.480  1.00  0.00     0.159 C 
BRANCH   5   6
HETATM    6  C   UNL     1      -3.230  -1.006 -32.346  1.00  0.00     0.169 C 
BRANCH   6   7
HETATM    7  O   UNL     1      -2.708  -2.044 -31.504  1.00  0.00    -0.389 OA
HETATM    8  H   UNL     1      -3.287  -2.811 -31.653  1.00  0.00     0.210 HD
ENDBRANCH   6   7
BRANCH   6   9
HETATM    9  C   UNL     1      -4.444  -1.513 -33.096  1.00  0.00    -0.025 A 
HETATM   10  C   UNL     1      -5.668  -0.820 -33.074  1.00  0.00     0.046 A 
HETATM   11  C   UNL     1      -6.770  -1.295 -33.788  1.00  0.00     0.075 A 
HETATM   12  C   UNL     1      -6.640  -2.449 -34.563  1.00  0.00     0.037 A 
HETATM   13  C   UNL     1      -5.431  -3.142 -34.603  1.00  0.00     0.003 A 
HETATM   14  C   UNL     1      -4.340  -2.678 -33.870  1.00  0.00     0.010 A 
BRANCH  11  15
HETATM   15  O   UNL     1      -8.006  -0.711 -33.833  1.00  0.00    -0.290 OA
BRANCH  15  16
HETATM   16  C   UNL     1      -8.073   0.551 -34.476  1.00  0.00     0.505 C 
HETATM   17  F   UNL     1      -7.515   0.451 -35.708  1.00  0.00    -0.184 F 
HETATM   18  F   UNL     1      -9.387   0.834 -34.671  1.00  0.00    -0.184 F 
ENDBRANCH  15  16
ENDBRANCH  11  15
ENDBRANCH   6   9
ENDBRANCH   5   6
ENDBRANCH   2   5
BRANCH   1  19
HETATM   19  C   UNL     1      -3.415   3.871 -32.504  1.00  0.00     0.048 A 
HETATM   20  C   UNL     1      -4.168   4.381 -33.651  1.00  0.00     0.022 A 
HETATM   21  C   UNL     1      -3.798   5.502 -34.300  1.00  0.00     0.054 A 
HETATM   22  C   UNL     1      -2.656   6.220 -33.857  1.00  0.00     0.157 A 
HETATM   23  N   UNL     1      -1.977   5.732 -32.750  1.00  0.00    -0.291 N 
HETATM   24  N   UNL     1      -2.069   7.315 -34.286  1.00  0.00    -0.130 NA
HETATM   25  C   UNL     1      -0.951   6.628 -32.539  1.00  0.00     0.130 A 
HETATM   26  C   UNL     1      -2.346   4.570 -32.071  1.00  0.00     0.117 A 
HETATM   27  C   UNL     1       0.045   6.522 -31.450  1.00  0.00     0.094 C 
HETATM   28  N   UNL     1      -0.999   7.569 -33.460  1.00  0.00    -0.135 NA
ENDBRANCH   1  19
TORSDOF 7
ENDMDL
MODEL 4
REMARK VINA RESULT:      -8.7      4.848      9.139
REMARK  7 active torsions:
REMARK  status: ('A' for Active; 'I' for Inactive)
REMARK    1  A    between atoms: C_7  and  C_8 
REMARK       I    between atoms: C_8  and  N_9 
REMARK    2  A    between atoms: N_9  and  C_10 
REMARK    3  A    between atoms: C_10  and  C_11 
REMARK    4  A    between atoms: C_11  and  O_12 
REMARK    5  A    between atoms: C_11  and  C_13 
REMARK    6  A    between atoms: C_15  and  O_16 
REMARK    7  A    between atoms: O_16  and  C_17 
ROOT
HETATM    1  C   UNL     1      -4.589   0.371 -32.909  1.00  0.00     0.253 C 
HETATM    2  N   UNL     1      -5.466   1.410 -32.718  1.00  0.00    -0.354 N 
HETATM    3  O   UNL     1      -3.389   0.453 -32.671  1.00  0.00    -0.268 OA
HETATM    4  H   UNL     1      -6.422   1.349 -33.041  1.00  0.00     0.162 HD
ENDROOT
BRANCH   2   5
HETATM    5  C   UNL     1      -5.024   2.668 -32.125  1.00  0.00     0.159 C 
BRANCH   5   6
HETATM    6  C   UNL     1      -5.072   3.849 -33.115  1.00  0.00     0.169 C 
BRANCH   6   7
HETATM    7  O   UNL     1      -5.987   4.838 -32.624  1.00  0.00    -0.389 OA
HETATM    8  H   UNL     1      -6.765   4.781 -33.206  1.00  0.00     0.210 HD
ENDBRANCH   6   7
BRANCH   6   9
HETATM    9  C   UNL     1      -3.700   4.463 -33.301  1.00  0.00    -0.025 A 
HETATM   10  C   UNL     1      -2.681   4.297 -32.346  1.00  0.00     0.046 A 
HETATM   11  C   UNL     1      -1.417   4.857 -32.547  1.00  0.00     0.075 A 
HETATM   12  C   UNL     1      -1.156   5.555 -33.728  1.00  0.00     0.037 A 
HETATM   13  C   UNL     1      -2.153   5.720 -34.689  1.00  0.00     0.003 A 
HETATM   14  C   UNL     1      -3.420   5.180 -34.475  1.00  0.00     0.010 A 
BRANCH  11  15
HETATM   15  O   UNL     1      -0.358   4.768 -31.688  1.00  0.00    -0.290 OA
BRANCH  15  16
HETATM   16  C   UNL     1      -0.249   5.806 -30.729  1.00  0.00     0.505 C 
HETATM   17  F   UNL     1       0.089   5.269 -29.530  1.00  0.00    -0.184 F 
HETATM   18  F   UNL     1       0.793   6.593 -31.104  1.00  0.00    -0.184 F 
ENDBRANCH  15  16
ENDBRANCH  11  15
ENDBRANCH   6   9
ENDBRANCH   5   6
ENDBRANCH   2   5
BRANCH   1  19
HETATM   19  C   UNL     1      -5.178  -0.865 -33.505  1.00  0.00     0.048 A 
HETATM   20  C   UNL     1      -6.483  -0.797 -34.165  1.00  0.00     0.022 A 
HETATM   21  C   UNL     1      -7.040  -1.877 -34.748  1.00  0.00     0.054 A 
HETATM   22  C   UNL     1      -6.343  -3.113 -34.736  1.00  0.00     0.157 A 
HETATM   23  N   UNL     1      -5.096  -3.144 -34.130  1.00  0.00    -0.291 N 
HETATM   24  N   UNL     1      -6.633  -4.305 -35.208  1.00  0.00    -0.130 NA
HETATM   25  C   UNL     1      -4.654  -4.440 -34.291  1.00  0.00     0.130 A 
HETATM   26  C   UNL     1      -4.508  -2.036 -33.519  1.00  0.00     0.117 A 
HETATM   27  C   UNL     1      -3.353  -4.950 -33.806  1.00  0.00     0.094 C 
HETATM   28  N   UNL     1      -5.574  -5.137 -34.927  1.00  0.00    -0.135 NA
ENDBRANCH   1  19
TORSDOF 7
ENDMDL
MODEL 5
REMARK VINA RESULT:      -8.7      1.925      2.424
REMARK  7 active torsions:
REMARK  status: ('A' for Active; 'I' for Inactive)
REMARK    1  A    between atoms: C_7  and  C_8 
REMARK       I    between atoms: C_8  and  N_9 
REMARK    2  A    between atoms: N_9  and  C_10 
REMARK    3  A    between atoms: C_10  and  C_11 
REMARK    4  A    between atoms: C_11  and  O_12 
REMARK    5  A    between atoms: C_11  and  C_13 
REMARK    6  A    between atoms: C_15  and  O_16 
REMARK    7  A    between atoms: O_16  and  C_17 
ROOT
HETATM    1  C   UNL     1      -3.662   2.919 -32.224  1.00  0.00     0.253 C 
HETATM    2  N   UNL     1      -5.013   2.832 -32.453  1.00  0.00    -0.354 N 
HETATM    3  O   UNL     1      -3.017   2.039 -31.666  1.00  0.00    -0.268 OA
HETATM    4  H   UNL     1      -5.534   3.625 -32.801  1.00  0.00     0.162 HD
ENDROOT
BRANCH   2   5
HETATM    5  C   UNL     1      -5.755   1.621 -32.115  1.00  0.00     0.159 C 
BRANCH   5   6
HETATM    6  C   UNL     1      -6.625   1.105 -33.279  1.00  0.00     0.169 C 
BRANCH   6   7
HETATM    7  O   UNL     1      -6.518   2.012 -34.385  1.00  0.00    -0.389 OA
HETATM    8  H   UNL     1      -7.096   2.761 -34.160  1.00  0.00     0.210 HD
ENDBRANCH   6   7
BRANCH   6   9
HETATM    9  C   UNL     1      -6.198  -0.283 -33.707  1.00  0.00    -0.025 A 
HETATM   10  C   UNL     1      -5.029  -0.884 -33.206  1.00  0.00     0.046 A 
HETATM   11  C   UNL     1      -4.664  -2.173 -33.601  1.00  0.00     0.075 A 
HETATM   12  C   UNL     1      -5.492  -2.884 -34.471  1.00  0.00     0.037 A 
HETATM   13  C   UNL     1      -6.659  -2.306 -34.970  1.00  0.00     0.003 A 
HETATM   14  C   UNL     1      -7.009  -1.011 -34.592  1.00  0.00     0.010 A 
BRANCH  11  15
HETATM   15  O   UNL     1      -3.551  -2.850 -33.187  1.00  0.00    -0.290 OA
BRANCH  15  16
HETATM   16  C   UNL     1      -3.150  -2.624 -31.846  1.00  0.00     0.505 C 
HETATM   17  F   UNL     1      -2.577  -3.753 -31.359  1.00  0.00    -0.184 F 
HETATM   18  F   UNL     1      -2.175  -1.678 -31.872  1.00  0.00    -0.184 F 
ENDBRANCH  15  16
ENDBRANCH  11  15
ENDBRANCH   6   9
ENDBRANCH   5   6
ENDBRANCH   2   5
BRANCH   1  19
HETATM   19  C   UNL     1      -3.024   4.206 -32.635  1.00  0.00     0.048 A 
HETATM   20  C   UNL     1      -2.343   4.293 -33.928  1.00  0.00     0.022 A 
HETATM   21  C   UNL     1      -1.783   5.441 -34.358  1.00  0.00     0.054 A 
HETATM   22  C   UNL     1      -1.864   6.603 -33.547  1.00  0.00     0.157 A 
HETATM   23  N   UNL     1      -2.540   6.502 -32.341  1.00  0.00    -0.291 N 
HETATM   24  N   UNL     1      -1.418   7.830 -33.701  1.00  0.00    -0.130 NA
HETATM   25  C   UNL     1      -2.480   7.766 -31.793  1.00  0.00     0.130 A 
HETATM   26  C   UNL     1      -3.120   5.320 -31.880  1.00  0.00     0.117 A 
HETATM   27  C   UNL     1      -3.078   8.146 -30.494  1.00  0.00     0.094 C 
HETATM   28  N   UNL     1      -1.804   8.557 -32.600  1.00  0.00    -0.135 NA
ENDBRANCH   1  19
TORSDOF 7
ENDMDL
MODEL 6
REMARK VINA RESULT:      -8.6      1.491      2.045
REMARK  7 active torsions:
REMARK  status: ('A' for Active; 'I' for Inactive)
REMARK    1  A    between atoms: C_7  and  C_8 
REMARK       I    between atoms: C_8  and  N_9 
REMARK    2  A    between atoms: N_9  and  C_10 
REMARK    3  A    between atoms: C_10  and  C_11 
REMARK    4  A    between atoms: C_11  and  O_12 
REMARK    5  A    between atoms: C_11  and  C_13 
REMARK    6  A    between atoms: C_15  and  O_16 
REMARK    7  A    between atoms: O_16  and  C_17 
ROOT
HETATM    1  C   UNL     1      -3.689   2.512 -31.522  1.00  0.00     0.253 C 
HETATM    2  N   UNL     1      -4.970   2.475 -31.030  1.00  0.00    -0.354 N 
HETATM    3  O   UNL     1      -2.863   1.631 -31.312  1.00  0.00    -0.268 OA
HETATM    4  H   UNL     1      -5.583   3.274 -31.117  1.00  0.00     0.162 HD
ENDROOT
BRANCH   2   5
HETATM    5  C   UNL     1      -5.457   1.318 -30.287  1.00  0.00     0.159 C 
BRANCH   5   6
HETATM    6  C   UNL     1      -6.815   0.800 -30.800  1.00  0.00     0.169 C 
BRANCH   6   7
HETATM    7  O   UNL     1      -7.794   1.840 -30.671  1.00  0.00    -0.389 OA
HETATM    8  H   UNL     1      -8.496   1.466 -30.112  1.00  0.00     0.210 HD
ENDBRANCH   6   7
BRANCH   6   9
HETATM    9  C   UNL     1      -6.721   0.357 -32.245  1.00  0.00    -0.025 A 
HETATM   10  C   UNL     1      -6.134  -0.870 -32.605  1.00  0.00     0.046 A 
HETATM   11  C   UNL     1      -6.075  -1.267 -33.943  1.00  0.00     0.075 A 
HETATM   12  C   UNL     1      -6.640  -0.453 -34.926  1.00  0.00     0.037 A 
HETATM   13  C   UNL     1      -7.233   0.762 -34.585  1.00  0.00     0.003 A 
HETATM   14  C   UNL     1      -7.271   1.166 -33.252  1.00  0.00     0.010 A 
BRANCH  11  15
HETATM   15  O   UNL     1      -5.523  -2.428 -34.407  1.00  0.00    -0.290 OA
BRANCH  15  16
HETATM   16  C   UNL     1      -6.432  -3.377 -34.941  1.00  0.00     0.505 C 
HETATM   17  F   UNL     1      -5.826  -4.589 -34.996  1.00  0.00    -0.184 F 
HETATM   18  F   UNL     1      -7.454  -3.498 -34.055  1.00  0.00    -0.184 F 
ENDBRANCH  15  16
ENDBRANCH  11  15
ENDBRANCH   6   9
ENDBRANCH   5   6
ENDBRANCH   2   5
BRANCH   1  19
HETATM   19  C   UNL     1      -3.329   3.747 -32.281  1.00  0.00     0.048 A 
HETATM   20  C   UNL     1      -4.179   4.188 -33.388  1.00  0.00     0.022 A 
HETATM   21  C   UNL     1      -3.915   5.314 -34.079  1.00  0.00     0.054 A 
HETATM   22  C   UNL     1      -2.791   6.105 -33.723  1.00  0.00     0.157 A 
HETATM   23  N   UNL     1      -2.019   5.681 -32.652  1.00  0.00    -0.291 N 
HETATM   24  N   UNL     1      -2.297   7.221 -34.208  1.00  0.00    -0.130 NA
HETATM   25  C   UNL     1      -1.035   6.638 -32.522  1.00  0.00     0.130 A 
HETATM   26  C   UNL     1      -2.277   4.515 -31.929  1.00  0.00     0.117 A 
HETATM   27  C   UNL     1       0.031   6.612 -31.496  1.00  0.00     0.094 C 
HETATM   28  N   UNL     1      -1.195   7.554 -33.455  1.00  0.00    -0.135 NA
ENDBRANCH   1  19
TORSDOF 7
ENDMDL
MODEL 7
REMARK VINA RESULT:      -8.3      4.872      9.205
REMARK  7 active torsions:
REMARK  status: ('A' for Active; 'I' for Inactive)
REMARK    1  A    between atoms: C_7  and  C_8 
REMARK       I    between atoms: C_8  and  N_9 
REMARK    2  A    between atoms: N_9  and  C_10 
REMARK    3  A    between atoms: C_10  and  C_11 
REMARK    4  A    between atoms: C_11  and  O_12 
REMARK    5  A    between atoms: C_11  and  C_13 
REMARK    6  A    between atoms: C_15  and  O_16 
REMARK    7  A    between atoms: O_16  and  C_17 
ROOT
HETATM    1  C   UNL     1      -5.757   0.518 -33.345  1.00  0.00     0.253 C 
HETATM    2  N   UNL     1      -5.064   1.506 -32.690  1.00  0.00    -0.354 N 
HETATM    3  O   UNL     1      -6.860   0.691 -33.849  1.00  0.00    -0.268 OA
HETATM    4  H   UNL     1      -4.217   1.297 -32.180  1.00  0.00     0.162 HD
ENDROOT
BRANCH   2   5
HETATM    5  C   UNL     1      -5.577   2.872 -32.634  1.00  0.00     0.159 C 
BRANCH   5   6
HETATM    6  C   UNL     1      -4.803   3.765 -31.644  1.00  0.00     0.169 C 
BRANCH   6   7
HETATM    7  O   UNL     1      -4.459   2.994 -30.485  1.00  0.00    -0.389 OA
HETATM    8  H   UNL     1      -4.660   3.567 -29.726  1.00  0.00     0.210 HD
ENDBRANCH   6   7
BRANCH   6   9
HETATM    9  C   UNL     1      -3.549   4.328 -32.280  1.00  0.00    -0.025 A 
HETATM   10  C   UNL     1      -2.339   4.424 -31.569  1.00  0.00     0.046 A 
HETATM   11  C   UNL     1      -1.190   4.929 -32.181  1.00  0.00     0.075 A 
HETATM   12  C   UNL     1      -1.237   5.305 -33.525  1.00  0.00     0.037 A 
HETATM   13  C   UNL     1      -2.427   5.208 -34.246  1.00  0.00     0.003 A 
HETATM   14  C   UNL     1      -3.577   4.725 -33.626  1.00  0.00     0.010 A 
BRANCH  11  15
HETATM   15  O   UNL     1       0.033   5.076 -31.588  1.00  0.00    -0.290 OA
BRANCH  15  16
HETATM   16  C   UNL     1       0.223   6.269 -30.846  1.00  0.00     0.505 C 
HETATM   17  F   UNL     1       0.757   5.960 -29.638  1.00  0.00    -0.184 F 
HETATM   18  F   UNL     1       1.157   7.006 -31.502  1.00  0.00    -0.184 F 
ENDBRANCH  15  16
ENDBRANCH  11  15
ENDBRANCH   6   9
ENDBRANCH   5   6
ENDBRANCH   2   5
BRANCH   1  19
HETATM   19  C   UNL     1      -5.108  -0.828 -33.343  1.00  0.00     0.048 A 
HETATM   20  C   UNL     1      -3.947  -1.069 -32.485  1.00  0.00     0.022 A 
HETATM   21  C   UNL     1      -3.350  -2.275 -32.422  1.00  0.00     0.054 A 
HETATM   22  C   UNL     1      -3.863  -3.349 -33.196  1.00  0.00     0.157 A 
HETATM   23  N   UNL     1      -4.981  -3.102 -33.978  1.00  0.00    -0.291 N 
HETATM   24  N   UNL     1      -3.494  -4.602 -33.338  1.00  0.00    -0.130 NA
HETATM   25  C   UNL     1      -5.264  -4.308 -34.584  1.00  0.00     0.130 A 
HETATM   26  C   UNL     1      -5.608  -1.858 -34.057  1.00  0.00     0.117 A 
HETATM   27  C   UNL     1      -6.390  -4.535 -35.517  1.00  0.00     0.094 C 
HETATM   28  N   UNL     1      -4.372  -5.202 -34.209  1.00  0.00    -0.135 NA
ENDBRANCH   1  19
TORSDOF 7
ENDMDL
MODEL 8
REMARK VINA RESULT:      -8.3      4.551      5.819
REMARK  7 active torsions:
REMARK  status: ('A' for Active; 'I' for Inactive)
REMARK    1  A    between atoms: C_7  and  C_8 
REMARK       I    between atoms: C_8  and  N_9 
REMARK    2  A    between atoms: N_9  and  C_10 
REMARK    3  A    between atoms: C_10  and  C_11 
REMARK    4  A    between atoms: C_11  and  O_12 
REMARK    5  A    between atoms: C_11  and  C_13 
REMARK    6  A    between atoms: C_15  and  O_16 
REMARK    7  A    between atoms: O_16  and  C_17 
ROOT
HETATM    1  C   UNL     1      -6.075   1.302 -32.118  1.00  0.00     0.253 C 
HETATM    2  N   UNL     1      -5.821   0.215 -31.319  1.00  0.00    -0.354 N 
HETATM    3  O   UNL     1      -5.270   2.210 -32.293  1.00  0.00    -0.268 OA
HETATM    4  H   UNL     1      -6.550  -0.450 -31.099  1.00  0.00     0.162 HD
ENDROOT
BRANCH   2   5
HETATM    5  C   UNL     1      -4.517   0.033 -30.690  1.00  0.00     0.159 C 
BRANCH   5   6
HETATM    6  C   UNL     1      -3.398  -0.279 -31.703  1.00  0.00     0.169 C 
BRANCH   6   7
HETATM    7  O   UNL     1      -2.136  -0.293 -31.022  1.00  0.00    -0.389 OA
HETATM    8  H   UNL     1      -1.895  -1.232 -30.943  1.00  0.00     0.210 HD
ENDBRANCH   6   7
BRANCH   6   9
HETATM    9  C   UNL     1      -3.632  -1.612 -32.383  1.00  0.00    -0.025 A 
HETATM   10  C   UNL     1      -4.414  -1.721 -33.547  1.00  0.00     0.046 A 
HETATM   11  C   UNL     1      -4.601  -2.958 -34.168  1.00  0.00     0.075 A 
HETATM   12  C   UNL     1      -3.971  -4.089 -33.646  1.00  0.00     0.037 A 
HETATM   13  C   UNL     1      -3.185  -3.997 -32.498  1.00  0.00     0.003 A 
HETATM   14  C   UNL     1      -3.019  -2.765 -31.868  1.00  0.00     0.010 A 
BRANCH  11  15
HETATM   15  O   UNL     1      -5.345  -3.182 -35.293  1.00  0.00    -0.290 OA
BRANCH  15  16
HETATM   16  C   UNL     1      -6.694  -3.562 -35.079  1.00  0.00     0.505 C 
HETATM   17  F   UNL     1      -6.722  -4.750 -34.424  1.00  0.00    -0.184 F 
HETATM   18  F   UNL     1      -7.241  -2.647 -34.238  1.00  0.00    -0.184 F 
ENDBRANCH  15  16
ENDBRANCH  11  15
ENDBRANCH   6   9
ENDBRANCH   5   6
ENDBRANCH   2   5
BRANCH   1  19
HETATM   19  C   UNL     1      -7.443   1.353 -32.716  1.00  0.00     0.048 A 
HETATM   20  C   UNL     1      -8.301   0.169 -32.657  1.00  0.00     0.022 A 
HETATM   21  C   UNL     1      -9.555   0.177 -33.150  1.00  0.00     0.054 A 
HETATM   22  C   UNL     1     -10.068   1.365 -33.733  1.00  0.00     0.157 A 
HETATM   23  N   UNL     1      -9.246   2.482 -33.750  1.00  0.00    -0.291 N 
HETATM   24  N   UNL     1     -11.223   1.661 -34.286  1.00  0.00    -0.130 NA
HETATM   25  C   UNL     1     -10.003   3.472 -34.339  1.00  0.00     0.130 A 
HETATM   26  C   UNL     1      -7.944   2.487 -33.247  1.00  0.00     0.117 A 
HETATM   27  C   UNL     1      -9.539   4.858 -34.569  1.00  0.00     0.094 C 
HETATM   28  N   UNL     1     -11.180   2.981 -34.667  1.00  0.00    -0.135 NA
ENDBRANCH   1  19
TORSDOF 7
ENDMDL
MODEL 9
REMARK VINA RESULT:      -8.1      2.677      3.316
REMARK  7 active torsions:
REMARK  status: ('A' for Active; 'I' for Inactive)
REMARK    1  A    between atoms: C_7  and  C_8 
REMARK       I    between atoms: C_8  and  N_9 
REMARK    2  A    between atoms: N_9  and  C_10 
REMARK    3  A    between atoms: C_10  and  C_11 
REMARK    4  A    between atoms: C_11  and  O_12 
REMARK    5  A    between atoms: C_11  and  C_13 
REMARK    6  A    between atoms: C_15  and  O_16 
REMARK    7  A    between atoms: O_16  and  C_17 
ROOT
HETATM    1  C   UNL     1      -6.120   3.680 -32.113  1.00  0.00     0.253 C 
HETATM    2  N   UNL     1      -7.022   2.888 -32.778  1.00  0.00    -0.354 N 
HETATM    3  O   UNL     1      -6.259   4.021 -30.944  1.00  0.00    -0.268 OA
HETATM    4  H   UNL     1      -6.940   2.730 -33.773  1.00  0.00     0.162 HD
ENDROOT
BRANCH   2   5
HETATM    5  C   UNL     1      -8.178   2.323 -32.089  1.00  0.00     0.159 C 
BRANCH   5   6
HETATM    6  C   UNL     1      -7.906   0.920 -31.510  1.00  0.00     0.169 C 
BRANCH   6   7
HETATM    7  O   UNL     1      -9.151   0.319 -31.128  1.00  0.00    -0.389 OA
HETATM    8  H   UNL     1      -8.910  -0.494 -30.653  1.00  0.00     0.210 HD
ENDBRANCH   6   7
BRANCH   6   9
HETATM    9  C   UNL     1      -7.197   0.040 -32.517  1.00  0.00    -0.025 A 
HETATM   10  C   UNL     1      -5.875  -0.398 -32.315  1.00  0.00     0.046 A 
HETATM   11  C   UNL     1      -5.246  -1.225 -33.248  1.00  0.00     0.075 A 
HETATM   12  C   UNL     1      -5.954  -1.650 -34.374  1.00  0.00     0.037 A 
HETATM   13  C   UNL     1      -7.267  -1.232 -34.585  1.00  0.00     0.003 A 
HETATM   14  C   UNL     1      -7.884  -0.389 -33.663  1.00  0.00     0.010 A 
BRANCH  11  15
HETATM   15  O   UNL     1      -3.969  -1.703 -33.160  1.00  0.00    -0.290 OA
BRANCH  15  16
HETATM   16  C   UNL     1      -3.402  -1.721 -31.860  1.00  0.00     0.505 C 
HETATM   17  F   UNL     1      -2.979  -2.979 -31.579  1.00  0.00    -0.184 F 
HETATM   18  F   UNL     1      -2.291  -0.941 -31.894  1.00  0.00    -0.184 F 
ENDBRANCH  15  16
ENDBRANCH  11  15
ENDBRANCH   6   9
ENDBRANCH   5   6
ENDBRANCH   2   5
BRANCH   1  19
HETATM   19  C   UNL     1      -4.973   4.174 -32.933  1.00  0.00     0.048 A 
HETATM   20  C   UNL     1      -5.181   4.493 -34.346  1.00  0.00     0.022 A 
HETATM   21  C   UNL     1      -4.187   4.975 -35.118  1.00  0.00     0.054 A 
HETATM   22  C   UNL     1      -2.905   5.193 -34.549  1.00  0.00     0.157 A 
HETATM   23  N   UNL     1      -2.742   4.911 -33.201  1.00  0.00    -0.291 N 
HETATM   24  N   UNL     1      -1.773   5.638 -35.046  1.00  0.00    -0.130 NA
HETATM   25  C   UNL     1      -1.431   5.237 -32.925  1.00  0.00     0.130 A 
HETATM   26  C   UNL     1      -3.760   4.408 -32.391  1.00  0.00     0.117 A 
HETATM   27  C   UNL     1      -0.796   5.108 -31.595  1.00  0.00     0.094 C 
HETATM   28  N   UNL     1      -0.849   5.663 -34.027  1.00  0.00    -0.135 NA
ENDBRANCH   1  19
TORSDOF 7
ENDMDL
MODEL 10
REMARK VINA RESULT:      -7.9      2.196      2.783
REMARK  7 active torsions:
REMARK  status: ('A' for Active; 'I' for Inactive)
REMARK    1  A    between atoms: C_7  and  C_8 
REMARK       I    between atoms: C_8  and  N_9 
REMARK    2  A    between atoms: N_9  and  C_10 
REMARK    3  A    between atoms: C_10  and  C_11 
REMARK    4  A    between atoms: C_11  and  O_12 
REMARK    5  A    between atoms: C_11  and  C_13 
REMARK    6  A    between atoms: C_15  and  O_16 
REMARK    7  A    between atoms: O_16  and  C_17 
ROOT
HETATM    1  C   UNL     1      -2.652   4.129 -32.084  1.00  0.00     0.253 C 
HETATM    2  N   UNL     1      -3.267   3.143 -31.352  1.00  0.00    -0.354 N 
HETATM    3  O   UNL     1      -2.778   4.242 -33.297  1.00  0.00    -0.268 OA
HETATM    4  H   UNL     1      -3.043   3.003 -30.376  1.00  0.00     0.162 HD
ENDROOT
BRANCH   2   5
HETATM    5  C   UNL     1      -4.196   2.209 -31.981  1.00  0.00     0.159 C 
BRANCH   5   6
HETATM    6  C   UNL     1      -3.568   0.827 -32.252  1.00  0.00     0.169 C 
BRANCH   6   7
HETATM    7  O   UNL     1      -3.120   0.262 -31.012  1.00  0.00    -0.389 OA
HETATM    8  H   UNL     1      -3.168  -0.701 -31.135  1.00  0.00     0.210 HD
ENDBRANCH   6   7
BRANCH   6   9
HETATM    9  C   UNL     1      -4.561  -0.105 -32.914  1.00  0.00    -0.025 A 
HETATM   10  C   UNL     1      -4.144  -1.252 -33.614  1.00  0.00     0.046 A 
HETATM   11  C   UNL     1      -5.078  -2.108 -34.202  1.00  0.00     0.075 A 
HETATM   12  C   UNL     1      -6.441  -1.839 -34.056  1.00  0.00     0.037 A 
HETATM   13  C   UNL     1      -6.870  -0.712 -33.358  1.00  0.00     0.003 A 
HETATM   14  C   UNL     1      -5.935   0.153 -32.793  1.00  0.00     0.010 A 
BRANCH  11  15
HETATM   15  O   UNL     1      -4.789  -3.241 -34.910  1.00  0.00    -0.290 OA
BRANCH  15  16
HETATM   16  C   UNL     1      -5.573  -4.381 -34.602  1.00  0.00     0.505 C 
HETATM   17  F   UNL     1      -6.109  -4.874 -35.747  1.00  0.00    -0.184 F 
HETATM   18  F   UNL     1      -4.729  -5.335 -34.131  1.00  0.00    -0.184 F 
ENDBRANCH  15  16
ENDBRANCH  11  15
ENDBRANCH   6   9
ENDBRANCH   5   6
ENDBRANCH   2   5
BRANCH   1  19
HETATM   19  C   UNL     1      -1.743   5.028 -31.311  1.00  0.00     0.048 A 
HETATM   20  C   UNL     1      -0.310   5.032 -31.606  1.00  0.00     0.022 A 
HETATM   21  C   UNL     1       0.545   5.850 -30.961  1.00  0.00     0.054 A 
HETATM   22  C   UNL     1       0.046   6.743 -29.976  1.00  0.00     0.157 A 
HETATM   23  N   UNL     1      -1.320   6.741 -29.736  1.00  0.00    -0.291 N 
HETATM   24  N   UNL     1       0.628   7.631 -29.201  1.00  0.00    -0.130 NA
HETATM   25  C   UNL     1      -1.513   7.707 -28.772  1.00  0.00     0.130 A 
HETATM   26  C   UNL     1      -2.216   5.897 -30.393  1.00  0.00     0.117 A 
HETATM   27  C   UNL     1      -2.828   8.069 -28.198  1.00  0.00     0.094 C 
HETATM   28  N   UNL     1      -0.350   8.233 -28.445  1.00  0.00    -0.135 NA
ENDBRANCH   1  19
TORSDOF 7
ENDMDL
