MODEL 1
REMARK VINA RESULT:      -9.8      0.000      0.000
REMARK  6 active torsions:
REMARK  status: ('A' for Active; 'I' for Inactive)
REMARK    1  A    between atoms: O_2  and  C_3 
REMARK    2  A    between atoms: C_6  and  C_7 
REMARK    3  A    between atoms: C_11  and  C_12 
REMARK       I    between atoms: C_12  and  N_13 
REMARK    4  A    between atoms: N_13  and  N_14 
REMARK       I    between atoms: N_14  and  C_15 
REMARK    5  A    between atoms: C_15  and  C_16 
REMARK    6  A    between atoms: C_17  and  C_18 
ROOT
HETATM    1  C   UNL     1      -8.094   1.068 -34.374  1.00  0.00     0.288 C 
HETATM    2  N   UNL     1      -7.269   1.299 -33.292  1.00  0.00    -0.262 N 
HETATM    3  O   UNL     1      -7.714   0.451 -35.367  1.00  0.00    -0.264 OA
HETATM    4  H   UNL     1      -7.516   1.923 -32.528  1.00  0.00     0.190 HD
ENDROOT
BRANCH   1   5
HETATM    5  C   UNL     1      -9.427   1.591 -34.248  1.00  0.00     0.121 A 
HETATM    6  N   UNL     1      -9.800   2.769 -34.832  1.00  0.00    -0.272 N 
HETATM    7  N   UNL     1     -11.093   3.083 -34.661  1.00  0.00    -0.174 NA
HETATM    8  H   UNL     1      -9.212   3.391 -35.378  1.00  0.00     0.189 HD
HETATM    9  C   UNL     1     -11.588   2.084 -33.913  1.00  0.00     0.089 A 
HETATM   10  C   UNL     1     -10.570   1.133 -33.625  1.00  0.00     0.071 A 
BRANCH   9  11
HETATM   11  C   UNL     1     -13.000   2.032 -33.524  1.00  0.00    -0.005 A 
HETATM   12  C   UNL     1     -13.489   2.867 -32.510  1.00  0.00     0.016 A 
HETATM   13  C   UNL     1     -14.847   2.866 -32.166  1.00  0.00     0.037 A 
HETATM   14  C   UNL     1     -15.737   2.025 -32.831  1.00  0.00     0.068 A 
HETATM   15  C   UNL     1     -15.252   1.168 -33.822  1.00  0.00     0.037 A 
HETATM   16  C   UNL     1     -13.897   1.173 -34.171  1.00  0.00     0.016 A 
BRANCH  14  17
HETATM   17  O   UNL     1     -17.082   1.935 -32.605  1.00  0.00    -0.356 OA
HETATM   18  C   UNL     1     -17.642   2.889 -31.711  1.00  0.00     0.210 C 
ENDBRANCH  14  17
ENDBRANCH   9  11
ENDBRANCH   1   5
BRANCH   2  19
HETATM   19  N   UNL     1      -5.929   0.915 -33.361  1.00  0.00    -0.267 N 
HETATM   20  C   UNL     1      -5.493  -0.080 -32.516  1.00  0.00     0.240 C 
HETATM   21  O   UNL     1      -6.225  -0.658 -31.717  1.00  0.00    -0.271 OA
HETATM   22  H   UNL     1      -5.329   1.406 -34.020  1.00  0.00     0.190 HD
BRANCH  20  23
HETATM   23  C   UNL     1      -4.048  -0.402 -32.645  1.00  0.00     0.089 A 
HETATM   24  C   UNL     1      -3.566  -1.664 -33.340  1.00  0.00     0.036 A 
HETATM   25  C   UNL     1      -3.448  -1.528 -31.842  1.00  0.00     0.025 A 
BRANCH  24  26
HETATM   26  C   UNL     1      -4.534  -2.648 -33.956  1.00  0.00    -0.015 A 
HETATM   27  C   UNL     1      -4.290  -4.030 -33.923  1.00  0.00     0.123 A 
HETATM   28  F   UNL     1      -3.163  -4.483 -33.348  1.00  0.00    -0.206 F 
HETATM   29  C   UNL     1      -5.179  -4.959 -34.462  1.00  0.00     0.043 A 
HETATM   30  C   UNL     1      -6.361  -4.519 -35.051  1.00  0.00     0.003 A 
HETATM   31  C   UNL     1      -6.643  -3.155 -35.092  1.00  0.00     0.001 A 
HETATM   32  C   UNL     1      -5.742  -2.234 -34.546  1.00  0.00     0.011 A 
ENDBRANCH  24  26
ENDBRANCH  20  23
ENDBRANCH   2  19
TORSDOF 6
ENDMDL
MODEL 2
REMARK VINA RESULT:      -9.5      6.353      9.840
REMARK  6 active torsions:
REMARK  status: ('A' for Active; 'I' for Inactive)
REMARK    1  A    between atoms: O_2  and  C_3 
REMARK    2  A    between atoms: C_6  and  C_7 
REMARK    3  A    between atoms: C_11  and  C_12 
REMARK       I    between atoms: C_12  and  N_13 
REMARK    4  A    between atoms: N_13  and  N_14 
REMARK       I    between atoms: N_14  and  C_15 
REMARK    5  A    between atoms: C_15  and  C_16 
REMARK    6  A    between atoms: C_17  and  C_18 
ROOT
HETATM    1  C   UNL     1      -5.793   3.746 -29.883  1.00  0.00     0.288 C 
HETATM    2  N   UNL     1      -4.625   4.424 -30.164  1.00  0.00    -0.262 N 
HETATM    3  O   UNL     1      -6.712   4.260 -29.247  1.00  0.00    -0.264 OA
HETATM    4  H   UNL     1      -3.804   3.976 -30.563  1.00  0.00     0.190 HD
ENDROOT
BRANCH   1   5
HETATM    5  C   UNL     1      -5.860   2.405 -30.396  1.00  0.00     0.121 A 
HETATM    6  N   UNL     1      -6.378   1.375 -29.663  1.00  0.00    -0.272 N 
HETATM    7  N   UNL     1      -6.414   0.201 -30.311  1.00  0.00    -0.174 NA
HETATM    8  H   UNL     1      -6.740   1.424 -28.715  1.00  0.00     0.189 HD
HETATM    9  C   UNL     1      -5.876   0.461 -31.513  1.00  0.00     0.089 A 
HETATM   10  C   UNL     1      -5.506   1.832 -31.601  1.00  0.00     0.071 A 
BRANCH   9  11
HETATM   11  C   UNL     1      -5.759  -0.567 -32.550  1.00  0.00    -0.005 A 
HETATM   12  C   UNL     1      -4.536  -1.218 -32.771  1.00  0.00     0.016 A 
HETATM   13  C   UNL     1      -4.424  -2.241 -33.722  1.00  0.00     0.037 A 
HETATM   14  C   UNL     1      -5.535  -2.626 -34.470  1.00  0.00     0.068 A 
HETATM   15  C   UNL     1      -6.749  -1.962 -34.276  1.00  0.00     0.037 A 
HETATM   16  C   UNL     1      -6.863  -0.945 -33.323  1.00  0.00     0.016 A 
BRANCH  14  17
HETATM   17  O   UNL     1      -5.566  -3.613 -35.414  1.00  0.00    -0.356 OA
HETATM   18  C   UNL     1      -6.631  -4.551 -35.321  1.00  0.00     0.210 C 
ENDBRANCH  14  17
ENDBRANCH   9  11
ENDBRANCH   1   5
BRANCH   2  19
HETATM   19  N   UNL     1      -4.427   5.697 -29.626  1.00  0.00    -0.267 N 
HETATM   20  C   UNL     1      -4.604   6.785 -30.448  1.00  0.00     0.240 C 
HETATM   21  O   UNL     1      -4.942   6.697 -31.626  1.00  0.00    -0.271 OA
HETATM   22  H   UNL     1      -4.140   5.758 -28.652  1.00  0.00     0.190 HD
BRANCH  20  23
HETATM   23  C   UNL     1      -4.347   8.095 -29.793  1.00  0.00     0.089 A 
HETATM   24  C   UNL     1      -2.941   8.649 -29.634  1.00  0.00     0.036 A 
HETATM   25  C   UNL     1      -3.702   8.147 -28.431  1.00  0.00     0.025 A 
BRANCH  24  26
HETATM   26  C   UNL     1      -1.732   7.906 -30.155  1.00  0.00    -0.015 A 
HETATM   27  C   UNL     1      -1.471   7.813 -31.531  1.00  0.00     0.123 A 
HETATM   28  F   UNL     1      -2.324   8.380 -32.400  1.00  0.00    -0.206 F 
HETATM   29  C   UNL     1      -0.350   7.156 -32.036  1.00  0.00     0.043 A 
HETATM   30  C   UNL     1       0.558   6.571 -31.157  1.00  0.00     0.003 A 
HETATM   31  C   UNL     1       0.338   6.654 -29.784  1.00  0.00     0.001 A 
HETATM   32  C   UNL     1      -0.791   7.318 -29.292  1.00  0.00     0.011 A 
ENDBRANCH  24  26
ENDBRANCH  20  23
ENDBRANCH   2  19
TORSDOF 6
ENDMDL
MODEL 3
REMARK VINA RESULT:      -9.4      6.383      9.832
REMARK  6 active torsions:
REMARK  status: ('A' for Active; 'I' for Inactive)
REMARK    1  A    between atoms: O_2  and  C_3 
REMARK    2  A    between atoms: C_6  and  C_7 
REMARK    3  A    between atoms: C_11  and  C_12 
REMARK       I    between atoms: C_12  and  N_13 
REMARK    4  A    between atoms: N_13  and  N_14 
REMARK       I    between atoms: N_14  and  C_15 
REMARK    5  A    between atoms: C_15  and  C_16 
REMARK    6  A    between atoms: C_17  and  C_18 
ROOT
HETATM    1  C   UNL     1      -3.385   3.796 -31.246  1.00  0.00     0.288 C 
HETATM    2  N   UNL     1      -4.208   4.691 -30.594  1.00  0.00    -0.262 N 
HETATM    3  O   UNL     1      -2.161   3.909 -31.242  1.00  0.00    -0.264 OA
HETATM    4  H   UNL     1      -5.219   4.697 -30.701  1.00  0.00     0.190 HD
ENDROOT
BRANCH   1   5
HETATM    5  C   UNL     1      -4.063   2.721 -31.918  1.00  0.00     0.121 A 
HETATM    6  N   UNL     1      -5.256   2.906 -32.558  1.00  0.00    -0.272 N 
HETATM    7  N   UNL     1      -5.723   1.812 -33.178  1.00  0.00    -0.174 NA
HETATM    8  H   UNL     1      -5.787   3.769 -32.619  1.00  0.00     0.189 HD
HETATM    9  C   UNL     1      -4.814   0.859 -32.917  1.00  0.00     0.089 A 
HETATM   10  C   UNL     1      -3.761   1.389 -32.119  1.00  0.00     0.071 A 
BRANCH   9  11
HETATM   11  C   UNL     1      -4.938  -0.500 -33.449  1.00  0.00    -0.005 A 
HETATM   12  C   UNL     1      -3.932  -1.449 -33.218  1.00  0.00     0.016 A 
HETATM   13  C   UNL     1      -4.063  -2.767 -33.674  1.00  0.00     0.037 A 
HETATM   14  C   UNL     1      -5.205  -3.155 -34.373  1.00  0.00     0.068 A 
HETATM   15  C   UNL     1      -6.199  -2.208 -34.632  1.00  0.00     0.037 A 
HETATM   16  C   UNL     1      -6.071  -0.893 -34.172  1.00  0.00     0.016 A 
BRANCH  14  17
HETATM   17  O   UNL     1      -5.465  -4.406 -34.858  1.00  0.00    -0.356 OA
HETATM   18  C   UNL     1      -6.696  -4.578 -35.550  1.00  0.00     0.210 C 
ENDBRANCH  14  17
ENDBRANCH   9  11
ENDBRANCH   1   5
BRANCH   2  19
HETATM   19  N   UNL     1      -3.650   5.822 -29.996  1.00  0.00    -0.267 N 
HETATM   20  C   UNL     1      -3.489   6.952 -30.763  1.00  0.00     0.240 C 
HETATM   21  O   UNL     1      -3.825   7.023 -31.942  1.00  0.00    -0.271 OA
HETATM   22  H   UNL     1      -3.367   5.749 -29.021  1.00  0.00     0.190 HD
BRANCH  20  23
HETATM   23  C   UNL     1      -2.864   8.094 -30.046  1.00  0.00     0.089 A 
HETATM   24  C   UNL     1      -1.396   8.088 -29.652  1.00  0.00     0.036 A 
HETATM   25  C   UNL     1      -2.468   7.955 -28.598  1.00  0.00     0.025 A 
BRANCH  24  26
HETATM   26  C   UNL     1      -0.490   6.926 -29.990  1.00  0.00    -0.015 A 
HETATM   27  C   UNL     1      -0.034   6.714 -31.301  1.00  0.00     0.123 A 
HETATM   28  F   UNL     1      -0.428   7.551 -32.275  1.00  0.00    -0.206 F 
HETATM   29  C   UNL     1       0.822   5.665 -31.633  1.00  0.00     0.043 A 
HETATM   30  C   UNL     1       1.257   4.791 -30.641  1.00  0.00     0.003 A 
HETATM   31  C   UNL     1       0.835   4.977 -29.327  1.00  0.00     0.001 A 
HETATM   32  C   UNL     1      -0.024   6.035 -29.007  1.00  0.00     0.011 A 
ENDBRANCH  24  26
ENDBRANCH  20  23
ENDBRANCH   2  19
TORSDOF 6
ENDMDL
MODEL 4
REMARK VINA RESULT:      -8.9      6.256      9.761
REMARK  6 active torsions:
REMARK  status: ('A' for Active; 'I' for Inactive)
REMARK    1  A    between atoms: O_2  and  C_3 
REMARK    2  A    between atoms: C_6  and  C_7 
REMARK    3  A    between atoms: C_11  and  C_12 
REMARK       I    between atoms: C_12  and  N_13 
REMARK    4  A    between atoms: N_13  and  N_14 
REMARK       I    between atoms: N_14  and  C_15 
REMARK    5  A    between atoms: C_15  and  C_16 
REMARK    6  A    between atoms: C_17  and  C_18 
ROOT
HETATM    1  C   UNL     1      -6.032   4.553 -33.290  1.00  0.00     0.288 C 
HETATM    2  N   UNL     1      -5.293   5.034 -32.229  1.00  0.00    -0.262 N 
HETATM    3  O   UNL     1      -6.441   5.286 -34.189  1.00  0.00    -0.264 OA
HETATM    4  H   UNL     1      -5.067   4.475 -31.411  1.00  0.00     0.190 HD
ENDROOT
BRANCH   1   5
HETATM    5  C   UNL     1      -6.278   3.137 -33.272  1.00  0.00     0.121 A 
HETATM    6  N   UNL     1      -7.466   2.614 -32.845  1.00  0.00    -0.272 N 
HETATM    7  N   UNL     1      -7.547   1.279 -32.944  1.00  0.00    -0.174 NA
HETATM    8  H   UNL     1      -8.267   3.130 -32.493  1.00  0.00     0.189 HD
HETATM    9  C   UNL     1      -6.355   0.902 -33.433  1.00  0.00     0.089 A 
HETATM   10  C   UNL     1      -5.526   2.039 -33.642  1.00  0.00     0.071 A 
BRANCH   9  11
HETATM   11  C   UNL     1      -6.042  -0.500 -33.722  1.00  0.00    -0.005 A 
HETATM   12  C   UNL     1      -7.014  -1.345 -34.276  1.00  0.00     0.016 A 
HETATM   13  C   UNL     1      -6.713  -2.673 -34.608  1.00  0.00     0.037 A 
HETATM   14  C   UNL     1      -5.432  -3.176 -34.385  1.00  0.00     0.068 A 
HETATM   15  C   UNL     1      -4.467  -2.348 -33.806  1.00  0.00     0.037 A 
HETATM   16  C   UNL     1      -4.766  -1.021 -33.480  1.00  0.00     0.016 A 
BRANCH  14  17
HETATM   17  O   UNL     1      -5.003  -4.440 -34.675  1.00  0.00    -0.356 OA
HETATM   18  C   UNL     1      -3.861  -4.904 -33.965  1.00  0.00     0.210 C 
ENDBRANCH  14  17
ENDBRANCH   9  11
ENDBRANCH   1   5
BRANCH   2  19
HETATM   19  N   UNL     1      -5.086   6.409 -32.109  1.00  0.00    -0.267 N 
HETATM   20  C   UNL     1      -4.741   6.909 -30.874  1.00  0.00     0.240 C 
HETATM   21  O   UNL     1      -4.591   6.208 -29.877  1.00  0.00    -0.271 OA
HETATM   22  H   UNL     1      -5.221   6.982 -32.939  1.00  0.00     0.190 HD
BRANCH  20  23
HETATM   23  C   UNL     1      -4.566   8.385 -30.839  1.00  0.00     0.089 A 
HETATM   24  C   UNL     1      -3.191   9.030 -30.838  1.00  0.00     0.036 A 
HETATM   25  C   UNL     1      -4.045   9.057 -29.595  1.00  0.00     0.025 A 
BRANCH  24  26
HETATM   26  C   UNL     1      -1.927   8.202 -30.895  1.00  0.00    -0.015 A 
HETATM   27  C   UNL     1      -1.419   7.728 -32.116  1.00  0.00     0.123 A 
HETATM   28  F   UNL     1      -2.082   8.003 -33.251  1.00  0.00    -0.206 F 
HETATM   29  C   UNL     1      -0.243   6.985 -32.197  1.00  0.00     0.043 A 
HETATM   30  C   UNL     1       0.471   6.699 -31.037  1.00  0.00     0.003 A 
HETATM   31  C   UNL     1       0.004   7.162 -29.809  1.00  0.00     0.001 A 
HETATM   32  C   UNL     1      -1.177   7.909 -29.742  1.00  0.00     0.011 A 
ENDBRANCH  24  26
ENDBRANCH  20  23
ENDBRANCH   2  19
TORSDOF 6
ENDMDL
MODEL 5
REMARK VINA RESULT:      -8.8      6.579      9.962
REMARK  6 active torsions:
REMARK  status: ('A' for Active; 'I' for Inactive)
REMARK    1  A    between atoms: O_2  and  C_3 
REMARK    2  A    between atoms: C_6  and  C_7 
REMARK    3  A    between atoms: C_11  and  C_12 
REMARK       I    between atoms: C_12  and  N_13 
REMARK    4  A    between atoms: N_13  and  N_14 
REMARK       I    between atoms: N_14  and  C_15 
REMARK    5  A    between atoms: C_15  and  C_16 
REMARK    6  A    between atoms: C_17  and  C_18 
ROOT
HETATM    1  C   UNL     1      -5.335   4.653 -31.619  1.00  0.00     0.288 C 
HETATM    2  N   UNL     1      -4.113   5.129 -32.049  1.00  0.00    -0.262 N 
HETATM    3  O   UNL     1      -6.205   5.396 -31.169  1.00  0.00    -0.264 OA
HETATM    4  H   UNL     1      -3.334   4.523 -32.291  1.00  0.00     0.190 HD
ENDROOT
BRANCH   1   5
HETATM    5  C   UNL     1      -5.516   3.233 -31.748  1.00  0.00     0.121 A 
HETATM    6  N   UNL     1      -6.115   2.490 -30.770  1.00  0.00    -0.272 N 
HETATM    7  N   UNL     1      -6.253   1.190 -31.074  1.00  0.00    -0.174 NA
HETATM    8  H   UNL     1      -6.468   2.826 -29.879  1.00  0.00     0.189 HD
HETATM    9  C   UNL     1      -5.702   1.066 -32.291  1.00  0.00     0.089 A 
HETATM   10  C   UNL     1      -5.218   2.325 -32.744  1.00  0.00     0.071 A 
BRANCH   9  11
HETATM   11  C   UNL     1      -5.677  -0.213 -33.006  1.00  0.00    -0.005 A 
HETATM   12  C   UNL     1      -6.861  -0.767 -33.513  1.00  0.00     0.016 A 
HETATM   13  C   UNL     1      -6.843  -1.962 -34.245  1.00  0.00     0.037 A 
HETATM   14  C   UNL     1      -5.638  -2.623 -34.477  1.00  0.00     0.068 A 
HETATM   15  C   UNL     1      -4.459  -2.092 -33.950  1.00  0.00     0.037 A 
HETATM   16  C   UNL     1      -4.474  -0.896 -33.223  1.00  0.00     0.016 A 
BRANCH  14  17
HETATM   17  O   UNL     1      -5.479  -3.781 -35.184  1.00  0.00    -0.356 OA
HETATM   18  C   UNL     1      -6.641  -4.582 -35.365  1.00  0.00     0.210 C 
ENDBRANCH  14  17
ENDBRANCH   9  11
ENDBRANCH   1   5
BRANCH   2  19
HETATM   19  N   UNL     1      -3.806   6.480 -31.875  1.00  0.00    -0.267 N 
HETATM   20  C   UNL     1      -2.504   6.881 -32.067  1.00  0.00     0.240 C 
HETATM   21  O   UNL     1      -1.602   6.117 -32.398  1.00  0.00    -0.271 OA
HETATM   22  H   UNL     1      -4.559   7.103 -31.592  1.00  0.00     0.190 HD
BRANCH  20  23
HETATM   23  C   UNL     1      -2.271   8.331 -31.834  1.00  0.00     0.089 A 
HETATM   24  C   UNL     1      -1.610   8.843 -30.565  1.00  0.00     0.036 A 
HETATM   25  C   UNL     1      -3.083   9.073 -30.803  1.00  0.00     0.025 A 
BRANCH  24  26
HETATM   26  C   UNL     1      -1.136   7.901 -29.483  1.00  0.00    -0.015 A 
HETATM   27  C   UNL     1       0.073   7.198 -29.605  1.00  0.00     0.123 A 
HETATM   28  F   UNL     1       0.811   7.354 -30.717  1.00  0.00    -0.206 F 
HETATM   29  C   UNL     1       0.545   6.343 -28.610  1.00  0.00     0.043 A 
HETATM   30  C   UNL     1      -0.193   6.174 -27.443  1.00  0.00     0.003 A 
HETATM   31  C   UNL     1      -1.392   6.864 -27.280  1.00  0.00     0.001 A 
HETATM   32  C   UNL     1      -1.853   7.720 -28.286  1.00  0.00     0.011 A 
ENDBRANCH  24  26
ENDBRANCH  20  23
ENDBRANCH   2  19
TORSDOF 6
ENDMDL
MODEL 6
REMARK VINA RESULT:      -8.6      5.899      9.935
REMARK  6 active torsions:
REMARK  status: ('A' for Active; 'I' for Inactive)
REMARK    1  A    between atoms: O_2  and  C_3 
REMARK    2  A    between atoms: C_6  and  C_7 
REMARK    3  A    between atoms: C_11  and  C_12 
REMARK       I    between atoms: C_12  and  N_13 
REMARK    4  A    between atoms: N_13  and  N_14 
REMARK       I    between atoms: N_14  and  C_15 
REMARK    5  A    between atoms: C_15  and  C_16 
REMARK    6  A    between atoms: C_17  and  C_18 
ROOT
HETATM    1  C   UNL     1      -5.690   4.440 -33.883  1.00  0.00     0.288 C 
HETATM    2  N   UNL     1      -6.861   4.995 -33.412  1.00  0.00    -0.262 N 
HETATM    3  O   UNL     1      -5.681   3.450 -34.612  1.00  0.00    -0.264 OA
HETATM    4  H   UNL     1      -6.886   5.722 -32.702  1.00  0.00     0.190 HD
ENDROOT
BRANCH   1   5
HETATM    5  C   UNL     1      -4.487   5.110 -33.470  1.00  0.00     0.121 A 
HETATM    6  N   UNL     1      -3.720   5.825 -34.345  1.00  0.00    -0.272 N 
HETATM    7  N   UNL     1      -2.662   6.431 -33.784  1.00  0.00    -0.174 NA
HETATM    8  H   UNL     1      -3.885   5.949 -35.340  1.00  0.00     0.189 HD
HETATM    9  C   UNL     1      -2.720   6.081 -32.489  1.00  0.00     0.089 A 
HETATM   10  C   UNL     1      -3.846   5.244 -32.254  1.00  0.00     0.071 A 
BRANCH   9  11
HETATM   11  C   UNL     1      -1.746   6.569 -31.509  1.00  0.00    -0.005 A 
HETATM   12  C   UNL     1      -2.177   7.184 -30.324  1.00  0.00     0.016 A 
HETATM   13  C   UNL     1      -1.258   7.606 -29.354  1.00  0.00     0.037 A 
HETATM   14  C   UNL     1       0.109   7.420 -29.558  1.00  0.00     0.068 A 
HETATM   15  C   UNL     1       0.546   6.834 -30.748  1.00  0.00     0.037 A 
HETATM   16  C   UNL     1      -0.371   6.408 -31.715  1.00  0.00     0.016 A 
BRANCH  14  17
HETATM   17  O   UNL     1       1.106   7.770 -28.691  1.00  0.00    -0.356 OA
HETATM   18  C   UNL     1       0.930   7.391 -27.331  1.00  0.00     0.210 C 
ENDBRANCH  14  17
ENDBRANCH   9  11
ENDBRANCH   1   5
BRANCH   2  19
HETATM   19  N   UNL     1      -8.075   4.359 -33.680  1.00  0.00    -0.267 N 
HETATM   20  C   UNL     1      -8.660   3.624 -32.674  1.00  0.00     0.240 C 
HETATM   21  O   UNL     1      -8.178   3.512 -31.550  1.00  0.00    -0.271 OA
HETATM   22  H   UNL     1      -8.461   4.452 -34.617  1.00  0.00     0.190 HD
BRANCH  20  23
HETATM   23  C   UNL     1      -9.935   2.965 -33.061  1.00  0.00     0.089 A 
HETATM   24  C   UNL     1      -9.969   1.552 -33.619  1.00  0.00     0.036 A 
HETATM   25  C   UNL     1     -10.256   2.731 -34.516  1.00  0.00     0.025 A 
BRANCH  24  26
HETATM   26  C   UNL     1      -8.708   0.735 -33.789  1.00  0.00    -0.015 A 
HETATM   27  C   UNL     1      -8.091   0.110 -32.693  1.00  0.00     0.123 A 
HETATM   28  F   UNL     1      -8.625   0.257 -31.469  1.00  0.00    -0.206 F 
HETATM   29  C   UNL     1      -6.943  -0.669 -32.827  1.00  0.00     0.043 A 
HETATM   30  C   UNL     1      -6.378  -0.850 -34.086  1.00  0.00     0.003 A 
HETATM   31  C   UNL     1      -6.968  -0.254 -35.198  1.00  0.00     0.001 A 
HETATM   32  C   UNL     1      -8.122   0.524 -35.049  1.00  0.00     0.011 A 
ENDBRANCH  24  26
ENDBRANCH  20  23
ENDBRANCH   2  19
TORSDOF 6
ENDMDL
MODEL 7
REMARK VINA RESULT:      -8.4      3.950     10.058
REMARK  6 active torsions:
REMARK  status: ('A' for Active; 'I' for Inactive)
REMARK    1  A    between atoms: O_2  and  C_3 
REMARK    2  A    between atoms: C_6  and  C_7 
REMARK    3  A    between atoms: C_11  and  C_12 
REMARK       I    between atoms: C_12  and  N_13 
REMARK    4  A    between atoms: N_13  and  N_14 
REMARK       I    between atoms: N_14  and  C_15 
REMARK    5  A    between atoms: C_15  and  C_16 
REMARK    6  A    between atoms: C_17  and  C_18 
ROOT
HETATM    1  C   UNL     1     -10.501   2.124 -34.094  1.00  0.00     0.288 C 
HETATM    2  N   UNL     1     -10.187   3.113 -35.003  1.00  0.00    -0.262 N 
HETATM    3  O   UNL     1     -11.630   2.001 -33.623  1.00  0.00    -0.264 OA
HETATM    4  H   UNL     1      -9.235   3.318 -35.296  1.00  0.00     0.190 HD
ENDROOT
BRANCH   1   5
HETATM    5  C   UNL     1      -9.416   1.245 -33.749  1.00  0.00     0.121 A 
HETATM    6  N   UNL     1      -9.080   0.987 -32.450  1.00  0.00    -0.272 N 
HETATM    7  N   UNL     1      -8.081   0.104 -32.305  1.00  0.00    -0.174 NA
HETATM    8  H   UNL     1      -9.517   1.375 -31.619  1.00  0.00     0.189 HD
HETATM    9  C   UNL     1      -7.726  -0.216 -33.560  1.00  0.00     0.089 A 
HETATM   10  C   UNL     1      -8.535   0.489 -34.495  1.00  0.00     0.071 A 
BRANCH   9  11
HETATM   11  C   UNL     1      -6.671  -1.192 -33.844  1.00  0.00    -0.005 A 
HETATM   12  C   UNL     1      -5.358  -0.967 -33.407  1.00  0.00     0.016 A 
HETATM   13  C   UNL     1      -4.352  -1.917 -33.624  1.00  0.00     0.037 A 
HETATM   14  C   UNL     1      -4.645  -3.108 -34.286  1.00  0.00     0.068 A 
HETATM   15  C   UNL     1      -5.945  -3.326 -34.750  1.00  0.00     0.037 A 
HETATM   16  C   UNL     1      -6.951  -2.380 -34.529  1.00  0.00     0.016 A 
BRANCH  14  17
HETATM   17  O   UNL     1      -3.766  -4.120 -34.549  1.00  0.00    -0.356 OA
HETATM   18  C   UNL     1      -3.358  -4.914 -33.442  1.00  0.00     0.210 C 
ENDBRANCH  14  17
ENDBRANCH   9  11
ENDBRANCH   1   5
BRANCH   2  19
HETATM   19  N   UNL     1     -11.147   4.073 -35.326  1.00  0.00    -0.267 N 
HETATM   20  C   UNL     1     -10.862   5.393 -35.063  1.00  0.00     0.240 C 
HETATM   21  O   UNL     1      -9.801   5.771 -34.573  1.00  0.00    -0.271 OA
HETATM   22  H   UNL     1     -12.026   3.748 -35.724  1.00  0.00     0.190 HD
BRANCH  20  23
HETATM   23  C   UNL     1     -11.954   6.337 -35.418  1.00  0.00     0.089 A 
HETATM   24  C   UNL     1     -13.117   6.607 -34.479  1.00  0.00     0.036 A 
HETATM   25  C   UNL     1     -13.329   5.816 -35.746  1.00  0.00     0.025 A 
BRANCH  24  26
HETATM   26  C   UNL     1     -13.212   5.944 -33.124  1.00  0.00    -0.015 A 
HETATM   27  C   UNL     1     -12.653   6.538 -31.980  1.00  0.00     0.123 A 
HETATM   28  F   UNL     1     -12.006   7.709 -32.100  1.00  0.00    -0.206 F 
HETATM   29  C   UNL     1     -12.750   5.959 -30.716  1.00  0.00     0.043 A 
HETATM   30  C   UNL     1     -13.427   4.754 -30.561  1.00  0.00     0.003 A 
HETATM   31  C   UNL     1     -14.004   4.141 -31.671  1.00  0.00     0.001 A 
HETATM   32  C   UNL     1     -13.901   4.734 -32.934  1.00  0.00     0.011 A 
ENDBRANCH  24  26
ENDBRANCH  20  23
ENDBRANCH   2  19
TORSDOF 6
ENDMDL
MODEL 8
REMARK VINA RESULT:      -8.4      6.213      8.384
REMARK  6 active torsions:
REMARK  status: ('A' for Active; 'I' for Inactive)
REMARK    1  A    between atoms: O_2  and  C_3 
REMARK    2  A    between atoms: C_6  and  C_7 
REMARK    3  A    between atoms: C_11  and  C_12 
REMARK       I    between atoms: C_12  and  N_13 
REMARK    4  A    between atoms: N_13  and  N_14 
REMARK       I    between atoms: N_14  and  C_15 
REMARK    5  A    between atoms: C_15  and  C_16 
REMARK    6  A    between atoms: C_17  and  C_18 
ROOT
HETATM    1  C   UNL     1      -3.658   2.167 -31.166  1.00  0.00     0.288 C 
HETATM    2  N   UNL     1      -3.478   3.531 -31.070  1.00  0.00    -0.262 N 
HETATM    3  O   UNL     1      -2.717   1.378 -31.130  1.00  0.00    -0.264 OA
HETATM    4  H   UNL     1      -4.221   4.204 -31.238  1.00  0.00     0.190 HD
ENDROOT
BRANCH   1   5
HETATM    5  C   UNL     1      -5.024   1.740 -31.300  1.00  0.00     0.121 A 
HETATM    6  N   UNL     1      -5.587   0.836 -30.443  1.00  0.00    -0.272 N 
HETATM    7  N   UNL     1      -6.884   0.589 -30.677  1.00  0.00    -0.174 NA
HETATM    8  H   UNL     1      -5.131   0.370 -29.664  1.00  0.00     0.189 HD
HETATM    9  C   UNL     1      -7.185   1.343 -31.747  1.00  0.00     0.089 A 
HETATM   10  C   UNL     1      -6.040   2.072 -32.174  1.00  0.00     0.071 A 
BRANCH   9  11
HETATM   11  C   UNL     1      -8.536   1.385 -32.312  1.00  0.00    -0.005 A 
HETATM   12  C   UNL     1      -9.181   0.202 -32.701  1.00  0.00     0.016 A 
HETATM   13  C   UNL     1     -10.493   0.222 -33.192  1.00  0.00     0.037 A 
HETATM   14  C   UNL     1     -11.179   1.430 -33.305  1.00  0.00     0.068 A 
HETATM   15  C   UNL     1     -10.533   2.616 -32.947  1.00  0.00     0.037 A 
HETATM   16  C   UNL     1      -9.225   2.596 -32.452  1.00  0.00     0.016 A 
BRANCH  14  17
HETATM   17  O   UNL     1     -12.461   1.589 -33.752  1.00  0.00    -0.356 OA
HETATM   18  C   UNL     1     -13.307   0.448 -33.680  1.00  0.00     0.210 C 
ENDBRANCH  14  17
ENDBRANCH   9  11
ENDBRANCH   1   5
BRANCH   2  19
HETATM   19  N   UNL     1      -2.181   4.048 -31.035  1.00  0.00    -0.267 N 
HETATM   20  C   UNL     1      -1.918   5.194 -31.749  1.00  0.00     0.240 C 
HETATM   21  O   UNL     1      -2.767   5.795 -32.402  1.00  0.00    -0.271 OA
HETATM   22  H   UNL     1      -1.484   3.538 -30.498  1.00  0.00     0.190 HD
BRANCH  20  23
HETATM   23  C   UNL     1      -0.506   5.653 -31.670  1.00  0.00     0.089 A 
HETATM   24  C   UNL     1      -0.064   6.724 -30.688  1.00  0.00     0.036 A 
HETATM   25  C   UNL     1      -0.126   7.025 -32.166  1.00  0.00     0.025 A 
BRANCH  24  26
HETATM   26  C   UNL     1      -1.036   7.364 -29.723  1.00  0.00    -0.015 A 
HETATM   27  C   UNL     1      -1.136   6.928 -28.392  1.00  0.00     0.123 A 
HETATM   28  F   UNL     1      -0.365   5.910 -27.977  1.00  0.00    -0.206 F 
HETATM   29  C   UNL     1      -2.006   7.519 -27.477  1.00  0.00     0.043 A 
HETATM   30  C   UNL     1      -2.806   8.585 -27.877  1.00  0.00     0.003 A 
HETATM   31  C   UNL     1      -2.726   9.052 -29.186  1.00  0.00     0.001 A 
HETATM   32  C   UNL     1      -1.847   8.451 -30.095  1.00  0.00     0.011 A 
ENDBRANCH  24  26
ENDBRANCH  20  23
ENDBRANCH   2  19
TORSDOF 6
ENDMDL
MODEL 9
REMARK VINA RESULT:      -8.3      7.470     10.775
REMARK  6 active torsions:
REMARK  status: ('A' for Active; 'I' for Inactive)
REMARK    1  A    between atoms: O_2  and  C_3 
REMARK    2  A    between atoms: C_6  and  C_7 
REMARK    3  A    between atoms: C_11  and  C_12 
REMARK       I    between atoms: C_12  and  N_13 
REMARK    4  A    between atoms: N_13  and  N_14 
REMARK       I    between atoms: N_14  and  C_15 
REMARK    5  A    between atoms: C_15  and  C_16 
REMARK    6  A    between atoms: C_17  and  C_18 
ROOT
HETATM    1  C   UNL     1      -3.360   5.157 -31.107  1.00  0.00     0.288 C 
HETATM    2  N   UNL     1      -4.140   5.577 -30.050  1.00  0.00    -0.262 N 
HETATM    3  O   UNL     1      -2.561   5.904 -31.669  1.00  0.00    -0.264 OA
HETATM    4  H   UNL     1      -4.901   5.023 -29.666  1.00  0.00     0.190 HD
ENDROOT
BRANCH   1   5
HETATM    5  C   UNL     1      -3.543   3.785 -31.495  1.00  0.00     0.121 A 
HETATM    6  N   UNL     1      -2.796   2.776 -30.956  1.00  0.00    -0.272 N 
HETATM    7  N   UNL     1      -3.132   1.551 -31.388  1.00  0.00    -0.174 NA
HETATM    8  H   UNL     1      -2.052   2.868 -30.271  1.00  0.00     0.189 HD
HETATM    9  C   UNL     1      -4.126   1.762 -32.265  1.00  0.00     0.089 A 
HETATM   10  C   UNL     1      -4.405   3.153 -32.368  1.00  0.00     0.071 A 
BRANCH   9  11
HETATM   11  C   UNL     1      -4.804   0.658 -32.950  1.00  0.00    -0.005 A 
HETATM   12  C   UNL     1      -4.284  -0.642 -32.890  1.00  0.00     0.016 A 
HETATM   13  C   UNL     1      -4.951  -1.716 -33.495  1.00  0.00     0.037 A 
HETATM   14  C   UNL     1      -6.150  -1.501 -34.173  1.00  0.00     0.068 A 
HETATM   15  C   UNL     1      -6.659  -0.204 -34.262  1.00  0.00     0.037 A 
HETATM   16  C   UNL     1      -5.996   0.868 -33.654  1.00  0.00     0.016 A 
BRANCH  14  17
HETATM   17  O   UNL     1      -6.906  -2.457 -34.791  1.00  0.00    -0.356 OA
HETATM   18  C   UNL     1      -6.293  -3.724 -34.992  1.00  0.00     0.210 C 
ENDBRANCH  14  17
ENDBRANCH   9  11
ENDBRANCH   1   5
BRANCH   2  19
HETATM   19  N   UNL     1      -4.104   6.918 -29.664  1.00  0.00    -0.267 N 
HETATM   20  C   UNL     1      -4.101   7.208 -28.319  1.00  0.00     0.240 C 
HETATM   21  O   UNL     1      -4.112   6.350 -27.441  1.00  0.00    -0.271 OA
HETATM   22  H   UNL     1      -4.103   7.621 -30.400  1.00  0.00     0.190 HD
BRANCH  20  23
HETATM   23  C   UNL     1      -4.087   8.662 -28.008  1.00  0.00     0.089 A 
HETATM   24  C   UNL     1      -2.801   9.398 -27.671  1.00  0.00     0.036 A 
HETATM   25  C   UNL     1      -3.830   9.133 -26.599  1.00  0.00     0.025 A 
BRANCH  24  26
HETATM   26  C   UNL     1      -1.464   8.692 -27.657  1.00  0.00    -0.015 A 
HETATM   27  C   UNL     1      -0.805   8.355 -28.850  1.00  0.00     0.123 A 
HETATM   28  F   UNL     1      -1.385   8.651 -30.025  1.00  0.00    -0.206 F 
HETATM   29  C   UNL     1       0.440   7.727 -28.863  1.00  0.00     0.043 A 
HETATM   30  C   UNL     1       1.069   7.422 -27.660  1.00  0.00     0.003 A 
HETATM   31  C   UNL     1       0.451   7.751 -26.457  1.00  0.00     0.001 A 
HETATM   32  C   UNL     1      -0.798   8.383 -26.458  1.00  0.00     0.011 A 
ENDBRANCH  24  26
ENDBRANCH  20  23
ENDBRANCH   2  19
TORSDOF 6
ENDMDL
MODEL 10
REMARK VINA RESULT:      -8.3     14.736     17.080
REMARK  6 active torsions:
REMARK  status: ('A' for Active; 'I' for Inactive)
REMARK    1  A    between atoms: O_2  and  C_3 
REMARK    2  A    between atoms: C_6  and  C_7 
REMARK    3  A    between atoms: C_11  and  C_12 
REMARK       I    between atoms: C_12  and  N_13 
REMARK    4  A    between atoms: N_13  and  N_14 
REMARK       I    between atoms: N_14  and  C_15 
REMARK    5  A    between atoms: C_15  and  C_16 
REMARK    6  A    between atoms: C_17  and  C_18 
ROOT
HETATM    1  C   UNL     1      -6.594 -13.766 -35.710  1.00  0.00     0.288 C 
HETATM    2  N   UNL     1      -5.476 -13.185 -36.270  1.00  0.00    -0.262 N 
HETATM    3  O   UNL     1      -7.683 -13.776 -36.280  1.00  0.00    -0.264 OA
HETATM    4  H   UNL     1      -4.608 -13.043 -35.761  1.00  0.00     0.190 HD
ENDROOT
BRANCH   1   5
HETATM    5  C   UNL     1      -6.388 -14.367 -34.420  1.00  0.00     0.121 A 
HETATM    6  N   UNL     1      -7.413 -14.933 -33.714  1.00  0.00    -0.272 N 
HETATM    7  N   UNL     1      -7.038 -15.495 -32.555  1.00  0.00    -0.174 NA
HETATM    8  H   UNL     1      -8.389 -14.979 -33.989  1.00  0.00     0.189 HD
HETATM    9  C   UNL     1      -5.716 -15.270 -32.481  1.00  0.00     0.089 A 
HETATM   10  C   UNL     1      -5.273 -14.555 -33.629  1.00  0.00     0.071 A 
BRANCH   9  11
HETATM   11  C   UNL     1      -4.907 -15.761 -31.363  1.00  0.00    -0.005 A 
HETATM   12  C   UNL     1      -3.507 -15.779 -31.453  1.00  0.00     0.016 A 
HETATM   13  C   UNL     1      -2.720 -16.194 -30.371  1.00  0.00     0.037 A 
HETATM   14  C   UNL     1      -3.323 -16.601 -29.182  1.00  0.00     0.068 A 
HETATM   15  C   UNL     1      -4.717 -16.613 -29.095  1.00  0.00     0.037 A 
HETATM   16  C   UNL     1      -5.504 -16.193 -30.173  1.00  0.00     0.016 A 
BRANCH  14  17
HETATM   17  O   UNL     1      -2.675 -17.013 -28.051  1.00  0.00    -0.356 OA
HETATM   18  C   UNL     1      -1.289 -16.707 -27.963  1.00  0.00     0.210 C 
ENDBRANCH  14  17
ENDBRANCH   9  11
ENDBRANCH   1   5
BRANCH   2  19
HETATM   19  N   UNL     1      -5.598 -12.492 -37.477  1.00  0.00    -0.267 N 
HETATM   20  C   UNL     1      -5.163 -13.108 -38.627  1.00  0.00     0.240 C 
HETATM   21  O   UNL     1      -4.689 -14.240 -38.652  1.00  0.00    -0.271 OA
HETATM   22  H   UNL     1      -5.985 -11.551 -37.444  1.00  0.00     0.190 HD
BRANCH  20  23
HETATM   23  C   UNL     1      -5.311 -12.283 -39.855  1.00  0.00     0.089 A 
HETATM   24  C   UNL     1      -6.539 -12.381 -40.745  1.00  0.00     0.036 A 
HETATM   25  C   UNL     1      -5.213 -12.925 -41.216  1.00  0.00     0.025 A 
BRANCH  24  26
HETATM   26  C   UNL     1      -7.686 -13.309 -40.413  1.00  0.00    -0.015 A 
HETATM   27  C   UNL     1      -8.738 -12.899 -39.579  1.00  0.00     0.123 A 
HETATM   28  F   UNL     1      -8.713 -11.664 -39.052  1.00  0.00    -0.206 F 
HETATM   29  C   UNL     1      -9.819 -13.727 -39.279  1.00  0.00     0.043 A 
HETATM   30  C   UNL     1      -9.877 -15.007 -39.822  1.00  0.00     0.003 A 
HETATM   31  C   UNL     1      -8.856 -15.444 -40.664  1.00  0.00     0.001 A 
HETATM   32  C   UNL     1      -7.778 -14.602 -40.958  1.00  0.00     0.011 A 
ENDBRANCH  24  26
ENDBRANCH  20  23
ENDBRANCH   2  19
TORSDOF 6
ENDMDL
