MODEL 1
REMARK VINA RESULT:      -9.4      0.000      0.000
REMARK  2 active torsions:
REMARK  status: ('A' for Active; 'I' for Inactive)
REMARK    1  A    between atoms: C_4  and  N_5 
REMARK    2  A    between atoms: C_12  and  C_13 
ROOT
HETATM    1  N   UNL     1      -2.751   4.186 -31.659  1.00  0.00    -0.236 N 
HETATM    2  N   UNL     1      -2.607   3.027 -32.453  1.00  0.00    -0.179 NA
HETATM    3  C   UNL     1      -3.805   2.344 -32.360  1.00  0.00     0.119 A 
HETATM    4  C   UNL     1      -4.712   3.012 -31.627  1.00  0.00     0.123 A 
HETATM    5  C   UNL     1      -4.053   4.234 -31.137  1.00  0.00     0.280 A 
HETATM    6  O   UNL     1      -4.575   5.068 -30.418  1.00  0.00    -0.265 OA
HETATM    7  N   UNL     1      -4.091   1.115 -32.889  1.00  0.00    -0.344 N 
HETATM    8  C   UNL     1      -5.345   0.546 -32.765  1.00  0.00     0.047 A 
HETATM    9  C   UNL     1      -6.321   1.134 -32.049  1.00  0.00     0.086 A 
HETATM   10  C   UNL     1      -6.046   2.451 -31.399  1.00  0.00     0.193 A 
HETATM   11  O   UNL     1      -6.912   2.994 -30.728  1.00  0.00    -0.287 OA
HETATM   12  H   UNL     1      -1.836   2.438 -32.138  1.00  0.00     0.155 HD
HETATM   13  H   UNL     1      -3.473   0.759 -33.612  1.00  0.00     0.167 HD
ENDROOT
BRANCH   8  14
HETATM   14  C   UNL     1      -5.575  -0.755 -33.423  1.00  0.00    -0.009 A 
HETATM   15  C   UNL     1      -6.868  -1.169 -33.785  1.00  0.00     0.015 A 
HETATM   16  C   UNL     1      -7.071  -2.402 -34.412  1.00  0.00     0.024 A 
HETATM   17  C   UNL     1      -5.983  -3.228 -34.687  1.00  0.00     0.034 A 
HETATM   18 CL   UNL     1      -6.233  -4.744 -35.458  1.00  0.00    -0.084 Cl
HETATM   19  C   UNL     1      -4.693  -2.831 -34.339  1.00  0.00     0.024 A 
HETATM   20  C   UNL     1      -4.491  -1.599 -33.711  1.00  0.00     0.015 A 
ENDBRANCH   8  14
BRANCH   1  21
HETATM   21  C   UNL     1      -1.683   5.094 -31.509  1.00  0.00     0.055 A 
HETATM   22  C   UNL     1      -0.653   4.861 -30.588  1.00  0.00     0.031 A 
HETATM   23  C   UNL     1       0.413   5.757 -30.458  1.00  0.00     0.002 A 
HETATM   24  C   UNL     1       0.466   6.902 -31.245  1.00  0.00     0.000 A 
HETATM   25  C   UNL     1      -0.551   7.158 -32.159  1.00  0.00     0.002 A 
HETATM   26  C   UNL     1      -1.617   6.261 -32.289  1.00  0.00     0.031 A 
ENDBRANCH   1  21
TORSDOF 2
ENDMDL
MODEL 2
REMARK VINA RESULT:      -8.9      5.251      8.364
REMARK  2 active torsions:
REMARK  status: ('A' for Active; 'I' for Inactive)
REMARK    1  A    between atoms: C_4  and  N_5 
REMARK    2  A    between atoms: C_12  and  C_13 
ROOT
HETATM    1  N   UNL     1     -11.537   1.766 -33.281  1.00  0.00    -0.236 N 
HETATM    2  N   UNL     1     -10.942   0.485 -33.244  1.00  0.00    -0.179 NA
HETATM    3  C   UNL     1      -9.594   0.680 -33.477  1.00  0.00     0.119 A 
HETATM    4  C   UNL     1      -9.283   1.982 -33.590  1.00  0.00     0.123 A 
HETATM    5  C   UNL     1     -10.541   2.737 -33.474  1.00  0.00     0.280 A 
HETATM    6  O   UNL     1     -10.638   3.949 -33.555  1.00  0.00    -0.265 OA
HETATM    7  N   UNL     1      -8.640  -0.290 -33.626  1.00  0.00    -0.344 N 
HETATM    8  C   UNL     1      -7.307   0.025 -33.815  1.00  0.00     0.047 A 
HETATM    9  C   UNL     1      -6.895   1.300 -33.945  1.00  0.00     0.086 A 
HETATM   10  C   UNL     1      -7.903   2.398 -33.849  1.00  0.00     0.193 A 
HETATM   11  O   UNL     1      -7.552   3.562 -33.983  1.00  0.00    -0.287 OA
HETATM   12  H   UNL     1     -11.338  -0.143 -33.943  1.00  0.00     0.155 HD
HETATM   13  H   UNL     1      -8.870  -1.228 -33.309  1.00  0.00     0.167 HD
ENDROOT
BRANCH   8  14
HETATM   14  C   UNL     1      -6.345  -1.090 -33.904  1.00  0.00    -0.009 A 
HETATM   15  C   UNL     1      -5.087  -1.015 -33.283  1.00  0.00     0.015 A 
HETATM   16  C   UNL     1      -4.187  -2.081 -33.371  1.00  0.00     0.024 A 
HETATM   17  C   UNL     1      -4.539  -3.231 -34.074  1.00  0.00     0.034 A 
HETATM   18 CL   UNL     1      -3.432  -4.542 -34.182  1.00  0.00    -0.084 Cl
HETATM   19  C   UNL     1      -5.785  -3.324 -34.691  1.00  0.00     0.024 A 
HETATM   20  C   UNL     1      -6.684  -2.257 -34.605  1.00  0.00     0.015 A 
ENDBRANCH   8  14
BRANCH   1  21
HETATM   21  C   UNL     1     -12.929   1.920 -33.113  1.00  0.00     0.055 A 
HETATM   22  C   UNL     1     -13.838   1.073 -33.761  1.00  0.00     0.031 A 
HETATM   23  C   UNL     1     -15.217   1.219 -33.574  1.00  0.00     0.002 A 
HETATM   24  C   UNL     1     -15.709   2.217 -32.739  1.00  0.00     0.000 A 
HETATM   25  C   UNL     1     -14.823   3.075 -32.094  1.00  0.00     0.002 A 
HETATM   26  C   UNL     1     -13.445   2.928 -32.280  1.00  0.00     0.031 A 
ENDBRANCH   1  21
TORSDOF 2
ENDMDL
MODEL 3
REMARK VINA RESULT:      -8.8      4.553      9.235
REMARK  2 active torsions:
REMARK  status: ('A' for Active; 'I' for Inactive)
REMARK    1  A    between atoms: C_4  and  N_5 
REMARK    2  A    between atoms: C_12  and  C_13 
ROOT
HETATM    1  N   UNL     1      -3.574   3.892 -32.523  1.00  0.00    -0.236 N 
HETATM    2  N   UNL     1      -3.219   4.092 -31.171  1.00  0.00    -0.179 NA
HETATM    3  C   UNL     1      -2.237   5.065 -31.171  1.00  0.00     0.119 A 
HETATM    4  C   UNL     1      -1.995   5.539 -32.404  1.00  0.00     0.123 A 
HETATM    5  C   UNL     1      -2.854   4.785 -33.331  1.00  0.00     0.280 A 
HETATM    6  O   UNL     1      -2.878   4.937 -34.540  1.00  0.00    -0.265 OA
HETATM    7  N   UNL     1      -1.527   5.511 -30.089  1.00  0.00    -0.344 N 
HETATM    8  C   UNL     1      -0.592   6.524 -30.203  1.00  0.00     0.047 A 
HETATM    9  C   UNL     1      -0.276   7.063 -31.395  1.00  0.00     0.086 A 
HETATM   10  C   UNL     1      -0.979   6.573 -32.619  1.00  0.00     0.193 A 
HETATM   11  O   UNL     1      -0.694   7.036 -33.714  1.00  0.00    -0.287 OA
HETATM   12  H   UNL     1      -2.874   3.237 -30.734  1.00  0.00     0.155 HD
HETATM   13  H   UNL     1      -1.893   5.299 -29.166  1.00  0.00     0.167 HD
ENDROOT
BRANCH   8  14
HETATM   14  C   UNL     1       0.079   6.979 -28.970  1.00  0.00    -0.009 A 
HETATM   15  C   UNL     1       0.929   8.097 -28.975  1.00  0.00     0.015 A 
HETATM   16  C   UNL     1       1.554   8.520 -27.799  1.00  0.00     0.024 A 
HETATM   17  C   UNL     1       1.330   7.833 -26.607  1.00  0.00     0.034 A 
HETATM   18 CL   UNL     1       2.098   8.354 -25.161  1.00  0.00    -0.084 Cl
HETATM   19  C   UNL     1       0.485   6.725 -26.583  1.00  0.00     0.024 A 
HETATM   20  C   UNL     1      -0.139   6.301 -27.760  1.00  0.00     0.015 A 
ENDBRANCH   8  14
BRANCH   1  21
HETATM   21  C   UNL     1      -4.539   2.927 -32.880  1.00  0.00     0.055 A 
HETATM   22  C   UNL     1      -5.695   3.280 -33.588  1.00  0.00     0.031 A 
HETATM   23  C   UNL     1      -6.638   2.314 -33.955  1.00  0.00     0.002 A 
HETATM   24  C   UNL     1      -6.442   0.979 -33.617  1.00  0.00     0.000 A 
HETATM   25  C   UNL     1      -5.306   0.609 -32.905  1.00  0.00     0.002 A 
HETATM   26  C   UNL     1      -4.363   1.575 -32.538  1.00  0.00     0.031 A 
ENDBRANCH   1  21
TORSDOF 2
ENDMDL
MODEL 4
REMARK VINA RESULT:      -8.7      5.896      8.501
REMARK  2 active torsions:
REMARK  status: ('A' for Active; 'I' for Inactive)
REMARK    1  A    between atoms: C_4  and  N_5 
REMARK    2  A    between atoms: C_12  and  C_13 
ROOT
HETATM    1  N   UNL     1      -7.592   0.230 -33.828  1.00  0.00    -0.236 N 
HETATM    2  N   UNL     1      -8.920  -0.131 -33.512  1.00  0.00    -0.179 NA
HETATM    3  C   UNL     1      -9.649   1.043 -33.519  1.00  0.00     0.119 A 
HETATM    4  C   UNL     1      -8.902   2.100 -33.879  1.00  0.00     0.123 A 
HETATM    5  C   UNL     1      -7.531   1.608 -34.085  1.00  0.00     0.280 A 
HETATM    6  O   UNL     1      -6.579   2.303 -34.398  1.00  0.00    -0.265 OA
HETATM    7  N   UNL     1     -10.965   1.192 -33.174  1.00  0.00    -0.344 N 
HETATM    8  C   UNL     1     -11.604   2.416 -33.259  1.00  0.00     0.047 A 
HETATM    9  C   UNL     1     -10.942   3.536 -33.606  1.00  0.00     0.086 A 
HETATM   10  C   UNL     1      -9.489   3.442 -33.938  1.00  0.00     0.193 A 
HETATM   11  O   UNL     1      -8.864   4.450 -34.237  1.00  0.00    -0.287 OA
HETATM   12  H   UNL     1      -8.988  -0.588 -32.603  1.00  0.00     0.155 HD
HETATM   13  H   UNL     1     -11.538   0.355 -33.134  1.00  0.00     0.167 HD
ENDROOT
BRANCH   8  14
HETATM   14  C   UNL     1     -13.040   2.464 -32.923  1.00  0.00    -0.009 A 
HETATM   15  C   UNL     1     -13.925   1.471 -33.374  1.00  0.00     0.015 A 
HETATM   16  C   UNL     1     -15.283   1.526 -33.046  1.00  0.00     0.024 A 
HETATM   17  C   UNL     1     -15.764   2.570 -32.259  1.00  0.00     0.034 A 
HETATM   18 CL   UNL     1     -17.434   2.638 -31.854  1.00  0.00    -0.084 Cl
HETATM   19  C   UNL     1     -14.899   3.560 -31.798  1.00  0.00     0.024 A 
HETATM   20  C   UNL     1     -13.542   3.506 -32.129  1.00  0.00     0.015 A 
ENDBRANCH   8  14
BRANCH   1  21
HETATM   21  C   UNL     1      -6.571  -0.744 -33.871  1.00  0.00     0.055 A 
HETATM   22  C   UNL     1      -6.675  -1.872 -34.696  1.00  0.00     0.031 A 
HETATM   23  C   UNL     1      -5.651  -2.823 -34.748  1.00  0.00     0.002 A 
HETATM   24  C   UNL     1      -4.507  -2.663 -33.972  1.00  0.00     0.000 A 
HETATM   25  C   UNL     1      -4.389  -1.556 -33.138  1.00  0.00     0.002 A 
HETATM   26  C   UNL     1      -5.413  -0.605 -33.087  1.00  0.00     0.031 A 
ENDBRANCH   1  21
TORSDOF 2
ENDMDL
MODEL 5
REMARK VINA RESULT:      -8.6      5.822      8.401
REMARK  2 active torsions:
REMARK  status: ('A' for Active; 'I' for Inactive)
REMARK    1  A    between atoms: C_4  and  N_5 
REMARK    2  A    between atoms: C_12  and  C_13 
ROOT
HETATM    1  N   UNL     1      -6.867  -1.111 -33.849  1.00  0.00    -0.236 N 
HETATM    2  N   UNL     1      -7.733  -0.476 -34.766  1.00  0.00    -0.179 NA
HETATM    3  C   UNL     1      -8.216   0.649 -34.124  1.00  0.00     0.119 A 
HETATM    4  C   UNL     1      -7.673   0.808 -32.906  1.00  0.00     0.123 A 
HETATM    5  C   UNL     1      -6.780  -0.340 -32.679  1.00  0.00     0.280 A 
HETATM    6  O   UNL     1      -6.137  -0.535 -31.663  1.00  0.00    -0.265 OA
HETATM    7  N   UNL     1      -9.162   1.518 -34.596  1.00  0.00    -0.344 N 
HETATM    8  C   UNL     1      -9.539   2.638 -33.878  1.00  0.00     0.047 A 
HETATM    9  C   UNL     1      -9.055   2.885 -32.647  1.00  0.00     0.086 A 
HETATM   10  C   UNL     1      -8.062   1.937 -32.058  1.00  0.00     0.193 A 
HETATM   11  O   UNL     1      -7.624   2.132 -30.933  1.00  0.00    -0.287 OA
HETATM   12  H   UNL     1      -8.502  -1.082 -35.052  1.00  0.00     0.155 HD
HETATM   13  H   UNL     1      -9.370   1.493 -35.589  1.00  0.00     0.167 HD
ENDROOT
BRANCH   8  14
HETATM   14  C   UNL     1     -10.522   3.549 -34.497  1.00  0.00    -0.009 A 
HETATM   15  C   UNL     1     -11.794   3.093 -34.882  1.00  0.00     0.015 A 
HETATM   16  C   UNL     1     -12.717   3.968 -35.463  1.00  0.00     0.024 A 
HETATM   17  C   UNL     1     -12.378   5.305 -35.658  1.00  0.00     0.034 A 
HETATM   18 CL   UNL     1     -13.514   6.380 -36.371  1.00  0.00    -0.084 Cl
HETATM   19  C   UNL     1     -11.124   5.775 -35.277  1.00  0.00     0.024 A 
HETATM   20  C   UNL     1     -10.200   4.900 -34.698  1.00  0.00     0.015 A 
ENDBRANCH   8  14
BRANCH   1  21
HETATM   21  C   UNL     1      -6.227  -2.323 -34.183  1.00  0.00     0.055 A 
HETATM   22  C   UNL     1      -4.844  -2.484 -34.024  1.00  0.00     0.031 A 
HETATM   23  C   UNL     1      -4.218  -3.695 -34.338  1.00  0.00     0.002 A 
HETATM   24  C   UNL     1      -4.966  -4.764 -34.821  1.00  0.00     0.000 A 
HETATM   25  C   UNL     1      -6.338  -4.622 -34.996  1.00  0.00     0.002 A 
HETATM   26  C   UNL     1      -6.963  -3.411 -34.681  1.00  0.00     0.031 A 
ENDBRANCH   1  21
TORSDOF 2
ENDMDL
MODEL 6
REMARK VINA RESULT:      -8.5      3.345      8.173
REMARK  2 active torsions:
REMARK  status: ('A' for Active; 'I' for Inactive)
REMARK    1  A    between atoms: C_4  and  N_5 
REMARK    2  A    between atoms: C_12  and  C_13 
ROOT
HETATM    1  N   UNL     1      -5.669  -0.980 -33.435  1.00  0.00    -0.236 N 
HETATM    2  N   UNL     1      -4.473  -0.280 -33.163  1.00  0.00    -0.179 NA
HETATM    3  C   UNL     1      -4.852   0.968 -32.707  1.00  0.00     0.119 A 
HETATM    4  C   UNL     1      -6.187   1.086 -32.607  1.00  0.00     0.123 A 
HETATM    5  C   UNL     1      -6.768  -0.178 -33.087  1.00  0.00     0.280 A 
HETATM    6  O   UNL     1      -7.961  -0.415 -33.159  1.00  0.00    -0.265 OA
HETATM    7  N   UNL     1      -4.025   2.018 -32.412  1.00  0.00    -0.344 N 
HETATM    8  C   UNL     1      -4.518   3.213 -31.921  1.00  0.00     0.047 A 
HETATM    9  C   UNL     1      -5.840   3.432 -31.787  1.00  0.00     0.086 A 
HETATM   10  C   UNL     1      -6.792   2.340 -32.150  1.00  0.00     0.193 A 
HETATM   11  O   UNL     1      -7.997   2.524 -32.054  1.00  0.00    -0.287 OA
HETATM   12  H   UNL     1      -3.882  -0.194 -33.989  1.00  0.00     0.155 HD
HETATM   13  H   UNL     1      -3.039   1.817 -32.281  1.00  0.00     0.167 HD
ENDROOT
BRANCH   8  14
HETATM   14  C   UNL     1      -3.543   4.265 -31.574  1.00  0.00    -0.009 A 
HETATM   15  C   UNL     1      -3.928   5.403 -30.846  1.00  0.00     0.015 A 
HETATM   16  C   UNL     1      -2.993   6.389 -30.520  1.00  0.00     0.024 A 
HETATM   17  C   UNL     1      -1.664   6.243 -30.914  1.00  0.00     0.034 A 
HETATM   18 CL   UNL     1      -0.514   7.456 -30.513  1.00  0.00    -0.084 Cl
HETATM   19  C   UNL     1      -1.264   5.119 -31.632  1.00  0.00     0.024 A 
HETATM   20  C   UNL     1      -2.199   4.133 -31.959  1.00  0.00     0.015 A 
ENDBRANCH   8  14
BRANCH   1  21
HETATM   21  C   UNL     1      -5.636  -2.290 -33.956  1.00  0.00     0.055 A 
HETATM   22  C   UNL     1      -4.489  -3.088 -33.847  1.00  0.00     0.031 A 
HETATM   23  C   UNL     1      -4.469  -4.393 -34.348  1.00  0.00     0.002 A 
HETATM   24  C   UNL     1      -5.595  -4.922 -34.970  1.00  0.00     0.000 A 
HETATM   25  C   UNL     1      -6.741  -4.143 -35.098  1.00  0.00     0.002 A 
HETATM   26  C   UNL     1      -6.761  -2.838 -34.596  1.00  0.00     0.031 A 
ENDBRANCH   1  21
TORSDOF 2
ENDMDL
MODEL 7
REMARK VINA RESULT:      -8.3      3.588      4.369
REMARK  2 active torsions:
REMARK  status: ('A' for Active; 'I' for Inactive)
REMARK    1  A    between atoms: C_4  and  N_5 
REMARK    2  A    between atoms: C_12  and  C_13 
ROOT
HETATM    1  N   UNL     1      -3.870   3.215 -32.613  1.00  0.00    -0.236 N 
HETATM    2  N   UNL     1      -5.162   3.599 -33.033  1.00  0.00    -0.179 NA
HETATM    3  C   UNL     1      -5.962   2.481 -32.890  1.00  0.00     0.119 A 
HETATM    4  C   UNL     1      -5.294   1.447 -32.352  1.00  0.00     0.123 A 
HETATM    5  C   UNL     1      -3.903   1.887 -32.159  1.00  0.00     0.280 A 
HETATM    6  O   UNL     1      -3.007   1.193 -31.710  1.00  0.00    -0.265 OA
HETATM    7  N   UNL     1      -7.272   2.357 -33.267  1.00  0.00    -0.344 N 
HETATM    8  C   UNL     1      -7.987   1.196 -33.035  1.00  0.00     0.047 A 
HETATM    9  C   UNL     1      -7.408   0.104 -32.503  1.00  0.00     0.086 A 
HETATM   10  C   UNL     1      -5.964   0.163 -32.127  1.00  0.00     0.193 A 
HETATM   11  O   UNL     1      -5.413  -0.824 -31.660  1.00  0.00    -0.287 OA
HETATM   12  H   UNL     1      -5.171   3.923 -34.001  1.00  0.00     0.155 HD
HETATM   13  H   UNL     1      -7.791   3.210 -33.450  1.00  0.00     0.167 HD
ENDROOT
BRANCH   8  14
HETATM   14  C   UNL     1      -9.411   1.181 -33.421  1.00  0.00    -0.009 A 
HETATM   15  C   UNL     1     -10.267   0.148 -33.002  1.00  0.00     0.015 A 
HETATM   16  C   UNL     1     -11.615   0.148 -33.371  1.00  0.00     0.024 A 
HETATM   17  C   UNL     1     -12.120   1.182 -34.157  1.00  0.00     0.034 A 
HETATM   18 CL   UNL     1     -13.778   1.182 -34.610  1.00  0.00    -0.084 Cl
HETATM   19  C   UNL     1     -11.287   2.217 -34.577  1.00  0.00     0.024 A 
HETATM   20  C   UNL     1      -9.938   2.216 -34.209  1.00  0.00     0.015 A 
ENDBRANCH   8  14
BRANCH   1  21
HETATM   21  C   UNL     1      -2.794   4.125 -32.666  1.00  0.00     0.055 A 
HETATM   22  C   UNL     1      -2.383   4.696 -33.878  1.00  0.00     0.031 A 
HETATM   23  C   UNL     1      -1.328   5.614 -33.921  1.00  0.00     0.002 A 
HETATM   24  C   UNL     1      -0.664   5.972 -32.753  1.00  0.00     0.000 A 
HETATM   25  C   UNL     1      -1.049   5.409 -31.540  1.00  0.00     0.002 A 
HETATM   26  C   UNL     1      -2.105   4.492 -31.498  1.00  0.00     0.031 A 
ENDBRANCH   1  21
TORSDOF 2
ENDMDL
MODEL 8
REMARK VINA RESULT:      -8.3      3.496      8.254
REMARK  2 active torsions:
REMARK  status: ('A' for Active; 'I' for Inactive)
REMARK    1  A    between atoms: C_4  and  N_5 
REMARK    2  A    between atoms: C_12  and  C_13 
ROOT
HETATM    1  N   UNL     1      -5.300   0.330 -33.447  1.00  0.00    -0.236 N 
HETATM    2  N   UNL     1      -4.136   0.746 -32.765  1.00  0.00    -0.179 NA
HETATM    3  C   UNL     1      -4.275   2.106 -32.559  1.00  0.00     0.119 A 
HETATM    4  C   UNL     1      -5.460   2.565 -32.996  1.00  0.00     0.123 A 
HETATM    5  C   UNL     1      -6.167   1.424 -33.599  1.00  0.00     0.280 A 
HETATM    6  O   UNL     1      -7.268   1.480 -34.120  1.00  0.00    -0.265 OA
HETATM    7  N   UNL     1      -3.345   2.952 -32.018  1.00  0.00    -0.344 N 
HETATM    8  C   UNL     1      -3.612   4.294 -31.822  1.00  0.00     0.047 A 
HETATM    9  C   UNL     1      -4.769   4.851 -32.228  1.00  0.00     0.086 A 
HETATM   10  C   UNL     1      -5.798   3.985 -32.878  1.00  0.00     0.193 A 
HETATM   11  O   UNL     1      -6.848   4.474 -33.271  1.00  0.00    -0.287 OA
HETATM   12  H   UNL     1      -3.288   0.551 -33.297  1.00  0.00     0.155 HD
HETATM   13  H   UNL     1      -2.576   2.537 -31.502  1.00  0.00     0.167 HD
ENDROOT
BRANCH   8  14
HETATM   14  C   UNL     1      -2.569   5.113 -31.176  1.00  0.00    -0.009 A 
HETATM   15  C   UNL     1      -1.211   4.769 -31.272  1.00  0.00     0.015 A 
HETATM   16  C   UNL     1      -0.232   5.556 -30.659  1.00  0.00     0.024 A 
HETATM   17  C   UNL     1      -0.603   6.697 -29.951  1.00  0.00     0.034 A 
HETATM   18 CL   UNL     1       0.601   7.666 -29.197  1.00  0.00    -0.084 Cl
HETATM   19  C   UNL     1      -1.945   7.057 -29.850  1.00  0.00     0.024 A 
HETATM   20  C   UNL     1      -2.924   6.268 -30.461  1.00  0.00     0.015 A 
ENDBRANCH   8  14
BRANCH   1  21
HETATM   21  C   UNL     1      -5.462  -1.014 -33.845  1.00  0.00     0.055 A 
HETATM   22  C   UNL     1      -6.717  -1.519 -34.208  1.00  0.00     0.031 A 
HETATM   23  C   UNL     1      -6.866  -2.848 -34.619  1.00  0.00     0.002 A 
HETATM   24  C   UNL     1      -5.763  -3.693 -34.671  1.00  0.00     0.000 A 
HETATM   25  C   UNL     1      -4.510  -3.214 -34.305  1.00  0.00     0.002 A 
HETATM   26  C   UNL     1      -4.360  -1.885 -33.894  1.00  0.00     0.031 A 
ENDBRANCH   1  21
TORSDOF 2
ENDMDL
MODEL 9
REMARK VINA RESULT:      -8.1      3.561      8.174
REMARK  2 active torsions:
REMARK  status: ('A' for Active; 'I' for Inactive)
REMARK    1  A    between atoms: C_4  and  N_5 
REMARK    2  A    between atoms: C_12  and  C_13 
ROOT
HETATM    1  N   UNL     1      -4.655  -0.788 -33.261  1.00  0.00    -0.236 N 
HETATM    2  N   UNL     1      -3.651  -0.088 -32.556  1.00  0.00    -0.179 NA
HETATM    3  C   UNL     1      -4.055   1.233 -32.521  1.00  0.00     0.119 A 
HETATM    4  C   UNL     1      -5.261   1.409 -33.087  1.00  0.00     0.123 A 
HETATM    5  C   UNL     1      -5.692   0.097 -33.597  1.00  0.00     0.280 A 
HETATM    6  O   UNL     1      -6.734  -0.112 -34.194  1.00  0.00    -0.265 OA
HETATM    7  N   UNL     1      -3.347   2.294 -32.023  1.00  0.00    -0.344 N 
HETATM    8  C   UNL     1      -3.872   3.573 -32.005  1.00  0.00     0.047 A 
HETATM    9  C   UNL     1      -5.071   3.852 -32.550  1.00  0.00     0.086 A 
HETATM   10  C   UNL     1      -5.863   2.742 -33.160  1.00  0.00     0.193 A 
HETATM   11  O   UNL     1      -6.946   2.978 -33.678  1.00  0.00    -0.287 OA
HETATM   12  H   UNL     1      -2.738  -0.171 -33.004  1.00  0.00     0.155 HD
HETATM   13  H   UNL     1      -2.563   2.089 -31.411  1.00  0.00     0.167 HD
ENDROOT
BRANCH   8  14
HETATM   14  C   UNL     1      -3.057   4.639 -31.392  1.00  0.00    -0.009 A 
HETATM   15  C   UNL     1      -3.658   5.736 -30.752  1.00  0.00     0.015 A 
HETATM   16  C   UNL     1      -2.874   6.737 -30.171  1.00  0.00     0.024 A 
HETATM   17  C   UNL     1      -1.484   6.646 -30.220  1.00  0.00     0.034 A 
HETATM   18 CL   UNL     1      -0.520   7.877 -29.505  1.00  0.00    -0.084 Cl
HETATM   19  C   UNL     1      -0.872   5.563 -30.846  1.00  0.00     0.024 A 
HETATM   20  C   UNL     1      -1.656   4.562 -31.428  1.00  0.00     0.015 A 
ENDBRANCH   8  14
BRANCH   1  21
HETATM   21  C   UNL     1      -4.532  -2.171 -33.507  1.00  0.00     0.055 A 
HETATM   22  C   UNL     1      -5.338  -2.817 -34.454  1.00  0.00     0.031 A 
HETATM   23  C   UNL     1      -5.197  -4.185 -34.707  1.00  0.00     0.002 A 
HETATM   24  C   UNL     1      -4.250  -4.931 -34.014  1.00  0.00     0.000 A 
HETATM   25  C   UNL     1      -3.447  -4.312 -33.062  1.00  0.00     0.002 A 
HETATM   26  C   UNL     1      -3.587  -2.944 -32.810  1.00  0.00     0.031 A 
ENDBRANCH   1  21
TORSDOF 2
ENDMDL
MODEL 10
REMARK VINA RESULT:      -8.1      3.031      4.658
REMARK  2 active torsions:
REMARK  status: ('A' for Active; 'I' for Inactive)
REMARK    1  A    between atoms: C_4  and  N_5 
REMARK    2  A    between atoms: C_12  and  C_13 
ROOT
HETATM    1  N   UNL     1      -6.866   4.228 -30.511  1.00  0.00    -0.236 N 
HETATM    2  N   UNL     1      -7.431   3.068 -31.086  1.00  0.00    -0.179 NA
HETATM    3  C   UNL     1      -6.371   2.320 -31.562  1.00  0.00     0.119 A 
HETATM    4  C   UNL     1      -5.185   2.882 -31.274  1.00  0.00     0.123 A 
HETATM    5  C   UNL     1      -5.466   4.151 -30.585  1.00  0.00     0.280 A 
HETATM    6  O   UNL     1      -4.620   4.938 -30.197  1.00  0.00    -0.265 OA
HETATM    7  N   UNL     1      -6.447   1.159 -32.283  1.00  0.00    -0.344 N 
HETATM    8  C   UNL     1      -5.312   0.472 -32.673  1.00  0.00     0.047 A 
HETATM    9  C   UNL     1      -4.078   0.953 -32.435  1.00  0.00     0.086 A 
HETATM   10  C   UNL     1      -3.936   2.247 -31.703  1.00  0.00     0.193 A 
HETATM   11  O   UNL     1      -2.825   2.711 -31.492  1.00  0.00    -0.287 OA
HETATM   12  H   UNL     1      -8.079   3.291 -31.842  1.00  0.00     0.155 HD
HETATM   13  H   UNL     1      -7.331   0.659 -32.278  1.00  0.00     0.167 HD
ENDROOT
BRANCH   8  14
HETATM   14  C   UNL     1      -5.497  -0.803 -33.394  1.00  0.00    -0.009 A 
HETATM   15  C   UNL     1      -4.418  -1.673 -33.620  1.00  0.00     0.015 A 
HETATM   16  C   UNL     1      -4.608  -2.880 -34.300  1.00  0.00     0.024 A 
HETATM   17  C   UNL     1      -5.879  -3.228 -34.754  1.00  0.00     0.034 A 
HETATM   18 CL   UNL     1      -6.112  -4.712 -35.590  1.00  0.00    -0.084 Cl
HETATM   19  C   UNL     1      -6.961  -2.379 -34.534  1.00  0.00     0.024 A 
HETATM   20  C   UNL     1      -6.770  -1.171 -33.856  1.00  0.00     0.015 A 
ENDBRANCH   8  14
BRANCH   1  21
HETATM   21  C   UNL     1      -7.688   5.232 -29.956  1.00  0.00     0.055 A 
HETATM   22  C   UNL     1      -7.610   5.568 -28.598  1.00  0.00     0.031 A 
HETATM   23  C   UNL     1      -8.415   6.578 -28.059  1.00  0.00     0.002 A 
HETATM   24  C   UNL     1      -9.313   7.264 -28.869  1.00  0.00     0.000 A 
HETATM   25  C   UNL     1      -9.414   6.938 -30.218  1.00  0.00     0.002 A 
HETATM   26  C   UNL     1      -8.609   5.929 -30.757  1.00  0.00     0.031 A 
ENDBRANCH   1  21
TORSDOF 2
ENDMDL
