MODEL 1
REMARK VINA RESULT:      -9.0      0.000      0.000
REMARK  5 active torsions:
REMARK  status: ('A' for Active; 'I' for Inactive)
REMARK    1  A    between atoms: C_7  and  C_8 
REMARK       I    between atoms: C_8  and  N_9 
REMARK    2  A    between atoms: N_9  and  C_10 
REMARK    3  A    between atoms: C_10  and  C_11 
REMARK    4  A    between atoms: C_11  and  O_12 
REMARK    5  A    between atoms: C_11  and  C_13 
ROOT
HETATM    1  C   UNL     1      -7.062  -0.071 -34.785  1.00  0.00     0.254 C 
HETATM    2  N   UNL     1      -8.109   0.156 -33.920  1.00  0.00    -0.354 N 
HETATM    3  O   UNL     1      -7.037   0.401 -35.919  1.00  0.00    -0.268 OA
HETATM    4  H   UNL     1      -7.930   0.005 -32.935  1.00  0.00     0.162 HD
ENDROOT
BRANCH   2   5
HETATM    5  C   UNL     1      -9.140   1.134 -34.232  1.00  0.00     0.159 C 
BRANCH   5   6
HETATM    6  C   UNL     1     -10.098   1.379 -33.051  1.00  0.00     0.175 C 
BRANCH   6   7
HETATM    7  O   UNL     1      -9.686   0.560 -31.946  1.00  0.00    -0.389 OA
HETATM    8  H   UNL     1      -8.769   0.789 -31.716  1.00  0.00     0.210 HD
ENDBRANCH   6   7
BRANCH   6   9
HETATM    9  C   UNL     1     -11.546   1.201 -33.442  1.00  0.00     0.049 A 
HETATM   10  C   UNL     1     -12.266   2.299 -33.922  1.00  0.00     0.128 A 
HETATM   11  F   UNL     1     -11.673   3.500 -33.991  1.00  0.00    -0.205 F 
HETATM   12  C   UNL     1     -13.595   2.188 -34.333  1.00  0.00     0.043 A 
HETATM   13  C   UNL     1     -14.233   0.952 -34.281  1.00  0.00     0.006 A 
HETATM   14  C   UNL     1     -13.535  -0.161 -33.814  1.00  0.00     0.043 A 
HETATM   15  C   UNL     1     -12.208  -0.027 -33.404  1.00  0.00     0.128 A 
HETATM   16  F   UNL     1     -11.575  -1.114 -32.939  1.00  0.00    -0.205 F 
ENDBRANCH   6   9
ENDBRANCH   5   6
ENDBRANCH   2   5
BRANCH   1  17
HETATM   17  C   UNL     1      -5.956  -0.861 -34.236  1.00  0.00     0.066 A 
HETATM   18  C   UNL     1      -4.911  -0.430 -33.419  1.00  0.00     0.022 A 
HETATM   19  C   UNL     1      -4.598   0.889 -32.806  1.00  0.00     0.069 C 
HETATM   20  N   UNL     1      -4.104  -1.514 -33.167  1.00  0.00    -0.358 N 
HETATM   21  H   UNL     1      -3.266  -1.496 -32.601  1.00  0.00     0.166 HD
HETATM   22  C   UNL     1      -4.606  -2.647 -33.755  1.00  0.00     0.043 A 
HETATM   23  C   UNL     1      -5.771  -2.277 -34.424  1.00  0.00     0.008 A 
HETATM   24  C   UNL     1      -4.121  -3.961 -33.739  1.00  0.00     0.030 A 
HETATM   25  C   UNL     1      -6.486  -3.279 -35.115  1.00  0.00     0.015 A 
HETATM   26  C   UNL     1      -6.019  -4.598 -35.110  1.00  0.00     0.001 A 
HETATM   27  C   UNL     1      -4.851  -4.932 -34.430  1.00  0.00     0.002 A 
ENDBRANCH   1  17
TORSDOF 5
ENDMDL
MODEL 2
REMARK VINA RESULT:      -8.9      0.112      1.684
REMARK  5 active torsions:
REMARK  status: ('A' for Active; 'I' for Inactive)
REMARK    1  A    between atoms: C_7  and  C_8 
REMARK       I    between atoms: C_8  and  N_9 
REMARK    2  A    between atoms: N_9  and  C_10 
REMARK    3  A    between atoms: C_10  and  C_11 
REMARK    4  A    between atoms: C_11  and  O_12 
REMARK    5  A    between atoms: C_11  and  C_13 
ROOT
HETATM    1  C   UNL     1      -7.016  -0.144 -34.752  1.00  0.00     0.254 C 
HETATM    2  N   UNL     1      -8.091   0.040 -33.911  1.00  0.00    -0.354 N 
HETATM    3  O   UNL     1      -6.971   0.355 -35.873  1.00  0.00    -0.268 OA
HETATM    4  H   UNL     1      -7.936  -0.130 -32.925  1.00  0.00     0.162 HD
ENDROOT
BRANCH   2   5
HETATM    5  C   UNL     1      -9.136   1.000 -34.230  1.00  0.00     0.159 C 
BRANCH   5   6
HETATM    6  C   UNL     1     -10.109   1.225 -33.057  1.00  0.00     0.175 C 
BRANCH   6   7
HETATM    7  O   UNL     1      -9.764   0.326 -31.993  1.00  0.00    -0.389 OA
HETATM    8  H   UNL     1     -10.055   0.717 -31.151  1.00  0.00     0.210 HD
ENDBRANCH   6   7
BRANCH   6   9
HETATM    9  C   UNL     1     -11.555   1.141 -33.489  1.00  0.00     0.049 A 
HETATM   10  C   UNL     1     -12.230  -0.079 -33.387  1.00  0.00     0.128 A 
HETATM   11  F   UNL     1     -11.576  -1.163 -32.946  1.00  0.00    -0.205 F 
HETATM   12  C   UNL     1     -13.575  -0.209 -33.735  1.00  0.00     0.043 A 
HETATM   13  C   UNL     1     -14.282   0.902 -34.187  1.00  0.00     0.006 A 
HETATM   14  C   UNL     1     -13.634   2.131 -34.289  1.00  0.00     0.043 A 
HETATM   15  C   UNL     1     -12.287   2.239 -33.941  1.00  0.00     0.128 A 
HETATM   16  F   UNL     1     -11.691   3.432 -34.073  1.00  0.00    -0.205 F 
ENDBRANCH   6   9
ENDBRANCH   5   6
ENDBRANCH   2   5
BRANCH   1  17
HETATM   17  C   UNL     1      -5.907  -0.920 -34.189  1.00  0.00     0.066 A 
HETATM   18  C   UNL     1      -4.874  -0.475 -33.365  1.00  0.00     0.022 A 
HETATM   19  C   UNL     1      -4.579   0.849 -32.755  1.00  0.00     0.069 C 
HETATM   20  N   UNL     1      -4.058  -1.550 -33.101  1.00  0.00    -0.358 N 
HETATM   21  H   UNL     1      -3.226  -1.521 -32.528  1.00  0.00     0.166 HD
HETATM   22  C   UNL     1      -4.543  -2.691 -33.688  1.00  0.00     0.043 A 
HETATM   23  C   UNL     1      -5.706  -2.335 -34.369  1.00  0.00     0.008 A 
HETATM   24  C   UNL     1      -4.045  -4.000 -33.662  1.00  0.00     0.030 A 
HETATM   25  C   UNL     1      -6.405  -3.346 -35.063  1.00  0.00     0.015 A 
HETATM   26  C   UNL     1      -5.925  -4.661 -35.048  1.00  0.00     0.001 A 
HETATM   27  C   UNL     1      -4.760  -4.981 -34.356  1.00  0.00     0.002 A 
ENDBRANCH   1  17
TORSDOF 5
ENDMDL
MODEL 3
REMARK VINA RESULT:      -8.6      2.257      3.691
REMARK  5 active torsions:
REMARK  status: ('A' for Active; 'I' for Inactive)
REMARK    1  A    between atoms: C_7  and  C_8 
REMARK       I    between atoms: C_8  and  N_9 
REMARK    2  A    between atoms: N_9  and  C_10 
REMARK    3  A    between atoms: C_10  and  C_11 
REMARK    4  A    between atoms: C_11  and  O_12 
REMARK    5  A    between atoms: C_11  and  C_13 
ROOT
HETATM    1  C   UNL     1      -7.347  -0.201 -34.473  1.00  0.00     0.254 C 
HETATM    2  N   UNL     1      -8.369  -0.265 -33.551  1.00  0.00    -0.354 N 
HETATM    3  O   UNL     1      -7.432   0.471 -35.497  1.00  0.00    -0.268 OA
HETATM    4  H   UNL     1      -8.125  -0.571 -32.618  1.00  0.00     0.162 HD
ENDROOT
BRANCH   2   5
HETATM    5  C   UNL     1      -9.519   0.621 -33.647  1.00  0.00     0.159 C 
BRANCH   5   6
HETATM    6  C   UNL     1      -9.590   1.622 -32.478  1.00  0.00     0.175 C 
BRANCH   6   7
HETATM    7  O   UNL     1     -10.938   2.099 -32.360  1.00  0.00    -0.389 OA
HETATM    8  H   UNL     1     -10.917   3.067 -32.264  1.00  0.00     0.210 HD
ENDBRANCH   6   7
BRANCH   6   9
HETATM    9  C   UNL     1      -8.558   2.719 -32.600  1.00  0.00     0.049 A 
HETATM   10  C   UNL     1      -7.548   2.819 -31.638  1.00  0.00     0.128 A 
HETATM   11  F   UNL     1      -7.532   1.967 -30.603  1.00  0.00    -0.205 F 
HETATM   12  C   UNL     1      -6.547   3.787 -31.718  1.00  0.00     0.043 A 
HETATM   13  C   UNL     1      -6.532   4.680 -32.787  1.00  0.00     0.006 A 
HETATM   14  C   UNL     1      -7.523   4.596 -33.763  1.00  0.00     0.043 A 
HETATM   15  C   UNL     1      -8.518   3.623 -33.662  1.00  0.00     0.128 A 
HETATM   16  F   UNL     1      -9.468   3.586 -34.608  1.00  0.00    -0.205 F 
ENDBRANCH   6   9
ENDBRANCH   5   6
ENDBRANCH   2   5
BRANCH   1  17
HETATM   17  C   UNL     1      -6.132  -0.938 -34.112  1.00  0.00     0.066 A 
HETATM   18  C   UNL     1      -4.992  -0.458 -33.469  1.00  0.00     0.022 A 
HETATM   19  C   UNL     1      -4.647   0.875 -32.904  1.00  0.00     0.069 C 
HETATM   20  N   UNL     1      -4.105  -1.502 -33.357  1.00  0.00    -0.358 N 
HETATM   21  H   UNL     1      -3.190  -1.445 -32.931  1.00  0.00     0.166 HD
HETATM   22  C   UNL     1      -4.641  -2.658 -33.865  1.00  0.00     0.043 A 
HETATM   23  C   UNL     1      -5.913  -2.343 -34.337  1.00  0.00     0.008 A 
HETATM   24  C   UNL     1      -4.099  -3.948 -33.935  1.00  0.00     0.030 A 
HETATM   25  C   UNL     1      -6.683  -3.378 -34.913  1.00  0.00     0.015 A 
HETATM   26  C   UNL     1      -6.160  -4.674 -34.992  1.00  0.00     0.001 A 
HETATM   27  C   UNL     1      -4.884  -4.952 -34.509  1.00  0.00     0.002 A 
ENDBRANCH   1  17
TORSDOF 5
ENDMDL
MODEL 4
REMARK VINA RESULT:      -8.5      4.763      7.741
REMARK  5 active torsions:
REMARK  status: ('A' for Active; 'I' for Inactive)
REMARK    1  A    between atoms: C_7  and  C_8 
REMARK       I    between atoms: C_8  and  N_9 
REMARK    2  A    between atoms: N_9  and  C_10 
REMARK    3  A    between atoms: C_10  and  C_11 
REMARK    4  A    between atoms: C_11  and  O_12 
REMARK    5  A    between atoms: C_11  and  C_13 
ROOT
HETATM    1  C   UNL     1      -5.489   1.367 -32.086  1.00  0.00     0.254 C 
HETATM    2  N   UNL     1      -5.141   2.447 -32.866  1.00  0.00    -0.354 N 
HETATM    3  O   UNL     1      -5.169   1.285 -30.904  1.00  0.00    -0.268 OA
HETATM    4  H   UNL     1      -5.679   2.596 -33.710  1.00  0.00     0.162 HD
ENDROOT
BRANCH   2   5
HETATM    5  C   UNL     1      -4.551   3.638 -32.275  1.00  0.00     0.159 C 
BRANCH   5   6
HETATM    6  C   UNL     1      -3.011   3.612 -32.308  1.00  0.00     0.175 C 
BRANCH   6   7
HETATM    7  O   UNL     1      -2.535   2.954 -31.124  1.00  0.00    -0.389 OA
HETATM    8  H   UNL     1      -1.709   2.489 -31.339  1.00  0.00     0.210 HD
ENDBRANCH   6   7
BRANCH   6   9
HETATM    9  C   UNL     1      -2.419   4.984 -32.529  1.00  0.00     0.049 A 
HETATM   10  C   UNL     1      -1.841   5.290 -33.765  1.00  0.00     0.128 A 
HETATM   11  F   UNL     1      -1.785   4.350 -34.720  1.00  0.00    -0.205 F 
HETATM   12  C   UNL     1      -1.312   6.551 -34.040  1.00  0.00     0.043 A 
HETATM   13  C   UNL     1      -1.365   7.548 -33.071  1.00  0.00     0.006 A 
HETATM   14  C   UNL     1      -1.943   7.272 -31.834  1.00  0.00     0.043 A 
HETATM   15  C   UNL     1      -2.462   6.003 -31.577  1.00  0.00     0.128 A 
HETATM   16  F   UNL     1      -2.991   5.766 -30.368  1.00  0.00    -0.205 F 
ENDBRANCH   6   9
ENDBRANCH   5   6
ENDBRANCH   2   5
BRANCH   1  17
HETATM   17  C   UNL     1      -6.321   0.359 -32.750  1.00  0.00     0.066 A 
HETATM   18  C   UNL     1      -7.707   0.355 -32.913  1.00  0.00     0.022 A 
HETATM   19  C   UNL     1      -8.760   1.339 -32.545  1.00  0.00     0.069 C 
HETATM   20  N   UNL     1      -8.045  -0.798 -33.580  1.00  0.00    -0.358 N 
HETATM   21  H   UNL     1      -8.986  -1.067 -33.836  1.00  0.00     0.166 HD
HETATM   22  C   UNL     1      -6.928  -1.528 -33.897  1.00  0.00     0.043 A 
HETATM   23  C   UNL     1      -5.830  -0.828 -33.401  1.00  0.00     0.008 A 
HETATM   24  C   UNL     1      -6.810  -2.743 -34.585  1.00  0.00     0.030 A 
HETATM   25  C   UNL     1      -4.546  -1.378 -33.604  1.00  0.00     0.015 A 
HETATM   26  C   UNL     1      -4.407  -2.590 -34.289  1.00  0.00     0.001 A 
HETATM   27  C   UNL     1      -5.526  -3.262 -34.772  1.00  0.00     0.002 A 
ENDBRANCH   1  17
TORSDOF 5
ENDMDL
MODEL 5
REMARK VINA RESULT:      -8.4      4.306      6.152
REMARK  5 active torsions:
REMARK  status: ('A' for Active; 'I' for Inactive)
REMARK    1  A    between atoms: C_7  and  C_8 
REMARK       I    between atoms: C_8  and  N_9 
REMARK    2  A    between atoms: N_9  and  C_10 
REMARK    3  A    between atoms: C_10  and  C_11 
REMARK    4  A    between atoms: C_11  and  O_12 
REMARK    5  A    between atoms: C_11  and  C_13 
ROOT
HETATM    1  C   UNL     1      -6.085   0.516 -32.762  1.00  0.00     0.254 C 
HETATM    2  N   UNL     1      -5.754   1.590 -33.557  1.00  0.00    -0.354 N 
HETATM    3  O   UNL     1      -7.068   0.528 -32.025  1.00  0.00    -0.268 OA
HETATM    4  H   UNL     1      -5.139   1.408 -34.341  1.00  0.00     0.162 HD
ENDROOT
BRANCH   2   5
HETATM    5  C   UNL     1      -6.665   2.713 -33.717  1.00  0.00     0.159 C 
BRANCH   5   6
HETATM    6  C   UNL     1      -6.277   3.917 -32.836  1.00  0.00     0.175 C 
BRANCH   6   7
HETATM    7  O   UNL     1      -7.058   5.052 -33.236  1.00  0.00    -0.389 OA
HETATM    8  H   UNL     1      -6.622   5.858 -32.910  1.00  0.00     0.210 HD
ENDBRANCH   6   7
BRANCH   6   9
HETATM    9  C   UNL     1      -4.787   4.166 -32.831  1.00  0.00     0.049 A 
HETATM   10  C   UNL     1      -4.036   3.809 -31.707  1.00  0.00     0.128 A 
HETATM   11  F   UNL     1      -4.654   3.287 -30.637  1.00  0.00    -0.205 F 
HETATM   12  C   UNL     1      -2.653   3.981 -31.659  1.00  0.00     0.043 A 
HETATM   13  C   UNL     1      -1.984   4.511 -32.758  1.00  0.00     0.006 A 
HETATM   14  C   UNL     1      -2.708   4.868 -33.894  1.00  0.00     0.043 A 
HETATM   15  C   UNL     1      -4.092   4.692 -33.920  1.00  0.00     0.128 A 
HETATM   16  F   UNL     1      -4.759   5.067 -35.022  1.00  0.00    -0.205 F 
ENDBRANCH   6   9
ENDBRANCH   5   6
ENDBRANCH   2   5
BRANCH   1  17
HETATM   17  C   UNL     1      -5.222  -0.659 -32.906  1.00  0.00     0.066 A 
HETATM   18  C   UNL     1      -3.962  -0.878 -32.349  1.00  0.00     0.022 A 
HETATM   19  C   UNL     1      -3.124  -0.070 -31.422  1.00  0.00     0.069 C 
HETATM   20  N   UNL     1      -3.527  -2.111 -32.771  1.00  0.00    -0.358 N 
HETATM   21  H   UNL     1      -2.641  -2.532 -32.522  1.00  0.00     0.166 HD
HETATM   22  C   UNL     1      -4.473  -2.726 -33.550  1.00  0.00     0.043 A 
HETATM   23  C   UNL     1      -5.552  -1.849 -33.647  1.00  0.00     0.008 A 
HETATM   24  C   UNL     1      -4.455  -3.984 -34.166  1.00  0.00     0.030 A 
HETATM   25  C   UNL     1      -6.672  -2.256 -34.404  1.00  0.00     0.015 A 
HETATM   26  C   UNL     1      -6.675  -3.510 -35.026  1.00  0.00     0.001 A 
HETATM   27  C   UNL     1      -5.579  -4.361 -34.907  1.00  0.00     0.002 A 
ENDBRANCH   1  17
TORSDOF 5
ENDMDL
MODEL 6
REMARK VINA RESULT:      -8.3      1.488      2.352
REMARK  5 active torsions:
REMARK  status: ('A' for Active; 'I' for Inactive)
REMARK    1  A    between atoms: C_7  and  C_8 
REMARK       I    between atoms: C_8  and  N_9 
REMARK    2  A    between atoms: N_9  and  C_10 
REMARK    3  A    between atoms: C_10  and  C_11 
REMARK    4  A    between atoms: C_11  and  O_12 
REMARK    5  A    between atoms: C_11  and  C_13 
ROOT
HETATM    1  C   UNL     1      -7.535   0.220 -32.450  1.00  0.00     0.254 C 
HETATM    2  N   UNL     1      -8.560   0.402 -33.351  1.00  0.00    -0.354 N 
HETATM    3  O   UNL     1      -7.655   0.497 -31.260  1.00  0.00    -0.268 OA
HETATM    4  H   UNL     1      -8.505  -0.116 -34.219  1.00  0.00     0.162 HD
ENDROOT
BRANCH   2   5
HETATM    5  C   UNL     1      -9.902   0.741 -32.901  1.00  0.00     0.159 C 
BRANCH   5   6
HETATM    6  C   UNL     1     -10.828   1.150 -34.062  1.00  0.00     0.175 C 
BRANCH   6   7
HETATM    7  O   UNL     1     -10.123   2.067 -34.913  1.00  0.00    -0.389 OA
HETATM    8  H   UNL     1     -10.127   2.944 -34.493  1.00  0.00     0.210 HD
ENDBRANCH   6   7
BRANCH   6   9
HETATM    9  C   UNL     1     -12.163   1.664 -33.576  1.00  0.00     0.049 A 
HETATM   10  C   UNL     1     -13.295   0.853 -33.700  1.00  0.00     0.128 A 
HETATM   11  F   UNL     1     -13.187  -0.350 -34.283  1.00  0.00    -0.205 F 
HETATM   12  C   UNL     1     -14.547   1.258 -33.236  1.00  0.00     0.043 A 
HETATM   13  C   UNL     1     -14.686   2.498 -32.619  1.00  0.00     0.006 A 
HETATM   14  C   UNL     1     -13.572   3.322 -32.475  1.00  0.00     0.043 A 
HETATM   15  C   UNL     1     -12.329   2.899 -32.950  1.00  0.00     0.128 A 
HETATM   16  F   UNL     1     -11.283   3.727 -32.814  1.00  0.00    -0.205 F 
ENDBRANCH   6   9
ENDBRANCH   5   6
ENDBRANCH   2   5
BRANCH   1  17
HETATM   17  C   UNL     1      -6.319  -0.386 -33.000  1.00  0.00     0.066 A 
HETATM   18  C   UNL     1      -5.008   0.084 -32.918  1.00  0.00     0.022 A 
HETATM   19  C   UNL     1      -4.409   1.264 -32.238  1.00  0.00     0.069 C 
HETATM   20  N   UNL     1      -4.204  -0.802 -33.593  1.00  0.00    -0.358 N 
HETATM   21  H   UNL     1      -3.202  -0.715 -33.699  1.00  0.00     0.166 HD
HETATM   22  C   UNL     1      -4.934  -1.858 -34.078  1.00  0.00     0.043 A 
HETATM   23  C   UNL     1      -6.261  -1.635 -33.715  1.00  0.00     0.008 A 
HETATM   24  C   UNL     1      -4.520  -2.985 -34.799  1.00  0.00     0.030 A 
HETATM   25  C   UNL     1      -7.224  -2.593 -34.099  1.00  0.00     0.015 A 
HETATM   26  C   UNL     1      -6.831  -3.727 -34.818  1.00  0.00     0.001 A 
HETATM   27  C   UNL     1      -5.495  -3.918 -35.163  1.00  0.00     0.002 A 
ENDBRANCH   1  17
TORSDOF 5
ENDMDL
MODEL 7
REMARK VINA RESULT:      -8.3      2.772      4.250
REMARK  5 active torsions:
REMARK  status: ('A' for Active; 'I' for Inactive)
REMARK    1  A    between atoms: C_7  and  C_8 
REMARK       I    between atoms: C_8  and  N_9 
REMARK    2  A    between atoms: N_9  and  C_10 
REMARK    3  A    between atoms: C_10  and  C_11 
REMARK    4  A    between atoms: C_11  and  O_12 
REMARK    5  A    between atoms: C_11  and  C_13 
ROOT
HETATM    1  C   UNL     1      -7.063  -0.017 -33.906  1.00  0.00     0.254 C 
HETATM    2  N   UNL     1      -7.854   0.061 -32.781  1.00  0.00    -0.354 N 
HETATM    3  O   UNL     1      -7.284   0.656 -34.909  1.00  0.00    -0.268 OA
HETATM    4  H   UNL     1      -7.452  -0.271 -31.914  1.00  0.00     0.162 HD
ENDROOT
BRANCH   2   5
HETATM    5  C   UNL     1      -8.871   1.093 -32.652  1.00  0.00     0.159 C 
BRANCH   5   6
HETATM    6  C   UNL     1      -8.813   1.813 -31.291  1.00  0.00     0.175 C 
BRANCH   6   7
HETATM    7  O   UNL     1     -10.018   2.573 -31.119  1.00  0.00    -0.389 OA
HETATM    8  H   UNL     1      -9.856   3.261 -30.451  1.00  0.00     0.210 HD
ENDBRANCH   6   7
BRANCH   6   9
HETATM    9  C   UNL     1      -7.547   2.621 -31.125  1.00  0.00     0.049 A 
HETATM   10  C   UNL     1      -7.426   3.848 -31.783  1.00  0.00     0.128 A 
HETATM   11  F   UNL     1      -8.417   4.271 -32.582  1.00  0.00    -0.205 F 
HETATM   12  C   UNL     1      -6.298   4.655 -31.638  1.00  0.00     0.043 A 
HETATM   13  C   UNL     1      -5.258   4.246 -30.808  1.00  0.00     0.006 A 
HETATM   14  C   UNL     1      -5.357   3.031 -30.134  1.00  0.00     0.043 A 
HETATM   15  C   UNL     1      -6.492   2.236 -30.296  1.00  0.00     0.128 A 
HETATM   16  F   UNL     1      -6.543   1.063 -29.650  1.00  0.00    -0.205 F 
ENDBRANCH   6   9
ENDBRANCH   5   6
ENDBRANCH   2   5
BRANCH   1  17
HETATM   17  C   UNL     1      -5.904  -0.909 -33.795  1.00  0.00     0.066 A 
HETATM   18  C   UNL     1      -4.643  -0.623 -33.272  1.00  0.00     0.022 A 
HETATM   19  C   UNL     1      -4.077   0.594 -32.630  1.00  0.00     0.069 C 
HETATM   20  N   UNL     1      -3.876  -1.757 -33.391  1.00  0.00    -0.358 N 
HETATM   21  H   UNL     1      -2.913  -1.842 -33.094  1.00  0.00     0.166 HD
HETATM   22  C   UNL     1      -4.602  -2.787 -33.933  1.00  0.00     0.043 A 
HETATM   23  C   UNL     1      -5.879  -2.294 -34.189  1.00  0.00     0.008 A 
HETATM   24  C   UNL     1      -4.225  -4.108 -34.208  1.00  0.00     0.030 A 
HETATM   25  C   UNL     1      -6.830  -3.172 -34.753  1.00  0.00     0.015 A 
HETATM   26  C   UNL     1      -6.474  -4.496 -35.034  1.00  0.00     0.001 A 
HETATM   27  C   UNL     1      -5.188  -4.955 -34.765  1.00  0.00     0.002 A 
ENDBRANCH   1  17
TORSDOF 5
ENDMDL
MODEL 8
REMARK VINA RESULT:      -8.2      2.429      3.525
REMARK  5 active torsions:
REMARK  status: ('A' for Active; 'I' for Inactive)
REMARK    1  A    between atoms: C_7  and  C_8 
REMARK       I    between atoms: C_8  and  N_9 
REMARK    2  A    between atoms: N_9  and  C_10 
REMARK    3  A    between atoms: C_10  and  C_11 
REMARK    4  A    between atoms: C_11  and  O_12 
REMARK    5  A    between atoms: C_11  and  C_13 
ROOT
HETATM    1  C   UNL     1      -5.558   0.677 -32.191  1.00  0.00     0.254 C 
HETATM    2  N   UNL     1      -5.052   1.844 -32.718  1.00  0.00    -0.354 N 
HETATM    3  O   UNL     1      -6.573   0.657 -31.500  1.00  0.00    -0.268 OA
HETATM    4  H   UNL     1      -4.420   1.757 -33.503  1.00  0.00     0.162 HD
ENDROOT
BRANCH   2   5
HETATM    5  C   UNL     1      -5.810   3.085 -32.651  1.00  0.00     0.159 C 
BRANCH   5   6
HETATM    6  C   UNL     1      -6.735   3.276 -33.868  1.00  0.00     0.175 C 
BRANCH   6   7
HETATM    7  O   UNL     1      -6.784   4.673 -34.195  1.00  0.00    -0.389 OA
HETATM    8  H   UNL     1      -6.032   5.117 -33.767  1.00  0.00     0.210 HD
ENDBRANCH   6   7
BRANCH   6   9
HETATM    9  C   UNL     1      -8.092   2.646 -33.661  1.00  0.00     0.049 A 
HETATM   10  C   UNL     1      -8.426   1.489 -34.372  1.00  0.00     0.128 A 
HETATM   11  F   UNL     1      -7.554   0.980 -35.254  1.00  0.00    -0.205 F 
HETATM   12  C   UNL     1      -9.648   0.841 -34.195  1.00  0.00     0.043 A 
HETATM   13  C   UNL     1     -10.569   1.342 -33.279  1.00  0.00     0.006 A 
HETATM   14  C   UNL     1     -10.258   2.489 -32.551  1.00  0.00     0.043 A 
HETATM   15  C   UNL     1      -9.031   3.125 -32.746  1.00  0.00     0.128 A 
HETATM   16  F   UNL     1      -8.774   4.238 -32.045  1.00  0.00    -0.205 F 
ENDBRANCH   6   9
ENDBRANCH   5   6
ENDBRANCH   2   5
BRANCH   1  17
HETATM   17  C   UNL     1      -4.836  -0.543 -32.566  1.00  0.00     0.066 A 
HETATM   18  C   UNL     1      -3.559  -0.944 -32.174  1.00  0.00     0.022 A 
HETATM   19  C   UNL     1      -2.561  -0.343 -31.248  1.00  0.00     0.069 C 
HETATM   20  N   UNL     1      -3.292  -2.146 -32.786  1.00  0.00    -0.358 N 
HETATM   21  H   UNL     1      -2.436  -2.673 -32.684  1.00  0.00     0.166 HD
HETATM   22  C   UNL     1      -4.365  -2.566 -33.531  1.00  0.00     0.043 A 
HETATM   23  C   UNL     1      -5.353  -1.591 -33.407  1.00  0.00     0.008 A 
HETATM   24  C   UNL     1      -4.532  -3.729 -34.293  1.00  0.00     0.030 A 
HETATM   25  C   UNL     1      -6.573  -1.793 -34.087  1.00  0.00     0.015 A 
HETATM   26  C   UNL     1      -6.761  -2.949 -34.853  1.00  0.00     0.001 A 
HETATM   27  C   UNL     1      -5.752  -3.903 -34.953  1.00  0.00     0.002 A 
ENDBRANCH   1  17
TORSDOF 5
ENDMDL
MODEL 9
REMARK VINA RESULT:      -8.2      3.977      6.087
REMARK  5 active torsions:
REMARK  status: ('A' for Active; 'I' for Inactive)
REMARK    1  A    between atoms: C_7  and  C_8 
REMARK       I    between atoms: C_8  and  N_9 
REMARK    2  A    between atoms: N_9  and  C_10 
REMARK    3  A    between atoms: C_10  and  C_11 
REMARK    4  A    between atoms: C_11  and  O_12 
REMARK    5  A    between atoms: C_11  and  C_13 
ROOT
HETATM    1  C   UNL     1      -4.242   0.008 -33.135  1.00  0.00     0.254 C 
HETATM    2  N   UNL     1      -4.776   0.757 -32.110  1.00  0.00    -0.354 N 
HETATM    3  O   UNL     1      -3.044   0.030 -33.405  1.00  0.00    -0.268 OA
HETATM    4  H   UNL     1      -5.678   0.467 -31.753  1.00  0.00     0.162 HD
ENDROOT
BRANCH   2   5
HETATM    5  C   UNL     1      -3.917   1.454 -31.166  1.00  0.00     0.159 C 
BRANCH   5   6
HETATM    6  C   UNL     1      -4.319   2.929 -30.981  1.00  0.00     0.175 C 
BRANCH   6   7
HETATM    7  O   UNL     1      -5.592   2.981 -30.319  1.00  0.00    -0.389 OA
HETATM    8  H   UNL     1      -5.808   3.911 -30.135  1.00  0.00     0.210 HD
ENDBRANCH   6   7
BRANCH   6   9
HETATM    9  C   UNL     1      -4.269   3.704 -32.277  1.00  0.00     0.049 A 
HETATM   10  C   UNL     1      -3.046   4.216 -32.722  1.00  0.00     0.128 A 
HETATM   11  F   UNL     1      -1.946   4.046 -31.974  1.00  0.00    -0.205 F 
HETATM   12  C   UNL     1      -2.930   4.906 -33.928  1.00  0.00     0.043 A 
HETATM   13  C   UNL     1      -4.054   5.090 -34.729  1.00  0.00     0.006 A 
HETATM   14  C   UNL     1      -5.283   4.582 -34.313  1.00  0.00     0.043 A 
HETATM   15  C   UNL     1      -5.378   3.898 -33.101  1.00  0.00     0.128 A 
HETATM   16  F   UNL     1      -6.580   3.443 -32.721  1.00  0.00    -0.205 F 
ENDBRANCH   6   9
ENDBRANCH   5   6
ENDBRANCH   2   5
BRANCH   1  17
HETATM   17  C   UNL     1      -5.192  -0.861 -33.836  1.00  0.00     0.066 A 
HETATM   18  C   UNL     1      -6.374  -0.502 -34.483  1.00  0.00     0.022 A 
HETATM   19  C   UNL     1      -7.022   0.815 -34.727  1.00  0.00     0.069 C 
HETATM   20  N   UNL     1      -6.943  -1.650 -34.981  1.00  0.00    -0.358 N 
HETATM   21  H   UNL     1      -7.811  -1.692 -35.498  1.00  0.00     0.166 HD
HETATM   22  C   UNL     1      -6.156  -2.742 -34.719  1.00  0.00     0.043 A 
HETATM   23  C   UNL     1      -5.046  -2.283 -34.013  1.00  0.00     0.008 A 
HETATM   24  C   UNL     1      -6.340  -4.089 -35.058  1.00  0.00     0.030 A 
HETATM   25  C   UNL     1      -4.070  -3.226 -33.624  1.00  0.00     0.015 A 
HETATM   26  C   UNL     1      -4.235  -4.576 -33.954  1.00  0.00     0.001 A 
HETATM   27  C   UNL     1      -5.357  -4.999 -34.661  1.00  0.00     0.002 A 
ENDBRANCH   1  17
TORSDOF 5
ENDMDL
MODEL 10
REMARK VINA RESULT:      -8.1      4.294      7.308
REMARK  5 active torsions:
REMARK  status: ('A' for Active; 'I' for Inactive)
REMARK    1  A    between atoms: C_7  and  C_8 
REMARK       I    between atoms: C_8  and  N_9 
REMARK    2  A    between atoms: N_9  and  C_10 
REMARK    3  A    between atoms: C_10  and  C_11 
REMARK    4  A    between atoms: C_11  and  O_12 
REMARK    5  A    between atoms: C_11  and  C_13 
ROOT
HETATM    1  C   UNL     1      -3.827   2.649 -31.825  1.00  0.00     0.254 C 
HETATM    2  N   UNL     1      -5.022   2.494 -31.159  1.00  0.00    -0.354 N 
HETATM    3  O   UNL     1      -2.904   1.849 -31.707  1.00  0.00    -0.268 OA
HETATM    4  H   UNL     1      -5.821   2.995 -31.526  1.00  0.00     0.162 HD
ENDROOT
BRANCH   2   5
HETATM    5  C   UNL     1      -5.323   1.266 -30.439  1.00  0.00     0.159 C 
BRANCH   5   6
HETATM    6  C   UNL     1      -6.680   0.660 -30.848  1.00  0.00     0.175 C 
BRANCH   6   7
HETATM    7  O   UNL     1      -7.057  -0.325 -29.875  1.00  0.00    -0.389 OA
HETATM    8  H   UNL     1      -6.771  -0.019 -28.998  1.00  0.00     0.210 HD
ENDBRANCH   6   7
BRANCH   6   9
HETATM    9  C   UNL     1      -6.673   0.149 -32.270  1.00  0.00     0.049 A 
HETATM   10  C   UNL     1      -5.738  -0.820 -32.645  1.00  0.00     0.128 A 
HETATM   11  F   UNL     1      -4.837  -1.252 -31.750  1.00  0.00    -0.205 F 
HETATM   12  C   UNL     1      -5.707  -1.357 -33.932  1.00  0.00     0.043 A 
HETATM   13  C   UNL     1      -6.636  -0.934 -34.879  1.00  0.00     0.006 A 
HETATM   14  C   UNL     1      -7.585   0.024 -34.528  1.00  0.00     0.043 A 
HETATM   15  C   UNL     1      -7.595   0.552 -33.236  1.00  0.00     0.128 A 
HETATM   16  F   UNL     1      -8.508   1.489 -32.941  1.00  0.00    -0.205 F 
ENDBRANCH   6   9
ENDBRANCH   5   6
ENDBRANCH   2   5
BRANCH   1  17
HETATM   17  C   UNL     1      -3.762   3.799 -32.732  1.00  0.00     0.066 A 
HETATM   18  C   UNL     1      -4.685   4.184 -33.705  1.00  0.00     0.022 A 
HETATM   19  C   UNL     1      -6.008   3.632 -34.104  1.00  0.00     0.069 C 
HETATM   20  N   UNL     1      -4.197   5.312 -34.320  1.00  0.00    -0.358 N 
HETATM   21  H   UNL     1      -4.659   5.812 -35.068  1.00  0.00     0.166 HD
HETATM   22  C   UNL     1      -3.009   5.704 -33.757  1.00  0.00     0.043 A 
HETATM   23  C   UNL     1      -2.712   4.785 -32.753  1.00  0.00     0.008 A 
HETATM   24  C   UNL     1      -2.187   6.798 -34.057  1.00  0.00     0.030 A 
HETATM   25  C   UNL     1      -1.525   4.972 -32.012  1.00  0.00     0.015 A 
HETATM   26  C   UNL     1      -0.691   6.059 -32.295  1.00  0.00     0.001 A 
HETATM   27  C   UNL     1      -1.020   6.959 -33.306  1.00  0.00     0.002 A 
ENDBRANCH   1  17
TORSDOF 5
ENDMDL
