MODEL 1
REMARK VINA RESULT:      -8.3      0.000      0.000
REMARK  7 active torsions:
REMARK  status: ('A' for Active; 'I' for Inactive)
REMARK    1  A    between atoms: N_3  and  C_4 
REMARK    2  A    between atoms: C_12  and  C_13 
REMARK       I    between atoms: C_13  and  N_14 
REMARK    3  A    between atoms: N_14  and  C_15 
REMARK    4  A    between atoms: C_15  and  C_16 
REMARK    5  A    between atoms: C_16  and  O_17 
REMARK    6  A    between atoms: C_16  and  C_18 
REMARK    7  A    between atoms: C_21  and  O_22 
ROOT
HETATM    1  C   UNL     1      -6.114   1.422 -31.799  1.00  0.00     0.255 C 
HETATM    2  N   UNL     1      -6.767   1.247 -32.994  1.00  0.00    -0.350 N 
HETATM    3  O   UNL     1      -6.479   0.865 -30.768  1.00  0.00    -0.268 OA
HETATM    4  H   UNL     1      -6.323   1.561 -33.846  1.00  0.00     0.163 HD
ENDROOT
BRANCH   2   5
HETATM    5  C   UNL     1      -7.926   0.365 -33.144  1.00  0.00     0.114 C 
HETATM    6  C   UNL     1      -9.224   1.183 -33.103  1.00  0.00     0.035 C 
BRANCH   5   7
HETATM    7  C   UNL     1      -7.836  -0.461 -34.466  1.00  0.00     0.173 C 
BRANCH   7   8
HETATM    8  O   UNL     1      -7.565   0.437 -35.556  1.00  0.00    -0.389 OA
HETATM    9  H   UNL     1      -7.652  -0.072 -36.378  1.00  0.00     0.210 HD
ENDBRANCH   7   8
BRANCH   7  10
HETATM   10  C   UNL     1      -6.791  -1.571 -34.482  1.00  0.00    -0.028 A 
HETATM   11  C   UNL     1      -5.452  -1.337 -34.136  1.00  0.00     0.012 A 
HETATM   12  C   UNL     1      -4.520  -2.382 -34.126  1.00  0.00     0.037 A 
HETATM   13  C   UNL     1      -4.900  -3.686 -34.442  1.00  0.00     0.068 A 
HETATM   14  C   UNL     1      -6.229  -3.939 -34.768  1.00  0.00     0.037 A 
HETATM   15  C   UNL     1      -7.161  -2.894 -34.780  1.00  0.00     0.012 A 
BRANCH  13  16
HETATM   16  O   UNL     1      -3.892  -4.608 -34.390  1.00  0.00    -0.356 OA
HETATM   17  C   UNL     1      -3.264  -4.800 -33.128  1.00  0.00     0.210 C 
ENDBRANCH  13  16
ENDBRANCH   7  10
ENDBRANCH   5   7
ENDBRANCH   2   5
BRANCH   1  18
HETATM   18  C   UNL     1      -4.928   2.268 -31.822  1.00  0.00     0.075 C 
HETATM   19  C   UNL     1      -4.701   3.548 -32.323  1.00  0.00     0.051 C 
HETATM   20  C   UNL     1      -5.627   4.548 -32.927  1.00  0.00     0.071 C 
HETATM   21  N   UNL     1      -3.339   3.804 -32.134  1.00  0.00    -0.220 N 
HETATM   22  N   UNL     1      -2.754   2.832 -31.379  1.00  0.00    -0.177 NA
HETATM   23  C   UNL     1      -3.699   1.912 -31.229  1.00  0.00     0.158 C 
BRANCH  21  24
HETATM   24  C   UNL     1      -2.551   4.902 -32.629  1.00  0.00     0.150 A 
HETATM   25  N   UNL     1      -2.379   6.005 -31.851  1.00  0.00    -0.241 NA
HETATM   26  C   UNL     1      -1.653   7.024 -32.365  1.00  0.00     0.119 A 
HETATM   27  C   UNL     1      -1.078   7.005 -33.623  1.00  0.00     0.019 A 
HETATM   28  C   UNL     1      -1.258   5.875 -34.408  1.00  0.00     0.005 A 
HETATM   29  C   UNL     1      -2.007   4.810 -33.913  1.00  0.00     0.052 A 
ENDBRANCH  21  24
ENDBRANCH   1  18
TORSDOF 7
ENDMDL
MODEL 2
REMARK VINA RESULT:      -8.3      2.805      7.794
REMARK  7 active torsions:
REMARK  status: ('A' for Active; 'I' for Inactive)
REMARK    1  A    between atoms: N_3  and  C_4 
REMARK    2  A    between atoms: C_12  and  C_13 
REMARK       I    between atoms: C_13  and  N_14 
REMARK    3  A    between atoms: N_14  and  C_15 
REMARK    4  A    between atoms: C_15  and  C_16 
REMARK    5  A    between atoms: C_16  and  O_17 
REMARK    6  A    between atoms: C_16  and  C_18 
REMARK    7  A    between atoms: C_21  and  O_22 
ROOT
HETATM    1  C   UNL     1      -6.716   2.559 -33.027  1.00  0.00     0.255 C 
HETATM    2  N   UNL     1      -6.911   2.583 -31.668  1.00  0.00    -0.350 N 
HETATM    3  O   UNL     1      -6.564   3.585 -33.683  1.00  0.00    -0.268 OA
HETATM    4  H   UNL     1      -6.834   1.721 -31.146  1.00  0.00     0.163 HD
ENDROOT
BRANCH   2   5
HETATM    5  C   UNL     1      -6.923   3.823 -30.889  1.00  0.00     0.114 C 
HETATM    6  C   UNL     1      -8.088   3.809 -29.890  1.00  0.00     0.035 C 
BRANCH   5   7
HETATM    7  C   UNL     1      -5.565   4.036 -30.151  1.00  0.00     0.173 C 
BRANCH   7   8
HETATM    8  O   UNL     1      -5.172   2.797 -29.536  1.00  0.00    -0.389 OA
HETATM    9  H   UNL     1      -5.829   2.593 -28.851  1.00  0.00     0.210 HD
ENDBRANCH   7   8
BRANCH   7  10
HETATM   10  C   UNL     1      -4.412   4.534 -31.016  1.00  0.00    -0.028 A 
HETATM   11  C   UNL     1      -3.463   3.659 -31.564  1.00  0.00     0.012 A 
HETATM   12  C   UNL     1      -2.434   4.139 -32.384  1.00  0.00     0.037 A 
HETATM   13  C   UNL     1      -2.335   5.496 -32.692  1.00  0.00     0.068 A 
HETATM   14  C   UNL     1      -3.280   6.374 -32.173  1.00  0.00     0.037 A 
HETATM   15  C   UNL     1      -4.309   5.895 -31.351  1.00  0.00     0.012 A 
BRANCH  13  16
HETATM   16  O   UNL     1      -1.287   5.827 -33.504  1.00  0.00    -0.356 OA
HETATM   17  C   UNL     1      -1.319   5.318 -34.832  1.00  0.00     0.210 C 
ENDBRANCH  13  16
ENDBRANCH   7  10
ENDBRANCH   5   7
ENDBRANCH   2   5
BRANCH   1  18
HETATM   18  C   UNL     1      -6.649   1.245 -33.653  1.00  0.00     0.075 C 
HETATM   19  C   UNL     1      -6.296  -0.010 -33.160  1.00  0.00     0.051 C 
HETATM   20  C   UNL     1      -5.958  -0.467 -31.783  1.00  0.00     0.071 C 
HETATM   21  N   UNL     1      -6.335  -0.882 -34.253  1.00  0.00    -0.220 N 
HETATM   22  N   UNL     1      -6.870  -0.276 -35.350  1.00  0.00    -0.177 NA
HETATM   23  C   UNL     1      -7.021   0.993 -34.989  1.00  0.00     0.158 C 
BRANCH  21  24
HETATM   24  C   UNL     1      -5.890  -2.248 -34.333  1.00  0.00     0.150 A 
HETATM   25  N   UNL     1      -4.587  -2.542 -34.075  1.00  0.00    -0.241 NA
HETATM   26  C   UNL     1      -4.204  -3.834 -34.188  1.00  0.00     0.119 A 
HETATM   27  C   UNL     1      -5.058  -4.864 -34.541  1.00  0.00     0.019 A 
HETATM   28  C   UNL     1      -6.385  -4.555 -34.801  1.00  0.00     0.005 A 
HETATM   29  C   UNL     1      -6.811  -3.232 -34.703  1.00  0.00     0.052 A 
ENDBRANCH  21  24
ENDBRANCH   1  18
TORSDOF 7
ENDMDL
MODEL 3
REMARK VINA RESULT:      -8.2      1.346      2.119
REMARK  7 active torsions:
REMARK  status: ('A' for Active; 'I' for Inactive)
REMARK    1  A    between atoms: N_3  and  C_4 
REMARK    2  A    between atoms: C_12  and  C_13 
REMARK       I    between atoms: C_13  and  N_14 
REMARK    3  A    between atoms: N_14  and  C_15 
REMARK    4  A    between atoms: C_15  and  C_16 
REMARK    5  A    between atoms: C_16  and  O_17 
REMARK    6  A    between atoms: C_16  and  C_18 
REMARK    7  A    between atoms: C_21  and  O_22 
ROOT
HETATM    1  C   UNL     1      -6.736   2.201 -32.231  1.00  0.00     0.255 C 
HETATM    2  N   UNL     1      -7.610   1.710 -33.168  1.00  0.00    -0.350 N 
HETATM    3  O   UNL     1      -6.461   1.582 -31.207  1.00  0.00    -0.268 OA
HETATM    4  H   UNL     1      -7.655   2.153 -34.076  1.00  0.00     0.163 HD
ENDROOT
BRANCH   2   5
HETATM    5  C   UNL     1      -8.261   0.405 -33.041  1.00  0.00     0.114 C 
HETATM    6  C   UNL     1      -9.759   0.585 -32.761  1.00  0.00     0.035 C 
BRANCH   5   7
HETATM    7  C   UNL     1      -8.039  -0.460 -34.321  1.00  0.00     0.173 C 
BRANCH   7   8
HETATM    8  O   UNL     1      -7.880   0.415 -35.451  1.00  0.00    -0.389 OA
HETATM    9  H   UNL     1      -8.315   1.255 -35.229  1.00  0.00     0.210 HD
ENDBRANCH   7   8
BRANCH   7  10
HETATM   10  C   UNL     1      -6.851  -1.415 -34.277  1.00  0.00    -0.028 A 
HETATM   11  C   UNL     1      -6.948  -2.743 -34.716  1.00  0.00     0.012 A 
HETATM   12  C   UNL     1      -5.833  -3.590 -34.697  1.00  0.00     0.037 A 
HETATM   13  C   UNL     1      -4.591  -3.131 -34.258  1.00  0.00     0.068 A 
HETATM   14  C   UNL     1      -4.472  -1.809 -33.838  1.00  0.00     0.037 A 
HETATM   15  C   UNL     1      -5.588  -0.963 -33.855  1.00  0.00     0.012 A 
BRANCH  13  16
HETATM   16  O   UNL     1      -3.588  -4.058 -34.294  1.00  0.00    -0.356 OA
HETATM   17  C   UNL     1      -3.735  -5.194 -33.450  1.00  0.00     0.210 C 
ENDBRANCH  13  16
ENDBRANCH   7  10
ENDBRANCH   5   7
ENDBRANCH   2   5
BRANCH   1  18
HETATM   18  C   UNL     1      -6.105   3.478 -32.533  1.00  0.00     0.075 C 
HETATM   19  C   UNL     1      -4.769   3.870 -32.603  1.00  0.00     0.051 C 
HETATM   20  C   UNL     1      -3.506   3.087 -32.490  1.00  0.00     0.071 C 
HETATM   21  N   UNL     1      -4.779   5.247 -32.849  1.00  0.00    -0.220 N 
HETATM   22  N   UNL     1      -6.039   5.691 -33.119  1.00  0.00    -0.177 NA
HETATM   23  C   UNL     1      -6.819   4.639 -32.897  1.00  0.00     0.158 C 
BRANCH  21  24
HETATM   24  C   UNL     1      -3.679   6.174 -32.835  1.00  0.00     0.150 A 
HETATM   25  N   UNL     1      -2.978   6.396 -33.980  1.00  0.00    -0.241 NA
HETATM   26  C   UNL     1      -1.935   7.255 -33.917  1.00  0.00     0.119 A 
HETATM   27  C   UNL     1      -1.548   7.916 -32.765  1.00  0.00     0.019 A 
HETATM   28  C   UNL     1      -2.268   7.683 -31.603  1.00  0.00     0.005 A 
HETATM   29  C   UNL     1      -3.344   6.798 -31.630  1.00  0.00     0.052 A 
ENDBRANCH  21  24
ENDBRANCH   1  18
TORSDOF 7
ENDMDL
MODEL 4
REMARK VINA RESULT:      -8.1      3.020      7.220
REMARK  7 active torsions:
REMARK  status: ('A' for Active; 'I' for Inactive)
REMARK    1  A    between atoms: N_3  and  C_4 
REMARK    2  A    between atoms: C_12  and  C_13 
REMARK       I    between atoms: C_13  and  N_14 
REMARK    3  A    between atoms: N_14  and  C_15 
REMARK    4  A    between atoms: C_15  and  C_16 
REMARK    5  A    between atoms: C_16  and  O_17 
REMARK    6  A    between atoms: C_16  and  C_18 
REMARK    7  A    between atoms: C_21  and  O_22 
ROOT
HETATM    1  C   UNL     1      -7.404   2.267 -33.576  1.00  0.00     0.255 C 
HETATM    2  N   UNL     1      -6.813   2.191 -32.340  1.00  0.00    -0.350 N 
HETATM    3  O   UNL     1      -6.774   2.085 -34.614  1.00  0.00    -0.268 OA
HETATM    4  H   UNL     1      -7.399   2.151 -31.518  1.00  0.00     0.163 HD
ENDROOT
BRANCH   2   5
HETATM    5  C   UNL     1      -5.398   1.861 -32.155  1.00  0.00     0.114 C 
HETATM    6  C   UNL     1      -4.733   2.884 -31.224  1.00  0.00     0.035 C 
BRANCH   5   7
HETATM    7  C   UNL     1      -5.228   0.414 -31.595  1.00  0.00     0.173 C 
BRANCH   7   8
HETATM    8  O   UNL     1      -6.231   0.184 -30.590  1.00  0.00    -0.389 OA
HETATM    9  H   UNL     1      -6.877   0.907 -30.656  1.00  0.00     0.210 HD
ENDBRANCH   7   8
BRANCH   7  10
HETATM   10  C   UNL     1      -5.308  -0.708 -32.625  1.00  0.00    -0.028 A 
HETATM   11  C   UNL     1      -6.528  -1.116 -33.185  1.00  0.00     0.012 A 
HETATM   12  C   UNL     1      -6.571  -2.125 -34.155  1.00  0.00     0.037 A 
HETATM   13  C   UNL     1      -5.401  -2.740 -34.602  1.00  0.00     0.068 A 
HETATM   14  C   UNL     1      -4.181  -2.333 -34.072  1.00  0.00     0.037 A 
HETATM   15  C   UNL     1      -4.139  -1.324 -33.100  1.00  0.00     0.012 A 
BRANCH  13  16
HETATM   16  O   UNL     1      -5.586  -3.705 -35.552  1.00  0.00    -0.356 OA
HETATM   17  C   UNL     1      -6.686  -4.587 -35.364  1.00  0.00     0.210 C 
ENDBRANCH  13  16
ENDBRANCH   7  10
ENDBRANCH   5   7
ENDBRANCH   2   5
BRANCH   1  18
HETATM   18  C   UNL     1      -8.838   2.526 -33.599  1.00  0.00     0.075 C 
HETATM   19  C   UNL     1      -9.937   1.744 -33.248  1.00  0.00     0.051 C 
HETATM   20  C   UNL     1     -10.024   0.392 -32.626  1.00  0.00     0.071 C 
HETATM   21  N   UNL     1     -11.070   2.498 -33.569  1.00  0.00    -0.220 N 
HETATM   22  N   UNL     1     -10.732   3.769 -33.925  1.00  0.00    -0.177 NA
HETATM   23  C   UNL     1      -9.405   3.763 -33.969  1.00  0.00     0.158 C 
BRANCH  21  24
HETATM   24  C   UNL     1     -12.450   2.093 -33.574  1.00  0.00     0.150 A 
HETATM   25  N   UNL     1     -13.315   2.656 -32.687  1.00  0.00    -0.241 NA
HETATM   26  C   UNL     1     -14.597   2.229 -32.707  1.00  0.00     0.119 A 
HETATM   27  C   UNL     1     -15.076   1.263 -33.574  1.00  0.00     0.019 A 
HETATM   28  C   UNL     1     -14.187   0.694 -34.476  1.00  0.00     0.005 A 
HETATM   29  C   UNL     1     -12.856   1.107 -34.477  1.00  0.00     0.052 A 
ENDBRANCH  21  24
ENDBRANCH   1  18
TORSDOF 7
ENDMDL
MODEL 5
REMARK VINA RESULT:      -8.1      1.821      2.783
REMARK  7 active torsions:
REMARK  status: ('A' for Active; 'I' for Inactive)
REMARK    1  A    between atoms: N_3  and  C_4 
REMARK    2  A    between atoms: C_12  and  C_13 
REMARK       I    between atoms: C_13  and  N_14 
REMARK    3  A    between atoms: N_14  and  C_15 
REMARK    4  A    between atoms: C_15  and  C_16 
REMARK    5  A    between atoms: C_16  and  O_17 
REMARK    6  A    between atoms: C_16  and  C_18 
REMARK    7  A    between atoms: C_21  and  O_22 
ROOT
HETATM    1  C   UNL     1      -5.829   3.770 -33.923  1.00  0.00     0.255 C 
HETATM    2  N   UNL     1      -5.865   2.408 -33.756  1.00  0.00    -0.350 N 
HETATM    3  O   UNL     1      -6.829   4.419 -34.218  1.00  0.00    -0.268 OA
HETATM    4  H   UNL     1      -5.076   1.946 -33.325  1.00  0.00     0.163 HD
ENDROOT
BRANCH   2   5
HETATM    5  C   UNL     1      -7.095   1.624 -33.885  1.00  0.00     0.114 C 
HETATM    6  C   UNL     1      -7.240   1.100 -35.321  1.00  0.00     0.035 C 
BRANCH   5   7
HETATM    7  C   UNL     1      -7.119   0.446 -32.863  1.00  0.00     0.173 C 
BRANCH   7   8
HETATM    8  O   UNL     1      -8.487   0.112 -32.572  1.00  0.00    -0.389 OA
HETATM    9  H   UNL     1      -8.824   0.784 -31.956  1.00  0.00     0.210 HD
ENDBRANCH   7   8
BRANCH   7  10
HETATM   10  C   UNL     1      -6.393  -0.823 -33.297  1.00  0.00    -0.028 A 
HETATM   11  C   UNL     1      -7.032  -1.829 -34.036  1.00  0.00     0.012 A 
HETATM   12  C   UNL     1      -6.334  -2.968 -34.453  1.00  0.00     0.037 A 
HETATM   13  C   UNL     1      -4.979  -3.127 -34.160  1.00  0.00     0.068 A 
HETATM   14  C   UNL     1      -4.324  -2.128 -33.445  1.00  0.00     0.037 A 
HETATM   15  C   UNL     1      -5.024  -0.989 -33.027  1.00  0.00     0.012 A 
BRANCH  13  16
HETATM   16  O   UNL     1      -4.420  -4.282 -34.629  1.00  0.00    -0.356 OA
HETATM   17  C   UNL     1      -3.371  -4.847 -33.852  1.00  0.00     0.210 C 
ENDBRANCH  13  16
ENDBRANCH   7  10
ENDBRANCH   5   7
ENDBRANCH   2   5
BRANCH   1  18
HETATM   18  C   UNL     1      -4.549   4.423 -33.683  1.00  0.00     0.075 C 
HETATM   19  C   UNL     1      -3.656   4.369 -32.615  1.00  0.00     0.051 C 
HETATM   20  C   UNL     1      -3.649   3.538 -31.379  1.00  0.00     0.071 C 
HETATM   21  N   UNL     1      -2.639   5.282 -32.912  1.00  0.00    -0.220 N 
HETATM   22  N   UNL     1      -2.758   5.759 -34.183  1.00  0.00    -0.177 NA
HETATM   23  C   UNL     1      -3.912   5.266 -34.617  1.00  0.00     0.158 C 
BRANCH  21  24
HETATM   24  C   UNL     1      -1.567   5.744 -32.070  1.00  0.00     0.150 A 
HETATM   25  N   UNL     1      -0.496   4.935 -31.848  1.00  0.00    -0.241 NA
HETATM   26  C   UNL     1       0.476   5.396 -31.028  1.00  0.00     0.119 A 
HETATM   27  C   UNL     1       0.444   6.635 -30.414  1.00  0.00     0.019 A 
HETATM   28  C   UNL     1      -0.652   7.454 -30.647  1.00  0.00     0.005 A 
HETATM   29  C   UNL     1      -1.676   7.006 -31.479  1.00  0.00     0.052 A 
ENDBRANCH  21  24
ENDBRANCH   1  18
TORSDOF 7
ENDMDL
MODEL 6
REMARK VINA RESULT:      -8.0      1.853      2.549
REMARK  7 active torsions:
REMARK  status: ('A' for Active; 'I' for Inactive)
REMARK    1  A    between atoms: N_3  and  C_4 
REMARK    2  A    between atoms: C_12  and  C_13 
REMARK       I    between atoms: C_13  and  N_14 
REMARK    3  A    between atoms: N_14  and  C_15 
REMARK    4  A    between atoms: C_15  and  C_16 
REMARK    5  A    between atoms: C_16  and  O_17 
REMARK    6  A    between atoms: C_16  and  C_18 
REMARK    7  A    between atoms: C_21  and  O_22 
ROOT
HETATM    1  C   UNL     1      -6.399   3.347 -31.241  1.00  0.00     0.255 C 
HETATM    2  N   UNL     1      -7.054   2.906 -32.363  1.00  0.00    -0.350 N 
HETATM    3  O   UNL     1      -6.977   3.517 -30.171  1.00  0.00    -0.268 OA
HETATM    4  H   UNL     1      -6.511   2.595 -33.157  1.00  0.00     0.163 HD
ENDROOT
BRANCH   2   5
HETATM    5  C   UNL     1      -8.480   2.575 -32.372  1.00  0.00     0.114 C 
HETATM    6  C   UNL     1      -9.099   2.932 -33.731  1.00  0.00     0.035 C 
BRANCH   5   7
HETATM    7  C   UNL     1      -8.708   1.066 -32.043  1.00  0.00     0.173 C 
BRANCH   7   8
HETATM    8  O   UNL     1     -10.041   0.701 -32.437  1.00  0.00    -0.389 OA
HETATM    9  H   UNL     1     -10.131   0.910 -33.381  1.00  0.00     0.210 HD
ENDBRANCH   7   8
BRANCH   7  10
HETATM   10  C   UNL     1      -7.728   0.093 -32.689  1.00  0.00    -0.028 A 
HETATM   11  C   UNL     1      -7.941  -0.433 -33.972  1.00  0.00     0.012 A 
HETATM   12  C   UNL     1      -7.008  -1.298 -34.558  1.00  0.00     0.037 A 
HETATM   13  C   UNL     1      -5.835  -1.648 -33.889  1.00  0.00     0.068 A 
HETATM   14  C   UNL     1      -5.599  -1.119 -32.623  1.00  0.00     0.037 A 
HETATM   15  C   UNL     1      -6.533  -0.255 -32.037  1.00  0.00     0.012 A 
BRANCH  13  16
HETATM   16  O   UNL     1      -5.012  -2.496 -34.575  1.00  0.00    -0.356 OA
HETATM   17  C   UNL     1      -5.584  -3.718 -35.025  1.00  0.00     0.210 C 
ENDBRANCH  13  16
ENDBRANCH   7  10
ENDBRANCH   5   7
ENDBRANCH   2   5
BRANCH   1  18
HETATM   18  C   UNL     1      -4.963   3.561 -31.365  1.00  0.00     0.075 C 
HETATM   19  C   UNL     1      -4.131   4.599 -30.951  1.00  0.00     0.051 C 
HETATM   20  C   UNL     1      -4.408   5.818 -30.140  1.00  0.00     0.071 C 
HETATM   21  N   UNL     1      -2.854   4.290 -31.430  1.00  0.00    -0.220 N 
HETATM   22  N   UNL     1      -2.815   3.033 -31.955  1.00  0.00    -0.177 NA
HETATM   23  C   UNL     1      -4.078   2.625 -31.939  1.00  0.00     0.158 C 
BRANCH  21  24
HETATM   24  C   UNL     1      -1.671   5.108 -31.435  1.00  0.00     0.150 A 
HETATM   25  N   UNL     1      -0.616   4.762 -30.649  1.00  0.00    -0.241 NA
HETATM   26  C   UNL     1       0.467   5.573 -30.664  1.00  0.00     0.119 A 
HETATM   27  C   UNL     1       0.561   6.721 -31.430  1.00  0.00     0.019 A 
HETATM   28  C   UNL     1      -0.520   7.065 -32.229  1.00  0.00     0.005 A 
HETATM   29  C   UNL     1      -1.654   6.256 -32.232  1.00  0.00     0.052 A 
ENDBRANCH  21  24
ENDBRANCH   1  18
TORSDOF 7
ENDMDL
MODEL 7
REMARK VINA RESULT:      -7.6      3.530      8.831
REMARK  7 active torsions:
REMARK  status: ('A' for Active; 'I' for Inactive)
REMARK    1  A    between atoms: N_3  and  C_4 
REMARK    2  A    between atoms: C_12  and  C_13 
REMARK       I    between atoms: C_13  and  N_14 
REMARK    3  A    between atoms: N_14  and  C_15 
REMARK    4  A    between atoms: C_15  and  C_16 
REMARK    5  A    between atoms: C_16  and  O_17 
REMARK    6  A    between atoms: C_16  and  C_18 
REMARK    7  A    between atoms: C_21  and  O_22 
ROOT
HETATM    1  C   UNL     1      -3.165   3.903 -32.348  1.00  0.00     0.255 C 
HETATM    2  N   UNL     1      -2.793   4.801 -33.317  1.00  0.00    -0.350 N 
HETATM    3  O   UNL     1      -2.359   3.428 -31.553  1.00  0.00    -0.268 OA
HETATM    4  H   UNL     1      -3.510   5.310 -33.815  1.00  0.00     0.163 HD
ENDROOT
BRANCH   2   5
HETATM    5  C   UNL     1      -1.420   5.287 -33.464  1.00  0.00     0.114 C 
HETATM    6  C   UNL     1      -1.070   5.446 -34.950  1.00  0.00     0.035 C 
BRANCH   5   7
HETATM    7  C   UNL     1      -1.217   6.634 -32.703  1.00  0.00     0.173 C 
BRANCH   7   8
HETATM    8  O   UNL     1      -2.427   7.405 -32.793  1.00  0.00    -0.389 OA
HETATM    9  H   UNL     1      -2.210   8.316 -32.534  1.00  0.00     0.210 HD
ENDBRANCH   7   8
BRANCH   7  10
HETATM   10  C   UNL     1      -0.829   6.512 -31.233  1.00  0.00    -0.028 A 
HETATM   11  C   UNL     1      -1.531   7.183 -30.221  1.00  0.00     0.012 A 
HETATM   12  C   UNL     1      -1.177   7.027 -28.876  1.00  0.00     0.037 A 
HETATM   13  C   UNL     1      -0.128   6.186 -28.503  1.00  0.00     0.068 A 
HETATM   14  C   UNL     1       0.566   5.496 -29.493  1.00  0.00     0.037 A 
HETATM   15  C   UNL     1       0.212   5.654 -30.839  1.00  0.00     0.012 A 
BRANCH  13  16
HETATM   16  O   UNL     1       0.110   6.123 -27.159  1.00  0.00    -0.356 OA
HETATM   17  C   UNL     1      -0.941   6.553 -26.301  1.00  0.00     0.210 C 
ENDBRANCH  13  16
ENDBRANCH   7  10
ENDBRANCH   5   7
ENDBRANCH   2   5
BRANCH   1  18
HETATM   18  C   UNL     1      -4.583   3.573 -32.275  1.00  0.00     0.075 C 
HETATM   19  C   UNL     1      -5.280   2.385 -32.487  1.00  0.00     0.051 C 
HETATM   20  C   UNL     1      -4.804   1.001 -32.767  1.00  0.00     0.071 C 
HETATM   21  N   UNL     1      -6.636   2.701 -32.357  1.00  0.00    -0.220 N 
HETATM   22  N   UNL     1      -6.805   3.972 -31.896  1.00  0.00    -0.177 NA
HETATM   23  C   UNL     1      -5.581   4.488 -31.882  1.00  0.00     0.158 C 
BRANCH  21  24
HETATM   24  C   UNL     1      -7.784   1.886 -32.651  1.00  0.00     0.150 A 
HETATM   25  N   UNL     1      -8.350   1.950 -33.887  1.00  0.00    -0.241 NA
HETATM   26  C   UNL     1      -9.444   1.187 -34.113  1.00  0.00     0.119 A 
HETATM   27  C   UNL     1     -10.010   0.349 -33.168  1.00  0.00     0.019 A 
HETATM   28  C   UNL     1      -9.425   0.290 -31.911  1.00  0.00     0.005 A 
HETATM   29  C   UNL     1      -8.302   1.069 -31.642  1.00  0.00     0.052 A 
ENDBRANCH  21  24
ENDBRANCH   1  18
TORSDOF 7
ENDMDL
MODEL 8
REMARK VINA RESULT:      -7.4      4.094      7.556
REMARK  7 active torsions:
REMARK  status: ('A' for Active; 'I' for Inactive)
REMARK    1  A    between atoms: N_3  and  C_4 
REMARK    2  A    between atoms: C_12  and  C_13 
REMARK       I    between atoms: C_13  and  N_14 
REMARK    3  A    between atoms: N_14  and  C_15 
REMARK    4  A    between atoms: C_15  and  C_16 
REMARK    5  A    between atoms: C_16  and  O_17 
REMARK    6  A    between atoms: C_16  and  C_18 
REMARK    7  A    between atoms: C_21  and  O_22 
ROOT
HETATM    1  C   UNL     1      -8.201   2.517 -31.679  1.00  0.00     0.255 C 
HETATM    2  N   UNL     1      -7.878   3.664 -32.359  1.00  0.00    -0.350 N 
HETATM    3  O   UNL     1      -9.134   2.470 -30.882  1.00  0.00    -0.268 OA
HETATM    4  H   UNL     1      -7.239   3.607 -33.140  1.00  0.00     0.163 HD
ENDROOT
BRANCH   2   5
HETATM    5  C   UNL     1      -8.631   4.912 -32.216  1.00  0.00     0.114 C 
HETATM    6  C   UNL     1      -7.669   6.105 -32.137  1.00  0.00     0.035 C 
BRANCH   5   7
HETATM    7  C   UNL     1      -9.642   5.094 -33.390  1.00  0.00     0.173 C 
BRANCH   7   8
HETATM    8  O   UNL     1      -8.935   4.970 -34.636  1.00  0.00    -0.389 OA
HETATM    9  H   UNL     1      -9.545   4.567 -35.275  1.00  0.00     0.210 HD
ENDBRANCH   7   8
BRANCH   7  10
HETATM   10  C   UNL     1     -10.822   4.128 -33.404  1.00  0.00    -0.028 A 
HETATM   11  C   UNL     1     -10.855   3.008 -34.248  1.00  0.00     0.012 A 
HETATM   12  C   UNL     1     -11.934   2.117 -34.217  1.00  0.00     0.037 A 
HETATM   13  C   UNL     1     -12.997   2.307 -33.334  1.00  0.00     0.068 A 
HETATM   14  C   UNL     1     -12.971   3.402 -32.476  1.00  0.00     0.037 A 
HETATM   15  C   UNL     1     -11.892   4.295 -32.508  1.00  0.00     0.012 A 
BRANCH  13  16
HETATM   16  O   UNL     1     -13.982   1.362 -33.406  1.00  0.00    -0.356 OA
HETATM   17  C   UNL     1     -13.623   0.104 -33.964  1.00  0.00     0.210 C 
ENDBRANCH  13  16
ENDBRANCH   7  10
ENDBRANCH   5   7
ENDBRANCH   2   5
BRANCH   1  18
HETATM   18  C   UNL     1      -7.410   1.332 -31.984  1.00  0.00     0.075 C 
HETATM   19  C   UNL     1      -7.223   0.609 -33.161  1.00  0.00     0.051 C 
HETATM   20  C   UNL     1      -7.692   0.856 -34.553  1.00  0.00     0.071 C 
HETATM   21  N   UNL     1      -6.421  -0.486 -32.821  1.00  0.00    -0.220 N 
HETATM   22  N   UNL     1      -5.952  -0.378 -31.547  1.00  0.00    -0.177 NA
HETATM   23  C   UNL     1      -6.572   0.687 -31.052  1.00  0.00     0.158 C 
BRANCH  21  24
HETATM   24  C   UNL     1      -6.078  -1.634 -33.618  1.00  0.00     0.150 A 
HETATM   25  N   UNL     1      -4.774  -1.867 -33.927  1.00  0.00    -0.241 NA
HETATM   26  C   UNL     1      -4.498  -2.942 -34.700  1.00  0.00     0.119 A 
HETATM   27  C   UNL     1      -5.459  -3.811 -35.186  1.00  0.00     0.019 A 
HETATM   28  C   UNL     1      -6.786  -3.565 -34.865  1.00  0.00     0.005 A 
HETATM   29  C   UNL     1      -7.107  -2.462 -34.077  1.00  0.00     0.052 A 
ENDBRANCH  21  24
ENDBRANCH   1  18
TORSDOF 7
ENDMDL
MODEL 9
REMARK VINA RESULT:      -7.3      4.597      9.416
REMARK  7 active torsions:
REMARK  status: ('A' for Active; 'I' for Inactive)
REMARK    1  A    between atoms: N_3  and  C_4 
REMARK    2  A    between atoms: C_12  and  C_13 
REMARK       I    between atoms: C_13  and  N_14 
REMARK    3  A    between atoms: N_14  and  C_15 
REMARK    4  A    between atoms: C_15  and  C_16 
REMARK    5  A    between atoms: C_16  and  O_17 
REMARK    6  A    between atoms: C_16  and  C_18 
REMARK    7  A    between atoms: C_21  and  O_22 
ROOT
HETATM    1  C   UNL     1      -5.494   4.475 -30.057  1.00  0.00     0.255 C 
HETATM    2  N   UNL     1      -5.549   4.822 -28.730  1.00  0.00    -0.350 N 
HETATM    3  O   UNL     1      -5.404   5.315 -30.948  1.00  0.00    -0.268 OA
HETATM    4  H   UNL     1      -5.424   4.103 -28.030  1.00  0.00     0.163 HD
ENDROOT
BRANCH   2   5
HETATM    5  C   UNL     1      -5.476   6.209 -28.267  1.00  0.00     0.114 C 
HETATM    6  C   UNL     1      -6.886   6.807 -28.159  1.00  0.00     0.035 C 
BRANCH   5   7
HETATM    7  C   UNL     1      -4.730   6.306 -26.900  1.00  0.00     0.173 C 
BRANCH   7   8
HETATM    8  O   UNL     1      -4.546   4.980 -26.377  1.00  0.00    -0.389 OA
HETATM    9  H   UNL     1      -5.176   4.399 -26.833  1.00  0.00     0.210 HD
ENDBRANCH   7   8
BRANCH   7  10
HETATM   10  C   UNL     1      -3.375   7.006 -26.934  1.00  0.00    -0.028 A 
HETATM   11  C   UNL     1      -2.708   7.391 -25.762  1.00  0.00     0.012 A 
HETATM   12  C   UNL     1      -1.449   8.001 -25.819  1.00  0.00     0.037 A 
HETATM   13  C   UNL     1      -0.816   8.227 -27.041  1.00  0.00     0.068 A 
HETATM   14  C   UNL     1      -1.455   7.832 -28.213  1.00  0.00     0.037 A 
HETATM   15  C   UNL     1      -2.715   7.223 -28.156  1.00  0.00     0.012 A 
BRANCH  13  16
HETATM   16  O   UNL     1       0.409   8.826 -26.953  1.00  0.00    -0.356 OA
HETATM   17  C   UNL     1       1.365   8.479 -27.948  1.00  0.00     0.210 C 
ENDBRANCH  13  16
ENDBRANCH   7  10
ENDBRANCH   5   7
ENDBRANCH   2   5
BRANCH   1  18
HETATM   18  C   UNL     1      -5.498   3.050 -30.360  1.00  0.00     0.075 C 
HETATM   19  C   UNL     1      -4.641   2.251 -31.115  1.00  0.00     0.051 C 
HETATM   20  C   UNL     1      -3.354   2.561 -31.800  1.00  0.00     0.071 C 
HETATM   21  N   UNL     1      -5.204   0.971 -31.117  1.00  0.00    -0.220 N 
HETATM   22  N   UNL     1      -6.256   0.893 -30.255  1.00  0.00    -0.177 NA
HETATM   23  C   UNL     1      -6.440   2.140 -29.838  1.00  0.00     0.158 C 
BRANCH  21  24
HETATM   24  C   UNL     1      -4.820  -0.182 -31.888  1.00  0.00     0.150 A 
HETATM   25  N   UNL     1      -3.792  -0.962 -31.456  1.00  0.00    -0.241 NA
HETATM   26  C   UNL     1      -3.446  -2.020 -32.224  1.00  0.00     0.119 A 
HETATM   27  C   UNL     1      -4.076  -2.352 -33.411  1.00  0.00     0.019 A 
HETATM   28  C   UNL     1      -5.124  -1.550 -33.842  1.00  0.00     0.005 A 
HETATM   29  C   UNL     1      -5.501  -0.447 -33.079  1.00  0.00     0.052 A 
ENDBRANCH  21  24
ENDBRANCH   1  18
TORSDOF 7
ENDMDL
MODEL 10
REMARK VINA RESULT:      -7.3      3.895      6.522
REMARK  7 active torsions:
REMARK  status: ('A' for Active; 'I' for Inactive)
REMARK    1  A    between atoms: N_3  and  C_4 
REMARK    2  A    between atoms: C_12  and  C_13 
REMARK       I    between atoms: C_13  and  N_14 
REMARK    3  A    between atoms: N_14  and  C_15 
REMARK    4  A    between atoms: C_15  and  C_16 
REMARK    5  A    between atoms: C_16  and  O_17 
REMARK    6  A    between atoms: C_16  and  C_18 
REMARK    7  A    between atoms: C_21  and  O_22 
ROOT
HETATM    1  C   UNL     1      -2.127   7.411 -32.661  1.00  0.00     0.255 C 
HETATM    2  N   UNL     1      -2.937   6.303 -32.664  1.00  0.00    -0.350 N 
HETATM    3  O   UNL     1      -1.855   8.023 -33.690  1.00  0.00    -0.268 OA
HETATM    4  H   UNL     1      -3.291   5.952 -31.784  1.00  0.00     0.163 HD
ENDROOT
BRANCH   2   5
HETATM    5  C   UNL     1      -3.565   5.780 -33.880  1.00  0.00     0.114 C 
HETATM    6  C   UNL     1      -2.556   4.945 -34.680  1.00  0.00     0.035 C 
BRANCH   5   7
HETATM    7  C   UNL     1      -4.832   4.936 -33.538  1.00  0.00     0.173 C 
BRANCH   7   8
HETATM    8  O   UNL     1      -5.617   4.774 -34.732  1.00  0.00    -0.389 OA
HETATM    9  H   UNL     1      -5.370   5.491 -35.340  1.00  0.00     0.210 HD
ENDBRANCH   7   8
BRANCH   7  10
HETATM   10  C   UNL     1      -4.568   3.558 -32.942  1.00  0.00    -0.028 A 
HETATM   11  C   UNL     1      -3.581   3.347 -31.967  1.00  0.00     0.012 A 
HETATM   12  C   UNL     1      -3.381   2.078 -31.410  1.00  0.00     0.037 A 
HETATM   13  C   UNL     1      -4.169   0.993 -31.795  1.00  0.00     0.068 A 
HETATM   14  C   UNL     1      -5.166   1.190 -32.745  1.00  0.00     0.037 A 
HETATM   15  C   UNL     1      -5.365   2.458 -33.304  1.00  0.00     0.012 A 
BRANCH  13  16
HETATM   16  O   UNL     1      -3.870  -0.185 -31.170  1.00  0.00    -0.356 OA
HETATM   17  C   UNL     1      -2.724  -0.885 -31.638  1.00  0.00     0.210 C 
ENDBRANCH  13  16
ENDBRANCH   7  10
ENDBRANCH   5   7
ENDBRANCH   2   5
BRANCH   1  18
HETATM   18  C   UNL     1      -1.639   7.859 -31.364  1.00  0.00     0.075 C 
HETATM   19  C   UNL     1      -0.568   7.448 -30.572  1.00  0.00     0.051 C 
HETATM   20  C   UNL     1       0.523   6.466 -30.827  1.00  0.00     0.071 C 
HETATM   21  N   UNL     1      -0.652   8.188 -29.389  1.00  0.00    -0.220 N 
HETATM   22  N   UNL     1      -1.602   9.161 -29.481  1.00  0.00    -0.177 NA
HETATM   23  C   UNL     1      -2.201   8.934 -30.643  1.00  0.00     0.158 C 
BRANCH  21  24
HETATM   24  C   UNL     1       0.099   8.030 -28.172  1.00  0.00     0.150 A 
HETATM   25  N   UNL     1      -0.367   7.197 -27.203  1.00  0.00    -0.241 NA
HETATM   26  C   UNL     1       0.355   7.097 -26.064  1.00  0.00     0.119 A 
HETATM   27  C   UNL     1       1.533   7.785 -25.834  1.00  0.00     0.019 A 
HETATM   28  C   UNL     1       2.001   8.632 -26.828  1.00  0.00     0.005 A 
HETATM   29  C   UNL     1       1.277   8.764 -28.011  1.00  0.00     0.052 A 
ENDBRANCH  21  24
ENDBRANCH   1  18
TORSDOF 7
ENDMDL
