MODEL 1
REMARK VINA RESULT:      -9.8      0.000      0.000
REMARK  8 active torsions:
REMARK  status: ('A' for Active; 'I' for Inactive)
REMARK    1  A    between atoms: C_4  and  S_5 
REMARK    2  A    between atoms: S_5  and  C_6 
REMARK    3  A    between atoms: C_6  and  C_7 
REMARK       I    between atoms: C_7  and  N_8 
REMARK    4  A    between atoms: N_8  and  C_9 
REMARK    5  A    between atoms: C_9  and  C_10 
REMARK    6  A    between atoms: C_20  and  C_21 
REMARK    7  A    between atoms: C_26  and  C_27 
REMARK       I    between atoms: C_27  and  N_28 
REMARK    8  A    between atoms: N_28  and  C_29 
ROOT
HETATM    1  C   UNL     1      -5.846   6.778 -29.648  1.00  0.00     0.069 C 
HETATM    2  C   UNL     1      -5.222   5.613 -30.376  1.00  0.00     0.019 C 
HETATM    3  N   UNL     1      -6.041   4.505 -30.565  1.00  0.00    -0.353 N 
HETATM    4  C   UNL     1      -5.558   3.235 -30.858  1.00  0.00     0.087 C 
HETATM    5  C   UNL     1      -4.287   3.129 -31.333  1.00  0.00     0.057 C 
HETATM    6  C   UNL     1      -3.650   1.772 -31.582  1.00  0.00     0.019 C 
HETATM    7  N   UNL     1      -3.121   0.646 -31.788  1.00  0.00    -0.096 N 
HETATM    8  C   UNL     1      -3.426   4.364 -31.572  1.00  0.00     0.129 C 
HETATM    9  C   UNL     1      -3.942   5.578 -30.813  1.00  0.00     0.048 C 
HETATM   10  H   UNL     1      -6.917   4.539 -30.054  1.00  0.00     0.166 HD
ENDROOT
BRANCH   4  11
HETATM   11  S   UNL     1      -6.487   1.759 -30.600  1.00  0.00    -0.102 SA
BRANCH  11  12
HETATM   12  C   UNL     1      -7.617   1.677 -32.010  1.00  0.00     0.183 C 
BRANCH  12  13
HETATM   13  C   UNL     1      -6.929   1.198 -33.281  1.00  0.00     0.227 C 
HETATM   14  N   UNL     1      -7.048  -0.147 -33.557  1.00  0.00    -0.356 N 
HETATM   15  H   UNL     1      -7.173  -0.758 -32.758  1.00  0.00     0.162 HD
HETATM   16  O   UNL     1      -6.403   1.994 -34.057  1.00  0.00    -0.273 OA
BRANCH  14  17
HETATM   17  C   UNL     1      -6.442  -0.712 -34.743  1.00  0.00     0.161 C 
BRANCH  17  18
HETATM   18  C   UNL     1      -5.981  -2.143 -34.595  1.00  0.00    -0.041 A 
HETATM   19  C   UNL     1      -6.782  -3.252 -34.907  1.00  0.00     0.009 A 
HETATM   20  C   UNL     1      -6.287  -4.552 -34.771  1.00  0.00     0.001 A 
HETATM   21  C   UNL     1      -4.980  -4.763 -34.340  1.00  0.00     0.000 A 
HETATM   22  C   UNL     1      -4.165  -3.675 -34.044  1.00  0.00     0.001 A 
HETATM   23  C   UNL     1      -4.661  -2.377 -34.170  1.00  0.00     0.009 A 
ENDBRANCH  17  18
ENDBRANCH  14  17
ENDBRANCH  12  13
ENDBRANCH  11  12
ENDBRANCH   4  11
BRANCH   8  24
HETATM   24  C   UNL     1      -3.268   4.652 -33.044  1.00  0.00     0.066 A 
HETATM   25  O   UNL     1      -1.991   4.665 -33.528  1.00  0.00    -0.326 OA
HETATM   26  C   UNL     1      -2.073   4.962 -34.850  1.00  0.00     0.142 A 
HETATM   27  C   UNL     1      -3.381   5.168 -35.219  1.00  0.00     0.027 A 
HETATM   28  C   UNL     1      -4.157   4.974 -34.052  1.00  0.00     0.035 A 
ENDBRANCH   8  24
BRANCH   9  29
HETATM   29  C   UNL     1      -2.978   6.626 -30.370  1.00  0.00     0.255 C 
HETATM   30  N   UNL     1      -2.452   6.456 -29.107  1.00  0.00    -0.322 N 
HETATM   31  H   UNL     1      -2.940   5.832 -28.473  1.00  0.00     0.169 HD
HETATM   32  O   UNL     1      -2.797   7.611 -31.082  1.00  0.00    -0.268 OA
BRANCH  30  33
HETATM   33  C   UNL     1      -1.560   7.375 -28.504  1.00  0.00     0.057 A 
HETATM   34  C   UNL     1      -0.158   7.242 -28.479  1.00  0.00     0.062 A 
HETATM   35 CL   UNL     1       0.660   5.784 -28.936  1.00  0.00    -0.082 Cl
HETATM   36  C   UNL     1       0.635   8.246 -27.914  1.00  0.00     0.050 A 
HETATM   37  C   UNL     1       0.036   9.369 -27.351  1.00  0.00     0.035 A 
HETATM   38 CL   UNL     1       1.012  10.605 -26.662  1.00  0.00    -0.084 Cl
HETATM   39  C   UNL     1      -1.351   9.485 -27.316  1.00  0.00     0.026 A 
HETATM   40  C   UNL     1      -2.148   8.483 -27.876  1.00  0.00     0.033 A 
ENDBRANCH  30  33
ENDBRANCH   9  29
TORSDOF 8
ENDMDL
MODEL 2
REMARK VINA RESULT:      -9.2      3.522      8.807
REMARK  8 active torsions:
REMARK  status: ('A' for Active; 'I' for Inactive)
REMARK    1  A    between atoms: C_4  and  S_5 
REMARK    2  A    between atoms: S_5  and  C_6 
REMARK    3  A    between atoms: C_6  and  C_7 
REMARK       I    between atoms: C_7  and  N_8 
REMARK    4  A    between atoms: N_8  and  C_9 
REMARK    5  A    between atoms: C_9  and  C_10 
REMARK    6  A    between atoms: C_20  and  C_21 
REMARK    7  A    between atoms: C_26  and  C_27 
REMARK       I    between atoms: C_27  and  N_28 
REMARK    8  A    between atoms: N_28  and  C_29 
ROOT
HETATM    1  C   UNL     1      -2.987   3.044 -31.319  1.00  0.00     0.069 C 
HETATM    2  C   UNL     1      -4.286   3.727 -30.966  1.00  0.00     0.019 C 
HETATM    3  N   UNL     1      -4.170   4.968 -30.347  1.00  0.00    -0.353 N 
HETATM    4  C   UNL     1      -5.198   5.562 -29.623  1.00  0.00     0.087 C 
HETATM    5  C   UNL     1      -6.464   5.103 -29.818  1.00  0.00     0.057 C 
HETATM    6  C   UNL     1      -7.627   5.629 -28.993  1.00  0.00     0.019 C 
HETATM    7  N   UNL     1      -8.593   6.064 -28.308  1.00  0.00    -0.096 N 
HETATM    8  C   UNL     1      -6.760   3.997 -30.824  1.00  0.00     0.129 C 
HETATM    9  C   UNL     1      -5.513   3.202 -31.184  1.00  0.00     0.048 C 
HETATM   10  H   UNL     1      -3.228   5.206 -30.058  1.00  0.00     0.166 HD
ENDROOT
BRANCH   4  11
HETATM   11  S   UNL     1      -4.936   6.838 -28.435  1.00  0.00    -0.102 SA
BRANCH  11  12
HETATM   12  C   UNL     1      -4.361   8.253 -29.403  1.00  0.00     0.183 C 
BRANCH  12  13
HETATM   13  C   UNL     1      -3.104   7.940 -30.203  1.00  0.00     0.227 C 
HETATM   14  N   UNL     1      -3.063   8.455 -31.481  1.00  0.00    -0.356 N 
HETATM   15  H   UNL     1      -3.958   8.599 -31.933  1.00  0.00     0.162 HD
HETATM   16  O   UNL     1      -2.150   7.362 -29.686  1.00  0.00    -0.273 OA
BRANCH  14  17
HETATM   17  C   UNL     1      -1.913   8.228 -32.329  1.00  0.00     0.161 C 
BRANCH  17  18
HETATM   18  C   UNL     1      -2.051   7.061 -33.280  1.00  0.00    -0.041 A 
HETATM   19  C   UNL     1      -0.977   6.514 -33.998  1.00  0.00     0.009 A 
HETATM   20  C   UNL     1      -1.167   5.418 -34.844  1.00  0.00     0.001 A 
HETATM   21  C   UNL     1      -2.428   4.840 -34.970  1.00  0.00     0.000 A 
HETATM   22  C   UNL     1      -3.501   5.358 -34.251  1.00  0.00     0.001 A 
HETATM   23  C   UNL     1      -3.315   6.459 -33.414  1.00  0.00     0.009 A 
ENDBRANCH  17  18
ENDBRANCH  14  17
ENDBRANCH  12  13
ENDBRANCH  11  12
ENDBRANCH   4  11
BRANCH   8  24
HETATM   24  C   UNL     1      -7.452   4.535 -32.051  1.00  0.00     0.066 A 
HETATM   25  O   UNL     1      -8.171   3.636 -32.787  1.00  0.00    -0.326 OA
HETATM   26  C   UNL     1      -8.686   4.315 -33.844  1.00  0.00     0.142 A 
HETATM   27  C   UNL     1      -8.287   5.630 -33.815  1.00  0.00     0.027 A 
HETATM   28  C   UNL     1      -7.484   5.775 -32.660  1.00  0.00     0.035 A 
ENDBRANCH   8  24
BRANCH   9  29
HETATM   29  C   UNL     1      -5.648   1.769 -31.575  1.00  0.00     0.255 C 
HETATM   30  N   UNL     1      -5.624   1.517 -32.931  1.00  0.00    -0.322 N 
HETATM   31  H   UNL     1      -5.803   2.293 -33.558  1.00  0.00     0.169 HD
HETATM   32  O   UNL     1      -5.880   0.932 -30.707  1.00  0.00    -0.268 OA
BRANCH  30  33
HETATM   33  C   UNL     1      -5.786   0.224 -33.485  1.00  0.00     0.057 A 
HETATM   34  C   UNL     1      -4.794  -0.776 -33.505  1.00  0.00     0.062 A 
HETATM   35 CL   UNL     1      -3.136  -0.469 -33.108  1.00  0.00    -0.082 Cl
HETATM   36  C   UNL     1      -5.084  -2.044 -34.020  1.00  0.00     0.050 A 
HETATM   37  C   UNL     1      -6.348  -2.312 -34.537  1.00  0.00     0.035 A 
HETATM   38 CL   UNL     1      -6.703  -3.873 -35.162  1.00  0.00    -0.084 Cl
HETATM   39  C   UNL     1      -7.319  -1.314 -34.577  1.00  0.00     0.026 A 
HETATM   40  C   UNL     1      -7.033  -0.045 -34.068  1.00  0.00     0.033 A 
ENDBRANCH  30  33
ENDBRANCH   9  29
TORSDOF 8
ENDMDL
MODEL 3
REMARK VINA RESULT:      -9.1      3.322      9.189
REMARK  8 active torsions:
REMARK  status: ('A' for Active; 'I' for Inactive)
REMARK    1  A    between atoms: C_4  and  S_5 
REMARK    2  A    between atoms: S_5  and  C_6 
REMARK    3  A    between atoms: C_6  and  C_7 
REMARK       I    between atoms: C_7  and  N_8 
REMARK    4  A    between atoms: N_8  and  C_9 
REMARK    5  A    between atoms: C_9  and  C_10 
REMARK    6  A    between atoms: C_20  and  C_21 
REMARK    7  A    between atoms: C_26  and  C_27 
REMARK       I    between atoms: C_27  and  N_28 
REMARK    8  A    between atoms: N_28  and  C_29 
ROOT
HETATM    1  C   UNL     1      -5.702   1.124 -29.653  1.00  0.00     0.069 C 
HETATM    2  C   UNL     1      -5.605   2.510 -30.241  1.00  0.00     0.019 C 
HETATM    3  N   UNL     1      -5.573   3.557 -29.326  1.00  0.00    -0.353 N 
HETATM    4  C   UNL     1      -5.863   4.876 -29.659  1.00  0.00     0.087 C 
HETATM    5  C   UNL     1      -5.824   5.225 -30.973  1.00  0.00     0.057 C 
HETATM    6  C   UNL     1      -6.225   6.618 -31.430  1.00  0.00     0.019 C 
HETATM    7  N   UNL     1      -6.559   7.774 -31.809  1.00  0.00    -0.096 N 
HETATM    8  C   UNL     1      -5.439   4.217 -32.050  1.00  0.00     0.129 C 
HETATM    9  C   UNL     1      -5.578   2.782 -31.566  1.00  0.00     0.048 C 
HETATM   10  H   UNL     1      -5.778   3.286 -28.371  1.00  0.00     0.166 HD
ENDROOT
BRANCH   4  11
HETATM   11  S   UNL     1      -6.326   6.097 -28.475  1.00  0.00    -0.102 SA
BRANCH  11  12
HETATM   12  C   UNL     1      -4.893   6.237 -27.379  1.00  0.00     0.183 C 
BRANCH  12  13
HETATM   13  C   UNL     1      -3.780   7.084 -27.980  1.00  0.00     0.227 C 
HETATM   14  N   UNL     1      -2.517   6.858 -27.477  1.00  0.00    -0.356 N 
HETATM   15  H   UNL     1      -2.470   6.519 -26.523  1.00  0.00     0.162 HD
HETATM   16  O   UNL     1      -3.995   7.832 -28.932  1.00  0.00    -0.273 OA
BRANCH  14  17
HETATM   17  C   UNL     1      -1.381   7.599 -27.980  1.00  0.00     0.161 C 
BRANCH  17  18
HETATM   18  C   UNL     1      -0.580   6.881 -29.042  1.00  0.00    -0.041 A 
HETATM   19  C   UNL     1      -0.434   7.354 -30.355  1.00  0.00     0.009 A 
HETATM   20  C   UNL     1       0.341   6.654 -31.284  1.00  0.00     0.001 A 
HETATM   21  C   UNL     1       0.998   5.484 -30.910  1.00  0.00     0.000 A 
HETATM   22  C   UNL     1       0.880   5.012 -29.606  1.00  0.00     0.001 A 
HETATM   23  C   UNL     1       0.098   5.704 -28.681  1.00  0.00     0.009 A 
ENDBRANCH  17  18
ENDBRANCH  14  17
ENDBRANCH  12  13
ENDBRANCH  11  12
ENDBRANCH   4  11
BRANCH   8  24
HETATM   24  C   UNL     1      -4.060   4.490 -32.597  1.00  0.00     0.066 A 
HETATM   25  O   UNL     1      -3.999   5.131 -33.802  1.00  0.00    -0.326 OA
HETATM   26  C   UNL     1      -2.684   5.256 -34.117  1.00  0.00     0.142 A 
HETATM   27  C   UNL     1      -1.898   4.681 -33.146  1.00  0.00     0.027 A 
HETATM   28  C   UNL     1      -2.785   4.179 -32.164  1.00  0.00     0.035 A 
ENDBRANCH   8  24
BRANCH   9  29
HETATM   29  C   UNL     1      -5.899   1.707 -32.550  1.00  0.00     0.255 C 
HETATM   30  N   UNL     1      -5.408   0.455 -32.246  1.00  0.00    -0.322 N 
HETATM   31  H   UNL     1      -4.655   0.395 -31.569  1.00  0.00     0.169 HD
HETATM   32  O   UNL     1      -6.465   2.006 -33.598  1.00  0.00    -0.268 OA
BRANCH  30  33
HETATM   33  C   UNL     1      -5.574  -0.672 -33.086  1.00  0.00     0.057 A 
HETATM   34  C   UNL     1      -4.523  -1.422 -33.649  1.00  0.00     0.062 A 
HETATM   35 CL   UNL     1      -2.871  -0.898 -33.624  1.00  0.00    -0.082 Cl
HETATM   36  C   UNL     1      -4.800  -2.561 -34.412  1.00  0.00     0.050 A 
HETATM   37  C   UNL     1      -6.119  -2.941 -34.637  1.00  0.00     0.035 A 
HETATM   38 CL   UNL     1      -6.458  -4.346 -35.569  1.00  0.00    -0.084 Cl
HETATM   39  C   UNL     1      -7.169  -2.176 -34.136  1.00  0.00     0.026 A 
HETATM   40  C   UNL     1      -6.897  -1.035 -33.376  1.00  0.00     0.033 A 
ENDBRANCH  30  33
ENDBRANCH   9  29
TORSDOF 8
ENDMDL
MODEL 4
REMARK VINA RESULT:      -9.1      2.156      3.639
REMARK  8 active torsions:
REMARK  status: ('A' for Active; 'I' for Inactive)
REMARK    1  A    between atoms: C_4  and  S_5 
REMARK    2  A    between atoms: S_5  and  C_6 
REMARK    3  A    between atoms: C_6  and  C_7 
REMARK       I    between atoms: C_7  and  N_8 
REMARK    4  A    between atoms: N_8  and  C_9 
REMARK    5  A    between atoms: C_9  and  C_10 
REMARK    6  A    between atoms: C_20  and  C_21 
REMARK    7  A    between atoms: C_26  and  C_27 
REMARK       I    between atoms: C_27  and  N_28 
REMARK    8  A    between atoms: N_28  and  C_29 
ROOT
HETATM    1  C   UNL     1      -3.312   5.091 -34.194  1.00  0.00     0.069 C 
HETATM    2  C   UNL     1      -4.380   4.614 -33.239  1.00  0.00     0.019 C 
HETATM    3  N   UNL     1      -5.657   4.481 -33.774  1.00  0.00    -0.353 N 
HETATM    4  C   UNL     1      -6.811   4.428 -33.000  1.00  0.00     0.087 C 
HETATM    5  C   UNL     1      -6.680   4.133 -31.679  1.00  0.00     0.057 C 
HETATM    6  C   UNL     1      -7.879   4.155 -30.744  1.00  0.00     0.019 C 
HETATM    7  N   UNL     1      -8.873   4.174 -29.969  1.00  0.00    -0.096 N 
HETATM    8  C   UNL     1      -5.317   3.833 -31.065  1.00  0.00     0.129 C 
HETATM    9  C   UNL     1      -4.175   4.347 -31.929  1.00  0.00     0.048 C 
HETATM   10  H   UNL     1      -5.765   4.870 -34.705  1.00  0.00     0.166 HD
ENDROOT
BRANCH   4  11
HETATM   11  S   UNL     1      -8.421   4.772 -33.632  1.00  0.00    -0.102 SA
BRANCH  11  12
HETATM   12  C   UNL     1      -8.919   3.247 -34.467  1.00  0.00     0.183 C 
BRANCH  12  13
HETATM   13  C   UNL     1      -8.802   2.024 -33.567  1.00  0.00     0.227 C 
HETATM   14  N   UNL     1      -7.662   1.267 -33.729  1.00  0.00    -0.356 N 
HETATM   15  H   UNL     1      -7.236   1.293 -34.649  1.00  0.00     0.162 HD
HETATM   16  O   UNL     1      -9.626   1.808 -32.681  1.00  0.00    -0.273 OA
BRANCH  14  17
HETATM   17  C   UNL     1      -7.441   0.087 -32.922  1.00  0.00     0.161 C 
BRANCH  17  18
HETATM   18  C   UNL     1      -6.649  -1.004 -33.604  1.00  0.00    -0.041 A 
HETATM   19  C   UNL     1      -5.249  -1.006 -33.693  1.00  0.00     0.009 A 
HETATM   20  C   UNL     1      -4.574  -2.058 -34.317  1.00  0.00     0.001 A 
HETATM   21  C   UNL     1      -5.286  -3.134 -34.842  1.00  0.00     0.000 A 
HETATM   22  C   UNL     1      -6.674  -3.158 -34.746  1.00  0.00     0.001 A 
HETATM   23  C   UNL     1      -7.350  -2.103 -34.132  1.00  0.00     0.009 A 
ENDBRANCH  17  18
ENDBRANCH  14  17
ENDBRANCH  12  13
ENDBRANCH  11  12
ENDBRANCH   4  11
BRANCH   8  24
HETATM   24  C   UNL     1      -5.162   2.366 -30.751  1.00  0.00     0.066 A 
HETATM   25  O   UNL     1      -5.989   1.860 -29.789  1.00  0.00    -0.326 OA
HETATM   26  C   UNL     1      -5.673   0.547 -29.648  1.00  0.00     0.142 A 
HETATM   27  C   UNL     1      -4.636   0.207 -30.485  1.00  0.00     0.027 A 
HETATM   28  C   UNL     1      -4.300   1.383 -31.195  1.00  0.00     0.035 A 
ENDBRANCH   8  24
BRANCH   9  29
HETATM   29  C   UNL     1      -2.895   4.756 -31.280  1.00  0.00     0.255 C 
HETATM   30  N   UNL     1      -2.892   6.011 -30.709  1.00  0.00    -0.322 N 
HETATM   31  H   UNL     1      -3.612   6.663 -30.998  1.00  0.00     0.169 HD
HETATM   32  O   UNL     1      -1.912   4.027 -31.386  1.00  0.00    -0.268 OA
BRANCH  30  33
HETATM   33  C   UNL     1      -1.753   6.583 -30.092  1.00  0.00     0.057 A 
HETATM   34  C   UNL     1      -0.625   7.075 -30.778  1.00  0.00     0.062 A 
HETATM   35 CL   UNL     1      -0.345   6.789 -32.464  1.00  0.00    -0.082 Cl
HETATM   36  C   UNL     1       0.418   7.683 -30.071  1.00  0.00     0.050 A 
HETATM   37  C   UNL     1       0.353   7.780 -28.685  1.00  0.00     0.035 A 
HETATM   38 CL   UNL     1       1.633   8.534 -27.819  1.00  0.00    -0.084 Cl
HETATM   39  C   UNL     1      -0.729   7.246 -27.990  1.00  0.00     0.026 A 
HETATM   40  C   UNL     1      -1.772   6.634 -28.691  1.00  0.00     0.033 A 
ENDBRANCH  30  33
ENDBRANCH   9  29
TORSDOF 8
ENDMDL
MODEL 5
REMARK VINA RESULT:      -9.0      3.946     10.115
REMARK  8 active torsions:
REMARK  status: ('A' for Active; 'I' for Inactive)
REMARK    1  A    between atoms: C_4  and  S_5 
REMARK    2  A    between atoms: S_5  and  C_6 
REMARK    3  A    between atoms: C_6  and  C_7 
REMARK       I    between atoms: C_7  and  N_8 
REMARK    4  A    between atoms: N_8  and  C_9 
REMARK    5  A    between atoms: C_9  and  C_10 
REMARK    6  A    between atoms: C_20  and  C_21 
REMARK    7  A    between atoms: C_26  and  C_27 
REMARK       I    between atoms: C_27  and  N_28 
REMARK    8  A    between atoms: N_28  and  C_29 
ROOT
HETATM    1  C   UNL     1      -3.047   2.702 -31.922  1.00  0.00     0.069 C 
HETATM    2  C   UNL     1      -4.310   3.378 -31.446  1.00  0.00     0.019 C 
HETATM    3  N   UNL     1      -4.155   4.661 -30.932  1.00  0.00    -0.353 N 
HETATM    4  C   UNL     1      -5.097   5.280 -30.119  1.00  0.00     0.087 C 
HETATM    5  C   UNL     1      -6.362   4.780 -30.114  1.00  0.00     0.057 C 
HETATM    6  C   UNL     1      -7.424   5.335 -29.179  1.00  0.00     0.019 C 
HETATM    7  N   UNL     1      -8.306   5.795 -28.403  1.00  0.00    -0.096 N 
HETATM    8  C   UNL     1      -6.752   3.600 -30.997  1.00  0.00     0.129 C 
HETATM    9  C   UNL     1      -5.538   2.811 -31.465  1.00  0.00     0.048 C 
HETATM   10  H   UNL     1      -3.191   4.941 -30.786  1.00  0.00     0.166 HD
ENDROOT
BRANCH   4  11
HETATM   11  S   UNL     1      -4.724   6.642 -29.063  1.00  0.00    -0.102 SA
BRANCH  11  12
HETATM   12  C   UNL     1      -3.862   7.823 -30.128  1.00  0.00     0.183 C 
BRANCH  12  13
HETATM   13  C   UNL     1      -2.353   7.616 -30.127  1.00  0.00     0.227 C 
HETATM   14  N   UNL     1      -1.891   6.582 -29.341  1.00  0.00    -0.356 N 
HETATM   15  H   UNL     1      -2.461   6.342 -28.538  1.00  0.00     0.162 HD
HETATM   16  O   UNL     1      -1.623   8.265 -30.873  1.00  0.00    -0.273 OA
BRANCH  14  17
HETATM   17  C   UNL     1      -0.476   6.288 -29.270  1.00  0.00     0.161 C 
BRANCH  17  18
HETATM   18  C   UNL     1       0.274   7.053 -28.204  1.00  0.00    -0.041 A 
HETATM   19  C   UNL     1       0.265   6.701 -26.846  1.00  0.00     0.009 A 
HETATM   20  C   UNL     1       1.000   7.437 -25.912  1.00  0.00     0.001 A 
HETATM   21  C   UNL     1       1.771   8.522 -26.324  1.00  0.00     0.000 A 
HETATM   22  C   UNL     1       1.807   8.873 -27.670  1.00  0.00     0.001 A 
HETATM   23  C   UNL     1       1.065   8.146 -28.601  1.00  0.00     0.009 A 
ENDBRANCH  17  18
ENDBRANCH  14  17
ENDBRANCH  12  13
ENDBRANCH  11  12
ENDBRANCH   4  11
BRANCH   8  24
HETATM   24  C   UNL     1      -7.615   4.035 -32.155  1.00  0.00     0.066 A 
HETATM   25  O   UNL     1      -7.235   5.177 -32.800  1.00  0.00    -0.326 OA
HETATM   26  C   UNL     1      -8.147   5.397 -33.782  1.00  0.00     0.142 A 
HETATM   27  C   UNL     1      -9.124   4.430 -33.759  1.00  0.00     0.027 A 
HETATM   28  C   UNL     1      -8.786   3.550 -32.704  1.00  0.00     0.035 A 
ENDBRANCH   8  24
BRANCH   9  29
HETATM   29  C   UNL     1      -5.676   1.351 -31.739  1.00  0.00     0.255 C 
HETATM   30  N   UNL     1      -5.778   1.002 -33.069  1.00  0.00    -0.322 N 
HETATM   31  H   UNL     1      -6.034   1.727 -33.730  1.00  0.00     0.169 HD
HETATM   32  O   UNL     1      -5.804   0.576 -30.795  1.00  0.00    -0.268 OA
BRANCH  30  33
HETATM   33  C   UNL     1      -5.962  -0.330 -33.513  1.00  0.00     0.057 A 
HETATM   34  C   UNL     1      -7.212  -0.943 -33.730  1.00  0.00     0.062 A 
HETATM   35 CL   UNL     1      -8.710  -0.243 -33.210  1.00  0.00    -0.082 Cl
HETATM   36  C   UNL     1      -7.279  -2.245 -34.235  1.00  0.00     0.050 A 
HETATM   37  C   UNL     1      -6.108  -2.948 -34.501  1.00  0.00     0.035 A 
HETATM   38 CL   UNL     1      -6.192  -4.547 -35.128  1.00  0.00    -0.084 Cl
HETATM   39  C   UNL     1      -4.866  -2.376 -34.235  1.00  0.00     0.026 A 
HETATM   40  C   UNL     1      -4.794  -1.076 -33.727  1.00  0.00     0.033 A 
ENDBRANCH  30  33
ENDBRANCH   9  29
TORSDOF 8
ENDMDL
MODEL 6
REMARK VINA RESULT:      -8.9      4.020      7.830
REMARK  8 active torsions:
REMARK  status: ('A' for Active; 'I' for Inactive)
REMARK    1  A    between atoms: C_4  and  S_5 
REMARK    2  A    between atoms: S_5  and  C_6 
REMARK    3  A    between atoms: C_6  and  C_7 
REMARK       I    between atoms: C_7  and  N_8 
REMARK    4  A    between atoms: N_8  and  C_9 
REMARK    5  A    between atoms: C_9  and  C_10 
REMARK    6  A    between atoms: C_20  and  C_21 
REMARK    7  A    between atoms: C_26  and  C_27 
REMARK       I    between atoms: C_27  and  N_28 
REMARK    8  A    between atoms: N_28  and  C_29 
ROOT
HETATM    1  C   UNL     1      -5.785   1.154 -29.646  1.00  0.00     0.069 C 
HETATM    2  C   UNL     1      -5.579   2.533 -30.225  1.00  0.00     0.019 C 
HETATM    3  N   UNL     1      -5.631   3.586 -29.317  1.00  0.00    -0.353 N 
HETATM    4  C   UNL     1      -5.842   4.909 -29.689  1.00  0.00     0.087 C 
HETATM    5  C   UNL     1      -5.634   5.247 -30.990  1.00  0.00     0.057 C 
HETATM    6  C   UNL     1      -5.939   6.647 -31.498  1.00  0.00     0.019 C 
HETATM    7  N   UNL     1      -6.192   7.808 -31.920  1.00  0.00    -0.096 N 
HETATM    8  C   UNL     1      -5.148   4.222 -32.007  1.00  0.00     0.129 C 
HETATM    9  C   UNL     1      -5.384   2.794 -31.538  1.00  0.00     0.048 C 
HETATM   10  H   UNL     1      -5.958   3.327 -28.393  1.00  0.00     0.166 HD
ENDROOT
BRANCH   4  11
HETATM   11  S   UNL     1      -6.413   6.151 -28.575  1.00  0.00    -0.102 SA
BRANCH  11  12
HETATM   12  C   UNL     1      -8.182   5.821 -28.390  1.00  0.00     0.183 C 
BRANCH  12  13
HETATM   13  C   UNL     1      -8.907   5.760 -29.727  1.00  0.00     0.227 C 
HETATM   14  N   UNL     1      -9.216   4.497 -30.184  1.00  0.00    -0.356 N 
HETATM   15  H   UNL     1      -8.606   3.748 -29.875  1.00  0.00     0.162 HD
HETATM   16  O   UNL     1      -9.285   6.784 -30.292  1.00  0.00    -0.273 OA
BRANCH  14  17
HETATM   17  C   UNL     1      -9.912   4.318 -31.439  1.00  0.00     0.161 C 
BRANCH  17  18
HETATM   18  C   UNL     1      -9.956   2.892 -31.939  1.00  0.00    -0.041 A 
HETATM   19  C   UNL     1     -10.752   2.472 -33.015  1.00  0.00     0.009 A 
HETATM   20  C   UNL     1     -10.729   1.142 -33.443  1.00  0.00     0.001 A 
HETATM   21  C   UNL     1      -9.895   0.218 -32.818  1.00  0.00     0.000 A 
HETATM   22  C   UNL     1      -9.084   0.622 -31.762  1.00  0.00     0.001 A 
HETATM   23  C   UNL     1      -9.114   1.947 -31.326  1.00  0.00     0.009 A 
ENDBRANCH  17  18
ENDBRANCH  14  17
ENDBRANCH  12  13
ENDBRANCH  11  12
ENDBRANCH   4  11
BRANCH   8  24
HETATM   24  C   UNL     1      -3.706   4.454 -32.383  1.00  0.00     0.066 A 
HETATM   25  O   UNL     1      -3.437   4.574 -33.717  1.00  0.00    -0.326 OA
HETATM   26  C   UNL     1      -2.096   4.753 -33.834  1.00  0.00     0.142 A 
HETATM   27  C   UNL     1      -1.494   4.723 -32.598  1.00  0.00     0.027 A 
HETATM   28  C   UNL     1      -2.532   4.523 -31.658  1.00  0.00     0.035 A 
ENDBRANCH   8  24
BRANCH   9  29
HETATM   29  C   UNL     1      -5.612   1.720 -32.549  1.00  0.00     0.255 C 
HETATM   30  N   UNL     1      -5.286   0.443 -32.144  1.00  0.00    -0.322 N 
HETATM   31  H   UNL     1      -4.673   0.343 -31.343  1.00  0.00     0.169 HD
HETATM   32  O   UNL     1      -5.956   2.033 -33.685  1.00  0.00    -0.268 OA
BRANCH  30  33
HETATM   33  C   UNL     1      -5.392  -0.691 -32.985  1.00  0.00     0.057 A 
HETATM   34  C   UNL     1      -4.440  -1.726 -33.068  1.00  0.00     0.062 A 
HETATM   35 CL   UNL     1      -2.862  -1.617 -32.360  1.00  0.00    -0.082 Cl
HETATM   36  C   UNL     1      -4.677  -2.837 -33.885  1.00  0.00     0.050 A 
HETATM   37  C   UNL     1      -5.846  -2.908 -34.638  1.00  0.00     0.035 A 
HETATM   38 CL   UNL     1      -6.139  -4.277 -35.635  1.00  0.00    -0.084 Cl
HETATM   39  C   UNL     1      -6.767  -1.865 -34.610  1.00  0.00     0.026 A 
HETATM   40  C   UNL     1      -6.533  -0.751 -33.798  1.00  0.00     0.033 A 
ENDBRANCH  30  33
ENDBRANCH   9  29
TORSDOF 8
ENDMDL
MODEL 7
REMARK VINA RESULT:      -8.9      3.503      9.296
REMARK  8 active torsions:
REMARK  status: ('A' for Active; 'I' for Inactive)
REMARK    1  A    between atoms: C_4  and  S_5 
REMARK    2  A    between atoms: S_5  and  C_6 
REMARK    3  A    between atoms: C_6  and  C_7 
REMARK       I    between atoms: C_7  and  N_8 
REMARK    4  A    between atoms: N_8  and  C_9 
REMARK    5  A    between atoms: C_9  and  C_10 
REMARK    6  A    between atoms: C_20  and  C_21 
REMARK    7  A    between atoms: C_26  and  C_27 
REMARK       I    between atoms: C_27  and  N_28 
REMARK    8  A    between atoms: N_28  and  C_29 
ROOT
HETATM    1  C   UNL     1      -3.042   3.660 -31.954  1.00  0.00     0.069 C 
HETATM    2  C   UNL     1      -4.384   4.204 -31.530  1.00  0.00     0.019 C 
HETATM    3  N   UNL     1      -4.381   5.498 -31.020  1.00  0.00    -0.353 N 
HETATM    4  C   UNL     1      -5.412   6.020 -30.247  1.00  0.00     0.087 C 
HETATM    5  C   UNL     1      -6.618   5.391 -30.283  1.00  0.00     0.057 C 
HETATM    6  C   UNL     1      -7.765   5.837 -29.391  1.00  0.00     0.019 C 
HETATM    7  N   UNL     1      -8.718   6.207 -28.651  1.00  0.00    -0.096 N 
HETATM    8  C   UNL     1      -6.851   4.174 -31.171  1.00  0.00     0.129 C 
HETATM    9  C   UNL     1      -5.546   3.513 -31.589  1.00  0.00     0.048 C 
HETATM   10  H   UNL     1      -3.458   5.876 -30.842  1.00  0.00     0.166 HD
ENDROOT
BRANCH   4  11
HETATM   11  S   UNL     1      -5.220   7.417 -29.188  1.00  0.00    -0.102 SA
BRANCH  11  12
HETATM   12  C   UNL     1      -4.727   8.762 -30.292  1.00  0.00     0.183 C 
BRANCH  12  13
HETATM   13  C   UNL     1      -3.218   8.960 -30.332  1.00  0.00     0.227 C 
HETATM   14  N   UNL     1      -2.509   8.376 -29.305  1.00  0.00    -0.356 N 
HETATM   15  H   UNL     1      -3.006   8.258 -28.430  1.00  0.00     0.162 HD
HETATM   16  O   UNL     1      -2.675   9.511 -31.288  1.00  0.00    -0.273 OA
BRANCH  14  17
HETATM   17  C   UNL     1      -1.068   8.492 -29.246  1.00  0.00     0.161 C 
BRANCH  17  18
HETATM   18  C   UNL     1      -0.319   7.221 -29.574  1.00  0.00    -0.041 A 
HETATM   19  C   UNL     1       0.202   6.355 -28.601  1.00  0.00     0.009 A 
HETATM   20  C   UNL     1       0.865   5.181 -28.970  1.00  0.00     0.001 A 
HETATM   21  C   UNL     1       0.998   4.845 -30.315  1.00  0.00     0.000 A 
HETATM   22  C   UNL     1       0.470   5.682 -31.293  1.00  0.00     0.001 A 
HETATM   23  C   UNL     1      -0.182   6.860 -30.926  1.00  0.00     0.009 A 
ENDBRANCH  17  18
ENDBRANCH  14  17
ENDBRANCH  12  13
ENDBRANCH  11  12
ENDBRANCH   4  11
BRANCH   8  24
HETATM   24  C   UNL     1      -7.711   4.513 -32.362  1.00  0.00     0.066 A 
HETATM   25  O   UNL     1      -8.383   3.475 -32.942  1.00  0.00    -0.326 OA
HETATM   26  C   UNL     1      -9.070   3.988 -33.995  1.00  0.00     0.142 A 
HETATM   27  C   UNL     1      -8.828   5.336 -34.118  1.00  0.00     0.027 A 
HETATM   28  C   UNL     1      -7.945   5.678 -33.067  1.00  0.00     0.035 A 
ENDBRANCH   8  24
BRANCH   9  29
HETATM   29  C   UNL     1      -5.523   2.045 -31.857  1.00  0.00     0.255 C 
HETATM   30  N   UNL     1      -5.683   1.679 -33.176  1.00  0.00    -0.322 N 
HETATM   31  H   UNL     1      -6.078   2.363 -33.812  1.00  0.00     0.169 HD
HETATM   32  O   UNL     1      -5.480   1.266 -30.909  1.00  0.00    -0.268 OA
BRANCH  30  33
HETATM   33  C   UNL     1      -5.735   0.331 -33.609  1.00  0.00     0.057 A 
HETATM   34  C   UNL     1      -4.688  -0.602 -33.472  1.00  0.00     0.062 A 
HETATM   35 CL   UNL     1      -3.079  -0.155 -33.010  1.00  0.00    -0.082 Cl
HETATM   36  C   UNL     1      -4.871  -1.929 -33.875  1.00  0.00     0.050 A 
HETATM   37  C   UNL     1      -6.082  -2.323 -34.437  1.00  0.00     0.035 A 
HETATM   38 CL   UNL     1      -6.307  -3.956 -34.924  1.00  0.00    -0.084 Cl
HETATM   39  C   UNL     1      -7.104  -1.397 -34.632  1.00  0.00     0.026 A 
HETATM   40  C   UNL     1      -6.924  -0.069 -34.234  1.00  0.00     0.033 A 
ENDBRANCH  30  33
ENDBRANCH   9  29
TORSDOF 8
ENDMDL
MODEL 8
REMARK VINA RESULT:      -8.8      3.589      9.981
REMARK  8 active torsions:
REMARK  status: ('A' for Active; 'I' for Inactive)
REMARK    1  A    between atoms: C_4  and  S_5 
REMARK    2  A    between atoms: S_5  and  C_6 
REMARK    3  A    between atoms: C_6  and  C_7 
REMARK       I    between atoms: C_7  and  N_8 
REMARK    4  A    between atoms: N_8  and  C_9 
REMARK    5  A    between atoms: C_9  and  C_10 
REMARK    6  A    between atoms: C_20  and  C_21 
REMARK    7  A    between atoms: C_26  and  C_27 
REMARK       I    between atoms: C_27  and  N_28 
REMARK    8  A    between atoms: N_28  and  C_29 
ROOT
HETATM    1  C   UNL     1      -2.967   3.310 -31.603  1.00  0.00     0.069 C 
HETATM    2  C   UNL     1      -4.288   3.933 -31.220  1.00  0.00     0.019 C 
HETATM    3  N   UNL     1      -4.220   5.204 -30.659  1.00  0.00    -0.353 N 
HETATM    4  C   UNL     1      -5.249   5.769 -29.914  1.00  0.00     0.087 C 
HETATM    5  C   UNL     1      -6.493   5.231 -30.033  1.00  0.00     0.057 C 
HETATM    6  C   UNL     1      -7.649   5.725 -29.179  1.00  0.00     0.019 C 
HETATM    7  N   UNL     1      -8.609   6.135 -28.471  1.00  0.00    -0.096 N 
HETATM    8  C   UNL     1      -6.766   4.068 -30.979  1.00  0.00     0.129 C 
HETATM    9  C   UNL     1      -5.491   3.331 -31.362  1.00  0.00     0.048 C 
HETATM   10  H   UNL     1      -3.282   5.508 -30.421  1.00  0.00     0.166 HD
ENDROOT
BRANCH   4  11
HETATM   11  S   UNL     1      -5.013   7.108 -28.792  1.00  0.00    -0.102 SA
BRANCH  11  12
HETATM   12  C   UNL     1      -4.790   6.319 -27.179  1.00  0.00     0.183 C 
BRANCH  12  13
HETATM   13  C   UNL     1      -3.578   6.856 -26.430  1.00  0.00     0.227 C 
HETATM   14  N   UNL     1      -2.473   6.033 -26.407  1.00  0.00    -0.356 N 
HETATM   15  H   UNL     1      -2.656   5.038 -26.478  1.00  0.00     0.162 HD
HETATM   16  O   UNL     1      -3.567   8.000 -25.979  1.00  0.00    -0.273 OA
BRANCH  14  17
HETATM   17  C   UNL     1      -1.262   6.444 -25.731  1.00  0.00     0.161 C 
BRANCH  17  18
HETATM   18  C   UNL     1      -0.261   7.158 -26.609  1.00  0.00    -0.041 A 
HETATM   19  C   UNL     1      -0.305   7.135 -28.012  1.00  0.00     0.009 A 
HETATM   20  C   UNL     1       0.638   7.837 -28.767  1.00  0.00     0.001 A 
HETATM   21  C   UNL     1       1.625   8.588 -28.135  1.00  0.00     0.000 A 
HETATM   22  C   UNL     1       1.673   8.637 -26.745  1.00  0.00     0.001 A 
HETATM   23  C   UNL     1       0.738   7.928 -25.989  1.00  0.00     0.009 A 
ENDBRANCH  17  18
ENDBRANCH  14  17
ENDBRANCH  12  13
ENDBRANCH  11  12
ENDBRANCH   4  11
BRANCH   8  24
HETATM   24  C   UNL     1      -7.539   4.512 -32.196  1.00  0.00     0.066 A 
HETATM   25  O   UNL     1      -8.253   3.548 -32.848  1.00  0.00    -0.326 OA
HETATM   26  C   UNL     1      -8.849   4.148 -33.910  1.00  0.00     0.142 A 
HETATM   27  C   UNL     1      -8.506   5.479 -33.968  1.00  0.00     0.027 A 
HETATM   28  C   UNL     1      -7.655   5.716 -32.863  1.00  0.00     0.035 A 
ENDBRANCH   8  24
BRANCH   9  29
HETATM   29  C   UNL     1      -5.558   1.876 -31.689  1.00  0.00     0.255 C 
HETATM   30  N   UNL     1      -5.625   1.570 -33.031  1.00  0.00    -0.322 N 
HETATM   31  H   UNL     1      -5.906   2.305 -33.670  1.00  0.00     0.169 HD
HETATM   32  O   UNL     1      -5.662   1.063 -30.774  1.00  0.00    -0.268 OA
BRANCH  30  33
HETATM   33  C   UNL     1      -5.742   0.247 -33.523  1.00  0.00     0.057 A 
HETATM   34  C   UNL     1      -4.727  -0.728 -33.466  1.00  0.00     0.062 A 
HETATM   35 CL   UNL     1      -3.087  -0.361 -33.040  1.00  0.00    -0.082 Cl
HETATM   36  C   UNL     1      -4.972  -2.028 -33.922  1.00  0.00     0.050 A 
HETATM   37  C   UNL     1      -6.215  -2.352 -34.458  1.00  0.00     0.035 A 
HETATM   38 CL   UNL     1      -6.517  -3.951 -35.012  1.00  0.00    -0.084 Cl
HETATM   39  C   UNL     1      -7.207  -1.382 -34.575  1.00  0.00     0.026 A 
HETATM   40  C   UNL     1      -6.966  -0.081 -34.124  1.00  0.00     0.033 A 
ENDBRANCH  30  33
ENDBRANCH   9  29
TORSDOF 8
ENDMDL
MODEL 9
REMARK VINA RESULT:      -8.7      3.812      9.772
REMARK  8 active torsions:
REMARK  status: ('A' for Active; 'I' for Inactive)
REMARK    1  A    between atoms: C_4  and  S_5 
REMARK    2  A    between atoms: S_5  and  C_6 
REMARK    3  A    between atoms: C_6  and  C_7 
REMARK       I    between atoms: C_7  and  N_8 
REMARK    4  A    between atoms: N_8  and  C_9 
REMARK    5  A    between atoms: C_9  and  C_10 
REMARK    6  A    between atoms: C_20  and  C_21 
REMARK    7  A    between atoms: C_26  and  C_27 
REMARK       I    between atoms: C_27  and  N_28 
REMARK    8  A    between atoms: N_28  and  C_29 
ROOT
HETATM    1  C   UNL     1      -5.254   0.891 -29.329  1.00  0.00     0.069 C 
HETATM    2  C   UNL     1      -5.242   2.225 -30.036  1.00  0.00     0.019 C 
HETATM    3  N   UNL     1      -5.577   3.328 -29.257  1.00  0.00    -0.353 N 
HETATM    4  C   UNL     1      -5.984   4.547 -29.788  1.00  0.00     0.087 C 
HETATM    5  C   UNL     1      -5.706   4.797 -31.096  1.00  0.00     0.057 C 
HETATM    6  C   UNL     1      -6.204   6.060 -31.779  1.00  0.00     0.019 C 
HETATM    7  N   UNL     1      -6.618   7.108 -32.346  1.00  0.00    -0.096 N 
HETATM    8  C   UNL     1      -4.940   3.793 -31.950  1.00  0.00     0.129 C 
HETATM    9  C   UNL     1      -4.962   2.396 -31.348  1.00  0.00     0.048 C 
HETATM   10  H   UNL     1      -5.946   3.098 -28.341  1.00  0.00     0.166 HD
ENDROOT
BRANCH   4  11
HETATM   11  S   UNL     1      -6.882   5.755 -28.870  1.00  0.00    -0.102 SA
BRANCH  11  12
HETATM   12  C   UNL     1      -5.659   6.480 -27.751  1.00  0.00     0.183 C 
BRANCH  12  13
HETATM   13  C   UNL     1      -4.566   7.236 -28.493  1.00  0.00     0.227 C 
HETATM   14  N   UNL     1      -3.292   6.726 -28.366  1.00  0.00    -0.356 N 
HETATM   15  H   UNL     1      -3.099   6.214 -27.513  1.00  0.00     0.162 HD
HETATM   16  O   UNL     1      -4.838   8.171 -29.244  1.00  0.00    -0.273 OA
BRANCH  14  17
HETATM   17  C   UNL     1      -2.175   7.358 -29.035  1.00  0.00     0.161 C 
BRANCH  17  18
HETATM   18  C   UNL     1      -0.923   7.475 -28.197  1.00  0.00    -0.041 A 
HETATM   19  C   UNL     1      -0.785   6.899 -26.925  1.00  0.00     0.009 A 
HETATM   20  C   UNL     1       0.410   7.023 -26.211  1.00  0.00     0.001 A 
HETATM   21  C   UNL     1       1.490   7.706 -26.765  1.00  0.00     0.000 A 
HETATM   22  C   UNL     1       1.377   8.267 -28.033  1.00  0.00     0.001 A 
HETATM   23  C   UNL     1       0.181   8.152 -28.743  1.00  0.00     0.009 A 
ENDBRANCH  17  18
ENDBRANCH  14  17
ENDBRANCH  12  13
ENDBRANCH  11  12
ENDBRANCH   4  11
BRANCH   8  24
HETATM   24  C   UNL     1      -3.532   4.260 -32.225  1.00  0.00     0.066 A 
HETATM   25  O   UNL     1      -3.209   4.476 -33.535  1.00  0.00    -0.326 OA
HETATM   26  C   UNL     1      -1.908   4.864 -33.560  1.00  0.00     0.142 A 
HETATM   27  C   UNL     1      -1.381   4.874 -32.290  1.00  0.00     0.027 A 
HETATM   28  C   UNL     1      -2.428   4.478 -31.425  1.00  0.00     0.035 A 
ENDBRANCH   8  24
BRANCH   9  29
HETATM   29  C   UNL     1      -4.886   1.210 -32.251  1.00  0.00     0.255 C 
HETATM   30  N   UNL     1      -6.046   0.474 -32.364  1.00  0.00    -0.322 N 
HETATM   31  H   UNL     1      -6.754   0.594 -31.649  1.00  0.00     0.169 HD
HETATM   32  O   UNL     1      -3.802   0.898 -32.737  1.00  0.00    -0.268 OA
BRANCH  30  33
HETATM   33  C   UNL     1      -6.145  -0.708 -33.138  1.00  0.00     0.057 A 
HETATM   34  C   UNL     1      -7.320  -1.166 -33.766  1.00  0.00     0.062 A 
HETATM   35 CL   UNL     1      -8.886  -0.495 -33.445  1.00  0.00    -0.082 Cl
HETATM   36  C   UNL     1      -7.291  -2.314 -34.565  1.00  0.00     0.050 A 
HETATM   37  C   UNL     1      -6.103  -3.021 -34.719  1.00  0.00     0.035 A 
HETATM   38 CL   UNL     1      -6.066  -4.428 -35.706  1.00  0.00    -0.084 Cl
HETATM   39  C   UNL     1      -4.948  -2.614 -34.056  1.00  0.00     0.026 A 
HETATM   40  C   UNL     1      -4.973  -1.469 -33.254  1.00  0.00     0.033 A 
ENDBRANCH  30  33
ENDBRANCH   9  29
TORSDOF 8
ENDMDL
MODEL 10
REMARK VINA RESULT:      -8.6      3.688      9.221
REMARK  8 active torsions:
REMARK  status: ('A' for Active; 'I' for Inactive)
REMARK    1  A    between atoms: C_4  and  S_5 
REMARK    2  A    between atoms: S_5  and  C_6 
REMARK    3  A    between atoms: C_6  and  C_7 
REMARK       I    between atoms: C_7  and  N_8 
REMARK    4  A    between atoms: N_8  and  C_9 
REMARK    5  A    between atoms: C_9  and  C_10 
REMARK    6  A    between atoms: C_20  and  C_21 
REMARK    7  A    between atoms: C_26  and  C_27 
REMARK       I    between atoms: C_27  and  N_28 
REMARK    8  A    between atoms: N_28  and  C_29 
ROOT
HETATM    1  C   UNL     1      -4.793   3.568 -33.114  1.00  0.00     0.069 C 
HETATM    2  C   UNL     1      -6.251   3.689 -32.744  1.00  0.00     0.019 C 
HETATM    3  N   UNL     1      -6.571   4.721 -31.868  1.00  0.00    -0.353 N 
HETATM    4  C   UNL     1      -7.749   4.764 -31.131  1.00  0.00     0.087 C 
HETATM    5  C   UNL     1      -8.782   3.975 -31.532  1.00  0.00     0.057 C 
HETATM    6  C   UNL     1     -10.066   3.887 -30.723  1.00  0.00     0.019 C 
HETATM    7  N   UNL     1     -11.132   3.813 -30.052  1.00  0.00    -0.096 N 
HETATM    8  C   UNL     1      -8.673   3.096 -32.773  1.00  0.00     0.129 C 
HETATM    9  C   UNL     1      -7.226   2.858 -33.179  1.00  0.00     0.048 C 
HETATM   10  H   UNL     1      -5.770   5.181 -31.450  1.00  0.00     0.166 HD
ENDROOT
BRANCH   4  11
HETATM   11  S   UNL     1      -7.951   5.745 -29.680  1.00  0.00    -0.102 SA
BRANCH  11  12
HETATM   12  C   UNL     1      -6.478   5.403 -28.688  1.00  0.00     0.183 C 
BRANCH  12  13
HETATM   13  C   UNL     1      -5.350   6.390 -28.958  1.00  0.00     0.227 C 
HETATM   14  N   UNL     1      -4.253   5.880 -29.618  1.00  0.00    -0.356 N 
HETATM   15  H   UNL     1      -4.074   4.891 -29.489  1.00  0.00     0.162 HD
HETATM   16  O   UNL     1      -5.478   7.585 -28.699  1.00  0.00    -0.273 OA
BRANCH  14  17
HETATM   17  C   UNL     1      -3.125   6.729 -29.935  1.00  0.00     0.161 C 
BRANCH  17  18
HETATM   18  C   UNL     1      -2.527   6.497 -31.304  1.00  0.00    -0.041 A 
HETATM   19  C   UNL     1      -2.672   7.392 -32.375  1.00  0.00     0.009 A 
HETATM   20  C   UNL     1      -2.073   7.130 -33.610  1.00  0.00     0.001 A 
HETATM   21  C   UNL     1      -1.304   5.982 -33.787  1.00  0.00     0.000 A 
HETATM   22  C   UNL     1      -1.134   5.094 -32.730  1.00  0.00     0.001 A 
HETATM   23  C   UNL     1      -1.740   5.349 -31.499  1.00  0.00     0.009 A 
ENDBRANCH  17  18
ENDBRANCH  14  17
ENDBRANCH  12  13
ENDBRANCH  11  12
ENDBRANCH   4  11
BRANCH   8  24
HETATM   24  C   UNL     1      -9.489   3.647 -33.916  1.00  0.00     0.066 A 
HETATM   25  O   UNL     1      -9.218   4.931 -34.293  1.00  0.00    -0.326 OA
HETATM   26  C   UNL     1     -10.068   5.232 -35.308  1.00  0.00     0.142 A 
HETATM   27  C   UNL     1     -10.901   4.170 -35.571  1.00  0.00     0.027 A 
HETATM   28  C   UNL     1     -10.533   3.145 -34.669  1.00  0.00     0.035 A 
ENDBRANCH   8  24
BRANCH   9  29
HETATM   29  C   UNL     1      -6.862   1.590 -33.877  1.00  0.00     0.255 C 
HETATM   30  N   UNL     1      -6.556   0.526 -33.055  1.00  0.00    -0.322 N 
HETATM   31  H   UNL     1      -6.320   0.727 -32.090  1.00  0.00     0.169 HD
HETATM   32  O   UNL     1      -6.747   1.592 -35.099  1.00  0.00    -0.268 OA
BRANCH  30  33
HETATM   33  C   UNL     1      -6.144  -0.739 -33.540  1.00  0.00     0.057 A 
HETATM   34  C   UNL     1      -4.820  -1.221 -33.516  1.00  0.00     0.062 A 
HETATM   35 CL   UNL     1      -3.456  -0.217 -33.148  1.00  0.00    -0.082 Cl
HETATM   36  C   UNL     1      -4.534  -2.516 -33.960  1.00  0.00     0.050 A 
HETATM   37  C   UNL     1      -5.556  -3.322 -34.453  1.00  0.00     0.035 A 
HETATM   38 CL   UNL     1      -5.204  -4.917 -34.992  1.00  0.00    -0.084 Cl
HETATM   39  C   UNL     1      -6.859  -2.837 -34.537  1.00  0.00     0.026 A 
HETATM   40  C   UNL     1      -7.149  -1.543 -34.097  1.00  0.00     0.033 A 
ENDBRANCH  30  33
ENDBRANCH   9  29
TORSDOF 8
ENDMDL
