MODEL 1
REMARK VINA RESULT:      -8.9      0.000      0.000
REMARK  8 active torsions:
REMARK  status: ('A' for Active; 'I' for Inactive)
REMARK    1  A    between atoms: C_2  and  C_3 
REMARK    2  A    between atoms: C_6  and  N_7 
REMARK    3  A    between atoms: N_7  and  S_8 
REMARK    4  A    between atoms: S_8  and  C_9 
REMARK    5  A    between atoms: C_15  and  C_16 
REMARK       I    between atoms: C_16  and  N_17 
REMARK    6  A    between atoms: N_17  and  C_18 
REMARK    7  A    between atoms: C_18  and  C_19 
REMARK    8  A    between atoms: C_19  and  O_20 
ROOT
HETATM    1  C   UNL     1      -6.454   3.043 -32.979  1.00  0.00     0.081 A 
HETATM    2  C   UNL     1      -5.218   2.903 -32.345  1.00  0.00     0.043 A 
HETATM    3  C   UNL     1      -4.344   3.994 -32.313  1.00  0.00     0.043 A 
HETATM    4  C   UNL     1      -4.708   5.228 -32.880  1.00  0.00     0.046 A 
HETATM    5  N   UNL     1      -3.804   6.297 -32.854  1.00  0.00    -0.364 N 
HETATM    6  C   UNL     1      -2.607   6.187 -32.189  1.00  0.00     0.109 A 
HETATM    7  C   UNL     1      -2.141   5.072 -31.600  1.00  0.00     0.098 A 
HETATM    8  C   UNL     1      -3.010   3.862 -31.669  1.00  0.00     0.201 A 
HETATM    9  O   UNL     1      -2.652   2.778 -31.216  1.00  0.00    -0.286 OA
HETATM   10  C   UNL     1      -5.946   5.345 -33.520  1.00  0.00     0.032 A 
HETATM   11  C   UNL     1      -6.825   4.257 -33.564  1.00  0.00     0.027 A 
HETATM   12  H   UNL     1      -4.124   7.223 -33.116  1.00  0.00     0.165 HD
ENDROOT
BRANCH   1  13
HETATM   13  S   UNL     1      -7.584   1.668 -32.974  1.00  0.00     0.263 S 
HETATM   14  O   UNL     1      -8.927   2.190 -33.103  1.00  0.00    -0.200 OA
HETATM   15  O   UNL     1      -7.213   0.822 -31.860  1.00  0.00    -0.200 OA
BRANCH  13  16
HETATM   16  N   UNL     1      -7.157   0.830 -34.373  1.00  0.00    -0.281 N 
HETATM   17  H   UNL     1      -7.886   0.854 -35.084  1.00  0.00     0.179 HD
BRANCH  16  18
HETATM   18  C   UNL     1      -6.371  -0.349 -34.266  1.00  0.00     0.042 A 
HETATM   19  C   UNL     1      -6.912  -1.579 -34.632  1.00  0.00     0.030 A 
HETATM   20  C   UNL     1      -6.139  -2.739 -34.526  1.00  0.00     0.010 A 
HETATM   21  C   UNL     1      -4.815  -2.680 -34.066  1.00  0.00    -0.055 A 
HETATM   22  C   UNL     1      -4.294  -1.436 -33.682  1.00  0.00     0.010 A 
HETATM   23  C   UNL     1      -5.069  -0.278 -33.777  1.00  0.00     0.030 A 
BRANCH  21  24
HETATM   24  C   UNL     1      -3.942  -3.920 -33.961  1.00  0.00     0.010 C 
HETATM   25  C   UNL     1      -4.712  -5.206 -34.272  1.00  0.00     0.015 C 
HETATM   26  C   UNL     1      -3.273  -4.002 -32.588  1.00  0.00     0.015 C 
ENDBRANCH  21  24
ENDBRANCH  16  18
ENDBRANCH  13  16
ENDBRANCH   1  13
BRANCH   7  27
HETATM   27  C   UNL     1      -0.802   5.122 -30.945  1.00  0.00     0.257 C 
HETATM   28  N   UNL     1      -0.794   5.571 -29.651  1.00  0.00    -0.355 N 
HETATM   29  H   UNL     1      -1.656   5.953 -29.258  1.00  0.00     0.162 HD
HETATM   30  O   UNL     1       0.218   4.779 -31.537  1.00  0.00    -0.267 OA
BRANCH  28  31
HETATM   31  C   UNL     1       0.429   5.733 -28.888  1.00  0.00     0.149 C 
BRANCH  31  32
HETATM   32  C   UNL     1       0.622   7.165 -28.388  1.00  0.00     0.186 C 
BRANCH  32  33
HETATM   33  O   UNL     1       0.684   7.159 -26.957  1.00  0.00    -0.394 OA
HETATM   34  C   UNL     1      -0.353   6.366 -26.395  1.00  0.00     0.201 C 
ENDBRANCH  32  33
ENDBRANCH  31  32
ENDBRANCH  28  31
ENDBRANCH   7  27
TORSDOF 8
ENDMDL
MODEL 2
REMARK VINA RESULT:      -8.8      2.005      2.444
REMARK  8 active torsions:
REMARK  status: ('A' for Active; 'I' for Inactive)
REMARK    1  A    between atoms: C_2  and  C_3 
REMARK    2  A    between atoms: C_6  and  N_7 
REMARK    3  A    between atoms: N_7  and  S_8 
REMARK    4  A    between atoms: S_8  and  C_9 
REMARK    5  A    between atoms: C_15  and  C_16 
REMARK       I    between atoms: C_16  and  N_17 
REMARK    6  A    between atoms: N_17  and  C_18 
REMARK    7  A    between atoms: C_18  and  C_19 
REMARK    8  A    between atoms: C_19  and  O_20 
ROOT
HETATM    1  C   UNL     1      -6.887   3.341 -32.133  1.00  0.00     0.081 A 
HETATM    2  C   UNL     1      -5.767   4.029 -31.663  1.00  0.00     0.043 A 
HETATM    3  C   UNL     1      -4.872   4.577 -32.587  1.00  0.00     0.043 A 
HETATM    4  C   UNL     1      -5.103   4.470 -33.969  1.00  0.00     0.046 A 
HETATM    5  N   UNL     1      -4.177   5.007 -34.871  1.00  0.00    -0.364 N 
HETATM    6  C   UNL     1      -3.100   5.731 -34.423  1.00  0.00     0.109 A 
HETATM    7  C   UNL     1      -2.766   5.915 -33.133  1.00  0.00     0.098 A 
HETATM    8  C   UNL     1      -3.655   5.290 -32.113  1.00  0.00     0.201 A 
HETATM    9  O   UNL     1      -3.407   5.348 -30.911  1.00  0.00    -0.286 OA
HETATM   10  C   UNL     1      -6.225   3.766 -34.419  1.00  0.00     0.032 A 
HETATM   11  C   UNL     1      -7.125   3.208 -33.503  1.00  0.00     0.027 A 
HETATM   12  H   UNL     1      -4.422   5.071 -35.854  1.00  0.00     0.165 HD
ENDROOT
BRANCH   1  13
HETATM   13  S   UNL     1      -8.052   2.688 -30.954  1.00  0.00     0.263 S 
HETATM   14  O   UNL     1      -9.315   2.495 -31.633  1.00  0.00    -0.200 OA
HETATM   15  O   UNL     1      -7.956   3.511 -29.768  1.00  0.00    -0.200 OA
BRANCH  13  16
HETATM   16  N   UNL     1      -7.380   1.194 -30.556  1.00  0.00    -0.281 N 
HETATM   17  H   UNL     1      -6.802   1.234 -29.719  1.00  0.00     0.179 HD
BRANCH  16  18
HETATM   18  C   UNL     1      -6.986   0.309 -31.595  1.00  0.00     0.042 A 
HETATM   19  C   UNL     1      -5.671  -0.148 -31.655  1.00  0.00     0.030 A 
HETATM   20  C   UNL     1      -5.283  -1.018 -32.678  1.00  0.00     0.010 A 
HETATM   21  C   UNL     1      -6.206  -1.451 -33.642  1.00  0.00    -0.055 A 
HETATM   22  C   UNL     1      -7.519  -0.964 -33.578  1.00  0.00     0.010 A 
HETATM   23  C   UNL     1      -7.905  -0.085 -32.563  1.00  0.00     0.030 A 
BRANCH  21  24
HETATM   24  C   UNL     1      -5.820  -2.415 -34.752  1.00  0.00     0.010 C 
HETATM   25  C   UNL     1      -6.788  -3.596 -34.865  1.00  0.00     0.015 C 
HETATM   26  C   UNL     1      -4.380  -2.903 -34.576  1.00  0.00     0.015 C 
ENDBRANCH  21  24
ENDBRANCH  16  18
ENDBRANCH  13  16
ENDBRANCH   1  13
BRANCH   7  27
HETATM   27  C   UNL     1      -1.541   6.707 -32.823  1.00  0.00     0.257 C 
HETATM   28  N   UNL     1      -0.753   6.209 -31.819  1.00  0.00    -0.355 N 
HETATM   29  H   UNL     1      -1.098   5.421 -31.270  1.00  0.00     0.162 HD
HETATM   30  O   UNL     1      -1.266   7.735 -33.437  1.00  0.00    -0.267 OA
BRANCH  28  31
HETATM   31  C   UNL     1       0.444   6.886 -31.357  1.00  0.00     0.149 C 
BRANCH  31  32
HETATM   32  C   UNL     1       0.398   7.199 -29.861  1.00  0.00     0.186 C 
BRANCH  32  33
HETATM   33  O   UNL     1       0.487   5.975 -29.122  1.00  0.00    -0.394 OA
HETATM   34  C   UNL     1       0.196   6.175 -27.746  1.00  0.00     0.201 C 
ENDBRANCH  32  33
ENDBRANCH  31  32
ENDBRANCH  28  31
ENDBRANCH   7  27
TORSDOF 8
ENDMDL
MODEL 3
REMARK VINA RESULT:      -8.7      4.090      8.173
REMARK  8 active torsions:
REMARK  status: ('A' for Active; 'I' for Inactive)
REMARK    1  A    between atoms: C_2  and  C_3 
REMARK    2  A    between atoms: C_6  and  N_7 
REMARK    3  A    between atoms: N_7  and  S_8 
REMARK    4  A    between atoms: S_8  and  C_9 
REMARK    5  A    between atoms: C_15  and  C_16 
REMARK       I    between atoms: C_16  and  N_17 
REMARK    6  A    between atoms: N_17  and  C_18 
REMARK    7  A    between atoms: C_18  and  C_19 
REMARK    8  A    between atoms: C_19  and  O_20 
ROOT
HETATM    1  C   UNL     1      -6.539   2.607 -30.760  1.00  0.00     0.081 A 
HETATM    2  C   UNL     1      -7.754   2.395 -31.414  1.00  0.00     0.043 A 
HETATM    3  C   UNL     1      -8.825   3.255 -31.151  1.00  0.00     0.043 A 
HETATM    4  C   UNL     1      -8.681   4.340 -30.269  1.00  0.00     0.046 A 
HETATM    5  N   UNL     1      -9.776   5.171 -30.007  1.00  0.00    -0.364 N 
HETATM    6  C   UNL     1     -10.960   5.004 -30.681  1.00  0.00     0.109 A 
HETATM    7  C   UNL     1     -11.230   4.016 -31.553  1.00  0.00     0.098 A 
HETATM    8  C   UNL     1     -10.139   3.033 -31.812  1.00  0.00     0.201 A 
HETATM    9  O   UNL     1     -10.301   2.061 -32.544  1.00  0.00    -0.286 OA
HETATM   10  C   UNL     1      -7.458   4.529 -29.616  1.00  0.00     0.032 A 
HETATM   11  C   UNL     1      -6.382   3.670 -29.866  1.00  0.00     0.027 A 
HETATM   12  H   UNL     1      -9.630   6.039 -29.501  1.00  0.00     0.165 HD
ENDROOT
BRANCH   1  13
HETATM   13  S   UNL     1      -5.163   1.540 -31.134  1.00  0.00     0.263 S 
HETATM   14  O   UNL     1      -5.392   0.269 -30.484  1.00  0.00    -0.200 OA
HETATM   15  O   UNL     1      -3.959   2.304 -30.884  1.00  0.00    -0.200 OA
BRANCH  13  16
HETATM   16  N   UNL     1      -5.276   1.360 -32.806  1.00  0.00    -0.281 N 
HETATM   17  H   UNL     1      -5.856   2.076 -33.240  1.00  0.00     0.179 HD
BRANCH  16  18
HETATM   18  C   UNL     1      -5.304   0.054 -33.365  1.00  0.00     0.042 A 
HETATM   19  C   UNL     1      -4.167  -0.750 -33.306  1.00  0.00     0.030 A 
HETATM   20  C   UNL     1      -4.193  -2.034 -33.856  1.00  0.00     0.010 A 
HETATM   21  C   UNL     1      -5.358  -2.534 -34.458  1.00  0.00    -0.055 A 
HETATM   22  C   UNL     1      -6.486  -1.704 -34.527  1.00  0.00     0.010 A 
HETATM   23  C   UNL     1      -6.457  -0.415 -33.988  1.00  0.00     0.030 A 
BRANCH  21  24
HETATM   24  C   UNL     1      -5.425  -3.935 -35.045  1.00  0.00     0.010 C 
HETATM   25  C   UNL     1      -6.863  -4.444 -35.181  1.00  0.00     0.015 C 
HETATM   26  C   UNL     1      -4.575  -4.910 -34.228  1.00  0.00     0.015 C 
ENDBRANCH  21  24
ENDBRANCH  16  18
ENDBRANCH  13  16
ENDBRANCH   1  13
BRANCH   7  27
HETATM   27  C   UNL     1     -12.584   3.968 -32.175  1.00  0.00     0.257 C 
HETATM   28  N   UNL     1     -13.354   2.887 -31.832  1.00  0.00    -0.355 N 
HETATM   29  H   UNL     1     -12.929   2.134 -31.290  1.00  0.00     0.162 HD
HETATM   30  O   UNL     1     -12.973   4.846 -32.940  1.00  0.00    -0.267 OA
BRANCH  28  31
HETATM   31  C   UNL     1     -14.673   2.660 -32.391  1.00  0.00     0.149 C 
BRANCH  31  32
HETATM   32  C   UNL     1     -14.733   1.400 -33.256  1.00  0.00     0.186 C 
BRANCH  32  33
HETATM   33  O   UNL     1     -13.400   1.002 -33.599  1.00  0.00    -0.394 OA
HETATM   34  C   UNL     1     -13.254  -0.411 -33.565  1.00  0.00     0.201 C 
ENDBRANCH  32  33
ENDBRANCH  31  32
ENDBRANCH  28  31
ENDBRANCH   7  27
TORSDOF 8
ENDMDL
MODEL 4
REMARK VINA RESULT:      -8.5      3.140      4.240
REMARK  8 active torsions:
REMARK  status: ('A' for Active; 'I' for Inactive)
REMARK    1  A    between atoms: C_2  and  C_3 
REMARK    2  A    between atoms: C_6  and  N_7 
REMARK    3  A    between atoms: N_7  and  S_8 
REMARK    4  A    between atoms: S_8  and  C_9 
REMARK    5  A    between atoms: C_15  and  C_16 
REMARK       I    between atoms: C_16  and  N_17 
REMARK    6  A    between atoms: N_17  and  C_18 
REMARK    7  A    between atoms: C_18  and  C_19 
REMARK    8  A    between atoms: C_19  and  O_20 
ROOT
HETATM    1  C   UNL     1      -9.478   3.662 -32.055  1.00  0.00     0.081 A 
HETATM    2  C   UNL     1      -8.315   3.760 -32.821  1.00  0.00     0.043 A 
HETATM    3  C   UNL     1      -7.089   3.943 -32.174  1.00  0.00     0.043 A 
HETATM    4  C   UNL     1      -7.013   3.997 -30.771  1.00  0.00     0.046 A 
HETATM    5  N   UNL     1      -5.776   4.205 -30.151  1.00  0.00    -0.364 N 
HETATM    6  C   UNL     1      -4.620   4.252 -30.890  1.00  0.00     0.109 A 
HETATM    7  C   UNL     1      -4.549   4.207 -32.232  1.00  0.00     0.098 A 
HETATM    8  C   UNL     1      -5.839   4.080 -32.969  1.00  0.00     0.201 A 
HETATM    9  O   UNL     1      -5.891   4.090 -34.196  1.00  0.00    -0.286 OA
HETATM   10  C   UNL     1      -8.192   3.908 -30.022  1.00  0.00     0.032 A 
HETATM   11  C   UNL     1      -9.424   3.731 -30.660  1.00  0.00     0.027 A 
HETATM   12  H   UNL     1      -5.699   4.085 -29.146  1.00  0.00     0.165 HD
ENDROOT
BRANCH   1  13
HETATM   13  S   UNL     1     -11.030   3.378 -32.879  1.00  0.00     0.263 S 
HETATM   14  O   UNL     1     -10.949   3.960 -34.201  1.00  0.00    -0.200 OA
HETATM   15  O   UNL     1     -12.075   3.762 -31.953  1.00  0.00    -0.200 OA
BRANCH  13  16
HETATM   16  N   UNL     1     -11.088   1.697 -32.994  1.00  0.00    -0.281 N 
HETATM   17  H   UNL     1     -11.741   1.280 -32.333  1.00  0.00     0.179 HD
BRANCH  16  18
HETATM   18  C   UNL     1      -9.901   0.979 -33.299  1.00  0.00     0.042 A 
HETATM   19  C   UNL     1      -9.412   0.970 -34.603  1.00  0.00     0.030 A 
HETATM   20  C   UNL     1      -8.244   0.263 -34.904  1.00  0.00     0.010 A 
HETATM   21  C   UNL     1      -7.546  -0.431 -33.903  1.00  0.00    -0.055 A 
HETATM   22  C   UNL     1      -8.065  -0.427 -32.600  1.00  0.00     0.010 A 
HETATM   23  C   UNL     1      -9.239   0.270 -32.301  1.00  0.00     0.030 A 
BRANCH  21  24
HETATM   24  C   UNL     1      -6.262  -1.189 -34.193  1.00  0.00     0.010 C 
HETATM   25  C   UNL     1      -6.519  -2.644 -34.597  1.00  0.00     0.015 C 
HETATM   26  C   UNL     1      -5.302  -1.114 -33.004  1.00  0.00     0.015 C 
ENDBRANCH  21  24
ENDBRANCH  16  18
ENDBRANCH  13  16
ENDBRANCH   1  13
BRANCH   7  27
HETATM   27  C   UNL     1      -3.208   4.299 -32.876  1.00  0.00     0.257 C 
HETATM   28  N   UNL     1      -3.144   5.080 -34.000  1.00  0.00    -0.355 N 
HETATM   29  H   UNL     1      -4.012   5.442 -34.396  1.00  0.00     0.162 HD
HETATM   30  O   UNL     1      -2.231   3.712 -32.417  1.00  0.00    -0.267 OA
BRANCH  28  31
HETATM   31  C   UNL     1      -1.928   5.233 -34.776  1.00  0.00     0.149 C 
BRANCH  31  32
HETATM   32  C   UNL     1      -1.016   6.330 -34.226  1.00  0.00     0.186 C 
BRANCH  32  33
HETATM   33  O   UNL     1      -1.786   7.521 -34.022  1.00  0.00    -0.394 OA
HETATM   34  C   UNL     1      -1.756   7.933 -32.662  1.00  0.00     0.201 C 
ENDBRANCH  32  33
ENDBRANCH  31  32
ENDBRANCH  28  31
ENDBRANCH   7  27
TORSDOF 8
ENDMDL
MODEL 5
REMARK VINA RESULT:      -8.5      4.843      8.427
REMARK  8 active torsions:
REMARK  status: ('A' for Active; 'I' for Inactive)
REMARK    1  A    between atoms: C_2  and  C_3 
REMARK    2  A    between atoms: C_6  and  N_7 
REMARK    3  A    between atoms: N_7  and  S_8 
REMARK    4  A    between atoms: S_8  and  C_9 
REMARK    5  A    between atoms: C_15  and  C_16 
REMARK       I    between atoms: C_16  and  N_17 
REMARK    6  A    between atoms: N_17  and  C_18 
REMARK    7  A    between atoms: C_18  and  C_19 
REMARK    8  A    between atoms: C_19  and  O_20 
ROOT
HETATM    1  C   UNL     1      -7.430   1.447 -31.961  1.00  0.00     0.081 A 
HETATM    2  C   UNL     1      -8.035   2.352 -32.835  1.00  0.00     0.043 A 
HETATM    3  C   UNL     1      -9.336   2.100 -33.279  1.00  0.00     0.043 A 
HETATM    4  C   UNL     1     -10.047   0.972 -32.833  1.00  0.00     0.046 A 
HETATM    5  N   UNL     1     -11.340   0.733 -33.313  1.00  0.00    -0.364 N 
HETATM    6  C   UNL     1     -11.964   1.641 -34.132  1.00  0.00     0.109 A 
HETATM    7  C   UNL     1     -11.404   2.760 -34.626  1.00  0.00     0.098 A 
HETATM    8  C   UNL     1      -9.992   3.034 -34.234  1.00  0.00     0.201 A 
HETATM    9  O   UNL     1      -9.369   3.995 -34.677  1.00  0.00    -0.286 OA
HETATM   10  C   UNL     1      -9.419   0.072 -31.966  1.00  0.00     0.032 A 
HETATM   11  C   UNL     1      -8.114   0.311 -31.520  1.00  0.00     0.027 A 
HETATM   12  H   UNL     1     -11.906   0.015 -32.873  1.00  0.00     0.165 HD
ENDROOT
BRANCH   1  13
HETATM   13  S   UNL     1      -5.792   1.796 -31.358  1.00  0.00     0.263 S 
HETATM   14  O   UNL     1      -5.532   0.922 -30.235  1.00  0.00    -0.200 OA
HETATM   15  O   UNL     1      -5.688   3.234 -31.229  1.00  0.00    -0.200 OA
BRANCH  13  16
HETATM   16  N   UNL     1      -4.815   1.361 -32.662  1.00  0.00    -0.281 N 
HETATM   17  H   UNL     1      -4.656   2.133 -33.307  1.00  0.00     0.179 HD
BRANCH  16  18
HETATM   18  C   UNL     1      -4.919   0.052 -33.203  1.00  0.00     0.042 A 
HETATM   19  C   UNL     1      -4.053  -0.949 -32.767  1.00  0.00     0.030 A 
HETATM   20  C   UNL     1      -4.154  -2.237 -33.300  1.00  0.00     0.010 A 
HETATM   21  C   UNL     1      -5.129  -2.543 -34.262  1.00  0.00    -0.055 A 
HETATM   22  C   UNL     1      -5.978  -1.517 -34.703  1.00  0.00     0.010 A 
HETATM   23  C   UNL     1      -5.870  -0.226 -34.180  1.00  0.00     0.030 A 
BRANCH  21  24
HETATM   24  C   UNL     1      -5.279  -3.939 -34.843  1.00  0.00     0.010 C 
HETATM   25  C   UNL     1      -6.745  -4.359 -34.985  1.00  0.00     0.015 C 
HETATM   26  C   UNL     1      -4.495  -4.961 -34.018  1.00  0.00     0.015 C 
ENDBRANCH  21  24
ENDBRANCH  16  18
ENDBRANCH  13  16
ENDBRANCH   1  13
BRANCH   7  27
HETATM   27  C   UNL     1     -12.219   3.622 -35.529  1.00  0.00     0.257 C 
HETATM   28  N   UNL     1     -12.431   4.903 -35.090  1.00  0.00    -0.355 N 
HETATM   29  H   UNL     1     -12.138   5.153 -34.144  1.00  0.00     0.162 HD
HETATM   30  O   UNL     1     -12.665   3.202 -36.594  1.00  0.00    -0.267 OA
BRANCH  28  31
HETATM   31  C   UNL     1     -13.248   5.854 -35.820  1.00  0.00     0.149 C 
BRANCH  31  32
HETATM   32  C   UNL     1     -12.568   7.216 -35.969  1.00  0.00     0.186 C 
BRANCH  32  33
HETATM   33  O   UNL     1     -13.390   8.063 -36.782  1.00  0.00    -0.394 OA
HETATM   34  C   UNL     1     -13.191   9.435 -36.470  1.00  0.00     0.201 C 
ENDBRANCH  32  33
ENDBRANCH  31  32
ENDBRANCH  28  31
ENDBRANCH   7  27
TORSDOF 8
ENDMDL
MODEL 6
REMARK VINA RESULT:      -8.3      2.567     10.275
REMARK  8 active torsions:
REMARK  status: ('A' for Active; 'I' for Inactive)
REMARK    1  A    between atoms: C_2  and  C_3 
REMARK    2  A    between atoms: C_6  and  N_7 
REMARK    3  A    between atoms: N_7  and  S_8 
REMARK    4  A    between atoms: S_8  and  C_9 
REMARK    5  A    between atoms: C_15  and  C_16 
REMARK       I    between atoms: C_16  and  N_17 
REMARK    6  A    between atoms: N_17  and  C_18 
REMARK    7  A    between atoms: C_18  and  C_19 
REMARK    8  A    between atoms: C_19  and  O_20 
ROOT
HETATM    1  C   UNL     1      -1.328   5.591 -31.963  1.00  0.00     0.081 A 
HETATM    2  C   UNL     1      -2.261   4.579 -31.727  1.00  0.00     0.043 A 
HETATM    3  C   UNL     1      -3.331   4.424 -32.614  1.00  0.00     0.043 A 
HETATM    4  C   UNL     1      -3.458   5.246 -33.746  1.00  0.00     0.046 A 
HETATM    5  N   UNL     1      -4.552   5.083 -34.604  1.00  0.00    -0.364 N 
HETATM    6  C   UNL     1      -5.447   4.060 -34.411  1.00  0.00     0.109 A 
HETATM    7  C   UNL     1      -5.440   3.201 -33.377  1.00  0.00     0.098 A 
HETATM    8  C   UNL     1      -4.355   3.373 -32.368  1.00  0.00     0.201 A 
HETATM    9  O   UNL     1      -4.293   2.680 -31.357  1.00  0.00    -0.286 OA
HETATM   10  C   UNL     1      -2.518   6.261 -33.958  1.00  0.00     0.032 A 
HETATM   11  C   UNL     1      -1.447   6.430 -33.074  1.00  0.00     0.027 A 
HETATM   12  H   UNL     1      -4.557   5.564 -35.497  1.00  0.00     0.165 HD
ENDROOT
BRANCH   1  13
HETATM   13  S   UNL     1       0.061   5.755 -30.860  1.00  0.00     0.263 S 
HETATM   14  O   UNL     1       0.801   6.937 -31.245  1.00  0.00    -0.200 OA
HETATM   15  O   UNL     1       0.700   4.458 -30.794  1.00  0.00    -0.200 OA
BRANCH  13  16
HETATM   16  N   UNL     1      -0.679   6.001 -29.366  1.00  0.00    -0.281 N 
HETATM   17  H   UNL     1      -1.694   5.939 -29.415  1.00  0.00     0.179 HD
BRANCH  16  18
HETATM   18  C   UNL     1      -0.112   6.932 -28.454  1.00  0.00     0.042 A 
HETATM   19  C   UNL     1      -0.622   8.226 -28.377  1.00  0.00     0.030 A 
HETATM   20  C   UNL     1      -0.065   9.142 -27.481  1.00  0.00     0.010 A 
HETATM   21  C   UNL     1       0.999   8.771 -26.643  1.00  0.00    -0.055 A 
HETATM   22  C   UNL     1       1.512   7.471 -26.749  1.00  0.00     0.010 A 
HETATM   23  C   UNL     1       0.963   6.558 -27.653  1.00  0.00     0.030 A 
BRANCH  21  24
HETATM   24  C   UNL     1       1.611   9.737 -25.642  1.00  0.00     0.010 C 
HETATM   25  C   UNL     1       2.729   9.094 -24.817  1.00  0.00     0.015 C 
HETATM   26  C   UNL     1       0.536  10.336 -24.733  1.00  0.00     0.015 C 
ENDBRANCH  21  24
ENDBRANCH  16  18
ENDBRANCH  13  16
ENDBRANCH   1  13
BRANCH   7  27
HETATM   27  C   UNL     1      -6.509   2.164 -33.308  1.00  0.00     0.257 C 
HETATM   28  N   UNL     1      -6.077   0.884 -33.077  1.00  0.00    -0.355 N 
HETATM   29  H   UNL     1      -5.074   0.694 -33.090  1.00  0.00     0.162 HD
HETATM   30  O   UNL     1      -7.695   2.451 -33.449  1.00  0.00    -0.267 OA
BRANCH  28  31
HETATM   31  C   UNL     1      -6.982  -0.249 -33.036  1.00  0.00     0.149 C 
BRANCH  31  32
HETATM   32  C   UNL     1      -6.825  -1.167 -34.250  1.00  0.00     0.186 C 
BRANCH  32  33
HETATM   33  O   UNL     1      -5.654  -1.975 -34.078  1.00  0.00    -0.394 OA
HETATM   34  C   UNL     1      -5.644  -3.074 -34.979  1.00  0.00     0.201 C 
ENDBRANCH  32  33
ENDBRANCH  31  32
ENDBRANCH  28  31
ENDBRANCH   7  27
TORSDOF 8
ENDMDL
MODEL 7
REMARK VINA RESULT:      -8.3      5.182      8.262
REMARK  8 active torsions:
REMARK  status: ('A' for Active; 'I' for Inactive)
REMARK    1  A    between atoms: C_2  and  C_3 
REMARK    2  A    between atoms: C_6  and  N_7 
REMARK    3  A    between atoms: N_7  and  S_8 
REMARK    4  A    between atoms: S_8  and  C_9 
REMARK    5  A    between atoms: C_15  and  C_16 
REMARK       I    between atoms: C_16  and  N_17 
REMARK    6  A    between atoms: N_17  and  C_18 
REMARK    7  A    between atoms: C_18  and  C_19 
REMARK    8  A    between atoms: C_19  and  O_20 
ROOT
HETATM    1  C   UNL     1      -8.718   2.002 -32.843  1.00  0.00     0.081 A 
HETATM    2  C   UNL     1      -8.840   3.305 -33.329  1.00  0.00     0.043 A 
HETATM    3  C   UNL     1     -10.005   3.667 -34.013  1.00  0.00     0.043 A 
HETATM    4  C   UNL     1     -11.056   2.751 -34.187  1.00  0.00     0.046 A 
HETATM    5  N   UNL     1     -12.200   3.134 -34.896  1.00  0.00    -0.364 N 
HETATM    6  C   UNL     1     -12.354   4.426 -35.334  1.00  0.00     0.109 A 
HETATM    7  C   UNL     1     -11.433   5.401 -35.228  1.00  0.00     0.098 A 
HETATM    8  C   UNL     1     -10.147   5.041 -34.566  1.00  0.00     0.201 A 
HETATM    9  O   UNL     1      -9.219   5.839 -34.472  1.00  0.00    -0.286 OA
HETATM   10  C   UNL     1     -10.909   1.446 -33.702  1.00  0.00     0.032 A 
HETATM   11  C   UNL     1      -9.746   1.071 -33.021  1.00  0.00     0.027 A 
HETATM   12  H   UNL     1     -13.017   2.531 -34.882  1.00  0.00     0.165 HD
ENDROOT
BRANCH   1  13
HETATM   13  S   UNL     1      -7.256   1.558 -31.929  1.00  0.00     0.263 S 
HETATM   14  O   UNL     1      -7.517   0.311 -31.243  1.00  0.00    -0.200 OA
HETATM   15  O   UNL     1      -6.839   2.739 -31.203  1.00  0.00    -0.200 OA
BRANCH  13  16
HETATM   16  N   UNL     1      -6.115   1.317 -33.146  1.00  0.00    -0.281 N 
HETATM   17  H   UNL     1      -6.109   2.068 -33.833  1.00  0.00     0.179 HD
BRANCH  16  18
HETATM   18  C   UNL     1      -5.852  -0.003 -33.602  1.00  0.00     0.042 A 
HETATM   19  C   UNL     1      -4.699  -0.664 -33.184  1.00  0.00     0.030 A 
HETATM   20  C   UNL     1      -4.439  -1.962 -33.633  1.00  0.00     0.010 A 
HETATM   21  C   UNL     1      -5.335  -2.618 -34.492  1.00  0.00    -0.055 A 
HETATM   22  C   UNL     1      -6.480  -1.929 -34.918  1.00  0.00     0.010 A 
HETATM   23  C   UNL     1      -6.734  -0.627 -34.479  1.00  0.00     0.030 A 
BRANCH  21  24
HETATM   24  C   UNL     1      -5.092  -4.037 -34.978  1.00  0.00     0.010 C 
HETATM   25  C   UNL     1      -6.390  -4.757 -35.353  1.00  0.00     0.015 C 
HETATM   26  C   UNL     1      -4.300  -4.840 -33.945  1.00  0.00     0.015 C 
ENDBRANCH  21  24
ENDBRANCH  16  18
ENDBRANCH  13  16
ENDBRANCH   1  13
BRANCH   7  27
HETATM   27  C   UNL     1     -11.756   6.745 -35.787  1.00  0.00     0.257 C 
HETATM   28  N   UNL     1     -10.678   7.509 -36.149  1.00  0.00    -0.355 N 
HETATM   29  H   UNL     1      -9.742   7.182 -35.909  1.00  0.00     0.162 HD
HETATM   30  O   UNL     1     -12.917   7.130 -35.911  1.00  0.00    -0.267 OA
BRANCH  28  31
HETATM   31  C   UNL     1     -10.815   8.861 -36.657  1.00  0.00     0.149 C 
BRANCH  31  32
HETATM   32  C   UNL     1     -10.081   9.065 -37.983  1.00  0.00     0.186 C 
BRANCH  32  33
HETATM   33  O   UNL     1     -10.942   9.758 -38.895  1.00  0.00    -0.394 OA
HETATM   34  C   UNL     1     -12.141   9.032 -39.132  1.00  0.00     0.201 C 
ENDBRANCH  32  33
ENDBRANCH  31  32
ENDBRANCH  28  31
ENDBRANCH   7  27
TORSDOF 8
ENDMDL
MODEL 8
REMARK VINA RESULT:      -8.2      1.949      2.244
REMARK  8 active torsions:
REMARK  status: ('A' for Active; 'I' for Inactive)
REMARK    1  A    between atoms: C_2  and  C_3 
REMARK    2  A    between atoms: C_6  and  N_7 
REMARK    3  A    between atoms: N_7  and  S_8 
REMARK    4  A    between atoms: S_8  and  C_9 
REMARK    5  A    between atoms: C_15  and  C_16 
REMARK       I    between atoms: C_16  and  N_17 
REMARK    6  A    between atoms: N_17  and  C_18 
REMARK    7  A    between atoms: C_18  and  C_19 
REMARK    8  A    between atoms: C_19  and  O_20 
ROOT
HETATM    1  C   UNL     1      -7.480   2.791 -31.165  1.00  0.00     0.081 A 
HETATM    2  C   UNL     1      -6.151   3.156 -31.387  1.00  0.00     0.043 A 
HETATM    3  C   UNL     1      -5.671   4.345 -30.828  1.00  0.00     0.043 A 
HETATM    4  C   UNL     1      -6.497   5.151 -30.026  1.00  0.00     0.046 A 
HETATM    5  N   UNL     1      -5.998   6.348 -29.499  1.00  0.00    -0.364 N 
HETATM    6  C   UNL     1      -4.680   6.692 -29.668  1.00  0.00     0.109 A 
HETATM    7  C   UNL     1      -3.783   6.011 -30.403  1.00  0.00     0.098 A 
HETATM    8  C   UNL     1      -4.268   4.771 -31.075  1.00  0.00     0.201 A 
HETATM    9  O   UNL     1      -3.547   4.109 -31.816  1.00  0.00    -0.286 OA
HETATM   10  C   UNL     1      -7.829   4.773 -29.825  1.00  0.00     0.032 A 
HETATM   11  C   UNL     1      -8.321   3.588 -30.385  1.00  0.00     0.027 A 
HETATM   12  H   UNL     1      -6.537   6.843 -28.796  1.00  0.00     0.165 HD
ENDROOT
BRANCH   1  13
HETATM   13  S   UNL     1      -8.073   1.252 -31.836  1.00  0.00     0.263 S 
HETATM   14  O   UNL     1      -9.489   1.392 -32.094  1.00  0.00    -0.200 OA
HETATM   15  O   UNL     1      -7.567   0.198 -30.983  1.00  0.00    -0.200 OA
BRANCH  13  16
HETATM   16  N   UNL     1      -7.232   1.133 -33.293  1.00  0.00    -0.281 N 
HETATM   17  H   UNL     1      -7.680   1.649 -34.048  1.00  0.00     0.179 HD
BRANCH  16  18
HETATM   18  C   UNL     1      -6.572  -0.082 -33.618  1.00  0.00     0.042 A 
HETATM   19  C   UNL     1      -5.215  -0.231 -33.337  1.00  0.00     0.030 A 
HETATM   20  C   UNL     1      -4.565  -1.426 -33.657  1.00  0.00     0.010 A 
HETATM   21  C   UNL     1      -5.265  -2.489 -34.249  1.00  0.00    -0.055 A 
HETATM   22  C   UNL     1      -6.625  -2.313 -34.543  1.00  0.00     0.010 A 
HETATM   23  C   UNL     1      -7.273  -1.115 -34.234  1.00  0.00     0.030 A 
BRANCH  21  24
HETATM   24  C   UNL     1      -4.592  -3.808 -34.588  1.00  0.00     0.010 C 
HETATM   25  C   UNL     1      -5.600  -4.922 -34.882  1.00  0.00     0.015 C 
HETATM   26  C   UNL     1      -3.623  -4.227 -33.480  1.00  0.00     0.015 C 
ENDBRANCH  21  24
ENDBRANCH  16  18
ENDBRANCH  13  16
ENDBRANCH   1  13
BRANCH   7  27
HETATM   27  C   UNL     1      -2.394   6.545 -30.502  1.00  0.00     0.257 C 
HETATM   28  N   UNL     1      -1.397   5.661 -30.185  1.00  0.00    -0.355 N 
HETATM   29  H   UNL     1      -1.651   4.755 -29.789  1.00  0.00     0.162 HD
HETATM   30  O   UNL     1      -2.172   7.703 -30.849  1.00  0.00    -0.267 OA
BRANCH  28  31
HETATM   31  C   UNL     1       0.005   6.036 -30.177  1.00  0.00     0.149 C 
BRANCH  31  32
HETATM   32  C   UNL     1       0.792   5.333 -29.070  1.00  0.00     0.186 C 
BRANCH  32  33
HETATM   33  O   UNL     1       0.445   5.913 -27.807  1.00  0.00    -0.394 OA
HETATM   34  C   UNL     1       0.857   7.270 -27.726  1.00  0.00     0.201 C 
ENDBRANCH  32  33
ENDBRANCH  31  32
ENDBRANCH  28  31
ENDBRANCH   7  27
TORSDOF 8
ENDMDL
MODEL 9
REMARK VINA RESULT:      -8.2      2.344      2.938
REMARK  8 active torsions:
REMARK  status: ('A' for Active; 'I' for Inactive)
REMARK    1  A    between atoms: C_2  and  C_3 
REMARK    2  A    between atoms: C_6  and  N_7 
REMARK    3  A    between atoms: N_7  and  S_8 
REMARK    4  A    between atoms: S_8  and  C_9 
REMARK    5  A    between atoms: C_15  and  C_16 
REMARK       I    between atoms: C_16  and  N_17 
REMARK    6  A    between atoms: N_17  and  C_18 
REMARK    7  A    between atoms: C_18  and  C_19 
REMARK    8  A    between atoms: C_19  and  O_20 
ROOT
HETATM    1  C   UNL     1      -8.258   3.777 -32.047  1.00  0.00     0.081 A 
HETATM    2  C   UNL     1      -7.388   4.415 -31.161  1.00  0.00     0.043 A 
HETATM    3  C   UNL     1      -6.231   5.019 -31.664  1.00  0.00     0.043 A 
HETATM    4  C   UNL     1      -5.956   5.018 -33.043  1.00  0.00     0.046 A 
HETATM    5  N   UNL     1      -4.779   5.610 -33.516  1.00  0.00    -0.364 N 
HETATM    6  C   UNL     1      -3.941   6.285 -32.662  1.00  0.00     0.109 A 
HETATM    7  C   UNL     1      -4.089   6.368 -31.328  1.00  0.00     0.098 A 
HETATM    8  C   UNL     1      -5.272   5.679 -30.738  1.00  0.00     0.201 A 
HETATM    9  O   UNL     1      -5.467   5.644 -29.526  1.00  0.00    -0.286 OA
HETATM   10  C   UNL     1      -6.836   4.364 -33.912  1.00  0.00     0.032 A 
HETATM   11  C   UNL     1      -7.993   3.751 -33.418  1.00  0.00     0.027 A 
HETATM   12  H   UNL     1      -4.661   5.750 -34.513  1.00  0.00     0.165 HD
ENDROOT
BRANCH   1  13
HETATM   13  S   UNL     1      -9.755   3.052 -31.410  1.00  0.00     0.263 S 
HETATM   14  O   UNL     1     -10.680   2.893 -32.510  1.00  0.00    -0.200 OA
HETATM   15  O   UNL     1     -10.118   3.806 -30.229  1.00  0.00    -0.200 OA
BRANCH  13  16
HETATM   16  N   UNL     1      -9.236   1.541 -30.871  1.00  0.00    -0.281 N 
HETATM   17  H   UNL     1      -9.034   1.528 -29.873  1.00  0.00     0.179 HD
BRANCH  16  18
HETATM   18  C   UNL     1      -8.433   0.737 -31.724  1.00  0.00     0.042 A 
HETATM   19  C   UNL     1      -8.980   0.197 -32.886  1.00  0.00     0.030 A 
HETATM   20  C   UNL     1      -8.190  -0.595 -33.724  1.00  0.00     0.010 A 
HETATM   21  C   UNL     1      -6.843  -0.845 -33.417  1.00  0.00    -0.055 A 
HETATM   22  C   UNL     1      -6.316  -0.310 -32.233  1.00  0.00     0.010 A 
HETATM   23  C   UNL     1      -7.108   0.472 -31.388  1.00  0.00     0.030 A 
BRANCH  21  24
HETATM   24  C   UNL     1      -5.953  -1.682 -34.320  1.00  0.00     0.010 C 
HETATM   25  C   UNL     1      -6.594  -3.021 -34.696  1.00  0.00     0.015 C 
HETATM   26  C   UNL     1      -4.577  -1.894 -33.686  1.00  0.00     0.015 C 
ENDBRANCH  21  24
ENDBRANCH  16  18
ENDBRANCH  13  16
ENDBRANCH   1  13
BRANCH   7  27
HETATM   27  C   UNL     1      -3.065   7.119 -30.547  1.00  0.00     0.257 C 
HETATM   28  N   UNL     1      -2.415   6.400 -29.578  1.00  0.00    -0.355 N 
HETATM   29  H   UNL     1      -2.743   5.457 -29.363  1.00  0.00     0.162 HD
HETATM   30  O   UNL     1      -2.826   8.304 -30.768  1.00  0.00    -0.267 OA
BRANCH  28  31
HETATM   31  C   UNL     1      -1.431   6.994 -28.693  1.00  0.00     0.149 C 
BRANCH  31  32
HETATM   32  C   UNL     1      -0.047   6.361 -28.849  1.00  0.00     0.186 C 
BRANCH  32  33
HETATM   33  O   UNL     1       0.361   6.457 -30.219  1.00  0.00    -0.394 OA
HETATM   34  C   UNL     1       0.733   5.189 -30.741  1.00  0.00     0.201 C 
ENDBRANCH  32  33
ENDBRANCH  31  32
ENDBRANCH  28  31
ENDBRANCH   7  27
TORSDOF 8
ENDMDL
MODEL 10
REMARK VINA RESULT:      -8.1      1.852      2.065
REMARK  8 active torsions:
REMARK  status: ('A' for Active; 'I' for Inactive)
REMARK    1  A    between atoms: C_2  and  C_3 
REMARK    2  A    between atoms: C_6  and  N_7 
REMARK    3  A    between atoms: N_7  and  S_8 
REMARK    4  A    between atoms: S_8  and  C_9 
REMARK    5  A    between atoms: C_15  and  C_16 
REMARK       I    between atoms: C_16  and  N_17 
REMARK    6  A    between atoms: N_17  and  C_18 
REMARK    7  A    between atoms: C_18  and  C_19 
REMARK    8  A    between atoms: C_19  and  O_20 
ROOT
HETATM    1  C   UNL     1      -6.684   3.632 -32.991  1.00  0.00     0.081 A 
HETATM    2  C   UNL     1      -6.177   4.196 -31.819  1.00  0.00     0.043 A 
HETATM    3  C   UNL     1      -5.044   5.012 -31.893  1.00  0.00     0.043 A 
HETATM    4  C   UNL     1      -4.435   5.293 -33.129  1.00  0.00     0.046 A 
HETATM    5  N   UNL     1      -3.288   6.094 -33.171  1.00  0.00    -0.364 N 
HETATM    6  C   UNL     1      -2.811   6.695 -32.032  1.00  0.00     0.109 A 
HETATM    7  C   UNL     1      -3.299   6.517 -30.792  1.00  0.00     0.098 A 
HETATM    8  C   UNL     1      -4.467   5.600 -30.655  1.00  0.00     0.201 A 
HETATM    9  O   UNL     1      -4.951   5.323 -29.561  1.00  0.00    -0.286 OA
HETATM   10  C   UNL     1      -4.952   4.709 -34.291  1.00  0.00     0.032 A 
HETATM   11  C   UNL     1      -6.082   3.886 -34.227  1.00  0.00     0.027 A 
HETATM   12  H   UNL     1      -2.948   6.425 -34.067  1.00  0.00     0.165 HD
ENDROOT
BRANCH   1  13
HETATM   13  S   UNL     1      -8.156   2.634 -32.900  1.00  0.00     0.263 S 
HETATM   14  O   UNL     1      -8.528   2.260 -34.247  1.00  0.00    -0.200 OA
HETATM   15  O   UNL     1      -9.082   3.329 -32.032  1.00  0.00    -0.200 OA
BRANCH  13  16
HETATM   16  N   UNL     1      -7.632   1.276 -32.050  1.00  0.00    -0.281 N 
HETATM   17  H   UNL     1      -7.226   1.510 -31.147  1.00  0.00     0.179 HD
BRANCH  16  18
HETATM   18  C   UNL     1      -7.078   0.179 -32.764  1.00  0.00     0.042 A 
HETATM   19  C   UNL     1      -7.919  -0.717 -33.420  1.00  0.00     0.030 A 
HETATM   20  C   UNL     1      -7.374  -1.796 -34.122  1.00  0.00     0.010 A 
HETATM   21  C   UNL     1      -5.984  -1.983 -34.187  1.00  0.00    -0.055 A 
HETATM   22  C   UNL     1      -5.155  -1.083 -33.503  1.00  0.00     0.010 A 
HETATM   23  C   UNL     1      -5.699  -0.011 -32.792  1.00  0.00     0.030 A 
BRANCH  21  24
HETATM   24  C   UNL     1      -5.361  -3.133 -34.961  1.00  0.00     0.010 C 
HETATM   25  C   UNL     1      -6.357  -4.263 -35.234  1.00  0.00     0.015 C 
HETATM   26  C   UNL     1      -4.117  -3.663 -34.244  1.00  0.00     0.015 C 
ENDBRANCH  21  24
ENDBRANCH  16  18
ENDBRANCH  13  16
ENDBRANCH   1  13
BRANCH   7  27
HETATM   27  C   UNL     1      -2.638   7.229 -29.660  1.00  0.00     0.257 C 
HETATM   28  N   UNL     1      -1.594   6.563 -29.073  1.00  0.00    -0.355 N 
HETATM   29  H   UNL     1      -1.412   5.597 -29.347  1.00  0.00     0.162 HD
HETATM   30  O   UNL     1      -3.013   8.339 -29.290  1.00  0.00    -0.267 OA
BRANCH  28  31
HETATM   31  C   UNL     1      -0.879   7.090 -27.926  1.00  0.00     0.149 C 
BRANCH  31  32
HETATM   32  C   UNL     1       0.444   6.365 -27.678  1.00  0.00     0.186 C 
BRANCH  32  33
HETATM   33  O   UNL     1       1.358   7.263 -27.037  1.00  0.00    -0.394 OA
HETATM   34  C   UNL     1       1.466   8.490 -27.746  1.00  0.00     0.201 C 
ENDBRANCH  32  33
ENDBRANCH  31  32
ENDBRANCH  28  31
ENDBRANCH   7  27
TORSDOF 8
ENDMDL
