MODEL 1
REMARK VINA RESULT:      -8.2      0.000      0.000
REMARK  5 active torsions:
REMARK  status: ('A' for Active; 'I' for Inactive)
REMARK    1  A    between atoms: C_4  and  N_5 
REMARK    2  A    between atoms: C_6  and  O_7 
REMARK    3  A    between atoms: C_6  and  C_8 
REMARK       I    between atoms: C_8  and  N_9 
REMARK    4  A    between atoms: N_9  and  C_10 
REMARK    5  A    between atoms: C_10  and  C_11 
ROOT
HETATM    1  N   UNL     1      -5.437   3.795 -32.571  1.00  0.00    -0.254 N 
HETATM    2  C   UNL     1      -6.207   2.643 -33.070  1.00  0.00     0.256 C 
HETATM    3  C   UNL     1      -7.646   2.668 -32.602  1.00  0.00     0.035 A 
HETATM    4  C   UNL     1      -7.910   3.265 -31.374  1.00  0.00     0.048 A 
HETATM    5  N   UNL     1      -6.859   3.877 -30.699  1.00  0.00    -0.308 N 
HETATM    6  C   UNL     1      -5.650   4.206 -31.258  1.00  0.00     0.330 C 
HETATM    7  O   UNL     1      -4.894   4.900 -30.579  1.00  0.00    -0.246 OA
HETATM    8  C   UNL     1      -8.696   2.034 -33.287  1.00  0.00     0.034 A 
HETATM    9  C   UNL     1      -9.977   2.020 -32.739  1.00  0.00     0.011 A 
HETATM   10 BR   UNL     1     -11.387   1.173 -33.669  1.00  0.00    -0.051 Br
HETATM   11  C   UNL     1     -10.226   2.616 -31.503  1.00  0.00     0.021 A 
HETATM   12  C   UNL     1      -9.185   3.237 -30.812  1.00  0.00     0.031 A 
HETATM   13  H   UNL     1      -7.021   4.312 -29.797  1.00  0.00     0.170 HD
ENDROOT
BRANCH   2  14
HETATM   14  O   UNL     1      -6.241   2.617 -34.501  1.00  0.00    -0.359 OA
HETATM   15  H   UNL     1      -5.298   2.605 -34.764  1.00  0.00     0.213 HD
ENDBRANCH   2  14
BRANCH   2  16
HETATM   16  C   UNL     1      -5.488   1.307 -32.602  1.00  0.00     0.279 C 
HETATM   17  N   UNL     1      -5.335   0.302 -33.532  1.00  0.00    -0.352 N 
HETATM   18  H   UNL     1      -5.667   0.430 -34.480  1.00  0.00     0.162 HD
HETATM   19  O   UNL     1      -5.096   1.176 -31.438  1.00  0.00    -0.268 OA
BRANCH  17  20
HETATM   20  C   UNL     1      -4.554  -0.875 -33.242  1.00  0.00     0.168 C 
BRANCH  20  21
HETATM   21  C   UNL     1      -5.212  -2.059 -33.878  1.00  0.00     0.000 A 
HETATM   22  S   UNL     1      -4.304  -3.479 -34.207  1.00  0.00    -0.105 SA
HETATM   23  C   UNL     1      -5.667  -4.276 -34.863  1.00  0.00     0.050 A 
HETATM   24  C   UNL     1      -6.793  -3.484 -34.834  1.00  0.00     0.008 A 
HETATM   25  C   UNL     1      -6.531  -2.203 -34.266  1.00  0.00     0.017 A 
ENDBRANCH  20  21
ENDBRANCH  17  20
ENDBRANCH   2  16
BRANCH   1  26
HETATM   26  C   UNL     1      -4.274   4.240 -33.283  1.00  0.00     0.042 A 
HETATM   27  C   UNL     1      -2.979   3.947 -32.837  1.00  0.00     0.030 A 
HETATM   28  C   UNL     1      -1.857   4.425 -33.523  1.00  0.00     0.002 A 
HETATM   29  C   UNL     1      -2.015   5.214 -34.660  1.00  0.00     0.000 A 
HETATM   30  C   UNL     1      -3.293   5.532 -35.106  1.00  0.00     0.002 A 
HETATM   31  C   UNL     1      -4.412   5.054 -34.418  1.00  0.00     0.030 A 
ENDBRANCH   1  26
TORSDOF 5
ENDMDL
MODEL 2
REMARK VINA RESULT:      -8.2      3.520      5.978
REMARK  5 active torsions:
REMARK  status: ('A' for Active; 'I' for Inactive)
REMARK    1  A    between atoms: C_4  and  N_5 
REMARK    2  A    between atoms: C_6  and  O_7 
REMARK    3  A    between atoms: C_6  and  C_8 
REMARK       I    between atoms: C_8  and  N_9 
REMARK    4  A    between atoms: N_9  and  C_10 
REMARK    5  A    between atoms: C_10  and  C_11 
ROOT
HETATM    1  N   UNL     1      -4.566   4.951 -33.419  1.00  0.00    -0.254 N 
HETATM    2  C   UNL     1      -3.869   4.722 -32.142  1.00  0.00     0.256 C 
HETATM    3  C   UNL     1      -2.732   5.697 -31.925  1.00  0.00     0.035 A 
HETATM    4  C   UNL     1      -2.080   6.180 -33.054  1.00  0.00     0.048 A 
HETATM    5  N   UNL     1      -2.565   5.813 -34.305  1.00  0.00    -0.308 N 
HETATM    6  C   UNL     1      -3.798   5.259 -34.538  1.00  0.00     0.330 C 
HETATM    7  O   UNL     1      -4.147   5.155 -35.714  1.00  0.00    -0.246 OA
HETATM    8  C   UNL     1      -2.243   6.049 -30.657  1.00  0.00     0.034 A 
HETATM    9  C   UNL     1      -1.128   6.878 -30.546  1.00  0.00     0.011 A 
HETATM   10 BR   UNL     1      -0.480   7.355 -28.836  1.00  0.00    -0.051 Br
HETATM   11  C   UNL     1      -0.479   7.350 -31.686  1.00  0.00     0.021 A 
HETATM   12  C   UNL     1      -0.952   6.994 -32.949  1.00  0.00     0.031 A 
HETATM   13  H   UNL     1      -2.103   6.143 -35.145  1.00  0.00     0.170 HD
ENDROOT
BRANCH   2  14
HETATM   14  O   UNL     1      -4.756   4.871 -31.028  1.00  0.00    -0.359 OA
HETATM   15  H   UNL     1      -4.660   5.810 -30.767  1.00  0.00     0.213 HD
ENDBRANCH   2  14
BRANCH   2  16
HETATM   16  C   UNL     1      -3.339   3.226 -32.111  1.00  0.00     0.279 C 
HETATM   17  N   UNL     1      -3.864   2.379 -31.158  1.00  0.00    -0.352 N 
HETATM   18  H   UNL     1      -4.569   2.713 -30.513  1.00  0.00     0.162 HD
HETATM   19  O   UNL     1      -2.475   2.846 -32.909  1.00  0.00    -0.268 OA
BRANCH  17  20
HETATM   20  C   UNL     1      -3.562   0.969 -31.161  1.00  0.00     0.168 C 
BRANCH  20  21
HETATM   21  C   UNL     1      -4.582   0.260 -31.996  1.00  0.00     0.000 A 
HETATM   22  S   UNL     1      -6.186   0.062 -31.415  1.00  0.00    -0.105 SA
HETATM   23  C   UNL     1      -6.667  -0.760 -32.834  1.00  0.00     0.050 A 
HETATM   24  C   UNL     1      -5.635  -0.883 -33.736  1.00  0.00     0.008 A 
HETATM   25  C   UNL     1      -4.429  -0.296 -33.252  1.00  0.00     0.017 A 
ENDBRANCH  20  21
ENDBRANCH  17  20
ENDBRANCH   2  16
BRANCH   1  26
HETATM   26  C   UNL     1      -5.927   4.527 -33.576  1.00  0.00     0.042 A 
HETATM   27  C   UNL     1      -6.996   5.427 -33.478  1.00  0.00     0.030 A 
HETATM   28  C   UNL     1      -8.319   4.988 -33.594  1.00  0.00     0.002 A 
HETATM   29  C   UNL     1      -8.594   3.637 -33.798  1.00  0.00     0.000 A 
HETATM   30  C   UNL     1      -7.547   2.726 -33.878  1.00  0.00     0.002 A 
HETATM   31  C   UNL     1      -6.226   3.168 -33.760  1.00  0.00     0.030 A 
ENDBRANCH   1  26
TORSDOF 5
ENDMDL
MODEL 3
REMARK VINA RESULT:      -8.1      2.898      5.486
REMARK  5 active torsions:
REMARK  status: ('A' for Active; 'I' for Inactive)
REMARK    1  A    between atoms: C_4  and  N_5 
REMARK    2  A    between atoms: C_6  and  O_7 
REMARK    3  A    between atoms: C_6  and  C_8 
REMARK       I    between atoms: C_8  and  N_9 
REMARK    4  A    between atoms: N_9  and  C_10 
REMARK    5  A    between atoms: C_10  and  C_11 
ROOT
HETATM    1  N   UNL     1      -7.063   1.660 -33.047  1.00  0.00    -0.254 N 
HETATM    2  C   UNL     1      -7.801   2.819 -32.517  1.00  0.00     0.256 C 
HETATM    3  C   UNL     1      -9.283   2.740 -32.809  1.00  0.00     0.035 A 
HETATM    4  C   UNL     1      -9.672   2.074 -33.967  1.00  0.00     0.048 A 
HETATM    5  N   UNL     1      -8.692   1.451 -34.731  1.00  0.00    -0.308 N 
HETATM    6  C   UNL     1      -7.417   1.177 -34.303  1.00  0.00     0.330 C 
HETATM    7  O   UNL     1      -6.727   0.466 -35.033  1.00  0.00    -0.246 OA
HETATM    8  C   UNL     1     -10.262   3.385 -32.037  1.00  0.00     0.034 A 
HETATM    9  C   UNL     1     -11.599   3.343 -32.430  1.00  0.00     0.011 A 
HETATM   10 BR   UNL     1     -12.913   4.206 -31.381  1.00  0.00    -0.051 Br
HETATM   11  C   UNL     1     -11.974   2.679 -33.597  1.00  0.00     0.021 A 
HETATM   12  C   UNL     1     -11.005   2.046 -34.375  1.00  0.00     0.031 A 
HETATM   13  H   UNL     1      -8.946   0.967 -35.585  1.00  0.00     0.170 HD
ENDROOT
BRANCH   2  14
HETATM   14  O   UNL     1      -7.667   2.919 -31.095  1.00  0.00    -0.359 OA
HETATM   15  H   UNL     1      -7.532   3.875 -30.932  1.00  0.00     0.213 HD
ENDBRANCH   2  14
BRANCH   2  16
HETATM   16  C   UNL     1      -7.178   4.144 -33.131  1.00  0.00     0.279 C 
HETATM   17  N   UNL     1      -6.359   4.903 -32.323  1.00  0.00    -0.352 N 
HETATM   18  H   UNL     1      -6.164   4.606 -31.374  1.00  0.00     0.162 HD
HETATM   19  O   UNL     1      -7.437   4.485 -34.291  1.00  0.00    -0.268 OA
BRANCH  17  20
HETATM   20  C   UNL     1      -5.625   6.029 -32.845  1.00  0.00     0.168 C 
BRANCH  20  21
HETATM   21  C   UNL     1      -4.236   5.584 -33.181  1.00  0.00     0.000 A 
HETATM   22  S   UNL     1      -3.796   5.286 -34.814  1.00  0.00    -0.105 SA
HETATM   23  C   UNL     1      -2.198   4.866 -34.375  1.00  0.00     0.050 A 
HETATM   24  C   UNL     1      -1.997   4.949 -33.016  1.00  0.00     0.008 A 
HETATM   25  C   UNL     1      -3.174   5.362 -32.325  1.00  0.00     0.017 A 
ENDBRANCH  20  21
ENDBRANCH  17  20
ENDBRANCH   2  16
BRANCH   1  26
HETATM   26  C   UNL     1      -5.813   1.278 -32.456  1.00  0.00     0.042 A 
HETATM   27  C   UNL     1      -4.631   1.987 -32.708  1.00  0.00     0.030 A 
HETATM   28  C   UNL     1      -3.414   1.573 -32.155  1.00  0.00     0.002 A 
HETATM   29  C   UNL     1      -3.359   0.437 -31.352  1.00  0.00     0.000 A 
HETATM   30  C   UNL     1      -4.518  -0.291 -31.108  1.00  0.00     0.002 A 
HETATM   31  C   UNL     1      -5.733   0.123 -31.663  1.00  0.00     0.030 A 
ENDBRANCH   1  26
TORSDOF 5
ENDMDL
MODEL 4
REMARK VINA RESULT:      -8.0      2.796      5.582
REMARK  5 active torsions:
REMARK  status: ('A' for Active; 'I' for Inactive)
REMARK    1  A    between atoms: C_4  and  N_5 
REMARK    2  A    between atoms: C_6  and  O_7 
REMARK    3  A    between atoms: C_6  and  C_8 
REMARK       I    between atoms: C_8  and  N_9 
REMARK    4  A    between atoms: N_9  and  C_10 
REMARK    5  A    between atoms: C_10  and  C_11 
ROOT
HETATM    1  N   UNL     1      -5.930   4.191 -32.134  1.00  0.00    -0.254 N 
HETATM    2  C   UNL     1      -4.709   3.791 -31.414  1.00  0.00     0.256 C 
HETATM    3  C   UNL     1      -3.464   4.422 -31.999  1.00  0.00     0.035 A 
HETATM    4  C   UNL     1      -3.469   4.701 -33.362  1.00  0.00     0.048 A 
HETATM    5  N   UNL     1      -4.637   4.469 -34.079  1.00  0.00    -0.308 N 
HETATM    6  C   UNL     1      -5.875   4.270 -33.523  1.00  0.00     0.330 C 
HETATM    7  O   UNL     1      -6.835   4.255 -34.293  1.00  0.00    -0.246 OA
HETATM    8  C   UNL     1      -2.286   4.638 -31.266  1.00  0.00     0.034 A 
HETATM    9  C   UNL     1      -1.150   5.133 -31.904  1.00  0.00     0.011 A 
HETATM   10 BR   UNL     1       0.430   5.430 -30.911  1.00  0.00    -0.051 Br
HETATM   11  C   UNL     1      -1.166   5.402 -33.272  1.00  0.00     0.021 A 
HETATM   12  C   UNL     1      -2.329   5.178 -34.008  1.00  0.00     0.031 A 
HETATM   13  H   UNL     1      -4.665   4.655 -35.076  1.00  0.00     0.170 HD
ENDROOT
BRANCH   2  14
HETATM   14  O   UNL     1      -4.761   4.185 -30.038  1.00  0.00    -0.359 OA
HETATM   15  H   UNL     1      -5.696   4.439 -29.895  1.00  0.00     0.213 HD
ENDBRANCH   2  14
BRANCH   2  16
HETATM   16  C   UNL     1      -4.600   2.208 -31.436  1.00  0.00     0.279 C 
HETATM   17  N   UNL     1      -4.069   1.617 -32.562  1.00  0.00    -0.352 N 
HETATM   18  H   UNL     1      -3.757   2.188 -33.338  1.00  0.00     0.162 HD
HETATM   19  O   UNL     1      -4.993   1.534 -30.477  1.00  0.00    -0.268 OA
BRANCH  17  20
HETATM   20  C   UNL     1      -3.784   0.204 -32.604  1.00  0.00     0.168 C 
BRANCH  20  21
HETATM   21  C   UNL     1      -4.822  -0.472 -33.443  1.00  0.00     0.000 A 
HETATM   22  S   UNL     1      -4.651  -2.129 -33.859  1.00  0.00    -0.105 SA
HETATM   23  C   UNL     1      -6.118  -2.127 -34.737  1.00  0.00     0.050 A 
HETATM   24  C   UNL     1      -6.730  -0.895 -34.717  1.00  0.00     0.008 A 
HETATM   25  C   UNL     1      -5.982   0.062 -33.971  1.00  0.00     0.017 A 
ENDBRANCH  20  21
ENDBRANCH  17  20
ENDBRANCH   2  16
BRANCH   1  26
HETATM   26  C   UNL     1      -7.199   4.151 -31.467  1.00  0.00     0.042 A 
HETATM   27  C   UNL     1      -7.936   2.965 -31.353  1.00  0.00     0.030 A 
HETATM   28  C   UNL     1      -9.191   2.956 -30.734  1.00  0.00     0.002 A 
HETATM   29  C   UNL     1      -9.733   4.135 -30.230  1.00  0.00     0.000 A 
HETATM   30  C   UNL     1      -9.025   5.326 -30.352  1.00  0.00     0.002 A 
HETATM   31  C   UNL     1      -7.772   5.333 -30.972  1.00  0.00     0.030 A 
ENDBRANCH   1  26
TORSDOF 5
ENDMDL
MODEL 5
REMARK VINA RESULT:      -7.5      3.351      6.487
REMARK  5 active torsions:
REMARK  status: ('A' for Active; 'I' for Inactive)
REMARK    1  A    between atoms: C_4  and  N_5 
REMARK    2  A    between atoms: C_6  and  O_7 
REMARK    3  A    between atoms: C_6  and  C_8 
REMARK       I    between atoms: C_8  and  N_9 
REMARK    4  A    between atoms: N_9  and  C_10 
REMARK    5  A    between atoms: C_10  and  C_11 
ROOT
HETATM    1  N   UNL     1      -9.065   2.656 -32.368  1.00  0.00    -0.254 N 
HETATM    2  C   UNL     1      -7.761   2.533 -33.041  1.00  0.00     0.256 C 
HETATM    3  C   UNL     1      -6.768   1.731 -32.228  1.00  0.00     0.035 A 
HETATM    4  C   UNL     1      -6.892   1.774 -30.843  1.00  0.00     0.048 A 
HETATM    5  N   UNL     1      -7.964   2.472 -30.298  1.00  0.00    -0.308 N 
HETATM    6  C   UNL     1      -9.076   2.875 -30.994  1.00  0.00     0.330 C 
HETATM    7  O   UNL     1     -10.012   3.324 -30.334  1.00  0.00    -0.246 OA
HETATM    8  C   UNL     1      -5.682   1.042 -32.791  1.00  0.00     0.034 A 
HETATM    9  C   UNL     1      -4.756   0.408 -31.964  1.00  0.00     0.011 A 
HETATM   10 BR   UNL     1      -3.300  -0.525 -32.727  1.00  0.00    -0.051 Br
HETATM   11  C   UNL     1      -4.888   0.465 -30.577  1.00  0.00     0.021 A 
HETATM   12  C   UNL     1      -5.958   1.158 -30.011  1.00  0.00     0.031 A 
HETATM   13  H   UNL     1      -8.074   2.527 -29.291  1.00  0.00     0.170 HD
ENDROOT
BRANCH   2  14
HETATM   14  O   UNL     1      -7.884   1.874 -34.306  1.00  0.00    -0.359 OA
HETATM   15  H   UNL     1      -8.725   1.376 -34.237  1.00  0.00     0.213 HD
ENDBRANCH   2  14
BRANCH   2  16
HETATM   16  C   UNL     1      -7.200   3.989 -33.334  1.00  0.00     0.279 C 
HETATM   17  N   UNL     1      -6.203   4.470 -32.512  1.00  0.00    -0.352 N 
HETATM   18  H   UNL     1      -5.845   3.898 -31.757  1.00  0.00     0.162 HD
HETATM   19  O   UNL     1      -7.658   4.668 -34.260  1.00  0.00    -0.268 OA
BRANCH  17  20
HETATM   20  C   UNL     1      -5.525   5.710 -32.802  1.00  0.00     0.168 C 
BRANCH  20  21
HETATM   21  C   UNL     1      -4.136   5.401 -33.264  1.00  0.00     0.000 A 
HETATM   22  S   UNL     1      -3.792   5.274 -34.941  1.00  0.00    -0.105 SA
HETATM   23  C   UNL     1      -2.141   4.942 -34.643  1.00  0.00     0.050 A 
HETATM   24  C   UNL     1      -1.851   4.929 -33.298  1.00  0.00     0.008 A 
HETATM   25  C   UNL     1      -3.002   5.193 -32.500  1.00  0.00     0.017 A 
ENDBRANCH  20  21
ENDBRANCH  17  20
ENDBRANCH   2  16
BRANCH   1  26
HETATM   26  C   UNL     1     -10.249   2.893 -33.142  1.00  0.00     0.042 A 
HETATM   27  C   UNL     1     -10.998   1.841 -33.685  1.00  0.00     0.030 A 
HETATM   28  C   UNL     1     -12.128   2.094 -34.472  1.00  0.00     0.002 A 
HETATM   29  C   UNL     1     -12.517   3.404 -34.738  1.00  0.00     0.000 A 
HETATM   30  C   UNL     1     -11.774   4.461 -34.225  1.00  0.00     0.002 A 
HETATM   31  C   UNL     1     -10.645   4.206 -33.440  1.00  0.00     0.030 A 
ENDBRANCH   1  26
TORSDOF 5
ENDMDL
MODEL 6
REMARK VINA RESULT:      -7.5      3.720      5.970
REMARK  5 active torsions:
REMARK  status: ('A' for Active; 'I' for Inactive)
REMARK    1  A    between atoms: C_4  and  N_5 
REMARK    2  A    between atoms: C_6  and  O_7 
REMARK    3  A    between atoms: C_6  and  C_8 
REMARK       I    between atoms: C_8  and  N_9 
REMARK    4  A    between atoms: N_9  and  C_10 
REMARK    5  A    between atoms: C_10  and  C_11 
ROOT
HETATM    1  N   UNL     1      -6.916   1.625 -32.145  1.00  0.00    -0.254 N 
HETATM    2  C   UNL     1      -6.281   2.927 -32.410  1.00  0.00     0.256 C 
HETATM    3  C   UNL     1      -6.126   3.758 -31.155  1.00  0.00     0.035 A 
HETATM    4  C   UNL     1      -7.069   3.579 -30.149  1.00  0.00     0.048 A 
HETATM    5  N   UNL     1      -8.037   2.595 -30.318  1.00  0.00    -0.308 N 
HETATM    6  C   UNL     1      -7.977   1.585 -31.245  1.00  0.00     0.330 C 
HETATM    7  O   UNL     1      -8.821   0.694 -31.151  1.00  0.00    -0.246 OA
HETATM    8  C   UNL     1      -5.152   4.758 -31.002  1.00  0.00     0.034 A 
HETATM    9  C   UNL     1      -5.138   5.546 -29.852  1.00  0.00     0.011 A 
HETATM   10 BR   UNL     1      -3.820   6.885 -29.649  1.00  0.00    -0.051 Br
HETATM   11  C   UNL     1      -6.094   5.362 -28.855  1.00  0.00     0.021 A 
HETATM   12  C   UNL     1      -7.071   4.377 -29.006  1.00  0.00     0.031 A 
HETATM   13  H   UNL     1      -8.743   2.450 -29.605  1.00  0.00     0.170 HD
ENDROOT
BRANCH   2  14
HETATM   14  O   UNL     1      -4.970   2.767 -32.963  1.00  0.00    -0.359 OA
HETATM   15  H   UNL     1      -4.469   2.300 -32.263  1.00  0.00     0.213 HD
ENDBRANCH   2  14
BRANCH   2  16
HETATM   16  C   UNL     1      -7.145   3.704 -33.493  1.00  0.00     0.279 C 
HETATM   17  N   UNL     1      -8.510   3.510 -33.485  1.00  0.00    -0.352 N 
HETATM   18  H   UNL     1      -8.932   2.896 -32.799  1.00  0.00     0.162 HD
HETATM   19  O   UNL     1      -6.602   4.443 -34.321  1.00  0.00    -0.268 OA
BRANCH  17  20
HETATM   20  C   UNL     1      -9.383   4.294 -34.322  1.00  0.00     0.168 C 
BRANCH  20  21
HETATM   21  C   UNL     1     -10.585   3.472 -34.667  1.00  0.00     0.000 A 
HETATM   22  S   UNL     1     -11.941   4.201 -35.426  1.00  0.00    -0.105 SA
HETATM   23  C   UNL     1     -12.791   2.719 -35.478  1.00  0.00     0.050 A 
HETATM   24  C   UNL     1     -12.063   1.686 -34.932  1.00  0.00     0.008 A 
HETATM   25  C   UNL     1     -10.789   2.120 -34.463  1.00  0.00     0.017 A 
ENDBRANCH  20  21
ENDBRANCH  17  20
ENDBRANCH   2  16
BRANCH   1  26
HETATM   26  C   UNL     1      -6.686   0.523 -33.034  1.00  0.00     0.042 A 
HETATM   27  C   UNL     1      -5.741  -0.471 -32.746  1.00  0.00     0.030 A 
HETATM   28  C   UNL     1      -5.502  -1.516 -33.646  1.00  0.00     0.002 A 
HETATM   29  C   UNL     1      -6.196  -1.576 -34.852  1.00  0.00     0.000 A 
HETATM   30  C   UNL     1      -7.122  -0.587 -35.163  1.00  0.00     0.002 A 
HETATM   31  C   UNL     1      -7.358   0.457 -34.264  1.00  0.00     0.030 A 
ENDBRANCH   1  26
TORSDOF 5
ENDMDL
MODEL 7
REMARK VINA RESULT:      -7.5     16.245     17.758
REMARK  5 active torsions:
REMARK  status: ('A' for Active; 'I' for Inactive)
REMARK    1  A    between atoms: C_4  and  N_5 
REMARK    2  A    between atoms: C_6  and  O_7 
REMARK    3  A    between atoms: C_6  and  C_8 
REMARK       I    between atoms: C_8  and  N_9 
REMARK    4  A    between atoms: N_9  and  C_10 
REMARK    5  A    between atoms: C_10  and  C_11 
ROOT
HETATM    1  N   UNL     1      -7.215 -15.178 -36.832  1.00  0.00    -0.254 N 
HETATM    2  C   UNL     1      -7.256 -13.975 -37.680  1.00  0.00     0.256 C 
HETATM    3  C   UNL     1      -8.491 -13.928 -38.552  1.00  0.00     0.035 A 
HETATM    4  C   UNL     1      -9.038 -15.143 -38.954  1.00  0.00     0.048 A 
HETATM    5  N   UNL     1      -8.474 -16.315 -38.462  1.00  0.00    -0.308 N 
HETATM    6  C   UNL     1      -7.621 -16.387 -37.390  1.00  0.00     0.330 C 
HETATM    7  O   UNL     1      -7.350 -17.512 -36.970  1.00  0.00    -0.246 OA
HETATM    8  C   UNL     1      -9.042 -12.738 -39.054  1.00  0.00     0.034 A 
HETATM    9  C   UNL     1     -10.124 -12.787 -39.931  1.00  0.00     0.011 A 
HETATM   10 BR   UNL     1     -10.866 -11.181 -40.596  1.00  0.00    -0.051 Br
HETATM   11  C   UNL     1     -10.658 -14.012 -40.332  1.00  0.00     0.021 A 
HETATM   12  C   UNL     1     -10.107 -15.198 -39.847  1.00  0.00     0.031 A 
HETATM   13  H   UNL     1      -8.846 -17.214 -38.745  1.00  0.00     0.170 HD
ENDROOT
BRANCH   2  14
HETATM   14  O   UNL     1      -7.263 -12.779 -36.892  1.00  0.00    -0.359 OA
HETATM   15  H   UNL     1      -6.864 -12.103 -37.477  1.00  0.00     0.213 HD
ENDBRANCH   2  14
BRANCH   2  16
HETATM   16  C   UNL     1      -5.940 -13.933 -38.568  1.00  0.00     0.279 C 
HETATM   17  N   UNL     1      -4.966 -13.020 -38.227  1.00  0.00    -0.352 N 
HETATM   18  H   UNL     1      -5.096 -12.410 -37.430  1.00  0.00     0.162 HD
HETATM   19  O   UNL     1      -5.810 -14.686 -39.539  1.00  0.00    -0.268 OA
BRANCH  17  20
HETATM   20  C   UNL     1      -3.677 -13.022 -38.875  1.00  0.00     0.168 C 
BRANCH  20  21
HETATM   21  C   UNL     1      -2.736 -13.863 -38.071  1.00  0.00     0.000 A 
HETATM   22  S   UNL     1      -2.329 -15.447 -38.596  1.00  0.00    -0.105 SA
HETATM   23  C   UNL     1      -1.302 -15.698 -37.253  1.00  0.00     0.050 A 
HETATM   24  C   UNL     1      -1.264 -14.604 -36.419  1.00  0.00     0.008 A 
HETATM   25  C   UNL     1      -2.093 -13.544 -36.890  1.00  0.00     0.017 A 
ENDBRANCH  20  21
ENDBRANCH  17  20
ENDBRANCH   2  16
BRANCH   1  26
HETATM   26  C   UNL     1      -6.462 -15.167 -35.611  1.00  0.00     0.042 A 
HETATM   27  C   UNL     1      -5.080 -15.397 -35.596  1.00  0.00     0.030 A 
HETATM   28  C   UNL     1      -4.369 -15.423 -34.391  1.00  0.00     0.002 A 
HETATM   29  C   UNL     1      -5.032 -15.232 -33.181  1.00  0.00     0.000 A 
HETATM   30  C   UNL     1      -6.407 -15.023 -33.176  1.00  0.00     0.002 A 
HETATM   31  C   UNL     1      -7.115 -14.999 -34.381  1.00  0.00     0.030 A 
ENDBRANCH   1  26
TORSDOF 5
ENDMDL
MODEL 8
REMARK VINA RESULT:      -7.5      2.115      2.563
REMARK  5 active torsions:
REMARK  status: ('A' for Active; 'I' for Inactive)
REMARK    1  A    between atoms: C_4  and  N_5 
REMARK    2  A    between atoms: C_6  and  O_7 
REMARK    3  A    between atoms: C_6  and  C_8 
REMARK       I    between atoms: C_8  and  N_9 
REMARK    4  A    between atoms: N_9  and  C_10 
REMARK    5  A    between atoms: C_10  and  C_11 
ROOT
HETATM    1  N   UNL     1      -6.681   4.203 -32.842  1.00  0.00    -0.254 N 
HETATM    2  C   UNL     1      -7.469   3.017 -33.218  1.00  0.00     0.256 C 
HETATM    3  C   UNL     1      -8.945   3.324 -33.348  1.00  0.00     0.035 A 
HETATM    4  C   UNL     1      -9.460   4.338 -32.548  1.00  0.00     0.048 A 
HETATM    5  N   UNL     1      -8.580   5.061 -31.749  1.00  0.00    -0.308 N 
HETATM    6  C   UNL     1      -7.215   5.069 -31.892  1.00  0.00     0.330 C 
HETATM    7  O   UNL     1      -6.591   5.893 -31.225  1.00  0.00    -0.246 OA
HETATM    8  C   UNL     1      -9.826   2.578 -34.148  1.00  0.00     0.034 A 
HETATM    9  C   UNL     1     -11.190   2.865 -34.137  1.00  0.00     0.011 A 
HETATM   10 BR   UNL     1     -12.368   1.863 -35.221  1.00  0.00    -0.051 Br
HETATM   11  C   UNL     1     -11.694   3.880 -33.323  1.00  0.00     0.021 A 
HETATM   12  C   UNL     1     -10.826   4.617 -32.518  1.00  0.00     0.031 A 
HETATM   13  H   UNL     1      -8.929   5.799 -31.149  1.00  0.00     0.170 HD
ENDROOT
BRANCH   2  14
HETATM   14  O   UNL     1      -7.047   2.487 -34.480  1.00  0.00    -0.359 OA
HETATM   15  H   UNL     1      -7.118   1.517 -34.370  1.00  0.00     0.213 HD
ENDBRANCH   2  14
BRANCH   2  16
HETATM   16  C   UNL     1      -7.226   1.879 -32.138  1.00  0.00     0.279 C 
HETATM   17  N   UNL     1      -6.880   0.625 -32.593  1.00  0.00    -0.352 N 
HETATM   18  H   UNL     1      -6.779   0.454 -33.586  1.00  0.00     0.162 HD
HETATM   19  O   UNL     1      -7.360   2.115 -30.932  1.00  0.00    -0.268 OA
BRANCH  17  20
HETATM   20  C   UNL     1      -6.484  -0.420 -31.681  1.00  0.00     0.168 C 
BRANCH  20  21
HETATM   21  C   UNL     1      -4.989  -0.480 -31.638  1.00  0.00     0.000 A 
HETATM   22  S   UNL     1      -4.140  -1.575 -32.653  1.00  0.00    -0.105 SA
HETATM   23  C   UNL     1      -2.625  -1.057 -32.052  1.00  0.00     0.050 A 
HETATM   24  C   UNL     1      -2.757  -0.072 -31.100  1.00  0.00     0.008 A 
HETATM   25  C   UNL     1      -4.121   0.261 -30.859  1.00  0.00     0.017 A 
ENDBRANCH  20  21
ENDBRANCH  17  20
ENDBRANCH   2  16
BRANCH   1  26
HETATM   26  C   UNL     1      -5.287   4.269 -33.171  1.00  0.00     0.042 A 
HETATM   27  C   UNL     1      -4.321   3.577 -32.428  1.00  0.00     0.030 A 
HETATM   28  C   UNL     1      -2.961   3.687 -32.740  1.00  0.00     0.002 A 
HETATM   29  C   UNL     1      -2.546   4.500 -33.792  1.00  0.00     0.000 A 
HETATM   30  C   UNL     1      -3.489   5.209 -34.527  1.00  0.00     0.002 A 
HETATM   31  C   UNL     1      -4.847   5.099 -34.213  1.00  0.00     0.030 A 
ENDBRANCH   1  26
TORSDOF 5
ENDMDL
MODEL 9
REMARK VINA RESULT:      -7.4     15.796     17.249
REMARK  5 active torsions:
REMARK  status: ('A' for Active; 'I' for Inactive)
REMARK    1  A    between atoms: C_4  and  N_5 
REMARK    2  A    between atoms: C_6  and  O_7 
REMARK    3  A    between atoms: C_6  and  C_8 
REMARK       I    between atoms: C_8  and  N_9 
REMARK    4  A    between atoms: N_9  and  C_10 
REMARK    5  A    between atoms: C_10  and  C_11 
ROOT
HETATM    1  N   UNL     1      -2.881 -13.828 -37.746  1.00  0.00    -0.254 N 
HETATM    2  C   UNL     1      -4.308 -14.063 -37.469  1.00  0.00     0.256 C 
HETATM    3  C   UNL     1      -5.200 -13.557 -38.581  1.00  0.00     0.035 A 
HETATM    4  C   UNL     1      -4.753 -12.462 -39.313  1.00  0.00     0.048 A 
HETATM    5  N   UNL     1      -3.486 -11.959 -39.040  1.00  0.00    -0.308 N 
HETATM    6  C   UNL     1      -2.516 -12.616 -38.325  1.00  0.00     0.330 C 
HETATM    7  O   UNL     1      -1.393 -12.114 -38.321  1.00  0.00    -0.246 OA
HETATM    8  C   UNL     1      -6.484 -14.066 -38.837  1.00  0.00     0.034 A 
HETATM    9  C   UNL     1      -7.282 -13.479 -39.818  1.00  0.00     0.011 A 
HETATM   10 BR   UNL     1      -9.006 -14.173 -40.164  1.00  0.00    -0.051 Br
HETATM   11  C   UNL     1      -6.825 -12.377 -40.539  1.00  0.00     0.021 A 
HETATM   12  C   UNL     1      -5.555 -11.860 -40.281  1.00  0.00     0.031 A 
HETATM   13  H   UNL     1      -3.139 -11.155 -39.551  1.00  0.00     0.170 HD
ENDROOT
BRANCH   2  14
HETATM   14  O   UNL     1      -4.589 -15.459 -37.318  1.00  0.00    -0.359 OA
HETATM   15  H   UNL     1      -4.342 -15.656 -36.392  1.00  0.00     0.213 HD
ENDBRANCH   2  14
BRANCH   2  16
HETATM   16  C   UNL     1      -4.680 -13.368 -36.091  1.00  0.00     0.279 C 
HETATM   17  N   UNL     1      -5.525 -14.045 -35.238  1.00  0.00    -0.352 N 
HETATM   18  H   UNL     1      -5.881 -14.958 -35.494  1.00  0.00     0.162 HD
HETATM   19  O   UNL     1      -4.234 -12.251 -35.807  1.00  0.00    -0.268 OA
BRANCH  17  20
HETATM   20  C   UNL     1      -5.786 -13.565 -33.904  1.00  0.00     0.168 C 
BRANCH  20  21
HETATM   21  C   UNL     1      -6.038 -14.739 -33.011  1.00  0.00     0.000 A 
HETATM   22  S   UNL     1      -4.976 -15.072 -31.704  1.00  0.00    -0.105 SA
HETATM   23  C   UNL     1      -5.887 -16.439 -31.228  1.00  0.00     0.050 A 
HETATM   24  C   UNL     1      -6.978 -16.641 -32.041  1.00  0.00     0.008 A 
HETATM   25  C   UNL     1      -7.066 -15.661 -33.072  1.00  0.00     0.017 A 
ENDBRANCH  20  21
ENDBRANCH  17  20
ENDBRANCH   2  16
BRANCH   1  26
HETATM   26  C   UNL     1      -1.886 -14.656 -37.127  1.00  0.00     0.042 A 
HETATM   27  C   UNL     1      -1.558 -14.525 -35.771  1.00  0.00     0.030 A 
HETATM   28  C   UNL     1      -0.556 -15.314 -35.195  1.00  0.00     0.002 A 
HETATM   29  C   UNL     1       0.141 -16.238 -35.969  1.00  0.00     0.000 A 
HETATM   30  C   UNL     1      -0.157 -16.367 -37.321  1.00  0.00     0.002 A 
HETATM   31  C   UNL     1      -1.157 -15.577 -37.895  1.00  0.00     0.030 A 
ENDBRANCH   1  26
TORSDOF 5
ENDMDL
MODEL 10
REMARK VINA RESULT:      -7.3     16.075     17.791
REMARK  5 active torsions:
REMARK  status: ('A' for Active; 'I' for Inactive)
REMARK    1  A    between atoms: C_4  and  N_5 
REMARK    2  A    between atoms: C_6  and  O_7 
REMARK    3  A    between atoms: C_6  and  C_8 
REMARK       I    between atoms: C_8  and  N_9 
REMARK    4  A    between atoms: N_9  and  C_10 
REMARK    5  A    between atoms: C_10  and  C_11 
ROOT
HETATM    1  N   UNL     1      -5.940 -13.963 -38.989  1.00  0.00    -0.254 N 
HETATM    2  C   UNL     1      -5.056 -14.477 -37.930  1.00  0.00     0.256 C 
HETATM    3  C   UNL     1      -5.729 -14.491 -36.575  1.00  0.00     0.035 A 
HETATM    4  C   UNL     1      -6.698 -13.523 -36.332  1.00  0.00     0.048 A 
HETATM    5  N   UNL     1      -7.050 -12.666 -37.370  1.00  0.00    -0.308 N 
HETATM    6  C   UNL     1      -6.749 -12.869 -38.693  1.00  0.00     0.330 C 
HETATM    7  O   UNL     1      -7.281 -12.115 -39.507  1.00  0.00    -0.246 OA
HETATM    8  C   UNL     1      -5.354 -15.352 -35.531  1.00  0.00     0.034 A 
HETATM    9  C   UNL     1      -5.959 -15.234 -34.280  1.00  0.00     0.011 A 
HETATM   10 BR   UNL     1      -5.457 -16.402 -32.882  1.00  0.00    -0.051 Br
HETATM   11  C   UNL     1      -6.924 -14.254 -34.048  1.00  0.00     0.021 A 
HETATM   12  C   UNL     1      -7.291 -13.388 -35.078  1.00  0.00     0.031 A 
HETATM   13  H   UNL     1      -7.746 -11.945 -37.218  1.00  0.00     0.170 HD
ENDROOT
BRANCH   2  14
HETATM   14  O   UNL     1      -4.646 -15.823 -38.198  1.00  0.00    -0.359 OA
HETATM   15  H   UNL     1      -4.688 -16.266 -37.326  1.00  0.00     0.213 HD
ENDBRANCH   2  14
BRANCH   2  16
HETATM   16  C   UNL     1      -3.737 -13.594 -37.893  1.00  0.00     0.279 C 
HETATM   17  N   UNL     1      -2.573 -14.159 -38.368  1.00  0.00    -0.352 N 
HETATM   18  H   UNL     1      -2.577 -15.103 -38.732  1.00  0.00     0.162 HD
HETATM   19  O   UNL     1      -3.760 -12.445 -37.439  1.00  0.00    -0.268 OA
BRANCH  17  20
HETATM   20  C   UNL     1      -1.370 -13.378 -38.521  1.00  0.00     0.168 C 
BRANCH  20  21
HETATM   21  C   UNL     1      -0.190 -14.250 -38.227  1.00  0.00     0.000 A 
HETATM   22  S   UNL     1      -0.268 -15.409 -36.962  1.00  0.00    -0.105 SA
HETATM   23  C   UNL     1       1.330 -15.939 -37.261  1.00  0.00     0.050 A 
HETATM   24  C   UNL     1       1.915 -15.253 -38.301  1.00  0.00     0.008 A 
HETATM   25  C   UNL     1       1.039 -14.277 -38.859  1.00  0.00     0.017 A 
ENDBRANCH  20  21
ENDBRANCH  17  20
ENDBRANCH   2  16
BRANCH   1  26
HETATM   26  C   UNL     1      -5.717 -14.343 -40.354  1.00  0.00     0.042 A 
HETATM   27  C   UNL     1      -4.783 -13.679 -41.161  1.00  0.00     0.030 A 
HETATM   28  C   UNL     1      -4.609 -14.038 -42.502  1.00  0.00     0.002 A 
HETATM   29  C   UNL     1      -5.375 -15.058 -43.060  1.00  0.00     0.000 A 
HETATM   30  C   UNL     1      -6.321 -15.714 -42.280  1.00  0.00     0.002 A 
HETATM   31  C   UNL     1      -6.494 -15.353 -40.941  1.00  0.00     0.030 A 
ENDBRANCH   1  26
TORSDOF 5
ENDMDL
