MODEL 1
REMARK VINA RESULT:      -9.1      0.000      0.000
REMARK  6 active torsions:
REMARK  status: ('A' for Active; 'I' for Inactive)
REMARK    1  A    between atoms: C_2  and  C_4 
REMARK    2  A    between atoms: C_2  and  C_11 
REMARK    3  A    between atoms: C_2  and  O_3 
REMARK    4  A    between atoms: C_11  and  N_12 
REMARK       I    between atoms: N_12  and  C_13 
REMARK    5  A    between atoms: C_13  and  C_14 
REMARK    6  A    between atoms: C_18  and  C_19 
ROOT
HETATM    1  N   UNL     1      -3.555   4.702 -33.162  1.00  0.00    -0.352 N 
HETATM    2  C   UNL     1      -3.791   4.045 -31.976  1.00  0.00     0.272 C 
HETATM    3  O   UNL     1      -3.870   4.611 -30.889  1.00  0.00    -0.266 OA
HETATM    4  H   UNL     1      -3.397   4.105 -33.970  1.00  0.00     0.162 HD
ENDROOT
BRANCH   2   5
HETATM    5  C   UNL     1      -3.932   2.590 -32.131  1.00  0.00     0.146 A 
HETATM    6  N   UNL     1      -3.165   1.714 -31.451  1.00  0.00    -0.169 NA
HETATM    7  N   UNL     1      -3.592   0.513 -31.876  1.00  0.00    -0.277 N 
HETATM    8  H   UNL     1      -3.128  -0.311 -31.513  1.00  0.00     0.189 HD
HETATM    9  C   UNL     1      -4.619   0.558 -32.786  1.00  0.00     0.063 A 
HETATM   10  C   UNL     1      -4.849   1.909 -32.972  1.00  0.00     0.071 A 
BRANCH   9  11
HETATM   11  C   UNL     1      -5.242  -0.623 -33.386  1.00  0.00    -0.008 A 
HETATM   12  C   UNL     1      -6.630  -0.695 -33.591  1.00  0.00     0.017 A 
HETATM   13  C   UNL     1      -7.207  -1.832 -34.166  1.00  0.00     0.043 A 
HETATM   14  C   UNL     1      -6.400  -2.898 -34.541  1.00  0.00     0.116 A 
HETATM   15  F   UNL     1      -6.955  -3.986 -35.092  1.00  0.00    -0.206 F 
HETATM   16  C   UNL     1      -5.025  -2.849 -34.355  1.00  0.00     0.043 A 
HETATM   17  C   UNL     1      -4.448  -1.713 -33.780  1.00  0.00     0.017 A 
ENDBRANCH   9  11
ENDBRANCH   2   5
BRANCH   1  18
HETATM   18  C   UNL     1      -3.280   6.124 -33.243  1.00  0.00     0.165 C 
BRANCH  18  19
HETATM   19  C   UNL     1      -1.782   6.469 -33.506  1.00  0.00     0.099 C 
HETATM   20  C   UNL     1      -1.184   5.520 -34.562  1.00  0.00     0.053 C 
BRANCH  19  21
HETATM   21  C   UNL     1      -1.025   6.457 -32.162  1.00  0.00    -0.001 A 
HETATM   22  C   UNL     1      -1.159   7.463 -31.180  1.00  0.00     0.043 A 
HETATM   23 CL   UNL     1      -2.188   8.843 -31.376  1.00  0.00    -0.084 Cl
HETATM   24  C   UNL     1      -0.468   7.390 -29.961  1.00  0.00     0.024 A 
HETATM   25  C   UNL     1       0.363   6.311 -29.682  1.00  0.00     0.002 A 
HETATM   26  C   UNL     1       0.500   5.297 -30.619  1.00  0.00     0.001 A 
HETATM   27  C   UNL     1      -0.186   5.367 -31.836  1.00  0.00     0.012 A 
ENDBRANCH  19  21
BRANCH  19  28
HETATM   28  O   UNL     1      -1.695   7.763 -34.129  1.00  0.00    -0.384 OA
HETATM   29  H   UNL     1      -0.754   7.965 -34.274  1.00  0.00     0.211 HD
ENDBRANCH  19  28
ENDBRANCH  18  19
ENDBRANCH   1  18
TORSDOF 6
ENDMDL
MODEL 2
REMARK VINA RESULT:      -9.0      2.004      2.763
REMARK  6 active torsions:
REMARK  status: ('A' for Active; 'I' for Inactive)
REMARK    1  A    between atoms: C_2  and  C_4 
REMARK    2  A    between atoms: C_2  and  C_11 
REMARK    3  A    between atoms: C_2  and  O_3 
REMARK    4  A    between atoms: C_11  and  N_12 
REMARK       I    between atoms: N_12  and  C_13 
REMARK    5  A    between atoms: C_13  and  C_14 
REMARK    6  A    between atoms: C_18  and  C_19 
ROOT
HETATM    1  N   UNL     1      -4.774   3.218 -31.896  1.00  0.00    -0.352 N 
HETATM    2  C   UNL     1      -3.568   2.589 -31.690  1.00  0.00     0.272 C 
HETATM    3  O   UNL     1      -2.550   3.173 -31.327  1.00  0.00    -0.266 OA
HETATM    4  H   UNL     1      -5.504   2.640 -32.307  1.00  0.00     0.162 HD
ENDROOT
BRANCH   2   5
HETATM    5  C   UNL     1      -3.606   1.144 -31.956  1.00  0.00     0.146 A 
HETATM    6  N   UNL     1      -2.812   0.269 -31.308  1.00  0.00    -0.169 NA
HETATM    7  N   UNL     1      -3.142  -0.921 -31.837  1.00  0.00    -0.277 N 
HETATM    8  H   UNL     1      -2.639  -1.739 -31.515  1.00  0.00     0.189 HD
HETATM    9  C   UNL     1      -4.133  -0.872 -32.786  1.00  0.00     0.063 A 
HETATM   10  C   UNL     1      -4.443   0.473 -32.883  1.00  0.00     0.071 A 
BRANCH   9  11
HETATM   11  C   UNL     1      -4.654  -2.040 -33.497  1.00  0.00    -0.008 A 
HETATM   12  C   UNL     1      -3.940  -3.250 -33.541  1.00  0.00     0.017 A 
HETATM   13  C   UNL     1      -4.454  -4.355 -34.226  1.00  0.00     0.043 A 
HETATM   14  C   UNL     1      -5.682  -4.257 -34.867  1.00  0.00     0.116 A 
HETATM   15  F   UNL     1      -6.172  -5.318 -35.522  1.00  0.00    -0.206 F 
HETATM   16  C   UNL     1      -6.410  -3.076 -34.834  1.00  0.00     0.043 A 
HETATM   17  C   UNL     1      -5.896  -1.970 -34.150  1.00  0.00     0.017 A 
ENDBRANCH   9  11
ENDBRANCH   2   5
BRANCH   1  18
HETATM   18  C   UNL     1      -4.951   4.654 -31.798  1.00  0.00     0.165 C 
BRANCH  18  19
HETATM   19  C   UNL     1      -4.919   5.394 -33.170  1.00  0.00     0.099 C 
HETATM   20  C   UNL     1      -5.448   4.481 -34.292  1.00  0.00     0.053 C 
BRANCH  19  21
HETATM   21  C   UNL     1      -3.490   5.920 -33.420  1.00  0.00    -0.001 A 
HETATM   22  C   UNL     1      -2.920   7.000 -32.712  1.00  0.00     0.043 A 
HETATM   23 CL   UNL     1      -3.768   7.875 -31.480  1.00  0.00    -0.084 Cl
HETATM   24  C   UNL     1      -1.604   7.421 -32.958  1.00  0.00     0.024 A 
HETATM   25  C   UNL     1      -0.818   6.771 -33.903  1.00  0.00     0.002 A 
HETATM   26  C   UNL     1      -1.345   5.694 -34.601  1.00  0.00     0.001 A 
HETATM   27  C   UNL     1      -2.656   5.273 -34.360  1.00  0.00     0.012 A 
ENDBRANCH  19  21
BRANCH  19  28
HETATM   28  O   UNL     1      -5.865   6.479 -33.146  1.00  0.00    -0.384 OA
HETATM   29  H   UNL     1      -5.990   6.750 -32.220  1.00  0.00     0.211 HD
ENDBRANCH  19  28
ENDBRANCH  18  19
ENDBRANCH   1  18
TORSDOF 6
ENDMDL
MODEL 3
REMARK VINA RESULT:      -8.6      1.924      2.348
REMARK  6 active torsions:
REMARK  status: ('A' for Active; 'I' for Inactive)
REMARK    1  A    between atoms: C_2  and  C_4 
REMARK    2  A    between atoms: C_2  and  C_11 
REMARK    3  A    between atoms: C_2  and  O_3 
REMARK    4  A    between atoms: C_11  and  N_12 
REMARK       I    between atoms: N_12  and  C_13 
REMARK    5  A    between atoms: C_13  and  C_14 
REMARK    6  A    between atoms: C_18  and  C_19 
ROOT
HETATM    1  N   UNL     1      -4.587   4.536 -33.622  1.00  0.00    -0.352 N 
HETATM    2  C   UNL     1      -5.469   3.864 -32.807  1.00  0.00     0.272 C 
HETATM    3  O   UNL     1      -5.855   4.291 -31.723  1.00  0.00    -0.266 OA
HETATM    4  H   UNL     1      -4.259   4.020 -34.434  1.00  0.00     0.162 HD
ENDROOT
BRANCH   2   5
HETATM    5  C   UNL     1      -5.902   2.570 -33.355  1.00  0.00     0.146 A 
HETATM    6  N   UNL     1      -7.046   2.428 -34.052  1.00  0.00    -0.169 NA
HETATM    7  N   UNL     1      -7.079   1.119 -34.357  1.00  0.00    -0.277 N 
HETATM    8  H   UNL     1      -7.882   0.771 -34.867  1.00  0.00     0.189 HD
HETATM    9  C   UNL     1      -5.997   0.400 -33.913  1.00  0.00     0.063 A 
HETATM   10  C   UNL     1      -5.221   1.331 -33.247  1.00  0.00     0.071 A 
BRANCH   9  11
HETATM   11  C   UNL     1      -5.818  -1.037 -34.127  1.00  0.00    -0.008 A 
HETATM   12  C   UNL     1      -4.574  -1.658 -33.927  1.00  0.00     0.017 A 
HETATM   13  C   UNL     1      -4.422  -3.032 -34.137  1.00  0.00     0.043 A 
HETATM   14  C   UNL     1      -5.512  -3.791 -34.544  1.00  0.00     0.116 A 
HETATM   15  F   UNL     1      -5.364  -5.107 -34.744  1.00  0.00    -0.206 F 
HETATM   16  C   UNL     1      -6.753  -3.203 -34.743  1.00  0.00     0.043 A 
HETATM   17  C   UNL     1      -6.905  -1.828 -34.534  1.00  0.00     0.017 A 
ENDBRANCH   9  11
ENDBRANCH   2   5
BRANCH   1  18
HETATM   18  C   UNL     1      -3.945   5.781 -33.243  1.00  0.00     0.165 C 
BRANCH  18  19
HETATM   19  C   UNL     1      -2.477   5.920 -33.750  1.00  0.00     0.099 C 
HETATM   20  C   UNL     1      -2.131   4.782 -34.729  1.00  0.00     0.053 C 
BRANCH  19  21
HETATM   21  C   UNL     1      -1.535   5.998 -32.531  1.00  0.00    -0.001 A 
HETATM   22  C   UNL     1      -1.444   4.990 -31.546  1.00  0.00     0.043 A 
HETATM   23 CL   UNL     1      -2.397   3.543 -31.586  1.00  0.00    -0.084 Cl
HETATM   24  C   UNL     1      -0.549   5.097 -30.472  1.00  0.00     0.024 A 
HETATM   25  C   UNL     1       0.288   6.201 -30.355  1.00  0.00     0.002 A 
HETATM   26  C   UNL     1       0.237   7.199 -31.318  1.00  0.00     0.001 A 
HETATM   27  C   UNL     1      -0.656   7.097 -32.389  1.00  0.00     0.012 A 
ENDBRANCH  19  21
BRANCH  19  28
HETATM   28  O   UNL     1      -2.364   7.105 -34.559  1.00  0.00    -0.384 OA
HETATM   29  H   UNL     1      -2.184   7.857 -33.969  1.00  0.00     0.211 HD
ENDBRANCH  19  28
ENDBRANCH  18  19
ENDBRANCH   1  18
TORSDOF 6
ENDMDL
MODEL 4
REMARK VINA RESULT:      -8.4      2.563      3.326
REMARK  6 active torsions:
REMARK  status: ('A' for Active; 'I' for Inactive)
REMARK    1  A    between atoms: C_2  and  C_4 
REMARK    2  A    between atoms: C_2  and  C_11 
REMARK    3  A    between atoms: C_2  and  O_3 
REMARK    4  A    between atoms: C_11  and  N_12 
REMARK       I    between atoms: N_12  and  C_13 
REMARK    5  A    between atoms: C_13  and  C_14 
REMARK    6  A    between atoms: C_18  and  C_19 
ROOT
HETATM    1  N   UNL     1      -5.787   3.908 -34.091  1.00  0.00    -0.352 N 
HETATM    2  C   UNL     1      -6.860   3.275 -33.507  1.00  0.00     0.272 C 
HETATM    3  O   UNL     1      -7.632   3.824 -32.726  1.00  0.00    -0.266 OA
HETATM    4  H   UNL     1      -5.162   3.309 -34.625  1.00  0.00     0.162 HD
ENDROOT
BRANCH   2   5
HETATM    5  C   UNL     1      -6.993   1.864 -33.899  1.00  0.00     0.146 A 
HETATM    6  N   UNL     1      -8.106   1.379 -34.483  1.00  0.00    -0.169 NA
HETATM    7  N   UNL     1      -7.833   0.075 -34.667  1.00  0.00    -0.277 N 
HETATM    8  H   UNL     1      -8.554  -0.507 -35.075  1.00  0.00     0.189 HD
HETATM    9  C   UNL     1      -6.583  -0.313 -34.251  1.00  0.00     0.063 A 
HETATM   10  C   UNL     1      -6.023   0.842 -33.737  1.00  0.00     0.071 A 
BRANCH   9  11
HETATM   11  C   UNL     1      -6.069  -1.679 -34.350  1.00  0.00    -0.008 A 
HETATM   12  C   UNL     1      -4.741  -1.989 -34.012  1.00  0.00     0.017 A 
HETATM   13  C   UNL     1      -4.267  -3.301 -34.113  1.00  0.00     0.043 A 
HETATM   14  C   UNL     1      -5.118  -4.307 -34.550  1.00  0.00     0.116 A 
HETATM   15  F   UNL     1      -4.662  -5.563 -34.645  1.00  0.00    -0.206 F 
HETATM   16  C   UNL     1      -6.436  -4.030 -34.884  1.00  0.00     0.043 A 
HETATM   17  C   UNL     1      -6.910  -2.718 -34.784  1.00  0.00     0.017 A 
ENDBRANCH   9  11
ENDBRANCH   2   5
BRANCH   1  18
HETATM   18  C   UNL     1      -5.397   5.269 -33.774  1.00  0.00     0.165 C 
BRANCH  18  19
HETATM   19  C   UNL     1      -3.856   5.507 -33.782  1.00  0.00     0.099 C 
HETATM   20  C   UNL     1      -3.102   4.195 -33.495  1.00  0.00     0.053 C 
BRANCH  19  21
HETATM   21  C   UNL     1      -3.523   6.643 -32.793  1.00  0.00    -0.001 A 
HETATM   22  C   UNL     1      -2.271   7.295 -32.745  1.00  0.00     0.043 A 
HETATM   23 CL   UNL     1      -0.951   6.883 -33.789  1.00  0.00    -0.084 Cl
HETATM   24  C   UNL     1      -2.028   8.343 -31.845  1.00  0.00     0.024 A 
HETATM   25  C   UNL     1      -3.026   8.779 -30.980  1.00  0.00     0.002 A 
HETATM   26  C   UNL     1      -4.272   8.172 -31.018  1.00  0.00     0.001 A 
HETATM   27  C   UNL     1      -4.518   7.125 -31.912  1.00  0.00     0.012 A 
ENDBRANCH  19  21
BRANCH  19  28
HETATM   28  O   UNL     1      -3.436   5.851 -35.115  1.00  0.00    -0.384 OA
HETATM   29  H   UNL     1      -3.346   5.027 -35.624  1.00  0.00     0.211 HD
ENDBRANCH  19  28
ENDBRANCH  18  19
ENDBRANCH   1  18
TORSDOF 6
ENDMDL
MODEL 5
REMARK VINA RESULT:      -8.3      4.118      8.946
REMARK  6 active torsions:
REMARK  status: ('A' for Active; 'I' for Inactive)
REMARK    1  A    between atoms: C_2  and  C_4 
REMARK    2  A    between atoms: C_2  and  C_11 
REMARK    3  A    between atoms: C_2  and  O_3 
REMARK    4  A    between atoms: C_11  and  N_12 
REMARK       I    between atoms: N_12  and  C_13 
REMARK    5  A    between atoms: C_13  and  C_14 
REMARK    6  A    between atoms: C_18  and  C_19 
ROOT
HETATM    1  N   UNL     1      -5.624   2.713 -33.572  1.00  0.00    -0.352 N 
HETATM    2  C   UNL     1      -5.802   4.057 -33.810  1.00  0.00     0.272 C 
HETATM    3  O   UNL     1      -6.853   4.541 -34.221  1.00  0.00    -0.266 OA
HETATM    4  H   UNL     1      -4.673   2.430 -33.346  1.00  0.00     0.162 HD
ENDROOT
BRANCH   2   5
HETATM    5  C   UNL     1      -4.605   4.865 -33.533  1.00  0.00     0.146 A 
HETATM    6  N   UNL     1      -3.988   5.591 -34.485  1.00  0.00    -0.169 NA
HETATM    7  N   UNL     1      -2.955   6.159 -33.840  1.00  0.00    -0.277 N 
HETATM    8  H   UNL     1      -2.322   6.740 -34.377  1.00  0.00     0.189 HD
HETATM    9  C   UNL     1      -2.879   5.858 -32.503  1.00  0.00     0.063 A 
HETATM   10  C   UNL     1      -3.945   5.005 -32.286  1.00  0.00     0.071 A 
BRANCH   9  11
HETATM   11  C   UNL     1      -1.840   6.361 -31.602  1.00  0.00    -0.008 A 
HETATM   12  C   UNL     1      -2.163   6.972 -30.379  1.00  0.00     0.017 A 
HETATM   13  C   UNL     1      -1.156   7.446 -29.533  1.00  0.00     0.043 A 
HETATM   14  C   UNL     1       0.175   7.309 -29.902  1.00  0.00     0.116 A 
HETATM   15  F   UNL     1       1.137   7.763 -29.088  1.00  0.00    -0.206 F 
HETATM   16  C   UNL     1       0.521   6.703 -31.102  1.00  0.00     0.043 A 
HETATM   17  C   UNL     1      -0.485   6.230 -31.950  1.00  0.00     0.017 A 
ENDBRANCH   9  11
ENDBRANCH   2   5
BRANCH   1  18
HETATM   18  C   UNL     1      -6.630   1.712 -33.872  1.00  0.00     0.165 C 
BRANCH  18  19
HETATM   19  C   UNL     1      -6.697   0.548 -32.837  1.00  0.00     0.099 C 
HETATM   20  C   UNL     1      -5.922   0.914 -31.557  1.00  0.00     0.053 C 
BRANCH  19  21
HETATM   21  C   UNL     1      -6.204  -0.749 -33.511  1.00  0.00    -0.001 A 
HETATM   22  C   UNL     1      -4.842  -1.103 -33.622  1.00  0.00     0.043 A 
HETATM   23 CL   UNL     1      -3.555  -0.110 -33.020  1.00  0.00    -0.084 Cl
HETATM   24  C   UNL     1      -4.448  -2.310 -34.220  1.00  0.00     0.024 A 
HETATM   25  C   UNL     1      -5.396  -3.199 -34.711  1.00  0.00     0.002 A 
HETATM   26  C   UNL     1      -6.743  -2.888 -34.599  1.00  0.00     0.001 A 
HETATM   27  C   UNL     1      -7.140  -1.686 -34.005  1.00  0.00     0.012 A 
ENDBRANCH  19  21
BRANCH  19  28
HETATM   28  O   UNL     1      -8.053   0.400 -32.376  1.00  0.00    -0.384 OA
HETATM   29  H   UNL     1      -8.031  -0.047 -31.513  1.00  0.00     0.211 HD
ENDBRANCH  19  28
ENDBRANCH  18  19
ENDBRANCH   1  18
TORSDOF 6
ENDMDL
MODEL 6
REMARK VINA RESULT:      -8.2      4.224      8.829
REMARK  6 active torsions:
REMARK  status: ('A' for Active; 'I' for Inactive)
REMARK    1  A    between atoms: C_2  and  C_4 
REMARK    2  A    between atoms: C_2  and  C_11 
REMARK    3  A    between atoms: C_2  and  O_3 
REMARK    4  A    between atoms: C_11  and  N_12 
REMARK       I    between atoms: N_12  and  C_13 
REMARK    5  A    between atoms: C_13  and  C_14 
REMARK    6  A    between atoms: C_18  and  C_19 
ROOT
HETATM    1  N   UNL     1      -6.306   1.022 -31.910  1.00  0.00    -0.352 N 
HETATM    2  C   UNL     1      -6.823   2.267 -31.633  1.00  0.00     0.272 C 
HETATM    3  O   UNL     1      -8.007   2.558 -31.772  1.00  0.00    -0.266 OA
HETATM    4  H   UNL     1      -5.293   0.948 -31.864  1.00  0.00     0.162 HD
ENDROOT
BRANCH   2   5
HETATM    5  C   UNL     1      -5.815   3.228 -31.161  1.00  0.00     0.146 A 
HETATM    6  N   UNL     1      -5.959   3.921 -30.014  1.00  0.00    -0.169 NA
HETATM    7  N   UNL     1      -4.852   4.679 -29.952  1.00  0.00    -0.277 N 
HETATM    8  H   UNL     1      -4.756   5.317 -29.171  1.00  0.00     0.189 HD
HETATM    9  C   UNL     1      -3.975   4.499 -30.994  1.00  0.00     0.063 A 
HETATM   10  C   UNL     1      -4.593   3.560 -31.799  1.00  0.00     0.071 A 
BRANCH   9  11
HETATM   11  C   UNL     1      -2.707   5.216 -31.138  1.00  0.00    -0.008 A 
HETATM   12  C   UNL     1      -2.489   6.454 -30.511  1.00  0.00     0.017 A 
HETATM   13  C   UNL     1      -1.271   7.124 -30.661  1.00  0.00     0.043 A 
HETATM   14  C   UNL     1      -0.266   6.559 -31.435  1.00  0.00     0.116 A 
HETATM   15  F   UNL     1       0.900   7.203 -31.576  1.00  0.00    -0.206 F 
HETATM   16  C   UNL     1      -0.453   5.334 -32.060  1.00  0.00     0.043 A 
HETATM   17  C   UNL     1      -1.672   4.665 -31.911  1.00  0.00     0.017 A 
ENDBRANCH   9  11
ENDBRANCH   2   5
BRANCH   1  18
HETATM   18  C   UNL     1      -7.090  -0.054 -32.486  1.00  0.00     0.165 C 
BRANCH  18  19
HETATM   19  C   UNL     1      -6.861  -0.261 -34.014  1.00  0.00     0.099 C 
HETATM   20  C   UNL     1      -8.164  -0.014 -34.797  1.00  0.00     0.053 C 
BRANCH  19  21
HETATM   21  C   UNL     1      -6.255  -1.661 -34.243  1.00  0.00    -0.001 A 
HETATM   22  C   UNL     1      -4.904  -1.980 -33.986  1.00  0.00     0.043 A 
HETATM   23 CL   UNL     1      -3.757  -0.825 -33.390  1.00  0.00    -0.084 Cl
HETATM   24  C   UNL     1      -4.410  -3.278 -34.184  1.00  0.00     0.024 A 
HETATM   25  C   UNL     1      -5.247  -4.294 -34.630  1.00  0.00     0.002 A 
HETATM   26  C   UNL     1      -6.585  -4.016 -34.873  1.00  0.00     0.001 A 
HETATM   27  C   UNL     1      -7.080  -2.723 -34.678  1.00  0.00     0.012 A 
ENDBRANCH  19  21
BRANCH  19  28
HETATM   28  O   UNL     1      -5.976   0.764 -34.505  1.00  0.00    -0.384 OA
HETATM   29  H   UNL     1      -6.303   1.054 -35.374  1.00  0.00     0.211 HD
ENDBRANCH  19  28
ENDBRANCH  18  19
ENDBRANCH   1  18
TORSDOF 6
ENDMDL
MODEL 7
REMARK VINA RESULT:      -8.1      4.379      9.068
REMARK  6 active torsions:
REMARK  status: ('A' for Active; 'I' for Inactive)
REMARK    1  A    between atoms: C_2  and  C_4 
REMARK    2  A    between atoms: C_2  and  C_11 
REMARK    3  A    between atoms: C_2  and  O_3 
REMARK    4  A    between atoms: C_11  and  N_12 
REMARK       I    between atoms: N_12  and  C_13 
REMARK    5  A    between atoms: C_13  and  C_14 
REMARK    6  A    between atoms: C_18  and  C_19 
ROOT
HETATM    1  N   UNL     1      -5.877   2.951 -32.068  1.00  0.00    -0.352 N 
HETATM    2  C   UNL     1      -5.491   3.723 -33.140  1.00  0.00     0.272 C 
HETATM    3  O   UNL     1      -5.893   3.545 -34.286  1.00  0.00    -0.266 OA
HETATM    4  H   UNL     1      -5.382   3.130 -31.198  1.00  0.00     0.162 HD
ENDROOT
BRANCH   2   5
HETATM    5  C   UNL     1      -4.536   4.784 -32.785  1.00  0.00     0.146 A 
HETATM    6  N   UNL     1      -4.523   5.980 -33.405  1.00  0.00    -0.169 NA
HETATM    7  N   UNL     1      -3.518   6.643 -32.807  1.00  0.00    -0.277 N 
HETATM    8  H   UNL     1      -3.301   7.575 -33.139  1.00  0.00     0.189 HD
HETATM    9  C   UNL     1      -2.886   5.946 -31.807  1.00  0.00     0.063 A 
HETATM   10  C   UNL     1      -3.533   4.723 -31.784  1.00  0.00     0.071 A 
BRANCH   9  11
HETATM   11  C   UNL     1      -1.767   6.464 -31.020  1.00  0.00    -0.008 A 
HETATM   12  C   UNL     1      -0.437   6.307 -31.444  1.00  0.00     0.017 A 
HETATM   13  C   UNL     1       0.620   6.809 -30.678  1.00  0.00     0.043 A 
HETATM   14  C   UNL     1       0.352   7.473 -29.489  1.00  0.00     0.116 A 
HETATM   15  F   UNL     1       1.366   7.953 -28.757  1.00  0.00    -0.206 F 
HETATM   16  C   UNL     1      -0.953   7.647 -29.050  1.00  0.00     0.043 A 
HETATM   17  C   UNL     1      -2.010   7.144 -29.815  1.00  0.00     0.017 A 
ENDBRANCH   9  11
ENDBRANCH   2   5
BRANCH   1  18
HETATM   18  C   UNL     1      -6.729   1.784 -32.194  1.00  0.00     0.165 C 
BRANCH  18  19
HETATM   19  C   UNL     1      -6.137   0.492 -31.553  1.00  0.00     0.099 C 
HETATM   20  C   UNL     1      -4.824   0.806 -30.812  1.00  0.00     0.053 C 
BRANCH  19  21
HETATM   21  C   UNL     1      -5.988  -0.585 -32.649  1.00  0.00    -0.001 A 
HETATM   22  C   UNL     1      -7.054  -1.024 -33.463  1.00  0.00     0.043 A 
HETATM   23 CL   UNL     1      -8.669  -0.411 -33.317  1.00  0.00    -0.084 Cl
HETATM   24  C   UNL     1      -6.860  -1.986 -34.465  1.00  0.00     0.024 A 
HETATM   25  C   UNL     1      -5.599  -2.526 -34.693  1.00  0.00     0.002 A 
HETATM   26  C   UNL     1      -4.527  -2.099 -33.922  1.00  0.00     0.001 A 
HETATM   27  C   UNL     1      -4.718  -1.142 -32.921  1.00  0.00     0.012 A 
ENDBRANCH  19  21
BRANCH  19  28
HETATM   28  O   UNL     1      -7.013   0.036 -30.506  1.00  0.00    -0.384 OA
HETATM   29  H   UNL     1      -6.464  -0.229 -29.748  1.00  0.00     0.211 HD
ENDBRANCH  19  28
ENDBRANCH  18  19
ENDBRANCH   1  18
TORSDOF 6
ENDMDL
MODEL 8
REMARK VINA RESULT:      -8.1      2.974      4.034
REMARK  6 active torsions:
REMARK  status: ('A' for Active; 'I' for Inactive)
REMARK    1  A    between atoms: C_2  and  C_4 
REMARK    2  A    between atoms: C_2  and  C_11 
REMARK    3  A    between atoms: C_2  and  O_3 
REMARK    4  A    between atoms: C_11  and  N_12 
REMARK       I    between atoms: N_12  and  C_13 
REMARK    5  A    between atoms: C_13  and  C_14 
REMARK    6  A    between atoms: C_18  and  C_19 
ROOT
HETATM    1  N   UNL     1      -6.577   3.381 -32.109  1.00  0.00    -0.352 N 
HETATM    2  C   UNL     1      -6.629   3.229 -33.476  1.00  0.00     0.272 C 
HETATM    3  O   UNL     1      -6.543   4.164 -34.268  1.00  0.00    -0.266 OA
HETATM    4  H   UNL     1      -6.778   2.544 -31.567  1.00  0.00     0.162 HD
ENDROOT
BRANCH   2   5
HETATM    5  C   UNL     1      -6.811   1.834 -33.904  1.00  0.00     0.146 A 
HETATM    6  N   UNL     1      -7.907   1.421 -34.570  1.00  0.00    -0.169 NA
HETATM    7  N   UNL     1      -7.693   0.108 -34.761  1.00  0.00    -0.277 N 
HETATM    8  H   UNL     1      -8.416  -0.427 -35.227  1.00  0.00     0.189 HD
HETATM    9  C   UNL     1      -6.497  -0.355 -34.272  1.00  0.00     0.063 A 
HETATM   10  C   UNL     1      -5.911   0.758 -33.699  1.00  0.00     0.071 A 
BRANCH   9  11
HETATM   11  C   UNL     1      -6.052  -1.746 -34.364  1.00  0.00    -0.008 A 
HETATM   12  C   UNL     1      -6.929  -2.774 -34.747  1.00  0.00     0.017 A 
HETATM   13  C   UNL     1      -6.485  -4.097 -34.828  1.00  0.00     0.043 A 
HETATM   14  C   UNL     1      -5.162  -4.398 -34.530  1.00  0.00     0.116 A 
HETATM   15  F   UNL     1      -4.739  -5.667 -34.610  1.00  0.00    -0.206 F 
HETATM   16  C   UNL     1      -4.273  -3.401 -34.155  1.00  0.00     0.043 A 
HETATM   17  C   UNL     1      -4.718  -2.078 -34.073  1.00  0.00     0.017 A 
ENDBRANCH   9  11
ENDBRANCH   2   5
BRANCH   1  18
HETATM   18  C   UNL     1      -6.506   4.673 -31.454  1.00  0.00     0.165 C 
BRANCH  18  19
HETATM   19  C   UNL     1      -5.150   4.950 -30.737  1.00  0.00     0.099 C 
HETATM   20  C   UNL     1      -5.266   6.174 -29.809  1.00  0.00     0.053 C 
BRANCH  19  21
HETATM   21  C   UNL     1      -4.041   5.080 -31.801  1.00  0.00    -0.001 A 
HETATM   22  C   UNL     1      -3.192   4.018 -32.180  1.00  0.00     0.043 A 
HETATM   23 CL   UNL     1      -3.289   2.435 -31.480  1.00  0.00    -0.084 Cl
HETATM   24  C   UNL     1      -2.216   4.181 -33.175  1.00  0.00     0.024 A 
HETATM   25  C   UNL     1      -2.069   5.400 -33.828  1.00  0.00     0.002 A 
HETATM   26  C   UNL     1      -2.901   6.457 -33.491  1.00  0.00     0.001 A 
HETATM   27  C   UNL     1      -3.873   6.299 -32.499  1.00  0.00     0.012 A 
ENDBRANCH  19  21
BRANCH  19  28
HETATM   28  O   UNL     1      -4.862   3.869 -29.831  1.00  0.00    -0.384 OA
HETATM   29  H   UNL     1      -5.658   3.313 -29.763  1.00  0.00     0.211 HD
ENDBRANCH  19  28
ENDBRANCH  18  19
ENDBRANCH   1  18
TORSDOF 6
ENDMDL
MODEL 9
REMARK VINA RESULT:      -8.1      6.023      8.828
REMARK  6 active torsions:
REMARK  status: ('A' for Active; 'I' for Inactive)
REMARK    1  A    between atoms: C_2  and  C_4 
REMARK    2  A    between atoms: C_2  and  C_11 
REMARK    3  A    between atoms: C_2  and  O_3 
REMARK    4  A    between atoms: C_11  and  N_12 
REMARK       I    between atoms: N_12  and  C_13 
REMARK    5  A    between atoms: C_13  and  C_14 
REMARK    6  A    between atoms: C_18  and  C_19 
ROOT
HETATM    1  N   UNL     1      -9.604   2.433 -34.355  1.00  0.00    -0.352 N 
HETATM    2  C   UNL     1      -8.372   2.801 -33.864  1.00  0.00     0.272 C 
HETATM    3  O   UNL     1      -8.096   3.942 -33.505  1.00  0.00    -0.266 OA
HETATM    4  H   UNL     1      -9.664   1.488 -34.725  1.00  0.00     0.162 HD
ENDROOT
BRANCH   2   5
HETATM    5  C   UNL     1      -7.406   1.693 -33.819  1.00  0.00     0.146 A 
HETATM    6  N   UNL     1      -6.152   1.849 -33.351  1.00  0.00    -0.169 NA
HETATM    7  N   UNL     1      -5.602   0.630 -33.488  1.00  0.00    -0.277 N 
HETATM    8  H   UNL     1      -4.632   0.515 -33.221  1.00  0.00     0.189 HD
HETATM    9  C   UNL     1      -6.444  -0.324 -34.003  1.00  0.00     0.063 A 
HETATM   10  C   UNL     1      -7.626   0.356 -34.234  1.00  0.00     0.071 A 
BRANCH   9  11
HETATM   11  C   UNL     1      -6.064  -1.717 -34.241  1.00  0.00    -0.008 A 
HETATM   12  C   UNL     1      -7.013  -2.681 -34.622  1.00  0.00     0.017 A 
HETATM   13  C   UNL     1      -6.631  -4.007 -34.844  1.00  0.00     0.043 A 
HETATM   14  C   UNL     1      -5.301  -4.375 -34.692  1.00  0.00     0.116 A 
HETATM   15  F   UNL     1      -4.938  -5.647 -34.907  1.00  0.00    -0.206 F 
HETATM   16  C   UNL     1      -4.343  -3.442 -34.323  1.00  0.00     0.043 A 
HETATM   17  C   UNL     1      -4.724  -2.115 -34.099  1.00  0.00     0.017 A 
ENDBRANCH   9  11
ENDBRANCH   2   5
BRANCH   1  18
HETATM   18  C   UNL     1     -10.681   3.377 -34.589  1.00  0.00     0.165 C 
BRANCH  18  19
HETATM   19  C   UNL     1     -11.959   2.740 -35.217  1.00  0.00     0.099 C 
HETATM   20  C   UNL     1     -12.411   3.538 -36.455  1.00  0.00     0.053 C 
BRANCH  19  21
HETATM   21  C   UNL     1     -13.043   2.620 -34.126  1.00  0.00    -0.001 A 
HETATM   22  C   UNL     1     -13.414   3.682 -33.273  1.00  0.00     0.043 A 
HETATM   23 CL   UNL     1     -12.681   5.251 -33.343  1.00  0.00    -0.084 Cl
HETATM   24  C   UNL     1     -14.428   3.529 -32.315  1.00  0.00     0.024 A 
HETATM   25  C   UNL     1     -15.108   2.323 -32.190  1.00  0.00     0.002 A 
HETATM   26  C   UNL     1     -14.779   1.267 -33.028  1.00  0.00     0.001 A 
HETATM   27  C   UNL     1     -13.768   1.415 -33.982  1.00  0.00     0.012 A 
ENDBRANCH  19  21
BRANCH  19  28
HETATM   28  O   UNL     1     -11.630   1.445 -35.753  1.00  0.00    -0.384 OA
HETATM   29  H   UNL     1     -12.152   1.314 -36.564  1.00  0.00     0.211 HD
ENDBRANCH  19  28
ENDBRANCH  18  19
ENDBRANCH   1  18
TORSDOF 6
ENDMDL
MODEL 10
REMARK VINA RESULT:      -8.0      4.611      9.612
REMARK  6 active torsions:
REMARK  status: ('A' for Active; 'I' for Inactive)
REMARK    1  A    between atoms: C_2  and  C_4 
REMARK    2  A    between atoms: C_2  and  C_11 
REMARK    3  A    between atoms: C_2  and  O_3 
REMARK    4  A    between atoms: C_11  and  N_12 
REMARK       I    between atoms: N_12  and  C_13 
REMARK    5  A    between atoms: C_13  and  C_14 
REMARK    6  A    between atoms: C_18  and  C_19 
ROOT
HETATM    1  N   UNL     1      -3.241   3.722 -31.792  1.00  0.00    -0.352 N 
HETATM    2  C   UNL     1      -2.167   4.458 -32.236  1.00  0.00     0.272 C 
HETATM    3  O   UNL     1      -1.883   4.598 -33.423  1.00  0.00    -0.266 OA
HETATM    4  H   UNL     1      -3.296   3.590 -30.784  1.00  0.00     0.162 HD
ENDROOT
BRANCH   2   5
HETATM    5  C   UNL     1      -1.379   5.059 -31.151  1.00  0.00     0.146 A 
HETATM    6  N   UNL     1      -0.435   4.370 -30.478  1.00  0.00    -0.169 NA
HETATM    7  N   UNL     1       0.033   5.256 -29.581  1.00  0.00    -0.277 N 
HETATM    8  H   UNL     1       0.746   4.942 -28.933  1.00  0.00     0.189 HD
HETATM    9  C   UNL     1      -0.543   6.500 -29.650  1.00  0.00     0.063 A 
HETATM   10  C   UNL     1      -1.476   6.387 -30.665  1.00  0.00     0.071 A 
BRANCH   9  11
HETATM   11  C   UNL     1      -0.194   7.620 -28.775  1.00  0.00    -0.008 A 
HETATM   12  C   UNL     1       1.083   7.730 -28.199  1.00  0.00     0.017 A 
HETATM   13  C   UNL     1       1.397   8.807 -27.365  1.00  0.00     0.043 A 
HETATM   14  C   UNL     1       0.440   9.779 -27.106  1.00  0.00     0.116 A 
HETATM   15  F   UNL     1       0.745  10.811 -26.307  1.00  0.00    -0.206 F 
HETATM   16  C   UNL     1      -0.826   9.698 -27.667  1.00  0.00     0.043 A 
HETATM   17  C   UNL     1      -1.142   8.620 -28.500  1.00  0.00     0.017 A 
ENDBRANCH   9  11
ENDBRANCH   2   5
BRANCH   1  18
HETATM   18  C   UNL     1      -4.100   2.953 -32.673  1.00  0.00     0.165 C 
BRANCH  18  19
HETATM   19  C   UNL     1      -4.776   1.725 -31.991  1.00  0.00     0.099 C 
HETATM   20  C   UNL     1      -3.736   0.891 -31.220  1.00  0.00     0.053 C 
BRANCH  19  21
HETATM   21  C   UNL     1      -5.545   0.922 -33.061  1.00  0.00    -0.001 A 
HETATM   22  C   UNL     1      -6.502   1.492 -33.929  1.00  0.00     0.043 A 
HETATM   23 CL   UNL     1      -6.937   3.169 -33.885  1.00  0.00    -0.084 Cl
HETATM   24  C   UNL     1      -7.153   0.722 -34.904  1.00  0.00     0.024 A 
HETATM   25  C   UNL     1      -6.860  -0.629 -35.051  1.00  0.00     0.002 A 
HETATM   26  C   UNL     1      -5.910  -1.213 -34.227  1.00  0.00     0.001 A 
HETATM   27  C   UNL     1      -5.260  -0.450 -33.252  1.00  0.00     0.012 A 
ENDBRANCH  19  21
BRANCH  19  28
HETATM   28  O   UNL     1      -5.669   2.186 -30.960  1.00  0.00    -0.384 OA
HETATM   29  H   UNL     1      -5.201   2.858 -30.435  1.00  0.00     0.211 HD
ENDBRANCH  19  28
ENDBRANCH  18  19
ENDBRANCH   1  18
TORSDOF 6
ENDMDL
