MODEL 1
REMARK VINA RESULT:      -9.5      0.000      0.000
REMARK  4 active torsions:
REMARK  status: ('A' for Active; 'I' for Inactive)
REMARK    1  A    between atoms: C_7  and  C_8 
REMARK    2  A    between atoms: N_9  and  C_10 
REMARK    3  A    between atoms: C_10  and  C_11 
REMARK       I    between atoms: C_11  and  N_12 
REMARK    4  A    between atoms: N_12  and  C_13 
ROOT
HETATM    1  C   UNL     1      -7.192  -0.186 -32.370  1.00  0.00     0.158 A 
HETATM    2  N   UNL     1      -6.101   0.529 -31.729  1.00  0.00    -0.326 N 
HETATM    3  C   UNL     1      -4.869  -0.009 -32.032  1.00  0.00     0.255 A 
HETATM    4  O   UNL     1      -3.791   0.278 -31.548  1.00  0.00    -0.267 OA
HETATM    5  C   UNL     1      -5.095  -1.064 -33.028  1.00  0.00     0.040 A 
HETATM    6  C   UNL     1      -6.472  -1.171 -33.245  1.00  0.00    -0.015 A 
HETATM    7  C   UNL     1      -4.167  -1.846 -33.687  1.00  0.00     0.017 A 
HETATM    8  C   UNL     1      -4.653  -2.778 -34.605  1.00  0.00     0.001 A 
HETATM    9  C   UNL     1      -6.037  -2.908 -34.830  1.00  0.00     0.001 A 
HETATM   10  C   UNL     1      -6.957  -2.107 -34.145  1.00  0.00     0.011 A 
ENDROOT
BRANCH   1  11
HETATM   11  C   UNL     1      -8.014   0.694 -33.261  1.00  0.00     0.004 A 
HETATM   12  C   UNL     1      -7.604   1.719 -34.113  1.00  0.00     0.015 A 
HETATM   13  C   UNL     1      -6.255   2.261 -34.426  1.00  0.00     0.069 C 
HETATM   14  N   UNL     1      -8.724   2.243 -34.709  1.00  0.00    -0.359 N 
HETATM   15  H   UNL     1      -8.726   3.005 -35.373  1.00  0.00     0.166 HD
HETATM   16  C   UNL     1      -9.855   1.592 -34.281  1.00  0.00     0.043 A 
HETATM   17  C   UNL     1      -9.447   0.617 -33.375  1.00  0.00     0.001 A 
HETATM   18  C   UNL     1     -11.196   1.798 -34.629  1.00  0.00     0.030 A 
HETATM   19  C   UNL     1     -10.437  -0.199 -32.785  1.00  0.00     0.014 A 
HETATM   20  C   UNL     1     -11.783  -0.009 -33.122  1.00  0.00     0.001 A 
HETATM   21  C   UNL     1     -12.154   0.978 -34.030  1.00  0.00     0.002 A 
ENDBRANCH   1  11
BRANCH   2  22
HETATM   22  C   UNL     1      -6.324   1.588 -30.755  1.00  0.00     0.229 C 
BRANCH  22  23
HETATM   23  C   UNL     1      -5.840   2.972 -31.194  1.00  0.00     0.235 C 
HETATM   24  N   UNL     1      -4.479   3.074 -31.393  1.00  0.00    -0.355 N 
HETATM   25  H   UNL     1      -3.976   2.192 -31.420  1.00  0.00     0.162 HD
HETATM   26  O   UNL     1      -6.637   3.866 -31.467  1.00  0.00    -0.272 OA
BRANCH  24  27
HETATM   27  C   UNL     1      -3.818   4.223 -32.009  1.00  0.00     0.084 C 
HETATM   28  C   UNL     1      -3.047   5.079 -30.987  1.00  0.00     0.025 C 
HETATM   29  C   UNL     1      -1.532   4.976 -31.135  1.00  0.00     0.002 C 
HETATM   30  C   UNL     1      -1.051   5.321 -32.544  1.00  0.00     0.000 C 
HETATM   31  C   UNL     1      -2.060   4.989 -33.644  1.00  0.00     0.002 C 
HETATM   32  C   UNL     1      -2.988   3.848 -33.247  1.00  0.00     0.025 C 
ENDBRANCH  24  27
ENDBRANCH  22  23
ENDBRANCH   2  22
TORSDOF 4
ENDMDL
MODEL 2
REMARK VINA RESULT:      -9.2      2.749      5.923
REMARK  4 active torsions:
REMARK  status: ('A' for Active; 'I' for Inactive)
REMARK    1  A    between atoms: C_7  and  C_8 
REMARK    2  A    between atoms: N_9  and  C_10 
REMARK    3  A    between atoms: C_10  and  C_11 
REMARK       I    between atoms: C_11  and  N_12 
REMARK    4  A    between atoms: N_12  and  C_13 
ROOT
HETATM    1  C   UNL     1      -5.597   0.651 -33.723  1.00  0.00     0.158 A 
HETATM    2  N   UNL     1      -6.482  -0.374 -34.254  1.00  0.00    -0.326 N 
HETATM    3  C   UNL     1      -5.993  -1.647 -34.053  1.00  0.00     0.255 A 
HETATM    4  O   UNL     1      -6.430  -2.691 -34.497  1.00  0.00    -0.267 OA
HETATM    5  C   UNL     1      -4.782  -1.516 -33.234  1.00  0.00     0.040 A 
HETATM    6  C   UNL     1      -4.543  -0.156 -33.022  1.00  0.00    -0.015 A 
HETATM    7  C   UNL     1      -3.975  -2.511 -32.716  1.00  0.00     0.017 A 
HETATM    8  C   UNL     1      -2.878  -2.112 -31.952  1.00  0.00     0.001 A 
HETATM    9  C   UNL     1      -2.614  -0.746 -31.736  1.00  0.00     0.001 A 
HETATM   10  C   UNL     1      -3.444   0.243 -32.275  1.00  0.00     0.011 A 
ENDROOT
BRANCH   1  11
HETATM   11  C   UNL     1      -6.266   1.512 -32.695  1.00  0.00     0.004 A 
HETATM   12  C   UNL     1      -6.741   1.172 -31.430  1.00  0.00     0.015 A 
HETATM   13  C   UNL     1      -6.735  -0.118 -30.687  1.00  0.00     0.069 C 
HETATM   14  N   UNL     1      -7.286   2.300 -30.868  1.00  0.00    -0.359 N 
HETATM   15  H   UNL     1      -7.711   2.345 -29.952  1.00  0.00     0.166 HD
HETATM   16  C   UNL     1      -7.178   3.370 -31.720  1.00  0.00     0.043 A 
HETATM   17  C   UNL     1      -6.545   2.914 -32.873  1.00  0.00     0.001 A 
HETATM   18  C   UNL     1      -7.596   4.697 -31.554  1.00  0.00     0.030 A 
HETATM   19  C   UNL     1      -6.315   3.837 -33.916  1.00  0.00     0.014 A 
HETATM   20  C   UNL     1      -6.723   5.168 -33.767  1.00  0.00     0.001 A 
HETATM   21  C   UNL     1      -7.356   5.589 -32.601  1.00  0.00     0.002 A 
ENDBRANCH   1  11
BRANCH   2  22
HETATM   22  C   UNL     1      -7.661  -0.056 -35.046  1.00  0.00     0.229 C 
BRANCH  22  23
HETATM   23  C   UNL     1      -8.835   0.513 -34.244  1.00  0.00     0.235 C 
HETATM   24  N   UNL     1      -9.340   1.705 -34.723  1.00  0.00    -0.355 N 
HETATM   25  H   UNL     1      -9.019   1.972 -35.648  1.00  0.00     0.162 HD
HETATM   26  O   UNL     1      -9.348  -0.127 -33.331  1.00  0.00    -0.272 OA
BRANCH  24  27
HETATM   27  C   UNL     1     -10.578   2.323 -34.254  1.00  0.00     0.084 C 
HETATM   28  C   UNL     1     -10.462   3.854 -34.125  1.00  0.00     0.025 C 
HETATM   29  C   UNL     1     -11.268   4.611 -35.177  1.00  0.00     0.002 C 
HETATM   30  C   UNL     1     -12.745   4.217 -35.185  1.00  0.00     0.000 C 
HETATM   31  C   UNL     1     -13.006   2.772 -34.758  1.00  0.00     0.002 C 
HETATM   32  C   UNL     1     -11.815   1.865 -35.042  1.00  0.00     0.025 C 
ENDBRANCH  24  27
ENDBRANCH  22  23
ENDBRANCH   2  22
TORSDOF 4
ENDMDL
MODEL 3
REMARK VINA RESULT:      -9.1      1.709      6.089
REMARK  4 active torsions:
REMARK  status: ('A' for Active; 'I' for Inactive)
REMARK    1  A    between atoms: C_7  and  C_8 
REMARK    2  A    between atoms: N_9  and  C_10 
REMARK    3  A    between atoms: C_10  and  C_11 
REMARK       I    between atoms: C_11  and  N_12 
REMARK    4  A    between atoms: N_12  and  C_13 
ROOT
HETATM    1  C   UNL     1      -4.587   2.636 -31.673  1.00  0.00     0.158 A 
HETATM    2  N   UNL     1      -5.369   3.289 -30.636  1.00  0.00    -0.326 N 
HETATM    3  C   UNL     1      -4.893   4.546 -30.330  1.00  0.00     0.255 A 
HETATM    4  O   UNL     1      -5.244   5.274 -29.423  1.00  0.00    -0.267 OA
HETATM    5  C   UNL     1      -3.814   4.838 -31.281  1.00  0.00     0.040 A 
HETATM    6  C   UNL     1      -3.631   3.715 -32.092  1.00  0.00    -0.015 A 
HETATM    7  C   UNL     1      -3.072   5.996 -31.421  1.00  0.00     0.017 A 
HETATM    8  C   UNL     1      -2.103   6.017 -32.424  1.00  0.00     0.001 A 
HETATM    9  C   UNL     1      -1.896   4.891 -33.245  1.00  0.00     0.001 A 
HETATM   10  C   UNL     1      -2.657   3.729 -33.079  1.00  0.00     0.011 A 
ENDROOT
BRANCH   1  11
HETATM   11  C   UNL     1      -5.410   2.272 -32.872  1.00  0.00     0.004 A 
HETATM   12  C   UNL     1      -6.086   3.101 -33.766  1.00  0.00     0.015 A 
HETATM   13  C   UNL     1      -6.205   4.582 -33.841  1.00  0.00     0.069 C 
HETATM   14  N   UNL     1      -6.710   2.301 -34.691  1.00  0.00    -0.359 N 
HETATM   15  H   UNL     1      -7.278   2.634 -35.457  1.00  0.00     0.166 HD
HETATM   16  C   UNL     1      -6.461   0.975 -34.436  1.00  0.00     0.043 A 
HETATM   17  C   UNL     1      -5.651   0.920 -33.306  1.00  0.00     0.001 A 
HETATM   18  C   UNL     1      -6.895  -0.168 -35.120  1.00  0.00     0.030 A 
HETATM   19  C   UNL     1      -5.252  -0.350 -32.834  1.00  0.00     0.014 A 
HETATM   20  C   UNL     1      -5.673  -1.504 -33.506  1.00  0.00     0.001 A 
HETATM   21  C   UNL     1      -6.485  -1.410 -34.633  1.00  0.00     0.002 A 
ENDBRANCH   1  11
BRANCH   2  22
HETATM   22  C   UNL     1      -6.428   2.605 -29.907  1.00  0.00     0.229 C 
BRANCH  22  23
HETATM   23  C   UNL     1      -7.837   2.839 -30.460  1.00  0.00     0.235 C 
HETATM   24  N   UNL     1      -8.234   1.944 -31.432  1.00  0.00    -0.355 N 
HETATM   25  H   UNL     1      -7.644   1.125 -31.536  1.00  0.00     0.162 HD
HETATM   26  O   UNL     1      -8.580   3.683 -29.966  1.00  0.00    -0.272 OA
BRANCH  24  27
HETATM   27  C   UNL     1      -9.596   1.839 -31.950  1.00  0.00     0.084 C 
HETATM   28  C   UNL     1     -10.002   3.060 -32.798  1.00  0.00     0.025 C 
HETATM   29  C   UNL     1     -10.126   2.746 -34.286  1.00  0.00     0.002 C 
HETATM   30  C   UNL     1     -11.092   1.594 -34.568  1.00  0.00     0.000 C 
HETATM   31  C   UNL     1     -11.165   0.556 -33.447  1.00  0.00     0.002 C 
HETATM   32  C   UNL     1      -9.877   0.493 -32.636  1.00  0.00     0.025 C 
ENDBRANCH  24  27
ENDBRANCH  22  23
ENDBRANCH   2  22
TORSDOF 4
ENDMDL
MODEL 4
REMARK VINA RESULT:      -9.1      2.472      7.270
REMARK  4 active torsions:
REMARK  status: ('A' for Active; 'I' for Inactive)
REMARK    1  A    between atoms: C_7  and  C_8 
REMARK    2  A    between atoms: N_9  and  C_10 
REMARK    3  A    between atoms: C_10  and  C_11 
REMARK       I    between atoms: C_11  and  N_12 
REMARK    4  A    between atoms: N_12  and  C_13 
ROOT
HETATM    1  C   UNL     1      -5.838   3.170 -31.236  1.00  0.00     0.158 A 
HETATM    2  N   UNL     1      -6.200   1.782 -31.470  1.00  0.00    -0.326 N 
HETATM    3  C   UNL     1      -7.522   1.526 -31.180  1.00  0.00     0.255 A 
HETATM    4  O   UNL     1      -8.082   0.447 -31.144  1.00  0.00    -0.267 OA
HETATM    5  C   UNL     1      -8.146   2.814 -30.854  1.00  0.00     0.040 A 
HETATM    6  C   UNL     1      -7.157   3.801 -30.895  1.00  0.00    -0.015 A 
HETATM    7  C   UNL     1      -9.468   3.087 -30.560  1.00  0.00     0.017 A 
HETATM    8  C   UNL     1      -9.804   4.415 -30.294  1.00  0.00     0.001 A 
HETATM    9  C   UNL     1      -8.819   5.422 -30.320  1.00  0.00     0.001 A 
HETATM   10  C   UNL     1      -7.486   5.119 -30.616  1.00  0.00     0.011 A 
ENDROOT
BRANCH   1  11
HETATM   11  C   UNL     1      -5.319   3.846 -32.469  1.00  0.00     0.004 A 
HETATM   12  C   UNL     1      -5.990   4.177 -33.645  1.00  0.00     0.015 A 
HETATM   13  C   UNL     1      -7.407   3.990 -34.058  1.00  0.00     0.069 C 
HETATM   14  N   UNL     1      -5.087   4.772 -34.491  1.00  0.00    -0.359 N 
HETATM   15  H   UNL     1      -5.297   5.110 -35.419  1.00  0.00     0.166 HD
HETATM   16  C   UNL     1      -3.847   4.847 -33.906  1.00  0.00     0.043 A 
HETATM   17  C   UNL     1      -3.956   4.278 -32.641  1.00  0.00     0.001 A 
HETATM   18  C   UNL     1      -2.649   5.372 -34.406  1.00  0.00     0.030 A 
HETATM   19  C   UNL     1      -2.801   4.233 -31.829  1.00  0.00     0.014 A 
HETATM   20  C   UNL     1      -1.595   4.755 -32.311  1.00  0.00     0.001 A 
HETATM   21  C   UNL     1      -1.522   5.315 -33.583  1.00  0.00     0.002 A 
ENDBRANCH   1  11
BRANCH   2  22
HETATM   22  C   UNL     1      -5.217   0.764 -31.814  1.00  0.00     0.229 C 
BRANCH  22  23
HETATM   23  C   UNL     1      -5.438   0.098 -33.175  1.00  0.00     0.235 C 
HETATM   24  N   UNL     1      -5.028  -1.217 -33.250  1.00  0.00    -0.355 N 
HETATM   25  H   UNL     1      -4.809  -1.656 -32.361  1.00  0.00     0.162 HD
HETATM   26  O   UNL     1      -6.053   0.671 -34.070  1.00  0.00    -0.272 OA
BRANCH  24  27
HETATM   27  C   UNL     1      -5.325  -2.112 -34.366  1.00  0.00     0.084 C 
HETATM   28  C   UNL     1      -4.193  -3.123 -34.630  1.00  0.00     0.025 C 
HETATM   29  C   UNL     1      -4.564  -4.555 -34.255  1.00  0.00     0.002 C 
HETATM   30  C   UNL     1      -5.839  -5.036 -34.948  1.00  0.00     0.000 C 
HETATM   31  C   UNL     1      -6.845  -3.922 -35.241  1.00  0.00     0.002 C 
HETATM   32  C   UNL     1      -6.715  -2.759 -34.265  1.00  0.00     0.025 C 
ENDBRANCH  24  27
ENDBRANCH  22  23
ENDBRANCH   2  22
TORSDOF 4
ENDMDL
MODEL 5
REMARK VINA RESULT:      -9.0      2.097      2.599
REMARK  4 active torsions:
REMARK  status: ('A' for Active; 'I' for Inactive)
REMARK    1  A    between atoms: C_7  and  C_8 
REMARK    2  A    between atoms: N_9  and  C_10 
REMARK    3  A    between atoms: C_10  and  C_11 
REMARK       I    between atoms: C_11  and  N_12 
REMARK    4  A    between atoms: N_12  and  C_13 
ROOT
HETATM    1  C   UNL     1      -6.684   1.533 -31.598  1.00  0.00     0.158 A 
HETATM    2  N   UNL     1      -5.277   1.825 -31.380  1.00  0.00    -0.326 N 
HETATM    3  C   UNL     1      -4.448   0.916 -32.003  1.00  0.00     0.255 A 
HETATM    4  O   UNL     1      -3.241   0.814 -31.895  1.00  0.00    -0.267 OA
HETATM    5  C   UNL     1      -5.306   0.028 -32.797  1.00  0.00     0.040 A 
HETATM    6  C   UNL     1      -6.637   0.392 -32.573  1.00  0.00    -0.015 A 
HETATM    7  C   UNL     1      -4.939  -0.998 -33.646  1.00  0.00     0.017 A 
HETATM    8  C   UNL     1      -5.964  -1.687 -34.296  1.00  0.00     0.001 A 
HETATM    9  C   UNL     1      -7.311  -1.342 -34.076  1.00  0.00     0.001 A 
HETATM   10  C   UNL     1      -7.656  -0.302 -33.207  1.00  0.00     0.011 A 
ENDROOT
BRANCH   1  11
HETATM   11  C   UNL     1      -7.411   2.663 -32.261  1.00  0.00     0.004 A 
HETATM   12  C   UNL     1      -7.090   3.360 -33.425  1.00  0.00     0.015 A 
HETATM   13  C   UNL     1      -5.960   3.215 -34.382  1.00  0.00     0.069 C 
HETATM   14  N   UNL     1      -8.052   4.319 -33.620  1.00  0.00    -0.359 N 
HETATM   15  H   UNL     1      -8.070   4.976 -34.387  1.00  0.00     0.166 HD
HETATM   16  C   UNL     1      -8.997   4.271 -32.625  1.00  0.00     0.043 A 
HETATM   17  C   UNL     1      -8.628   3.247 -31.759  1.00  0.00     0.001 A 
HETATM   18  C   UNL     1     -10.141   5.057 -32.435  1.00  0.00     0.030 A 
HETATM   19  C   UNL     1      -9.450   2.993 -30.639  1.00  0.00     0.014 A 
HETATM   20  C   UNL     1     -10.598   3.767 -30.432  1.00  0.00     0.001 A 
HETATM   21  C   UNL     1     -10.936   4.786 -31.319  1.00  0.00     0.002 A 
ENDBRANCH   1  11
BRANCH   2  22
HETATM   22  C   UNL     1      -4.826   2.867 -30.469  1.00  0.00     0.229 C 
BRANCH  22  23
HETATM   23  C   UNL     1      -4.071   4.018 -31.139  1.00  0.00     0.235 C 
HETATM   24  N   UNL     1      -2.714   3.814 -31.285  1.00  0.00    -0.355 N 
HETATM   25  H   UNL     1      -2.397   2.864 -31.117  1.00  0.00     0.162 HD
HETATM   26  O   UNL     1      -4.670   4.977 -31.617  1.00  0.00    -0.272 OA
BRANCH  24  27
HETATM   27  C   UNL     1      -1.831   4.669 -32.074  1.00  0.00     0.084 C 
HETATM   28  C   UNL     1      -2.113   4.575 -33.585  1.00  0.00     0.025 C 
HETATM   29  C   UNL     1      -2.748   5.839 -34.160  1.00  0.00     0.002 C 
HETATM   30  C   UNL     1      -1.922   7.094 -33.879  1.00  0.00     0.000 C 
HETATM   31  C   UNL     1      -1.120   7.034 -32.578  1.00  0.00     0.002 C 
HETATM   32  C   UNL     1      -1.763   6.112 -31.550  1.00  0.00     0.025 C 
ENDBRANCH  24  27
ENDBRANCH  22  23
ENDBRANCH   2  22
TORSDOF 4
ENDMDL
MODEL 6
REMARK VINA RESULT:      -9.0      2.285      6.546
REMARK  4 active torsions:
REMARK  status: ('A' for Active; 'I' for Inactive)
REMARK    1  A    between atoms: C_7  and  C_8 
REMARK    2  A    between atoms: N_9  and  C_10 
REMARK    3  A    between atoms: C_10  and  C_11 
REMARK       I    between atoms: C_11  and  N_12 
REMARK    4  A    between atoms: N_12  and  C_13 
ROOT
HETATM    1  C   UNL     1      -5.413   5.239 -31.733  1.00  0.00     0.158 A 
HETATM    2  N   UNL     1      -5.828   5.098 -33.119  1.00  0.00    -0.326 N 
HETATM    3  C   UNL     1      -4.758   5.054 -33.988  1.00  0.00     0.255 A 
HETATM    4  O   UNL     1      -4.784   5.079 -35.203  1.00  0.00    -0.267 OA
HETATM    5  C   UNL     1      -3.541   5.032 -33.167  1.00  0.00     0.040 A 
HETATM    6  C   UNL     1      -3.918   5.129 -31.824  1.00  0.00    -0.015 A 
HETATM    7  C   UNL     1      -2.224   4.923 -33.572  1.00  0.00     0.017 A 
HETATM    8  C   UNL     1      -1.247   4.914 -32.576  1.00  0.00     0.001 A 
HETATM    9  C   UNL     1      -1.606   5.022 -31.219  1.00  0.00     0.001 A 
HETATM   10  C   UNL     1      -2.947   5.136 -30.835  1.00  0.00     0.011 A 
ENDROOT
BRANCH   1  11
HETATM   11  C   UNL     1      -5.896   4.113 -30.870  1.00  0.00     0.004 A 
HETATM   12  C   UNL     1      -6.825   4.132 -29.831  1.00  0.00     0.015 A 
HETATM   13  C   UNL     1      -7.636   5.237 -29.251  1.00  0.00     0.069 C 
HETATM   14  N   UNL     1      -6.925   2.856 -29.334  1.00  0.00    -0.359 N 
HETATM   15  H   UNL     1      -7.523   2.576 -28.569  1.00  0.00     0.166 HD
HETATM   16  C   UNL     1      -6.097   2.000 -30.017  1.00  0.00     0.043 A 
HETATM   17  C   UNL     1      -5.439   2.753 -30.985  1.00  0.00     0.001 A 
HETATM   18  C   UNL     1      -5.887   0.626 -29.845  1.00  0.00     0.030 A 
HETATM   19  C   UNL     1      -4.519   2.093 -31.829  1.00  0.00     0.014 A 
HETATM   20  C   UNL     1      -4.296   0.720 -31.674  1.00  0.00     0.001 A 
HETATM   21  C   UNL     1      -4.972  -0.001 -30.693  1.00  0.00     0.002 A 
ENDBRANCH   1  11
BRANCH   2  22
HETATM   22  C   UNL     1      -7.223   5.165 -33.529  1.00  0.00     0.229 C 
BRANCH  22  23
HETATM   23  C   UNL     1      -7.973   3.832 -33.458  1.00  0.00     0.235 C 
HETATM   24  N   UNL     1      -7.513   2.861 -34.322  1.00  0.00    -0.355 N 
HETATM   25  H   UNL     1      -6.620   3.060 -34.764  1.00  0.00     0.162 HD
HETATM   26  O   UNL     1      -8.827   3.629 -32.598  1.00  0.00    -0.272 OA
BRANCH  24  27
HETATM   27  C   UNL     1      -7.928   1.461 -34.288  1.00  0.00     0.084 C 
HETATM   28  C   UNL     1      -7.167   0.593 -35.308  1.00  0.00     0.025 C 
HETATM   29  C   UNL     1      -6.184  -0.378 -34.660  1.00  0.00     0.002 C 
HETATM   30  C   UNL     1      -6.847  -1.285 -33.624  1.00  0.00     0.000 C 
HETATM   31  C   UNL     1      -8.041  -0.648 -32.913  1.00  0.00     0.002 C 
HETATM   32  C   UNL     1      -7.941   0.871 -32.869  1.00  0.00     0.025 C 
ENDBRANCH  24  27
ENDBRANCH  22  23
ENDBRANCH   2  22
TORSDOF 4
ENDMDL
MODEL 7
REMARK VINA RESULT:      -8.8      2.131      5.540
REMARK  4 active torsions:
REMARK  status: ('A' for Active; 'I' for Inactive)
REMARK    1  A    between atoms: C_7  and  C_8 
REMARK    2  A    between atoms: N_9  and  C_10 
REMARK    3  A    between atoms: C_10  and  C_11 
REMARK       I    between atoms: C_11  and  N_12 
REMARK    4  A    between atoms: N_12  and  C_13 
ROOT
HETATM    1  C   UNL     1     -10.075   2.381 -34.216  1.00  0.00     0.158 A 
HETATM    2  N   UNL     1     -10.034   3.819 -34.006  1.00  0.00    -0.326 N 
HETATM    3  C   UNL     1     -11.272   4.342 -33.698  1.00  0.00     0.255 A 
HETATM    4  O   UNL     1     -11.584   5.513 -33.604  1.00  0.00    -0.267 OA
HETATM    5  C   UNL     1     -12.193   3.207 -33.559  1.00  0.00     0.040 A 
HETATM    6  C   UNL     1     -11.490   2.035 -33.853  1.00  0.00    -0.015 A 
HETATM    7  C   UNL     1     -13.526   3.212 -33.195  1.00  0.00     0.017 A 
HETATM    8  C   UNL     1     -14.176   1.980 -33.127  1.00  0.00     0.001 A 
HETATM    9  C   UNL     1     -13.487   0.789 -33.430  1.00  0.00     0.001 A 
HETATM   10  C   UNL     1     -12.138   0.811 -33.801  1.00  0.00     0.011 A 
ENDROOT
BRANCH   1  11
HETATM   11  C   UNL     1      -9.173   1.637 -33.278  1.00  0.00     0.004 A 
HETATM   12  C   UNL     1      -9.078   1.719 -31.890  1.00  0.00     0.015 A 
HETATM   13  C   UNL     1      -9.824   2.539 -30.897  1.00  0.00     0.069 C 
HETATM   14  N   UNL     1      -8.095   0.851 -31.484  1.00  0.00    -0.359 N 
HETATM   15  H   UNL     1      -7.808   0.707 -30.526  1.00  0.00     0.166 HD
HETATM   16  C   UNL     1      -7.547   0.198 -32.559  1.00  0.00     0.043 A 
HETATM   17  C   UNL     1      -8.197   0.664 -33.697  1.00  0.00     0.001 A 
HETATM   18  C   UNL     1      -6.528  -0.763 -32.602  1.00  0.00     0.030 A 
HETATM   19  C   UNL     1      -7.808   0.139 -34.949  1.00  0.00     0.014 A 
HETATM   20  C   UNL     1      -6.793  -0.824 -35.012  1.00  0.00     0.001 A 
HETATM   21  C   UNL     1      -6.163  -1.266 -33.852  1.00  0.00     0.002 A 
ENDBRANCH   1  11
BRANCH   2  22
HETATM   22  C   UNL     1      -8.841   4.614 -34.259  1.00  0.00     0.229 C 
BRANCH  22  23
HETATM   23  C   UNL     1      -7.884   4.725 -33.069  1.00  0.00     0.235 C 
HETATM   24  N   UNL     1      -6.683   4.065 -33.227  1.00  0.00    -0.355 N 
HETATM   25  H   UNL     1      -6.482   3.748 -34.171  1.00  0.00     0.162 HD
HETATM   26  O   UNL     1      -8.138   5.457 -32.116  1.00  0.00    -0.272 OA
BRANCH  24  27
HETATM   27  C   UNL     1      -5.541   4.201 -32.326  1.00  0.00     0.084 C 
HETATM   28  C   UNL     1      -5.596   3.209 -31.148  1.00  0.00     0.025 C 
HETATM   29  C   UNL     1      -4.543   2.108 -31.236  1.00  0.00     0.002 C 
HETATM   30  C   UNL     1      -3.123   2.659 -31.363  1.00  0.00     0.000 C 
HETATM   31  C   UNL     1      -3.040   4.006 -32.083  1.00  0.00     0.002 C 
HETATM   32  C   UNL     1      -4.191   4.207 -33.060  1.00  0.00     0.025 C 
ENDBRANCH  24  27
ENDBRANCH  22  23
ENDBRANCH   2  22
TORSDOF 4
ENDMDL
MODEL 8
REMARK VINA RESULT:      -8.7      1.968      6.641
REMARK  4 active torsions:
REMARK  status: ('A' for Active; 'I' for Inactive)
REMARK    1  A    between atoms: C_7  and  C_8 
REMARK    2  A    between atoms: N_9  and  C_10 
REMARK    3  A    between atoms: C_10  and  C_11 
REMARK       I    between atoms: C_11  and  N_12 
REMARK    4  A    between atoms: N_12  and  C_13 
ROOT
HETATM    1  C   UNL     1      -4.934   1.991 -32.778  1.00  0.00     0.158 A 
HETATM    2  N   UNL     1      -6.014   1.819 -33.736  1.00  0.00    -0.326 N 
HETATM    3  C   UNL     1      -6.107   0.523 -34.197  1.00  0.00     0.255 A 
HETATM    4  O   UNL     1      -6.809   0.100 -35.094  1.00  0.00    -0.267 OA
HETATM    5  C   UNL     1      -5.138  -0.273 -33.433  1.00  0.00     0.040 A 
HETATM    6  C   UNL     1      -4.443   0.587 -32.578  1.00  0.00    -0.015 A 
HETATM    7  C   UNL     1      -4.904  -1.634 -33.484  1.00  0.00     0.017 A 
HETATM    8  C   UNL     1      -3.923  -2.146 -32.634  1.00  0.00     0.001 A 
HETATM    9  C   UNL     1      -3.204  -1.294 -31.773  1.00  0.00     0.001 A 
HETATM   10  C   UNL     1      -3.457   0.081 -31.745  1.00  0.00     0.011 A 
ENDROOT
BRANCH   1  11
HETATM   11  C   UNL     1      -5.417   2.494 -31.451  1.00  0.00     0.004 A 
HETATM   12  C   UNL     1      -6.233   1.866 -30.511  1.00  0.00     0.015 A 
HETATM   13  C   UNL     1      -6.871   0.522 -30.500  1.00  0.00     0.069 C 
HETATM   14  N   UNL     1      -6.408   2.732 -29.461  1.00  0.00    -0.359 N 
HETATM   15  H   UNL     1      -6.960   2.542 -28.637  1.00  0.00     0.166 HD
HETATM   16  C   UNL     1      -5.729   3.906 -29.678  1.00  0.00     0.043 A 
HETATM   17  C   UNL     1      -5.097   3.791 -30.913  1.00  0.00     0.001 A 
HETATM   18  C   UNL     1      -5.632   5.049 -28.875  1.00  0.00     0.030 A 
HETATM   19  C   UNL     1      -4.325   4.881 -31.370  1.00  0.00     0.014 A 
HETATM   20  C   UNL     1      -4.215   6.032 -30.580  1.00  0.00     0.001 A 
HETATM   21  C   UNL     1      -4.862   6.113 -29.351  1.00  0.00     0.002 A 
ENDBRANCH   1  11
BRANCH   2  22
HETATM   22  C   UNL     1      -6.786   2.938 -34.255  1.00  0.00     0.229 C 
BRANCH  22  23
HETATM   23  C   UNL     1      -8.196   3.065 -33.672  1.00  0.00     0.235 C 
HETATM   24  N   UNL     1      -9.162   2.328 -34.326  1.00  0.00    -0.355 N 
HETATM   25  H   UNL     1      -8.812   1.641 -34.986  1.00  0.00     0.162 HD
HETATM   26  O   UNL     1      -8.398   3.678 -32.627  1.00  0.00    -0.272 OA
BRANCH  24  27
HETATM   27  C   UNL     1     -10.522   2.127 -33.832  1.00  0.00     0.084 C 
HETATM   28  C   UNL     1     -11.561   2.964 -34.602  1.00  0.00     0.025 C 
HETATM   29  C   UNL     1     -12.475   2.124 -35.490  1.00  0.00     0.002 C 
HETATM   30  C   UNL     1     -13.193   1.018 -34.717  1.00  0.00     0.000 C 
HETATM   31  C   UNL     1     -12.406   0.483 -33.520  1.00  0.00     0.002 C 
HETATM   32  C   UNL     1     -10.903   0.644 -33.702  1.00  0.00     0.025 C 
ENDBRANCH  24  27
ENDBRANCH  22  23
ENDBRANCH   2  22
TORSDOF 4
ENDMDL
MODEL 9
REMARK VINA RESULT:      -8.6      2.657      6.987
REMARK  4 active torsions:
REMARK  status: ('A' for Active; 'I' for Inactive)
REMARK    1  A    between atoms: C_7  and  C_8 
REMARK    2  A    between atoms: N_9  and  C_10 
REMARK    3  A    between atoms: C_10  and  C_11 
REMARK       I    between atoms: C_11  and  N_12 
REMARK    4  A    between atoms: N_12  and  C_13 
ROOT
HETATM    1  C   UNL     1      -8.307   2.563 -32.028  1.00  0.00     0.158 A 
HETATM    2  N   UNL     1      -9.098   2.564 -33.248  1.00  0.00    -0.326 N 
HETATM    3  C   UNL     1     -10.055   3.556 -33.255  1.00  0.00     0.255 A 
HETATM    4  O   UNL     1     -10.948   3.724 -34.062  1.00  0.00    -0.267 OA
HETATM    5  C   UNL     1      -9.840   4.365 -32.049  1.00  0.00     0.040 A 
HETATM    6  C   UNL     1      -8.797   3.791 -31.317  1.00  0.00    -0.015 A 
HETATM    7  C   UNL     1     -10.502   5.509 -31.644  1.00  0.00     0.017 A 
HETATM    8  C   UNL     1     -10.090   6.097 -30.448  1.00  0.00     0.001 A 
HETATM    9  C   UNL     1      -9.047   5.528 -29.692  1.00  0.00     0.001 A 
HETATM   10  C   UNL     1      -8.397   4.366 -30.121  1.00  0.00     0.011 A 
ENDROOT
BRANCH   1  11
HETATM   11  C   UNL     1      -6.843   2.747 -32.291  1.00  0.00     0.004 A 
HETATM   12  C   UNL     1      -6.198   3.708 -33.068  1.00  0.00     0.015 A 
HETATM   13  C   UNL     1      -6.724   4.850 -33.863  1.00  0.00     0.069 C 
HETATM   14  N   UNL     1      -4.849   3.456 -33.012  1.00  0.00    -0.359 N 
HETATM   15  H   UNL     1      -4.138   3.995 -33.487  1.00  0.00     0.166 HD
HETATM   16  C   UNL     1      -4.588   2.365 -32.221  1.00  0.00     0.043 A 
HETATM   17  C   UNL     1      -5.812   1.897 -31.753  1.00  0.00     0.001 A 
HETATM   18  C   UNL     1      -3.366   1.766 -31.893  1.00  0.00     0.030 A 
HETATM   19  C   UNL     1      -5.813   0.766 -30.908  1.00  0.00     0.014 A 
HETATM   20  C   UNL     1      -4.601   0.154 -30.566  1.00  0.00     0.001 A 
HETATM   21  C   UNL     1      -3.395   0.649 -31.055  1.00  0.00     0.002 A 
ENDBRANCH   1  11
BRANCH   2  22
HETATM   22  C   UNL     1      -8.980   1.522 -34.258  1.00  0.00     0.229 C 
BRANCH  22  23
HETATM   23  C   UNL     1      -8.508   0.166 -33.724  1.00  0.00     0.235 C 
HETATM   24  N   UNL     1      -7.305  -0.272 -34.237  1.00  0.00    -0.355 N 
HETATM   25  H   UNL     1      -6.773   0.423 -34.752  1.00  0.00     0.162 HD
HETATM   26  O   UNL     1      -9.108  -0.401 -32.815  1.00  0.00    -0.272 OA
BRANCH  24  27
HETATM   27  C   UNL     1      -6.560  -1.420 -33.728  1.00  0.00     0.084 C 
HETATM   28  C   UNL     1      -7.066  -2.756 -34.305  1.00  0.00     0.025 C 
HETATM   29  C   UNL     1      -6.086  -3.401 -35.281  1.00  0.00     0.002 C 
HETATM   30  C   UNL     1      -4.699  -3.609 -34.675  1.00  0.00     0.000 C 
HETATM   31  C   UNL     1      -4.320  -2.572 -33.617  1.00  0.00     0.002 C 
HETATM   32  C   UNL     1      -5.036  -1.244 -33.832  1.00  0.00     0.025 C 
ENDBRANCH  24  27
ENDBRANCH  22  23
ENDBRANCH   2  22
TORSDOF 4
ENDMDL
MODEL 10
REMARK VINA RESULT:      -8.5      2.423      5.254
REMARK  4 active torsions:
REMARK  status: ('A' for Active; 'I' for Inactive)
REMARK    1  A    between atoms: C_7  and  C_8 
REMARK    2  A    between atoms: N_9  and  C_10 
REMARK    3  A    between atoms: C_10  and  C_11 
REMARK       I    between atoms: C_11  and  N_12 
REMARK    4  A    between atoms: N_12  and  C_13 
ROOT
HETATM    1  C   UNL     1      -6.976   3.399 -33.344  1.00  0.00     0.158 A 
HETATM    2  N   UNL     1      -6.211   4.634 -33.393  1.00  0.00    -0.326 N 
HETATM    3  C   UNL     1      -6.736   5.612 -32.577  1.00  0.00     0.255 A 
HETATM    4  O   UNL     1      -6.405   6.780 -32.506  1.00  0.00    -0.267 OA
HETATM    5  C   UNL     1      -7.838   4.998 -31.826  1.00  0.00     0.040 A 
HETATM    6  C   UNL     1      -7.983   3.679 -32.265  1.00  0.00    -0.015 A 
HETATM    7  C   UNL     1      -8.629   5.553 -30.838  1.00  0.00     0.017 A 
HETATM    8  C   UNL     1      -9.610   4.738 -30.272  1.00  0.00     0.001 A 
HETATM    9  C   UNL     1      -9.779   3.410 -30.709  1.00  0.00     0.001 A 
HETATM   10  C   UNL     1      -8.968   2.873 -31.714  1.00  0.00     0.011 A 
ENDROOT
BRANCH   1  11
HETATM   11  C   UNL     1      -6.153   2.228 -32.901  1.00  0.00     0.004 A 
HETATM   12  C   UNL     1      -5.250   2.131 -31.843  1.00  0.00     0.015 A 
HETATM   13  C   UNL     1      -4.821   3.121 -30.819  1.00  0.00     0.069 C 
HETATM   14  N   UNL     1      -4.733   0.859 -31.847  1.00  0.00    -0.359 N 
HETATM   15  H   UNL     1      -4.048   0.509 -31.192  1.00  0.00     0.166 HD
HETATM   16  C   UNL     1      -5.271   0.117 -32.869  1.00  0.00     0.043 A 
HETATM   17  C   UNL     1      -6.163   0.942 -33.548  1.00  0.00     0.001 A 
HETATM   18  C   UNL     1      -5.029  -1.212 -33.236  1.00  0.00     0.030 A 
HETATM   19  C   UNL     1      -6.854   0.405 -34.656  1.00  0.00     0.014 A 
HETATM   20  C   UNL     1      -6.628  -0.923 -35.038  1.00  0.00     0.001 A 
HETATM   21  C   UNL     1      -5.726  -1.718 -34.336  1.00  0.00     0.002 A 
ENDBRANCH   1  11
BRANCH   2  22
HETATM   22  C   UNL     1      -5.116   4.838 -34.330  1.00  0.00     0.229 C 
BRANCH  22  23
HETATM   23  C   UNL     1      -3.756   5.100 -33.676  1.00  0.00     0.235 C 
HETATM   24  N   UNL     1      -3.616   6.350 -33.109  1.00  0.00    -0.355 N 
HETATM   25  H   UNL     1      -4.476   6.882 -33.012  1.00  0.00     0.162 HD
HETATM   26  O   UNL     1      -2.923   4.205 -33.565  1.00  0.00    -0.272 OA
BRANCH  24  27
HETATM   27  C   UNL     1      -2.501   6.749 -32.255  1.00  0.00     0.084 C 
HETATM   28  C   UNL     1      -2.425   5.923 -30.957  1.00  0.00     0.025 C 
HETATM   29  C   UNL     1      -1.237   4.965 -30.920  1.00  0.00     0.002 C 
HETATM   30  C   UNL     1       0.099   5.671 -31.145  1.00  0.00     0.000 C 
HETATM   31  C   UNL     1       0.005   6.911 -32.036  1.00  0.00     0.002 C 
HETATM   32  C   UNL     1      -1.164   6.832 -33.010  1.00  0.00     0.025 C 
ENDBRANCH  24  27
ENDBRANCH  22  23
ENDBRANCH   2  22
TORSDOF 4
ENDMDL
