MODEL 1
REMARK VINA RESULT:      -8.6      0.000      0.000
REMARK  8 active torsions:
REMARK  status: ('A' for Active; 'I' for Inactive)
REMARK    1  A    between atoms: C_2  and  O_3 
REMARK    2  A    between atoms: O_3  and  C_4 
REMARK    3  A    between atoms: C_8  and  C_9 
REMARK       I    between atoms: C_9  and  N_10 
REMARK    4  A    between atoms: N_10  and  C_11 
REMARK    5  A    between atoms: N_22  and  C_23 
REMARK    6  A    between atoms: C_23  and  C_24 
REMARK    7  A    between atoms: C_24  and  C_25 
REMARK    8  A    between atoms: C_25  and  O_26 
ROOT
HETATM    1  C   UNL     1      -4.934   5.991 -32.060  1.00  0.00     0.102 A 
HETATM    2  C   UNL     1      -5.918   5.038 -31.822  1.00  0.00     0.113 A 
HETATM    3  C   UNL     1      -6.068   4.496 -30.507  1.00  0.00     0.002 A 
HETATM    4  C   UNL     1      -7.032   3.326 -30.442  1.00  0.00     0.138 C 
HETATM    5  C   UNL     1      -6.514   2.486 -31.611  1.00  0.00     0.161 C 
HETATM    6  C   UNL     1      -7.214   3.162 -32.781  1.00  0.00     0.155 C 
HETATM    7  C   UNL     1      -6.712   2.671 -34.156  1.00  0.00     0.072 C 
HETATM    8  N   UNL     1      -8.733   3.029 -32.579  1.00  0.00    -0.325 N 
HETATM    9  C   UNL     1      -9.303   3.218 -31.294  1.00  0.00     0.172 C 
HETATM   10  S   UNL     1     -10.855   3.697 -30.895  1.00  0.00    -0.041 SA
HETATM   11  N   UNL     1      -8.425   3.058 -30.222  1.00  0.00    -0.357 N 
HETATM   12  O   UNL     1      -6.781   4.596 -32.832  1.00  0.00    -0.316 OA
HETATM   13  C   UNL     1      -5.312   4.969 -29.442  1.00  0.00     0.012 A 
HETATM   14  C   UNL     1      -4.391   5.989 -29.684  1.00  0.00     0.003 A 
HETATM   15  C   UNL     1      -4.200   6.492 -30.981  1.00  0.00     0.040 A 
HETATM   16  H   UNL     1      -8.826   3.285 -29.327  1.00  0.00     0.162 HD
ENDROOT
BRANCH   5  17
HETATM   17  C   UNL     1      -6.656   0.965 -31.609  1.00  0.00     0.233 C 
HETATM   18  N   UNL     1      -5.762   0.431 -32.541  1.00  0.00    -0.326 N 
HETATM   19  H   UNL     1      -5.092   1.071 -32.936  1.00  0.00     0.169 HD
HETATM   20  O   UNL     1      -7.503   0.342 -30.986  1.00  0.00    -0.273 OA
BRANCH  18  21
HETATM   21  C   UNL     1      -5.868  -0.790 -33.227  1.00  0.00     0.040 A 
HETATM   22  C   UNL     1      -4.737  -1.637 -33.253  1.00  0.00    -0.035 A 
HETATM   23  C   UNL     1      -3.391  -1.269 -32.680  1.00  0.00     0.050 C 
HETATM   24  C   UNL     1      -4.799  -2.828 -33.993  1.00  0.00     0.015 A 
HETATM   25  C   UNL     1      -5.961  -3.200 -34.673  1.00  0.00    -0.061 A 
HETATM   26  C   UNL     1      -5.998  -4.484 -35.446  1.00  0.00     0.048 C 
HETATM   27  C   UNL     1      -7.087  -2.376 -34.592  1.00  0.00     0.009 A 
HETATM   28  C   UNL     1      -7.037  -1.169 -33.889  1.00  0.00     0.030 A 
ENDBRANCH  18  21
ENDBRANCH   5  17
BRANCH   8  29
HETATM   29  C   UNL     1      -9.513   2.451 -33.709  1.00  0.00     0.130 C 
BRANCH  29  30
HETATM   30  C   UNL     1     -10.210   1.085 -33.587  1.00  0.00     0.046 C 
BRANCH  30  31
HETATM   31  C   UNL     1     -11.721   1.194 -33.776  1.00  0.00     0.168 C 
BRANCH  31  32
HETATM   32  O   UNL     1     -12.307  -0.059 -33.411  1.00  0.00    -0.396 OA
HETATM   33  C   UNL     1     -13.703  -0.080 -33.676  1.00  0.00     0.201 C 
ENDBRANCH  31  32
ENDBRANCH  30  31
ENDBRANCH  29  30
ENDBRANCH   8  29
BRANCH   1  34
HETATM   34  O   UNL     1      -4.613   6.429 -33.314  1.00  0.00    -0.349 OA
BRANCH  34  35
HETATM   35  C   UNL     1      -3.480   5.716 -33.837  1.00  0.00     0.171 C 
HETATM   36  C   UNL     1      -3.764   5.173 -35.229  1.00  0.00     0.034 C 
ENDBRANCH  34  35
ENDBRANCH   1  34
TORSDOF 8
ENDMDL
MODEL 2
REMARK VINA RESULT:      -8.2      1.631      2.030
REMARK  8 active torsions:
REMARK  status: ('A' for Active; 'I' for Inactive)
REMARK    1  A    between atoms: C_2  and  O_3 
REMARK    2  A    between atoms: O_3  and  C_4 
REMARK    3  A    between atoms: C_8  and  C_9 
REMARK       I    between atoms: C_9  and  N_10 
REMARK    4  A    between atoms: N_10  and  C_11 
REMARK    5  A    between atoms: N_22  and  C_23 
REMARK    6  A    between atoms: C_23  and  C_24 
REMARK    7  A    between atoms: C_24  and  C_25 
REMARK    8  A    between atoms: C_25  and  O_26 
ROOT
HETATM    1  C   UNL     1      -2.984   6.877 -32.563  1.00  0.00     0.102 A 
HETATM    2  C   UNL     1      -4.140   6.179 -32.234  1.00  0.00     0.113 A 
HETATM    3  C   UNL     1      -4.356   5.778 -30.878  1.00  0.00     0.002 A 
HETATM    4  C   UNL     1      -5.545   4.851 -30.704  1.00  0.00     0.138 C 
HETATM    5  C   UNL     1      -5.257   3.836 -31.812  1.00  0.00     0.161 C 
HETATM    6  C   UNL     1      -5.837   4.560 -33.019  1.00  0.00     0.155 C 
HETATM    7  C   UNL     1      -5.498   3.873 -34.360  1.00  0.00     0.072 C 
HETATM    8  N   UNL     1      -7.342   4.772 -32.779  1.00  0.00    -0.325 N 
HETATM    9  C   UNL     1      -7.814   5.171 -31.504  1.00  0.00     0.172 C 
HETATM   10  S   UNL     1      -9.213   6.001 -31.115  1.00  0.00    -0.041 SA
HETATM   11  N   UNL     1      -6.954   4.906 -30.438  1.00  0.00    -0.357 N 
HETATM   12  O   UNL     1      -5.110   5.860 -33.189  1.00  0.00    -0.316 OA
HETATM   13  C   UNL     1      -3.481   6.155 -29.866  1.00  0.00     0.012 A 
HETATM   14  C   UNL     1      -2.372   6.932 -30.204  1.00  0.00     0.003 A 
HETATM   15  C   UNL     1      -2.123   7.286 -31.540  1.00  0.00     0.040 A 
HETATM   16  H   UNL     1      -7.267   5.278 -29.556  1.00  0.00     0.162 HD
ENDROOT
BRANCH   5  17
HETATM   17  C   UNL     1      -5.719   2.386 -31.687  1.00  0.00     0.233 C 
HETATM   18  N   UNL     1      -4.929   1.591 -32.522  1.00  0.00    -0.326 N 
HETATM   19  H   UNL     1      -4.126   2.037 -32.935  1.00  0.00     0.169 HD
HETATM   20  O   UNL     1      -6.700   2.015 -31.059  1.00  0.00    -0.273 OA
BRANCH  18  21
HETATM   21  C   UNL     1      -5.270   0.359 -33.107  1.00  0.00     0.040 A 
HETATM   22  C   UNL     1      -4.457  -0.760 -32.817  1.00  0.00    -0.035 A 
HETATM   23  C   UNL     1      -3.188  -0.696 -32.004  1.00  0.00     0.050 C 
HETATM   24  C   UNL     1      -4.737  -1.982 -33.447  1.00  0.00     0.015 A 
HETATM   25  C   UNL     1      -5.817  -2.115 -34.325  1.00  0.00    -0.061 A 
HETATM   26  C   UNL     1      -6.096  -3.438 -34.973  1.00  0.00     0.048 C 
HETATM   27  C   UNL     1      -6.642  -1.011 -34.557  1.00  0.00     0.009 A 
HETATM   28  C   UNL     1      -6.360   0.224 -33.967  1.00  0.00     0.030 A 
ENDBRANCH  18  21
ENDBRANCH   5  17
BRANCH   8  29
HETATM   29  C   UNL     1      -8.265   4.294 -33.847  1.00  0.00     0.130 C 
BRANCH  29  30
HETATM   30  C   UNL     1      -9.003   2.948 -33.727  1.00  0.00     0.046 C 
BRANCH  30  31
HETATM   31  C   UNL     1     -10.516   3.129 -33.651  1.00  0.00     0.168 C 
BRANCH  31  32
HETATM   32  O   UNL     1     -11.082   1.930 -33.114  1.00  0.00    -0.396 OA
HETATM   33  C   UNL     1     -10.307   0.788 -33.457  1.00  0.00     0.201 C 
ENDBRANCH  31  32
ENDBRANCH  30  31
ENDBRANCH  29  30
ENDBRANCH   8  29
BRANCH   1  34
HETATM   34  O   UNL     1      -2.620   7.144 -33.853  1.00  0.00    -0.349 OA
BRANCH  34  35
HETATM   35  C   UNL     1      -1.458   6.386 -34.230  1.00  0.00     0.171 C 
HETATM   36  C   UNL     1      -1.844   5.115 -34.971  1.00  0.00     0.034 C 
ENDBRANCH  34  35
ENDBRANCH   1  34
TORSDOF 8
ENDMDL
MODEL 3
REMARK VINA RESULT:      -8.0      2.403      7.336
REMARK  8 active torsions:
REMARK  status: ('A' for Active; 'I' for Inactive)
REMARK    1  A    between atoms: C_2  and  O_3 
REMARK    2  A    between atoms: O_3  and  C_4 
REMARK    3  A    between atoms: C_8  and  C_9 
REMARK       I    between atoms: C_9  and  N_10 
REMARK    4  A    between atoms: N_10  and  C_11 
REMARK    5  A    between atoms: N_22  and  C_23 
REMARK    6  A    between atoms: C_23  and  C_24 
REMARK    7  A    between atoms: C_24  and  C_25 
REMARK    8  A    between atoms: C_25  and  O_26 
ROOT
HETATM    1  C   UNL     1      -6.224  -1.078 -33.358  1.00  0.00     0.102 A 
HETATM    2  C   UNL     1      -6.487   0.232 -32.976  1.00  0.00     0.113 A 
HETATM    3  C   UNL     1      -7.041   1.144 -33.928  1.00  0.00     0.002 A 
HETATM    4  C   UNL     1      -7.080   2.580 -33.439  1.00  0.00     0.138 C 
HETATM    5  C   UNL     1      -5.649   2.725 -32.918  1.00  0.00     0.161 C 
HETATM    6  C   UNL     1      -5.788   2.114 -31.530  1.00  0.00     0.155 C 
HETATM    7  C   UNL     1      -4.433   1.909 -30.818  1.00  0.00     0.072 C 
HETATM    8  N   UNL     1      -6.801   2.952 -30.732  1.00  0.00    -0.325 N 
HETATM    9  C   UNL     1      -7.989   3.418 -31.350  1.00  0.00     0.172 C 
HETATM   10  S   UNL     1      -9.455   3.808 -30.646  1.00  0.00    -0.041 SA
HETATM   11  N   UNL     1      -7.952   3.483 -32.743  1.00  0.00    -0.357 N 
HETATM   12  O   UNL     1      -6.235   0.691 -31.678  1.00  0.00    -0.316 OA
HETATM   13  C   UNL     1      -7.410   0.722 -35.200  1.00  0.00     0.012 A 
HETATM   14  C   UNL     1      -7.220  -0.619 -35.535  1.00  0.00     0.003 A 
HETATM   15  C   UNL     1      -6.628  -1.510 -34.625  1.00  0.00     0.040 A 
HETATM   16  H   UNL     1      -8.833   3.728 -33.165  1.00  0.00     0.162 HD
ENDROOT
BRANCH   5  17
HETATM   17  C   UNL     1      -4.945   4.079 -32.923  1.00  0.00     0.233 C 
HETATM   18  N   UNL     1      -3.564   3.866 -32.963  1.00  0.00    -0.326 N 
HETATM   19  H   UNL     1      -3.263   2.919 -33.130  1.00  0.00     0.169 HD
HETATM   20  O   UNL     1      -5.501   5.158 -32.783  1.00  0.00    -0.273 OA
BRANCH  18  21
HETATM   21  C   UNL     1      -2.551   4.721 -32.499  1.00  0.00     0.040 A 
HETATM   22  C   UNL     1      -1.730   5.358 -33.456  1.00  0.00    -0.035 A 
HETATM   23  C   UNL     1      -1.804   5.100 -34.941  1.00  0.00     0.050 C 
HETATM   24  C   UNL     1      -0.667   6.160 -33.012  1.00  0.00     0.015 A 
HETATM   25  C   UNL     1      -0.429   6.359 -31.650  1.00  0.00    -0.061 A 
HETATM   26  C   UNL     1       0.708   7.231 -31.208  1.00  0.00     0.048 C 
HETATM   27  C   UNL     1      -1.284   5.765 -30.718  1.00  0.00     0.009 A 
HETATM   28  C   UNL     1      -2.328   4.935 -31.138  1.00  0.00     0.030 A 
ENDBRANCH  18  21
ENDBRANCH   5  17
BRANCH   8  29
HETATM   29  C   UNL     1      -6.357   3.454 -29.402  1.00  0.00     0.130 C 
BRANCH  29  30
HETATM   30  C   UNL     1      -6.028   4.941 -29.174  1.00  0.00     0.046 C 
BRANCH  30  31
HETATM   31  C   UNL     1      -7.034   5.614 -28.244  1.00  0.00     0.168 C 
BRANCH  31  32
HETATM   32  O   UNL     1      -6.331   6.567 -27.443  1.00  0.00    -0.396 OA
HETATM   33  C   UNL     1      -5.039   6.097 -27.084  1.00  0.00     0.201 C 
ENDBRANCH  31  32
ENDBRANCH  30  31
ENDBRANCH  29  30
ENDBRANCH   8  29
BRANCH   1  34
HETATM   34  O   UNL     1      -5.540  -1.958 -32.568  1.00  0.00    -0.349 OA
BRANCH  34  35
HETATM   35  C   UNL     1      -4.179  -2.101 -33.009  1.00  0.00     0.171 C 
HETATM   36  C   UNL     1      -3.216  -1.398 -32.066  1.00  0.00     0.034 C 
ENDBRANCH  34  35
ENDBRANCH   1  34
TORSDOF 8
ENDMDL
MODEL 4
REMARK VINA RESULT:      -8.0      2.028      6.224
REMARK  8 active torsions:
REMARK  status: ('A' for Active; 'I' for Inactive)
REMARK    1  A    between atoms: C_2  and  O_3 
REMARK    2  A    between atoms: O_3  and  C_4 
REMARK    3  A    between atoms: C_8  and  C_9 
REMARK       I    between atoms: C_9  and  N_10 
REMARK    4  A    between atoms: N_10  and  C_11 
REMARK    5  A    between atoms: N_22  and  C_23 
REMARK    6  A    between atoms: C_23  and  C_24 
REMARK    7  A    between atoms: C_24  and  C_25 
REMARK    8  A    between atoms: C_25  and  O_26 
ROOT
HETATM    1  C   UNL     1     -12.457   2.667 -33.744  1.00  0.00     0.102 A 
HETATM    2  C   UNL     1     -11.188   3.154 -33.453  1.00  0.00     0.113 A 
HETATM    3  C   UNL     1     -10.451   3.843 -34.467  1.00  0.00     0.002 A 
HETATM    4  C   UNL     1      -9.013   4.132 -34.078  1.00  0.00     0.138 C 
HETATM    5  C   UNL     1      -8.591   2.754 -33.564  1.00  0.00     0.161 C 
HETATM    6  C   UNL     1      -9.122   2.806 -32.138  1.00  0.00     0.155 C 
HETATM    7  C   UNL     1      -9.045   1.446 -31.411  1.00  0.00     0.072 C 
HETATM    8  N   UNL     1      -8.418   3.958 -31.402  1.00  0.00    -0.325 N 
HETATM    9  C   UNL     1      -8.204   5.199 -32.053  1.00  0.00     0.172 C 
HETATM   10  S   UNL     1      -8.024   6.720 -31.380  1.00  0.00    -0.041 SA
HETATM   11  N   UNL     1      -8.228   5.154 -33.447  1.00  0.00    -0.357 N 
HETATM   12  O   UNL     1     -10.608   3.002 -32.190  1.00  0.00    -0.316 OA
HETATM   13  C   UNL     1     -11.013   4.116 -35.708  1.00  0.00     0.012 A 
HETATM   14  C   UNL     1     -12.321   3.696 -35.950  1.00  0.00     0.003 A 
HETATM   15  C   UNL     1     -13.035   2.974 -34.979  1.00  0.00     0.040 A 
HETATM   16  H   UNL     1      -8.165   6.058 -33.887  1.00  0.00     0.162 HD
ENDROOT
BRANCH   5  17
HETATM   17  C   UNL     1      -7.140   2.290 -33.660  1.00  0.00     0.233 C 
HETATM   18  N   UNL     1      -7.111   0.894 -33.611  1.00  0.00    -0.326 N 
HETATM   19  H   UNL     1      -8.002   0.426 -33.673  1.00  0.00     0.169 HD
HETATM   20  O   UNL     1      -6.167   3.029 -33.650  1.00  0.00    -0.273 OA
BRANCH  18  21
HETATM   21  C   UNL     1      -6.057   0.072 -33.178  1.00  0.00     0.040 A 
HETATM   22  C   UNL     1      -5.769  -1.089 -33.929  1.00  0.00    -0.035 A 
HETATM   23  C   UNL     1      -6.587  -1.559 -35.107  1.00  0.00     0.050 C 
HETATM   24  C   UNL     1      -4.767  -1.960 -33.474  1.00  0.00     0.015 A 
HETATM   25  C   UNL     1      -4.036  -1.682 -32.316  1.00  0.00    -0.061 A 
HETATM   26  C   UNL     1      -2.965  -2.628 -31.863  1.00  0.00     0.048 C 
HETATM   27  C   UNL     1      -4.298  -0.502 -31.616  1.00  0.00     0.009 A 
HETATM   28  C   UNL     1      -5.315   0.362 -32.033  1.00  0.00     0.030 A 
ENDBRANCH  18  21
ENDBRANCH   5  17
BRANCH   8  29
HETATM   29  C   UNL     1      -7.759   3.624 -30.108  1.00  0.00     0.130 C 
BRANCH  29  30
HETATM   30  C   UNL     1      -6.275   3.220 -30.043  1.00  0.00     0.046 C 
BRANCH  30  31
HETATM   31  C   UNL     1      -5.358   4.431 -29.903  1.00  0.00     0.168 C 
BRANCH  31  32
HETATM   32  O   UNL     1      -4.798   4.716 -31.189  1.00  0.00    -0.396 OA
HETATM   33  C   UNL     1      -3.613   3.967 -31.420  1.00  0.00     0.201 C 
ENDBRANCH  31  32
ENDBRANCH  30  31
ENDBRANCH  29  30
ENDBRANCH   8  29
BRANCH   1  34
HETATM   34  O   UNL     1     -13.153   1.854 -32.894  1.00  0.00    -0.349 OA
BRANCH  34  35
HETATM   35  C   UNL     1     -13.972   0.924 -33.622  1.00  0.00     0.171 C 
HETATM   36  C   UNL     1     -13.366  -0.471 -33.612  1.00  0.00     0.034 C 
ENDBRANCH  34  35
ENDBRANCH   1  34
TORSDOF 8
ENDMDL
MODEL 5
REMARK VINA RESULT:      -7.6      2.257      7.067
REMARK  8 active torsions:
REMARK  status: ('A' for Active; 'I' for Inactive)
REMARK    1  A    between atoms: C_2  and  O_3 
REMARK    2  A    between atoms: O_3  and  C_4 
REMARK    3  A    between atoms: C_8  and  C_9 
REMARK       I    between atoms: C_9  and  N_10 
REMARK    4  A    between atoms: N_10  and  C_11 
REMARK    5  A    between atoms: N_22  and  C_23 
REMARK    6  A    between atoms: C_23  and  C_24 
REMARK    7  A    between atoms: C_24  and  C_25 
REMARK    8  A    between atoms: C_25  and  O_26 
ROOT
HETATM    1  C   UNL     1      -5.898  -0.931 -32.856  1.00  0.00     0.102 A 
HETATM    2  C   UNL     1      -6.518   0.313 -32.886  1.00  0.00     0.113 A 
HETATM    3  C   UNL     1      -7.025   0.816 -34.125  1.00  0.00     0.002 A 
HETATM    4  C   UNL     1      -7.483   2.261 -34.049  1.00  0.00     0.138 C 
HETATM    5  C   UNL     1      -6.274   2.890 -33.354  1.00  0.00     0.161 C 
HETATM    6  C   UNL     1      -6.589   2.580 -31.897  1.00  0.00     0.155 C 
HETATM    7  C   UNL     1      -5.420   2.901 -30.941  1.00  0.00     0.072 C 
HETATM    8  N   UNL     1      -7.913   3.271 -31.531  1.00  0.00    -0.325 N 
HETATM    9  C   UNL     1      -9.002   3.259 -32.440  1.00  0.00     0.172 C 
HETATM   10  S   UNL     1     -10.638   3.389 -32.119  1.00  0.00    -0.041 SA
HETATM   11  N   UNL     1      -8.664   3.028 -33.773  1.00  0.00    -0.357 N 
HETATM   12  O   UNL     1      -6.672   1.092 -31.734  1.00  0.00    -0.316 OA
HETATM   13  C   UNL     1      -6.996   0.047 -35.282  1.00  0.00     0.012 A 
HETATM   14  C   UNL     1      -6.449  -1.235 -35.211  1.00  0.00     0.003 A 
HETATM   15  C   UNL     1      -5.902  -1.718 -34.011  1.00  0.00     0.040 A 
HETATM   16  H   UNL     1      -9.458   2.933 -34.386  1.00  0.00     0.162 HD
ENDROOT
BRANCH   5  17
HETATM   17  C   UNL     1      -5.896   4.348 -33.602  1.00  0.00     0.233 C 
HETATM   18  N   UNL     1      -4.578   4.547 -33.185  1.00  0.00    -0.326 N 
HETATM   19  H   UNL     1      -4.055   3.720 -32.944  1.00  0.00     0.169 HD
HETATM   20  O   UNL     1      -6.669   5.216 -33.982  1.00  0.00    -0.273 OA
BRANCH  18  21
HETATM   21  C   UNL     1      -3.984   5.748 -32.760  1.00  0.00     0.040 A 
HETATM   22  C   UNL     1      -2.874   6.232 -33.486  1.00  0.00    -0.035 A 
HETATM   23  C   UNL     1      -2.219   5.491 -34.626  1.00  0.00     0.050 C 
HETATM   24  C   UNL     1      -2.223   7.391 -33.037  1.00  0.00     0.015 A 
HETATM   25  C   UNL     1      -2.671   8.083 -31.909  1.00  0.00    -0.061 A 
HETATM   26  C   UNL     1      -1.960   9.324 -31.461  1.00  0.00     0.048 C 
HETATM   27  C   UNL     1      -3.804   7.620 -31.234  1.00  0.00     0.009 A 
HETATM   28  C   UNL     1      -4.446   6.448 -31.645  1.00  0.00     0.030 A 
ENDBRANCH  18  21
ENDBRANCH   5  17
BRANCH   8  29
HETATM   29  C   UNL     1      -7.902   4.149 -30.328  1.00  0.00     0.130 C 
BRANCH  29  30
HETATM   30  C   UNL     1      -7.838   5.682 -30.453  1.00  0.00     0.046 C 
BRANCH  30  31
HETATM   31  C   UNL     1      -9.172   6.340 -30.109  1.00  0.00     0.168 C 
BRANCH  31  32
HETATM   32  O   UNL     1      -9.768   6.800 -31.326  1.00  0.00    -0.396 OA
HETATM   33  C   UNL     1      -8.833   7.505 -32.132  1.00  0.00     0.201 C 
ENDBRANCH  31  32
ENDBRANCH  30  31
ENDBRANCH  29  30
ENDBRANCH   8  29
BRANCH   1  34
HETATM   34  O   UNL     1      -5.238  -1.405 -31.758  1.00  0.00    -0.349 OA
BRANCH  34  35
HETATM   35  C   UNL     1      -3.814  -1.353 -31.947  1.00  0.00     0.171 C 
HETATM   36  C   UNL     1      -3.204  -0.162 -31.224  1.00  0.00     0.034 C 
ENDBRANCH  34  35
ENDBRANCH   1  34
TORSDOF 8
ENDMDL
MODEL 6
REMARK VINA RESULT:      -7.5      1.957      2.672
REMARK  8 active torsions:
REMARK  status: ('A' for Active; 'I' for Inactive)
REMARK    1  A    between atoms: C_2  and  O_3 
REMARK    2  A    between atoms: O_3  and  C_4 
REMARK    3  A    between atoms: C_8  and  C_9 
REMARK       I    between atoms: C_9  and  N_10 
REMARK    4  A    between atoms: N_10  and  C_11 
REMARK    5  A    between atoms: N_22  and  C_23 
REMARK    6  A    between atoms: C_23  and  C_24 
REMARK    7  A    between atoms: C_24  and  C_25 
REMARK    8  A    between atoms: C_25  and  O_26 
ROOT
HETATM    1  C   UNL     1      -6.190   6.415 -30.702  1.00  0.00     0.102 A 
HETATM    2  C   UNL     1      -7.184   5.465 -30.903  1.00  0.00     0.113 A 
HETATM    3  C   UNL     1      -7.698   4.738 -29.783  1.00  0.00     0.002 A 
HETATM    4  C   UNL     1      -8.620   3.598 -30.174  1.00  0.00     0.138 C 
HETATM    5  C   UNL     1      -7.772   2.926 -31.256  1.00  0.00     0.161 C 
HETATM    6  C   UNL     1      -8.115   3.787 -32.463  1.00  0.00     0.155 C 
HETATM    7  C   UNL     1      -7.229   3.491 -33.693  1.00  0.00     0.072 C 
HETATM    8  N   UNL     1      -9.625   3.666 -32.729  1.00  0.00    -0.325 N 
HETATM    9  C   UNL     1     -10.545   3.678 -31.650  1.00  0.00     0.172 C 
HETATM   10  S   UNL     1     -12.154   4.135 -31.648  1.00  0.00    -0.041 SA
HETATM   11  N   UNL     1     -10.012   3.338 -30.407  1.00  0.00    -0.357 N 
HETATM   12  O   UNL     1      -7.711   5.200 -32.172  1.00  0.00    -0.316 OA
HETATM   13  C   UNL     1      -7.291   5.028 -28.486  1.00  0.00     0.012 A 
HETATM   14  C   UNL     1      -6.356   6.047 -28.298  1.00  0.00     0.003 A 
HETATM   15  C   UNL     1      -5.808   6.731 -29.394  1.00  0.00     0.040 A 
HETATM   16  H   UNL     1     -10.659   3.441 -29.642  1.00  0.00     0.162 HD
ENDROOT
BRANCH   5  17
HETATM   17  C   UNL     1      -7.882   1.426 -31.521  1.00  0.00     0.233 C 
HETATM   18  N   UNL     1      -6.648   0.962 -31.984  1.00  0.00    -0.326 N 
HETATM   19  H   UNL     1      -5.877   1.608 -31.929  1.00  0.00     0.169 HD
HETATM   20  O   UNL     1      -8.916   0.779 -31.460  1.00  0.00    -0.273 OA
BRANCH  18  21
HETATM   21  C   UNL     1      -6.403  -0.160 -32.795  1.00  0.00     0.040 A 
HETATM   22  C   UNL     1      -5.222  -0.899 -32.566  1.00  0.00    -0.035 A 
HETATM   23  C   UNL     1      -4.154  -0.502 -31.576  1.00  0.00     0.050 C 
HETATM   24  C   UNL     1      -4.923  -1.980 -33.410  1.00  0.00     0.015 A 
HETATM   25  C   UNL     1      -5.785  -2.350 -34.445  1.00  0.00    -0.061 A 
HETATM   26  C   UNL     1      -5.442  -3.516 -35.323  1.00  0.00     0.048 C 
HETATM   27  C   UNL     1      -6.976  -1.641 -34.623  1.00  0.00     0.009 A 
HETATM   28  C   UNL     1      -7.276  -0.540 -33.815  1.00  0.00     0.030 A 
ENDBRANCH  18  21
ENDBRANCH   5  17
BRANCH   8  29
HETATM   29  C   UNL     1     -10.035   3.283 -34.110  1.00  0.00     0.130 C 
BRANCH  29  30
HETATM   30  C   UNL     1     -10.493   4.338 -35.133  1.00  0.00     0.046 C 
BRANCH  30  31
HETATM   31  C   UNL     1      -9.978   5.732 -34.787  1.00  0.00     0.168 C 
BRANCH  31  32
HETATM   32  O   UNL     1      -9.947   6.507 -35.989  1.00  0.00    -0.396 OA
HETATM   33  C   UNL     1     -10.978   7.486 -36.007  1.00  0.00     0.201 C 
ENDBRANCH  31  32
ENDBRANCH  30  31
ENDBRANCH  29  30
ENDBRANCH   8  29
BRANCH   1  34
HETATM   34  O   UNL     1      -5.527   7.025 -31.729  1.00  0.00    -0.349 OA
BRANCH  34  35
HETATM   35  C   UNL     1      -4.373   6.265 -32.125  1.00  0.00     0.171 C 
HETATM   36  C   UNL     1      -3.103   7.096 -32.024  1.00  0.00     0.034 C 
ENDBRANCH  34  35
ENDBRANCH   1  34
TORSDOF 8
ENDMDL
MODEL 7
REMARK VINA RESULT:      -7.5      2.383      5.796
REMARK  8 active torsions:
REMARK  status: ('A' for Active; 'I' for Inactive)
REMARK    1  A    between atoms: C_2  and  O_3 
REMARK    2  A    between atoms: O_3  and  C_4 
REMARK    3  A    between atoms: C_8  and  C_9 
REMARK       I    between atoms: C_9  and  N_10 
REMARK    4  A    between atoms: N_10  and  C_11 
REMARK    5  A    between atoms: N_22  and  C_23 
REMARK    6  A    between atoms: C_23  and  C_24 
REMARK    7  A    between atoms: C_24  and  C_25 
REMARK    8  A    between atoms: C_25  and  O_26 
ROOT
HETATM    1  C   UNL     1     -10.896   3.866 -31.907  1.00  0.00     0.102 A 
HETATM    2  C   UNL     1      -9.598   3.549 -32.289  1.00  0.00     0.113 A 
HETATM    3  C   UNL     1      -9.376   2.874 -33.531  1.00  0.00     0.002 A 
HETATM    4  C   UNL     1      -7.943   2.409 -33.718  1.00  0.00     0.138 C 
HETATM    5  C   UNL     1      -7.705   1.724 -32.371  1.00  0.00     0.161 C 
HETATM    6  C   UNL     1      -7.338   2.921 -31.505  1.00  0.00     0.155 C 
HETATM    7  C   UNL     1      -7.251   2.579 -30.001  1.00  0.00     0.072 C 
HETATM    8  N   UNL     1      -6.064   3.562 -32.081  1.00  0.00    -0.325 N 
HETATM    9  C   UNL     1      -5.911   3.713 -33.482  1.00  0.00     0.172 C 
HETATM   10  S   UNL     1      -4.987   4.827 -34.323  1.00  0.00    -0.041 SA
HETATM   11  N   UNL     1      -6.699   2.870 -34.264  1.00  0.00    -0.357 N 
HETATM   12  O   UNL     1      -8.492   3.878 -31.499  1.00  0.00    -0.316 OA
HETATM   13  C   UNL     1     -10.422   2.613 -34.408  1.00  0.00     0.012 A 
HETATM   14  C   UNL     1     -11.707   3.020 -34.045  1.00  0.00     0.003 A 
HETATM   15  C   UNL     1     -11.943   3.636 -32.805  1.00  0.00     0.040 A 
HETATM   16  H   UNL     1      -6.642   3.055 -35.253  1.00  0.00     0.162 HD
ENDROOT
BRANCH   5  17
HETATM   17  C   UNL     1      -6.732   0.555 -32.246  1.00  0.00     0.233 C 
HETATM   18  N   UNL     1      -6.519   0.011 -33.516  1.00  0.00    -0.326 N 
HETATM   19  H   UNL     1      -6.890   0.533 -34.293  1.00  0.00     0.169 HD
HETATM   20  O   UNL     1      -6.317   0.099 -31.190  1.00  0.00    -0.273 OA
BRANCH  18  21
HETATM   21  C   UNL     1      -6.136  -1.303 -33.833  1.00  0.00     0.040 A 
HETATM   22  C   UNL     1      -4.773  -1.648 -33.696  1.00  0.00    -0.035 A 
HETATM   23  C   UNL     1      -3.685  -0.669 -33.332  1.00  0.00     0.050 C 
HETATM   24  C   UNL     1      -4.358  -2.934 -34.075  1.00  0.00     0.015 A 
HETATM   25  C   UNL     1      -5.270  -3.879 -34.553  1.00  0.00    -0.061 A 
HETATM   26  C   UNL     1      -4.796  -5.247 -34.939  1.00  0.00     0.048 C 
HETATM   27  C   UNL     1      -6.623  -3.537 -34.630  1.00  0.00     0.009 A 
HETATM   28  C   UNL     1      -7.052  -2.251 -34.290  1.00  0.00     0.030 A 
ENDBRANCH  18  21
ENDBRANCH   5  17
BRANCH   8  29
HETATM   29  C   UNL     1      -4.929   3.765 -31.138  1.00  0.00     0.130 C 
BRANCH  29  30
HETATM   30  C   UNL     1      -3.485   3.406 -31.530  1.00  0.00     0.046 C 
BRANCH  30  31
HETATM   31  C   UNL     1      -2.512   4.544 -31.238  1.00  0.00     0.168 C 
BRANCH  31  32
HETATM   32  O   UNL     1      -1.362   4.373 -32.072  1.00  0.00    -0.396 OA
HETATM   33  C   UNL     1      -1.426   5.199 -33.227  1.00  0.00     0.201 C 
ENDBRANCH  31  32
ENDBRANCH  30  31
ENDBRANCH  29  30
ENDBRANCH   8  29
BRANCH   1  34
HETATM   34  O   UNL     1     -11.208   4.351 -30.669  1.00  0.00    -0.349 OA
BRANCH  34  35
HETATM   35  C   UNL     1     -11.794   5.660 -30.757  1.00  0.00     0.171 C 
HETATM   36  C   UNL     1     -10.734   6.747 -30.669  1.00  0.00     0.034 C 
ENDBRANCH  34  35
ENDBRANCH   1  34
TORSDOF 8
ENDMDL
MODEL 8
REMARK VINA RESULT:      -7.2      2.457      7.194
REMARK  8 active torsions:
REMARK  status: ('A' for Active; 'I' for Inactive)
REMARK    1  A    between atoms: C_2  and  O_3 
REMARK    2  A    between atoms: O_3  and  C_4 
REMARK    3  A    between atoms: C_8  and  C_9 
REMARK       I    between atoms: C_9  and  N_10 
REMARK    4  A    between atoms: N_10  and  C_11 
REMARK    5  A    between atoms: N_22  and  C_23 
REMARK    6  A    between atoms: C_23  and  C_24 
REMARK    7  A    between atoms: C_24  and  C_25 
REMARK    8  A    between atoms: C_25  and  O_26 
ROOT
HETATM    1  C   UNL     1      -4.423  -2.728 -34.178  1.00  0.00     0.102 A 
HETATM    2  C   UNL     1      -4.532  -1.490 -33.555  1.00  0.00     0.113 A 
HETATM    3  C   UNL     1      -4.028  -1.326 -32.226  1.00  0.00     0.002 A 
HETATM    4  C   UNL     1      -4.400   0.006 -31.599  1.00  0.00     0.138 C 
HETATM    5  C   UNL     1      -5.898   0.039 -31.908  1.00  0.00     0.161 C 
HETATM    6  C   UNL     1      -5.883   0.570 -33.335  1.00  0.00     0.155 C 
HETATM    7  C   UNL     1      -7.265   0.508 -34.020  1.00  0.00     0.072 C 
HETATM    8  N   UNL     1      -5.245   1.970 -33.323  1.00  0.00    -0.325 N 
HETATM    9  C   UNL     1      -4.098   2.226 -32.532  1.00  0.00     0.172 C 
HETATM   10  S   UNL     1      -2.909   3.383 -32.750  1.00  0.00    -0.041 SA
HETATM   11  N   UNL     1      -3.892   1.342 -31.473  1.00  0.00    -0.357 N 
HETATM   12  O   UNL     1      -5.113  -0.388 -34.192  1.00  0.00    -0.316 OA
HETATM   13  C   UNL     1      -3.349  -2.351 -31.580  1.00  0.00     0.012 A 
HETATM   14  C   UNL     1      -3.172  -3.558 -32.257  1.00  0.00     0.003 A 
HETATM   15  C   UNL     1      -3.708  -3.747 -33.542  1.00  0.00     0.040 A 
HETATM   16  H   UNL     1      -3.026   1.487 -30.980  1.00  0.00     0.162 HD
ENDROOT
BRANCH   5  17
HETATM   17  C   UNL     1      -6.872   0.775 -30.991  1.00  0.00     0.233 C 
HETATM   18  N   UNL     1      -8.053   1.020 -31.696  1.00  0.00    -0.326 N 
HETATM   19  H   UNL     1      -8.140   0.569 -32.593  1.00  0.00     0.169 HD
HETATM   20  O   UNL     1      -6.604   1.188 -29.872  1.00  0.00    -0.273 OA
BRANCH  18  21
HETATM   21  C   UNL     1      -8.989   2.044 -31.472  1.00  0.00     0.040 A 
HETATM   22  C   UNL     1     -10.139   2.083 -32.291  1.00  0.00    -0.035 A 
HETATM   23  C   UNL     1     -10.377   1.158 -33.459  1.00  0.00     0.050 C 
HETATM   24  C   UNL     1     -11.050   3.138 -32.132  1.00  0.00     0.015 A 
HETATM   25  C   UNL     1     -10.853   4.126 -31.163  1.00  0.00    -0.061 A 
HETATM   26  C   UNL     1     -11.851   5.234 -31.011  1.00  0.00     0.048 C 
HETATM   27  C   UNL     1      -9.738   4.041 -30.326  1.00  0.00     0.009 A 
HETATM   28  C   UNL     1      -8.800   3.018 -30.491  1.00  0.00     0.030 A 
ENDBRANCH  18  21
ENDBRANCH   5  17
BRANCH   8  29
HETATM   29  C   UNL     1      -6.026   3.068 -33.958  1.00  0.00     0.130 C 
BRANCH  29  30
HETATM   30  C   UNL     1      -6.616   4.220 -33.124  1.00  0.00     0.046 C 
BRANCH  30  31
HETATM   31  C   UNL     1      -5.932   5.551 -33.424  1.00  0.00     0.168 C 
BRANCH  31  32
HETATM   32  O   UNL     1      -5.386   6.056 -32.202  1.00  0.00    -0.396 OA
HETATM   33  C   UNL     1      -5.885   5.349 -31.075  1.00  0.00     0.201 C 
ENDBRANCH  31  32
ENDBRANCH  30  31
ENDBRANCH  29  30
ENDBRANCH   8  29
BRANCH   1  34
HETATM   34  O   UNL     1      -5.027  -3.015 -35.369  1.00  0.00    -0.349 OA
BRANCH  34  35
HETATM   35  C   UNL     1      -5.772  -4.241 -35.290  1.00  0.00     0.171 C 
HETATM   36  C   UNL     1      -7.108  -4.032 -34.593  1.00  0.00     0.034 C 
ENDBRANCH  34  35
ENDBRANCH   1  34
TORSDOF 8
ENDMDL
MODEL 9
REMARK VINA RESULT:      -7.2      2.281      5.792
REMARK  8 active torsions:
REMARK  status: ('A' for Active; 'I' for Inactive)
REMARK    1  A    between atoms: C_2  and  O_3 
REMARK    2  A    between atoms: O_3  and  C_4 
REMARK    3  A    between atoms: C_8  and  C_9 
REMARK       I    between atoms: C_9  and  N_10 
REMARK    4  A    between atoms: N_10  and  C_11 
REMARK    5  A    between atoms: N_22  and  C_23 
REMARK    6  A    between atoms: C_23  and  C_24 
REMARK    7  A    between atoms: C_24  and  C_25 
REMARK    8  A    between atoms: C_25  and  O_26 
ROOT
HETATM    1  C   UNL     1     -11.005   3.347 -32.038  1.00  0.00     0.102 A 
HETATM    2  C   UNL     1      -9.656   3.128 -32.294  1.00  0.00     0.113 A 
HETATM    3  C   UNL     1      -9.275   2.319 -33.411  1.00  0.00     0.002 A 
HETATM    4  C   UNL     1      -7.792   1.997 -33.446  1.00  0.00     0.138 C 
HETATM    5  C   UNL     1      -7.584   1.535 -32.002  1.00  0.00     0.161 C 
HETATM    6  C   UNL     1      -7.406   2.873 -31.298  1.00  0.00     0.155 C 
HETATM    7  C   UNL     1      -7.395   2.752 -29.758  1.00  0.00     0.072 C 
HETATM    8  N   UNL     1      -6.167   3.568 -31.886  1.00  0.00    -0.325 N 
HETATM    9  C   UNL     1      -5.928   3.542 -33.283  1.00  0.00     0.172 C 
HETATM   10  S   UNL     1      -5.066   4.627 -34.221  1.00  0.00    -0.041 SA
HETATM   11  N   UNL     1      -6.566   2.516 -33.980  1.00  0.00    -0.357 N 
HETATM   12  O   UNL     1      -8.650   3.685 -31.497  1.00  0.00    -0.316 OA
HETATM   13  C   UNL     1     -10.222   1.825 -34.299  1.00  0.00     0.012 A 
HETATM   14  C   UNL     1     -11.565   2.130 -34.074  1.00  0.00     0.003 A 
HETATM   15  C   UNL     1     -11.953   2.880 -32.952  1.00  0.00     0.040 A 
HETATM   16  H   UNL     1      -6.457   2.569 -34.979  1.00  0.00     0.162 HD
ENDROOT
BRANCH   5  17
HETATM   17  C   UNL     1      -6.506   0.511 -31.653  1.00  0.00     0.233 C 
HETATM   18  N   UNL     1      -5.864   0.119 -32.831  1.00  0.00    -0.326 N 
HETATM   19  H   UNL     1      -6.084   0.649 -33.659  1.00  0.00     0.169 HD
HETATM   20  O   UNL     1      -6.333   0.027 -30.545  1.00  0.00    -0.273 OA
BRANCH  18  21
HETATM   21  C   UNL     1      -5.199  -1.093 -33.082  1.00  0.00     0.040 A 
HETATM   22  C   UNL     1      -5.673  -1.904 -34.137  1.00  0.00    -0.035 A 
HETATM   23  C   UNL     1      -6.911  -1.602 -34.946  1.00  0.00     0.050 C 
HETATM   24  C   UNL     1      -5.069  -3.151 -34.359  1.00  0.00     0.015 A 
HETATM   25  C   UNL     1      -3.996  -3.586 -33.577  1.00  0.00    -0.061 A 
HETATM   26  C   UNL     1      -3.366  -4.919 -33.847  1.00  0.00     0.048 C 
HETATM   27  C   UNL     1      -3.505  -2.747 -32.573  1.00  0.00     0.009 A 
HETATM   28  C   UNL     1      -4.114  -1.516 -32.313  1.00  0.00     0.030 A 
ENDBRANCH  18  21
ENDBRANCH   5  17
BRANCH   8  29
HETATM   29  C   UNL     1      -5.131   4.025 -30.918  1.00  0.00     0.130 C 
BRANCH  29  30
HETATM   30  C   UNL     1      -5.043   5.496 -30.470  1.00  0.00     0.046 C 
BRANCH  30  31
HETATM   31  C   UNL     1      -6.315   6.272 -30.803  1.00  0.00     0.168 C 
BRANCH  31  32
HETATM   32  O   UNL     1      -5.993   7.247 -31.798  1.00  0.00    -0.396 OA
HETATM   33  C   UNL     1      -6.343   8.559 -31.377  1.00  0.00     0.201 C 
ENDBRANCH  31  32
ENDBRANCH  30  31
ENDBRANCH  29  30
ENDBRANCH   8  29
BRANCH   1  34
HETATM   34  O   UNL     1     -11.454   3.959 -30.902  1.00  0.00    -0.349 OA
BRANCH  34  35
HETATM   35  C   UNL     1     -12.278   5.094 -31.216  1.00  0.00     0.171 C 
HETATM   36  C   UNL     1     -13.550   5.102 -30.382  1.00  0.00     0.034 C 
ENDBRANCH  34  35
ENDBRANCH   1  34
TORSDOF 8
ENDMDL
MODEL 10
REMARK VINA RESULT:      -7.2      3.495      7.000
REMARK  8 active torsions:
REMARK  status: ('A' for Active; 'I' for Inactive)
REMARK    1  A    between atoms: C_2  and  O_3 
REMARK    2  A    between atoms: O_3  and  C_4 
REMARK    3  A    between atoms: C_8  and  C_9 
REMARK       I    between atoms: C_9  and  N_10 
REMARK    4  A    between atoms: N_10  and  C_11 
REMARK    5  A    between atoms: N_22  and  C_23 
REMARK    6  A    between atoms: C_23  and  C_24 
REMARK    7  A    between atoms: C_24  and  C_25 
REMARK    8  A    between atoms: C_25  and  O_26 
ROOT
HETATM    1  C   UNL     1     -14.340   2.092 -32.689  1.00  0.00     0.102 A 
HETATM    2  C   UNL     1     -13.126   2.684 -33.016  1.00  0.00     0.113 A 
HETATM    3  C   UNL     1     -12.333   2.127 -34.068  1.00  0.00     0.002 A 
HETATM    4  C   UNL     1     -10.950   2.743 -34.175  1.00  0.00     0.138 C 
HETATM    5  C   UNL     1     -10.513   2.677 -32.710  1.00  0.00     0.161 C 
HETATM    6  C   UNL     1     -11.171   3.935 -32.160  1.00  0.00     0.155 C 
HETATM    7  C   UNL     1     -11.096   4.036 -30.621  1.00  0.00     0.072 C 
HETATM    8  N   UNL     1     -10.588   5.150 -32.902  1.00  0.00    -0.325 N 
HETATM    9  C   UNL     1     -10.375   5.097 -34.303  1.00  0.00     0.172 C 
HETATM   10  S   UNL     1     -10.325   6.355 -35.404  1.00  0.00    -0.041 SA
HETATM   11  N   UNL     1     -10.272   3.816 -34.844  1.00  0.00    -0.357 N 
HETATM   12  O   UNL     1     -12.653   3.822 -32.352  1.00  0.00    -0.316 OA
HETATM   13  C   UNL     1     -12.795   1.062 -34.833  1.00  0.00     0.012 A 
HETATM   14  C   UNL     1     -14.056   0.539 -34.546  1.00  0.00     0.003 A 
HETATM   15  C   UNL     1     -14.820   1.045 -33.481  1.00  0.00     0.040 A 
HETATM   16  H   UNL     1     -10.212   3.800 -35.850  1.00  0.00     0.162 HD
ENDROOT
BRANCH   5  17
HETATM   17  C   UNL     1      -9.039   2.542 -32.336  1.00  0.00     0.233 C 
HETATM   18  N   UNL     1      -8.445   1.606 -33.187  1.00  0.00    -0.326 N 
HETATM   19  H   UNL     1      -9.001   1.296 -33.968  1.00  0.00     0.169 HD
HETATM   20  O   UNL     1      -8.511   3.072 -31.370  1.00  0.00    -0.273 OA
BRANCH  18  21
HETATM   21  C   UNL     1      -7.314   0.812 -32.932  1.00  0.00     0.040 A 
HETATM   22  C   UNL     1      -6.668   0.205 -34.031  1.00  0.00    -0.035 A 
HETATM   23  C   UNL     1      -7.176   0.268 -35.451  1.00  0.00     0.050 C 
HETATM   24  C   UNL     1      -5.581  -0.649 -33.792  1.00  0.00     0.015 A 
HETATM   25  C   UNL     1      -5.112  -0.880 -32.497  1.00  0.00    -0.061 A 
HETATM   26  C   UNL     1      -3.941  -1.789 -32.276  1.00  0.00     0.048 C 
HETATM   27  C   UNL     1      -5.729  -0.228 -31.426  1.00  0.00     0.009 A 
HETATM   28  C   UNL     1      -6.836   0.599 -31.639  1.00  0.00     0.030 A 
ENDBRANCH  18  21
ENDBRANCH   5  17
BRANCH   8  29
HETATM   29  C   UNL     1     -10.032   6.247 -32.061  1.00  0.00     0.130 C 
BRANCH  29  30
HETATM   30  C   UNL     1     -10.807   7.558 -31.838  1.00  0.00     0.046 C 
BRANCH  30  31
HETATM   31  C   UNL     1     -12.317   7.347 -31.892  1.00  0.00     0.168 C 
BRANCH  31  32
HETATM   32  O   UNL     1     -12.776   7.745 -33.187  1.00  0.00    -0.396 OA
HETATM   33  C   UNL     1     -13.850   6.929 -33.635  1.00  0.00     0.201 C 
ENDBRANCH  31  32
ENDBRANCH  30  31
ENDBRANCH  29  30
ENDBRANCH   8  29
BRANCH   1  34
HETATM   34  O   UNL     1     -15.070   2.454 -31.592  1.00  0.00    -0.349 OA
BRANCH  34  35
HETATM   35  C   UNL     1     -16.098   3.395 -31.942  1.00  0.00     0.171 C 
HETATM   36  C   UNL     1     -17.481   2.770 -31.834  1.00  0.00     0.034 C 
ENDBRANCH  34  35
ENDBRANCH   1  34
TORSDOF 8
ENDMDL
