MODEL 1
REMARK VINA RESULT:      -9.8      0.000      0.000
REMARK  8 active torsions:
REMARK  status: ('A' for Active; 'I' for Inactive)
REMARK    1  A    between atoms: C_6  and  N_7 
REMARK       I    between atoms: N_7  and  C_8 
REMARK    2  A    between atoms: C_8  and  C_9 
REMARK    3  A    between atoms: C_10  and  N_11 
REMARK       I    between atoms: N_11  and  C_12 
REMARK    4  A    between atoms: C_12  and  C_13 
REMARK    5  A    between atoms: C_13  and  N_14 
REMARK    6  A    between atoms: N_14  and  C_17 
REMARK    7  A    between atoms: C_17  and  C_18 
REMARK    8  A    between atoms: C_30  and  C_31 
ROOT
HETATM    1  C   UNL     1      -5.765   3.089 -32.437  1.00  0.00     0.073 A 
HETATM    2  C   UNL     1      -6.784   4.041 -32.401  1.00  0.00     0.093 A 
HETATM    3  S   UNL     1      -6.225   5.630 -32.293  1.00  0.00    -0.075 SA
HETATM    4  C   UNL     1      -4.614   5.113 -32.151  1.00  0.00    -0.008 A 
HETATM    5  C   UNL     1      -4.483   3.735 -32.213  1.00  0.00    -0.026 A 
HETATM    6  C   UNL     1      -3.130   3.108 -32.031  1.00  0.00     0.041 C 
HETATM    7  C   UNL     1      -2.132   4.054 -31.344  1.00  0.00     0.010 C 
HETATM    8  C   UNL     1      -2.106   5.450 -32.014  1.00  0.00    -0.002 C 
HETATM    9  C   UNL     1      -3.510   6.105 -31.904  1.00  0.00     0.052 C 
ENDROOT
BRANCH   2  10
HETATM   10  N   UNL     1      -8.142   3.751 -32.392  1.00  0.00    -0.319 N 
HETATM   11  C   UNL     1      -9.030   3.888 -31.355  1.00  0.00     0.248 C 
HETATM   12  O   UNL     1      -8.884   4.472 -30.284  1.00  0.00    -0.271 OA
HETATM   13  H   UNL     1      -8.473   3.418 -33.302  1.00  0.00     0.169 HD
BRANCH  11  14
HETATM   14  C   UNL     1     -10.391   3.256 -31.648  1.00  0.00     0.335 C 
BRANCH  14  15
HETATM   15  N   UNL     1     -10.230   1.913 -32.311  1.00  0.00    -0.063 N 
HETATM   16  H   UNL     1      -9.273   1.562 -32.192  1.00  0.00     0.278 HD
HETATM   17  H   UNL     1     -10.849   1.259 -31.803  1.00  0.00     0.278 HD
BRANCH  15  18
HETATM   18  C   UNL     1     -10.619   1.880 -33.750  1.00  0.00     0.272 C 
BRANCH  18  19
HETATM   19  C   UNL     1     -11.978   1.289 -33.933  1.00  0.00    -0.015 A 
HETATM   20  C   UNL     1     -12.984   1.993 -34.586  1.00  0.00     0.125 A 
HETATM   21  N   UNL     1     -14.240   1.531 -34.743  1.00  0.00    -0.273 NA
HETATM   22  C   UNL     1     -14.519   0.307 -34.248  1.00  0.00     0.116 A 
HETATM   23  C   UNL     1     -13.591  -0.476 -33.585  1.00  0.00     0.020 A 
HETATM   24  C   UNL     1     -12.303   0.026 -33.421  1.00  0.00     0.012 A 
ENDBRANCH  18  19
ENDBRANCH  15  18
ENDBRANCH  14  15
ENDBRANCH  11  14
ENDBRANCH   2  10
BRANCH   1  25
HETATM   25  C   UNL     1      -6.119   1.663 -32.640  1.00  0.00     0.259 C 
HETATM   26  N   UNL     1      -5.461   1.000 -33.654  1.00  0.00    -0.322 N 
HETATM   27  H   UNL     1      -4.606   1.408 -33.987  1.00  0.00     0.169 HD
HETATM   28  O   UNL     1      -6.977   1.154 -31.916  1.00  0.00    -0.267 OA
BRANCH  26  29
HETATM   29  C   UNL     1      -5.658  -0.351 -34.024  1.00  0.00     0.041 A 
HETATM   30  C   UNL     1      -6.782  -0.851 -34.704  1.00  0.00    -0.035 A 
HETATM   31  C   UNL     1      -6.878  -2.240 -34.927  1.00  0.00     0.015 A 
HETATM   32  C   UNL     1      -7.877   0.002 -35.284  1.00  0.00     0.050 C 
HETATM   33  C   UNL     1      -5.853  -3.116 -34.556  1.00  0.00    -0.061 A 
HETATM   34  C   UNL     1      -5.995  -4.594 -34.768  1.00  0.00     0.048 C 
HETATM   35  C   UNL     1      -4.712  -2.596 -33.946  1.00  0.00     0.009 A 
HETATM   36  C   UNL     1      -4.611  -1.226 -33.699  1.00  0.00     0.030 A 
ENDBRANCH  26  29
ENDBRANCH   1  25
BRANCH   8  37
HETATM   37  C   UNL     1      -0.943   6.375 -31.491  1.00  0.00    -0.047 C 
HETATM   38  C   UNL     1      -0.526   7.379 -32.589  1.00  0.00     0.015 C 
HETATM   39  C   UNL     1      -1.418   7.199 -30.275  1.00  0.00     0.015 C 
HETATM   40  C   UNL     1       0.309   5.579 -31.075  1.00  0.00     0.015 C 
ENDBRANCH   8  37
TORSDOF 8
ENDMDL
MODEL 2
REMARK VINA RESULT:      -9.8      0.672      1.340
REMARK  8 active torsions:
REMARK  status: ('A' for Active; 'I' for Inactive)
REMARK    1  A    between atoms: C_6  and  N_7 
REMARK       I    between atoms: N_7  and  C_8 
REMARK    2  A    between atoms: C_8  and  C_9 
REMARK    3  A    between atoms: C_10  and  N_11 
REMARK       I    between atoms: N_11  and  C_12 
REMARK    4  A    between atoms: C_12  and  C_13 
REMARK    5  A    between atoms: C_13  and  N_14 
REMARK    6  A    between atoms: N_14  and  C_17 
REMARK    7  A    between atoms: C_17  and  C_18 
REMARK    8  A    between atoms: C_30  and  C_31 
ROOT
HETATM    1  C   UNL     1      -5.632   3.095 -32.277  1.00  0.00     0.073 A 
HETATM    2  C   UNL     1      -6.755   3.914 -32.394  1.00  0.00     0.093 A 
HETATM    3  S   UNL     1      -6.393   5.563 -32.409  1.00  0.00    -0.075 SA
HETATM    4  C   UNL     1      -4.747   5.261 -32.123  1.00  0.00    -0.008 A 
HETATM    5  C   UNL     1      -4.452   3.910 -32.042  1.00  0.00    -0.026 A 
HETATM    6  C   UNL     1      -3.052   3.472 -31.721  1.00  0.00     0.041 C 
HETATM    7  C   UNL     1      -2.221   4.591 -31.072  1.00  0.00     0.010 C 
HETATM    8  C   UNL     1      -2.310   5.914 -31.873  1.00  0.00    -0.002 C 
HETATM    9  C   UNL     1      -3.786   6.399 -31.910  1.00  0.00     0.052 C 
ENDROOT
BRANCH   2  10
HETATM   10  N   UNL     1      -8.067   3.463 -32.437  1.00  0.00    -0.319 N 
HETATM   11  C   UNL     1      -8.906   3.197 -31.383  1.00  0.00     0.248 C 
HETATM   12  O   UNL     1      -8.768   3.480 -30.196  1.00  0.00    -0.271 OA
HETATM   13  H   UNL     1      -8.407   3.351 -33.396  1.00  0.00     0.169 HD
BRANCH  11  14
HETATM   14  C   UNL     1     -10.198   2.501 -31.811  1.00  0.00     0.335 C 
BRANCH  14  15
HETATM   15  N   UNL     1      -9.925   1.092 -32.270  1.00  0.00    -0.063 N 
HETATM   16  H   UNL     1      -8.962   0.818 -32.044  1.00  0.00     0.278 HD
HETATM   17  H   UNL     1     -10.543   0.478 -31.714  1.00  0.00     0.278 HD
BRANCH  15  18
HETATM   18  C   UNL     1     -10.212   0.841 -33.711  1.00  0.00     0.272 C 
BRANCH  18  19
HETATM   19  C   UNL     1     -11.681   0.836 -33.981  1.00  0.00    -0.015 A 
HETATM   20  C   UNL     1     -12.263   1.801 -34.796  1.00  0.00     0.125 A 
HETATM   21  N   UNL     1     -13.586   1.874 -35.041  1.00  0.00    -0.273 NA
HETATM   22  C   UNL     1     -14.378   0.942 -34.468  1.00  0.00     0.116 A 
HETATM   23  C   UNL     1     -13.899  -0.060 -33.644  1.00  0.00     0.020 A 
HETATM   24  C   UNL     1     -12.531  -0.110 -33.392  1.00  0.00     0.012 A 
ENDBRANCH  18  19
ENDBRANCH  15  18
ENDBRANCH  14  15
ENDBRANCH  11  14
ENDBRANCH   2  10
BRANCH   1  25
HETATM   25  C   UNL     1      -5.803   1.624 -32.360  1.00  0.00     0.259 C 
HETATM   26  N   UNL     1      -5.518   1.034 -33.574  1.00  0.00    -0.322 N 
HETATM   27  H   UNL     1      -4.951   1.560 -34.215  1.00  0.00     0.169 HD
HETATM   28  O   UNL     1      -6.196   1.013 -31.364  1.00  0.00    -0.267 OA
BRANCH  26  29
HETATM   29  C   UNL     1      -5.628  -0.344 -33.871  1.00  0.00     0.041 A 
HETATM   30  C   UNL     1      -4.647  -1.314 -33.599  1.00  0.00    -0.035 A 
HETATM   31  C   UNL     1      -4.864  -2.638 -34.035  1.00  0.00     0.015 A 
HETATM   32  C   UNL     1      -3.394  -1.061 -32.808  1.00  0.00     0.050 C 
HETATM   33  C   UNL     1      -6.057  -3.020 -34.659  1.00  0.00    -0.061 A 
HETATM   34  C   UNL     1      -6.247  -4.425 -35.148  1.00  0.00     0.048 C 
HETATM   35  C   UNL     1      -7.049  -2.062 -34.856  1.00  0.00     0.009 A 
HETATM   36  C   UNL     1      -6.842  -0.742 -34.451  1.00  0.00     0.030 A 
ENDBRANCH  26  29
ENDBRANCH   1  25
BRANCH   8  37
HETATM   37  C   UNL     1      -1.302   7.017 -31.375  1.00  0.00    -0.047 C 
HETATM   38  C   UNL     1      -1.599   8.363 -32.073  1.00  0.00     0.015 C 
HETATM   39  C   UNL     1      -1.463   7.246 -29.857  1.00  0.00     0.015 C 
HETATM   40  C   UNL     1       0.168   6.651 -31.656  1.00  0.00     0.015 C 
ENDBRANCH   8  37
TORSDOF 8
ENDMDL
MODEL 3
REMARK VINA RESULT:      -9.0      1.537      2.375
REMARK  8 active torsions:
REMARK  status: ('A' for Active; 'I' for Inactive)
REMARK    1  A    between atoms: C_6  and  N_7 
REMARK       I    between atoms: N_7  and  C_8 
REMARK    2  A    between atoms: C_8  and  C_9 
REMARK    3  A    between atoms: C_10  and  N_11 
REMARK       I    between atoms: N_11  and  C_12 
REMARK    4  A    between atoms: C_12  and  C_13 
REMARK    5  A    between atoms: C_13  and  N_14 
REMARK    6  A    between atoms: N_14  and  C_17 
REMARK    7  A    between atoms: C_17  and  C_18 
REMARK    8  A    between atoms: C_30  and  C_31 
ROOT
HETATM    1  C   UNL     1      -5.861   2.950 -32.260  1.00  0.00     0.073 A 
HETATM    2  C   UNL     1      -7.009   3.736 -32.154  1.00  0.00     0.093 A 
HETATM    3  S   UNL     1      -6.700   5.395 -32.172  1.00  0.00    -0.075 SA
HETATM    4  C   UNL     1      -5.022   5.139 -32.181  1.00  0.00    -0.008 A 
HETATM    5  C   UNL     1      -4.681   3.796 -32.201  1.00  0.00    -0.026 A 
HETATM    6  C   UNL     1      -3.235   3.394 -32.139  1.00  0.00     0.041 C 
HETATM    7  C   UNL     1      -2.336   4.519 -31.602  1.00  0.00     0.010 C 
HETATM    8  C   UNL     1      -2.597   5.863 -32.328  1.00  0.00    -0.002 C 
HETATM    9  C   UNL     1      -4.069   6.300 -32.096  1.00  0.00     0.052 C 
ENDROOT
BRANCH   2  10
HETATM   10  N   UNL     1      -8.296   3.243 -31.988  1.00  0.00    -0.319 N 
HETATM   11  C   UNL     1      -9.186   2.855 -32.959  1.00  0.00     0.248 C 
HETATM   12  O   UNL     1      -8.988   2.665 -34.156  1.00  0.00    -0.271 OA
HETATM   13  H   UNL     1      -8.556   3.161 -31.002  1.00  0.00     0.169 HD
BRANCH  11  14
HETATM   14  C   UNL     1     -10.586   2.584 -32.410  1.00  0.00     0.335 C 
BRANCH  14  15
HETATM   15  N   UNL     1     -11.283   1.517 -33.214  1.00  0.00    -0.063 N 
HETATM   16  H   UNL     1     -10.759   1.309 -34.072  1.00  0.00     0.278 HD
HETATM   17  H   UNL     1     -11.261   0.656 -32.641  1.00  0.00     0.278 HD
BRANCH  15  18
HETATM   18  C   UNL     1     -12.709   1.812 -33.535  1.00  0.00     0.272 C 
BRANCH  18  19
HETATM   19  C   UNL     1     -12.886   3.226 -33.983  1.00  0.00    -0.015 A 
HETATM   20  C   UNL     1     -13.484   4.170 -33.155  1.00  0.00     0.125 A 
HETATM   21  N   UNL     1     -13.710   5.447 -33.519  1.00  0.00    -0.273 NA
HETATM   22  C   UNL     1     -13.314   5.822 -34.754  1.00  0.00     0.116 A 
HETATM   23  C   UNL     1     -12.708   4.962 -35.652  1.00  0.00     0.020 A 
HETATM   24  C   UNL     1     -12.496   3.643 -35.262  1.00  0.00     0.012 A 
ENDBRANCH  18  19
ENDBRANCH  15  18
ENDBRANCH  14  15
ENDBRANCH  11  14
ENDBRANCH   2  10
BRANCH   1  25
HETATM   25  C   UNL     1      -6.005   1.478 -32.365  1.00  0.00     0.259 C 
HETATM   26  N   UNL     1      -5.634   0.903 -33.562  1.00  0.00    -0.322 N 
HETATM   27  H   UNL     1      -5.036   1.443 -34.163  1.00  0.00     0.169 HD
HETATM   28  O   UNL     1      -6.451   0.853 -31.400  1.00  0.00    -0.267 OA
BRANCH  26  29
HETATM   29  C   UNL     1      -5.705  -0.474 -33.877  1.00  0.00     0.041 A 
HETATM   30  C   UNL     1      -4.686  -1.413 -33.641  1.00  0.00    -0.035 A 
HETATM   31  C   UNL     1      -4.868  -2.738 -34.090  1.00  0.00     0.015 A 
HETATM   32  C   UNL     1      -3.424  -1.129 -32.874  1.00  0.00     0.050 C 
HETATM   33  C   UNL     1      -6.061  -3.152 -34.693  1.00  0.00    -0.061 A 
HETATM   34  C   UNL     1      -6.215  -4.556 -35.198  1.00  0.00     0.048 C 
HETATM   35  C   UNL     1      -7.089  -2.226 -34.855  1.00  0.00     0.009 A 
HETATM   36  C   UNL     1      -6.917  -0.905 -34.435  1.00  0.00     0.030 A 
ENDBRANCH  26  29
ENDBRANCH   1  25
BRANCH   8  37
HETATM   37  C   UNL     1      -1.548   6.982 -31.971  1.00  0.00    -0.047 C 
HETATM   38  C   UNL     1      -0.596   7.220 -33.165  1.00  0.00     0.015 C 
HETATM   39  C   UNL     1      -2.266   8.319 -31.686  1.00  0.00     0.015 C 
HETATM   40  C   UNL     1      -0.689   6.623 -30.743  1.00  0.00     0.015 C 
ENDBRANCH   8  37
TORSDOF 8
ENDMDL
MODEL 4
REMARK VINA RESULT:      -9.0      1.650      2.021
REMARK  8 active torsions:
REMARK  status: ('A' for Active; 'I' for Inactive)
REMARK    1  A    between atoms: C_6  and  N_7 
REMARK       I    between atoms: N_7  and  C_8 
REMARK    2  A    between atoms: C_8  and  C_9 
REMARK    3  A    between atoms: C_10  and  N_11 
REMARK       I    between atoms: N_11  and  C_12 
REMARK    4  A    between atoms: C_12  and  C_13 
REMARK    5  A    between atoms: C_13  and  N_14 
REMARK    6  A    between atoms: N_14  and  C_17 
REMARK    7  A    between atoms: C_17  and  C_18 
REMARK    8  A    between atoms: C_30  and  C_31 
ROOT
HETATM    1  C   UNL     1      -5.766   2.662 -32.191  1.00  0.00     0.073 A 
HETATM    2  C   UNL     1      -6.947   3.400 -32.111  1.00  0.00     0.093 A 
HETATM    3  S   UNL     1      -6.702   5.070 -32.070  1.00  0.00    -0.075 SA
HETATM    4  C   UNL     1      -5.016   4.878 -32.016  1.00  0.00    -0.008 A 
HETATM    5  C   UNL     1      -4.623   3.551 -32.058  1.00  0.00    -0.026 A 
HETATM    6  C   UNL     1      -3.166   3.202 -31.947  1.00  0.00     0.041 C 
HETATM    7  C   UNL     1      -2.334   4.344 -31.341  1.00  0.00     0.010 C 
HETATM    8  C   UNL     1      -2.617   5.698 -32.039  1.00  0.00    -0.002 C 
HETATM    9  C   UNL     1      -4.114   6.072 -31.857  1.00  0.00     0.052 C 
ENDROOT
BRANCH   2  10
HETATM   10  N   UNL     1      -8.219   2.855 -32.014  1.00  0.00    -0.319 N 
HETATM   11  C   UNL     1      -9.099   2.573 -33.029  1.00  0.00     0.248 C 
HETATM   12  O   UNL     1      -8.899   2.548 -34.240  1.00  0.00    -0.271 OA
HETATM   13  H   UNL     1      -8.474   2.636 -31.048  1.00  0.00     0.169 HD
BRANCH  11  14
HETATM   14  C   UNL     1     -10.491   2.193 -32.523  1.00  0.00     0.335 C 
BRANCH  14  15
HETATM   15  N   UNL     1     -11.203   3.390 -31.951  1.00  0.00    -0.063 N 
HETATM   16  H   UNL     1     -11.646   3.154 -31.055  1.00  0.00     0.278 HD
HETATM   17  H   UNL     1     -10.474   4.093 -31.742  1.00  0.00     0.278 HD
BRANCH  15  18
HETATM   18  C   UNL     1     -12.193   4.023 -32.869  1.00  0.00     0.272 C 
BRANCH  18  19
HETATM   19  C   UNL     1     -13.578   3.536 -32.596  1.00  0.00    -0.015 A 
HETATM   20  C   UNL     1     -13.952   2.231 -32.901  1.00  0.00     0.125 A 
HETATM   21  N   UNL     1     -15.196   1.748 -32.719  1.00  0.00    -0.273 NA
HETATM   22  C   UNL     1     -16.118   2.584 -32.195  1.00  0.00     0.116 A 
HETATM   23  C   UNL     1     -15.849   3.897 -31.856  1.00  0.00     0.020 A 
HETATM   24  C   UNL     1     -14.560   4.381 -32.065  1.00  0.00     0.012 A 
ENDBRANCH  18  19
ENDBRANCH  15  18
ENDBRANCH  14  15
ENDBRANCH  11  14
ENDBRANCH   2  10
BRANCH   1  25
HETATM   25  C   UNL     1      -5.847   1.189 -32.343  1.00  0.00     0.259 C 
HETATM   26  N   UNL     1      -5.405   0.665 -33.540  1.00  0.00    -0.322 N 
HETATM   27  H   UNL     1      -4.805   1.245 -34.099  1.00  0.00     0.169 HD
HETATM   28  O   UNL     1      -6.307   0.519 -31.416  1.00  0.00    -0.267 OA
BRANCH  26  29
HETATM   29  C   UNL     1      -5.409  -0.704 -33.895  1.00  0.00     0.041 A 
HETATM   30  C   UNL     1      -6.459  -1.370 -34.551  1.00  0.00    -0.035 A 
HETATM   31  C   UNL     1      -6.354  -2.761 -34.760  1.00  0.00     0.015 A 
HETATM   32  C   UNL     1      -7.677  -0.693 -35.116  1.00  0.00     0.050 C 
HETATM   33  C   UNL     1      -5.205  -3.473 -34.402  1.00  0.00    -0.061 A 
HETATM   34  C   UNL     1      -5.133  -4.958 -34.600  1.00  0.00     0.048 C 
HETATM   35  C   UNL     1      -4.142  -2.785 -33.818  1.00  0.00     0.009 A 
HETATM   36  C   UNL     1      -4.239  -1.412 -33.583  1.00  0.00     0.030 A 
ENDBRANCH  26  29
ENDBRANCH   1  25
BRANCH   8  37
HETATM   37  C   UNL     1      -1.629   6.845 -31.607  1.00  0.00    -0.047 C 
HETATM   38  C   UNL     1      -0.171   6.334 -31.645  1.00  0.00     0.015 C 
HETATM   39  C   UNL     1      -1.722   8.032 -32.589  1.00  0.00     0.015 C 
HETATM   40  C   UNL     1      -1.910   7.369 -30.186  1.00  0.00     0.015 C 
ENDBRANCH   8  37
TORSDOF 8
ENDMDL
MODEL 5
REMARK VINA RESULT:      -8.8      2.738      8.277
REMARK  8 active torsions:
REMARK  status: ('A' for Active; 'I' for Inactive)
REMARK    1  A    between atoms: C_6  and  N_7 
REMARK       I    between atoms: N_7  and  C_8 
REMARK    2  A    between atoms: C_8  and  C_9 
REMARK    3  A    between atoms: C_10  and  N_11 
REMARK       I    between atoms: N_11  and  C_12 
REMARK    4  A    between atoms: C_12  and  C_13 
REMARK    5  A    between atoms: C_13  and  N_14 
REMARK    6  A    between atoms: N_14  and  C_17 
REMARK    7  A    between atoms: C_17  and  C_18 
REMARK    8  A    between atoms: C_30  and  C_31 
ROOT
HETATM    1  C   UNL     1      -6.497   2.889 -32.767  1.00  0.00     0.073 A 
HETATM    2  C   UNL     1      -6.337   1.557 -33.149  1.00  0.00     0.093 A 
HETATM    3  S   UNL     1      -7.618   0.955 -34.068  1.00  0.00    -0.075 SA
HETATM    4  C   UNL     1      -8.502   2.392 -33.880  1.00  0.00    -0.008 A 
HETATM    5  C   UNL     1      -7.823   3.350 -33.146  1.00  0.00    -0.026 A 
HETATM    6  C   UNL     1      -8.493   4.656 -32.825  1.00  0.00     0.041 C 
HETATM    7  C   UNL     1     -10.022   4.581 -32.968  1.00  0.00     0.010 C 
HETATM    8  C   UNL     1     -10.445   3.959 -34.322  1.00  0.00    -0.002 C 
HETATM    9  C   UNL     1      -9.903   2.506 -34.417  1.00  0.00     0.052 C 
ENDROOT
BRANCH   2  10
HETATM   10  N   UNL     1      -5.270   0.748 -32.782  1.00  0.00    -0.319 N 
HETATM   11  C   UNL     1      -5.178  -0.093 -31.701  1.00  0.00     0.248 C 
HETATM   12  O   UNL     1      -6.064  -0.473 -30.941  1.00  0.00    -0.271 OA
HETATM   13  H   UNL     1      -4.492   0.810 -33.444  1.00  0.00     0.169 HD
BRANCH  11  14
HETATM   14  C   UNL     1      -3.768  -0.647 -31.496  1.00  0.00     0.335 C 
BRANCH  14  15
HETATM   15  N   UNL     1      -3.687  -2.089 -31.925  1.00  0.00    -0.063 N 
HETATM   16  H   UNL     1      -2.967  -2.587 -31.389  1.00  0.00     0.278 HD
HETATM   17  H   UNL     1      -4.592  -2.521 -31.673  1.00  0.00     0.278 HD
BRANCH  15  18
HETATM   18  C   UNL     1      -3.479  -2.292 -33.387  1.00  0.00     0.272 C 
BRANCH  18  19
HETATM   19  C   UNL     1      -4.589  -3.089 -33.990  1.00  0.00    -0.015 A 
HETATM   20  C   UNL     1      -4.449  -4.454 -34.218  1.00  0.00     0.125 A 
HETATM   21  N   UNL     1      -5.396  -5.216 -34.798  1.00  0.00    -0.273 NA
HETATM   22  C   UNL     1      -6.547  -4.611 -35.159  1.00  0.00     0.116 A 
HETATM   23  C   UNL     1      -6.788  -3.262 -34.975  1.00  0.00     0.020 A 
HETATM   24  C   UNL     1      -5.791  -2.489 -34.386  1.00  0.00     0.012 A 
ENDBRANCH  18  19
ENDBRANCH  15  18
ENDBRANCH  14  15
ENDBRANCH  11  14
ENDBRANCH   2  10
BRANCH   1  25
HETATM   25  C   UNL     1      -5.393   3.569 -32.049  1.00  0.00     0.259 C 
HETATM   26  N   UNL     1      -4.533   4.330 -32.812  1.00  0.00    -0.322 N 
HETATM   27  H   UNL     1      -4.857   4.613 -33.720  1.00  0.00     0.169 HD
HETATM   28  O   UNL     1      -5.292   3.415 -30.829  1.00  0.00    -0.267 OA
BRANCH  26  29
HETATM   29  C   UNL     1      -3.412   5.045 -32.331  1.00  0.00     0.041 A 
HETATM   30  C   UNL     1      -3.440   6.360 -31.836  1.00  0.00    -0.035 A 
HETATM   31  C   UNL     1      -2.222   6.974 -31.473  1.00  0.00     0.015 A 
HETATM   32  C   UNL     1      -4.694   7.155 -31.594  1.00  0.00     0.050 C 
HETATM   33  C   UNL     1      -1.008   6.283 -31.523  1.00  0.00    -0.061 A 
HETATM   34  C   UNL     1       0.278   6.971 -31.169  1.00  0.00     0.048 C 
HETATM   35  C   UNL     1      -1.006   4.956 -31.949  1.00  0.00     0.009 A 
HETATM   36  C   UNL     1      -2.199   4.340 -32.332  1.00  0.00     0.030 A 
ENDBRANCH  26  29
ENDBRANCH   1  25
BRANCH   8  37
HETATM   37  C   UNL     1     -11.991   4.069 -34.606  1.00  0.00    -0.047 C 
HETATM   38  C   UNL     1     -12.793   3.535 -33.398  1.00  0.00     0.015 C 
HETATM   39  C   UNL     1     -12.396   5.545 -34.807  1.00  0.00     0.015 C 
HETATM   40  C   UNL     1     -12.425   3.274 -35.853  1.00  0.00     0.015 C 
ENDBRANCH   8  37
TORSDOF 8
ENDMDL
MODEL 6
REMARK VINA RESULT:      -8.7      2.710      8.516
REMARK  8 active torsions:
REMARK  status: ('A' for Active; 'I' for Inactive)
REMARK    1  A    between atoms: C_6  and  N_7 
REMARK       I    between atoms: N_7  and  C_8 
REMARK    2  A    between atoms: C_8  and  C_9 
REMARK    3  A    between atoms: C_10  and  N_11 
REMARK       I    between atoms: N_11  and  C_12 
REMARK    4  A    between atoms: C_12  and  C_13 
REMARK    5  A    between atoms: C_13  and  N_14 
REMARK    6  A    between atoms: N_14  and  C_17 
REMARK    7  A    between atoms: C_17  and  C_18 
REMARK    8  A    between atoms: C_30  and  C_31 
ROOT
HETATM    1  C   UNL     1      -7.102   2.822 -33.190  1.00  0.00     0.073 A 
HETATM    2  C   UNL     1      -6.155   3.833 -33.023  1.00  0.00     0.093 A 
HETATM    3  S   UNL     1      -6.792   5.389 -33.170  1.00  0.00    -0.075 SA
HETATM    4  C   UNL     1      -8.319   4.785 -33.599  1.00  0.00    -0.008 A 
HETATM    5  C   UNL     1      -8.369   3.401 -33.606  1.00  0.00    -0.026 A 
HETATM    6  C   UNL     1      -9.628   2.703 -34.033  1.00  0.00     0.041 C 
HETATM    7  C   UNL     1     -10.558   3.617 -34.847  1.00  0.00     0.010 C 
HETATM    8  C   UNL     1     -10.787   4.980 -34.145  1.00  0.00    -0.002 C 
HETATM    9  C   UNL     1      -9.429   5.720 -33.994  1.00  0.00     0.052 C 
ENDROOT
BRANCH   2  10
HETATM   10  N   UNL     1      -4.799   3.625 -32.812  1.00  0.00    -0.319 N 
HETATM   11  C   UNL     1      -4.032   4.046 -31.754  1.00  0.00     0.248 C 
HETATM   12  O   UNL     1      -4.392   4.517 -30.679  1.00  0.00    -0.271 OA
HETATM   13  H   UNL     1      -4.373   3.066 -33.556  1.00  0.00     0.169 HD
BRANCH  11  14
HETATM   14  C   UNL     1      -2.536   3.826 -31.978  1.00  0.00     0.335 C 
BRANCH  14  15
HETATM   15  N   UNL     1      -1.833   5.132 -32.243  1.00  0.00    -0.063 N 
HETATM   16  H   UNL     1      -1.721   5.285 -33.252  1.00  0.00     0.278 HD
HETATM   17  H   UNL     1      -2.461   5.878 -31.901  1.00  0.00     0.278 HD
BRANCH  15  18
HETATM   18  C   UNL     1      -0.523   5.285 -31.547  1.00  0.00     0.272 C 
BRANCH  18  19
HETATM   19  C   UNL     1      -0.588   6.340 -30.492  1.00  0.00    -0.015 A 
HETATM   20  C   UNL     1      -1.794   6.947 -30.158  1.00  0.00     0.125 A 
HETATM   21  N   UNL     1      -1.908   7.934 -29.248  1.00  0.00    -0.273 NA
HETATM   22  C   UNL     1      -0.782   8.336 -28.621  1.00  0.00     0.116 A 
HETATM   23  C   UNL     1       0.465   7.796 -28.877  1.00  0.00     0.020 A 
HETATM   24  C   UNL     1       0.564   6.787 -29.831  1.00  0.00     0.012 A 
ENDBRANCH  18  19
ENDBRANCH  15  18
ENDBRANCH  14  15
ENDBRANCH  11  14
ENDBRANCH   2  10
BRANCH   1  25
HETATM   25  C   UNL     1      -6.693   1.412 -32.978  1.00  0.00     0.259 C 
HETATM   26  N   UNL     1      -6.363   0.687 -34.103  1.00  0.00    -0.322 N 
HETATM   27  H   UNL     1      -6.137   1.208 -34.932  1.00  0.00     0.169 HD
HETATM   28  O   UNL     1      -6.681   0.962 -31.830  1.00  0.00    -0.267 OA
BRANCH  26  29
HETATM   29  C   UNL     1      -5.964  -0.669 -34.126  1.00  0.00     0.041 A 
HETATM   30  C   UNL     1      -4.705  -1.152 -33.727  1.00  0.00    -0.035 A 
HETATM   31  C   UNL     1      -4.423  -2.525 -33.891  1.00  0.00     0.015 A 
HETATM   32  C   UNL     1      -3.643  -0.319 -33.066  1.00  0.00     0.050 C 
HETATM   33  C   UNL     1      -5.385  -3.421 -34.366  1.00  0.00    -0.061 A 
HETATM   34  C   UNL     1      -5.047  -4.869 -34.568  1.00  0.00     0.048 C 
HETATM   35  C   UNL     1      -6.652  -2.939 -34.690  1.00  0.00     0.009 A 
HETATM   36  C   UNL     1      -6.942  -1.580 -34.554  1.00  0.00     0.030 A 
ENDBRANCH  26  29
ENDBRANCH   1  25
BRANCH   8  37
HETATM   37  C   UNL     1     -11.905   5.856 -34.825  1.00  0.00    -0.047 C 
HETATM   38  C   UNL     1     -12.803   4.971 -35.720  1.00  0.00     0.015 C 
HETATM   39  C   UNL     1     -12.815   6.493 -33.753  1.00  0.00     0.015 C 
HETATM   40  C   UNL     1     -11.327   6.983 -35.701  1.00  0.00     0.015 C 
ENDBRANCH   8  37
TORSDOF 8
ENDMDL
MODEL 7
REMARK VINA RESULT:      -8.7      1.951      3.367
REMARK  8 active torsions:
REMARK  status: ('A' for Active; 'I' for Inactive)
REMARK    1  A    between atoms: C_6  and  N_7 
REMARK       I    between atoms: N_7  and  C_8 
REMARK    2  A    between atoms: C_8  and  C_9 
REMARK    3  A    between atoms: C_10  and  N_11 
REMARK       I    between atoms: N_11  and  C_12 
REMARK    4  A    between atoms: C_12  and  C_13 
REMARK    5  A    between atoms: C_13  and  N_14 
REMARK    6  A    between atoms: N_14  and  C_17 
REMARK    7  A    between atoms: C_17  and  C_18 
REMARK    8  A    between atoms: C_30  and  C_31 
ROOT
HETATM    1  C   UNL     1      -5.743   2.813 -32.246  1.00  0.00     0.073 A 
HETATM    2  C   UNL     1      -6.835   3.669 -32.110  1.00  0.00     0.093 A 
HETATM    3  S   UNL     1      -6.411   5.300 -32.011  1.00  0.00    -0.075 SA
HETATM    4  C   UNL     1      -4.755   4.926 -32.005  1.00  0.00    -0.008 A 
HETATM    5  C   UNL     1      -4.508   3.567 -32.108  1.00  0.00    -0.026 A 
HETATM    6  C   UNL     1      -3.096   3.061 -32.045  1.00  0.00     0.041 C 
HETATM    7  C   UNL     1      -2.133   4.081 -31.416  1.00  0.00     0.010 C 
HETATM    8  C   UNL     1      -2.283   5.485 -32.055  1.00  0.00    -0.002 C 
HETATM    9  C   UNL     1      -3.726   6.009 -31.823  1.00  0.00     0.052 C 
ENDROOT
BRANCH   2  10
HETATM   10  N   UNL     1      -8.157   3.259 -32.003  1.00  0.00    -0.319 N 
HETATM   11  C   UNL     1      -9.053   3.018 -33.015  1.00  0.00     0.248 C 
HETATM   12  O   UNL     1      -8.847   2.913 -34.220  1.00  0.00    -0.271 OA
HETATM   13  H   UNL     1      -8.441   3.115 -31.030  1.00  0.00     0.169 HD
BRANCH  11  14
HETATM   14  C   UNL     1     -10.480   2.804 -32.509  1.00  0.00     0.335 C 
BRANCH  14  15
HETATM   15  N   UNL     1     -10.576   3.084 -31.032  1.00  0.00    -0.063 N 
HETATM   16  H   UNL     1     -10.837   2.235 -30.518  1.00  0.00     0.278 HD
HETATM   17  H   UNL     1      -9.624   3.337 -30.718  1.00  0.00     0.278 HD
BRANCH  15  18
HETATM   18  C   UNL     1     -11.486   4.209 -30.671  1.00  0.00     0.272 C 
BRANCH  18  19
HETATM   19  C   UNL     1     -10.828   5.533 -30.885  1.00  0.00    -0.015 A 
HETATM   20  C   UNL     1     -11.240   6.380 -31.908  1.00  0.00     0.125 A 
HETATM   21  N   UNL     1     -10.658   7.564 -32.178  1.00  0.00    -0.273 NA
HETATM   22  C   UNL     1      -9.627   7.945 -31.394  1.00  0.00     0.116 A 
HETATM   23  C   UNL     1      -9.142   7.178 -30.350  1.00  0.00     0.020 A 
HETATM   24  C   UNL     1      -9.749   5.951 -30.096  1.00  0.00     0.012 A 
ENDBRANCH  18  19
ENDBRANCH  15  18
ENDBRANCH  14  15
ENDBRANCH  11  14
ENDBRANCH   2  10
BRANCH   1  25
HETATM   25  C   UNL     1      -5.985   1.364 -32.453  1.00  0.00     0.259 C 
HETATM   26  N   UNL     1      -5.479   0.810 -33.609  1.00  0.00    -0.322 N 
HETATM   27  H   UNL     1      -4.753   1.320 -34.080  1.00  0.00     0.169 HD
HETATM   28  O   UNL     1      -6.626   0.741 -31.603  1.00  0.00    -0.267 OA
BRANCH  26  29
HETATM   29  C   UNL     1      -5.610  -0.541 -34.006  1.00  0.00     0.041 A 
HETATM   30  C   UNL     1      -6.717  -1.087 -34.679  1.00  0.00    -0.035 A 
HETATM   31  C   UNL     1      -6.741  -2.475 -34.931  1.00  0.00     0.015 A 
HETATM   32  C   UNL     1      -7.866  -0.283 -35.221  1.00  0.00     0.050 C 
HETATM   33  C   UNL     1      -5.663  -3.301 -34.596  1.00  0.00    -0.061 A 
HETATM   34  C   UNL     1      -5.730  -4.780 -34.838  1.00  0.00     0.048 C 
HETATM   35  C   UNL     1      -4.542  -2.733 -33.993  1.00  0.00     0.009 A 
HETATM   36  C   UNL     1      -4.511  -1.364 -33.717  1.00  0.00     0.030 A 
ENDBRANCH  26  29
ENDBRANCH   1  25
BRANCH   8  37
HETATM   37  C   UNL     1      -1.168   6.501 -31.603  1.00  0.00    -0.047 C 
HETATM   38  C   UNL     1       0.122   5.741 -31.221  1.00  0.00     0.015 C 
HETATM   39  C   UNL     1      -0.808   7.455 -32.763  1.00  0.00     0.015 C 
HETATM   40  C   UNL     1      -1.594   7.352 -30.392  1.00  0.00     0.015 C 
ENDBRANCH   8  37
TORSDOF 8
ENDMDL
MODEL 8
REMARK VINA RESULT:      -8.7      1.650      2.083
REMARK  8 active torsions:
REMARK  status: ('A' for Active; 'I' for Inactive)
REMARK    1  A    between atoms: C_6  and  N_7 
REMARK       I    between atoms: N_7  and  C_8 
REMARK    2  A    between atoms: C_8  and  C_9 
REMARK    3  A    between atoms: C_10  and  N_11 
REMARK       I    between atoms: N_11  and  C_12 
REMARK    4  A    between atoms: C_12  and  C_13 
REMARK    5  A    between atoms: C_13  and  N_14 
REMARK    6  A    between atoms: N_14  and  C_17 
REMARK    7  A    between atoms: C_17  and  C_18 
REMARK    8  A    between atoms: C_30  and  C_31 
ROOT
HETATM    1  C   UNL     1      -5.671   3.399 -32.427  1.00  0.00     0.073 A 
HETATM    2  C   UNL     1      -6.752   4.034 -31.816  1.00  0.00     0.093 A 
HETATM    3  S   UNL     1      -6.345   5.487 -31.058  1.00  0.00    -0.075 SA
HETATM    4  C   UNL     1      -4.695   5.263 -31.390  1.00  0.00    -0.008 A 
HETATM    5  C   UNL     1      -4.441   4.103 -32.102  1.00  0.00    -0.026 A 
HETATM    6  C   UNL     1      -3.024   3.717 -32.416  1.00  0.00     0.041 C 
HETATM    7  C   UNL     1      -2.007   4.430 -31.509  1.00  0.00     0.010 C 
HETATM    8  C   UNL     1      -2.258   5.957 -31.450  1.00  0.00    -0.002 C 
HETATM    9  C   UNL     1      -3.670   6.229 -30.862  1.00  0.00     0.052 C 
ENDROOT
BRANCH   2  10
HETATM   10  N   UNL     1      -8.043   3.529 -31.761  1.00  0.00    -0.319 N 
HETATM   11  C   UNL     1      -9.113   3.848 -32.560  1.00  0.00     0.248 C 
HETATM   12  O   UNL     1      -9.129   4.485 -33.610  1.00  0.00    -0.271 OA
HETATM   13  H   UNL     1      -8.151   2.820 -31.031  1.00  0.00     0.169 HD
BRANCH  11  14
HETATM   14  C   UNL     1     -10.430   3.259 -32.057  1.00  0.00     0.335 C 
BRANCH  14  15
HETATM   15  N   UNL     1     -10.914   2.163 -32.970  1.00  0.00    -0.063 N 
HETATM   16  H   UNL     1     -10.125   1.718 -33.453  1.00  0.00     0.278 HD
HETATM   17  H   UNL     1     -11.333   1.438 -32.363  1.00  0.00     0.278 HD
BRANCH  15  18
HETATM   18  C   UNL     1     -11.952   2.586 -33.953  1.00  0.00     0.272 C 
BRANCH  18  19
HETATM   19  C   UNL     1     -13.236   2.935 -33.274  1.00  0.00    -0.015 A 
HETATM   20  C   UNL     1     -13.598   4.262 -33.067  1.00  0.00     0.125 A 
HETATM   21  N   UNL     1     -14.720   4.638 -32.422  1.00  0.00    -0.273 NA
HETATM   22  C   UNL     1     -15.537   3.662 -31.972  1.00  0.00     0.116 A 
HETATM   23  C   UNL     1     -15.270   2.314 -32.128  1.00  0.00     0.020 A 
HETATM   24  C   UNL     1     -14.099   1.946 -32.785  1.00  0.00     0.012 A 
ENDBRANCH  18  19
ENDBRANCH  15  18
ENDBRANCH  14  15
ENDBRANCH  11  14
ENDBRANCH   2  10
BRANCH   1  25
HETATM   25  C   UNL     1      -5.914   2.169 -33.219  1.00  0.00     0.259 C 
HETATM   26  N   UNL     1      -5.576   0.972 -32.624  1.00  0.00    -0.322 N 
HETATM   27  H   UNL     1      -5.471   0.972 -31.625  1.00  0.00     0.169 HD
HETATM   28  O   UNL     1      -6.384   2.275 -34.354  1.00  0.00    -0.267 OA
BRANCH  26  29
HETATM   29  C   UNL     1      -5.711  -0.309 -33.207  1.00  0.00     0.041 A 
HETATM   30  C   UNL     1      -4.652  -1.196 -33.473  1.00  0.00    -0.035 A 
HETATM   31  C   UNL     1      -4.933  -2.406 -34.141  1.00  0.00     0.015 A 
HETATM   32  C   UNL     1      -3.230  -0.982 -33.034  1.00  0.00     0.050 C 
HETATM   33  C   UNL     1      -6.241  -2.776 -34.474  1.00  0.00    -0.061 A 
HETATM   34  C   UNL     1      -6.509  -4.050 -35.218  1.00  0.00     0.048 C 
HETATM   35  C   UNL     1      -7.288  -1.918 -34.139  1.00  0.00     0.009 A 
HETATM   36  C   UNL     1      -7.024  -0.706 -33.497  1.00  0.00     0.030 A 
ENDBRANCH  26  29
ENDBRANCH   1  25
BRANCH   8  37
HETATM   37  C   UNL     1      -1.112   6.752 -30.719  1.00  0.00    -0.047 C 
HETATM   38  C   UNL     1       0.081   6.969 -31.677  1.00  0.00     0.015 C 
HETATM   39  C   UNL     1      -1.615   8.149 -30.293  1.00  0.00     0.015 C 
HETATM   40  C   UNL     1      -0.588   6.025 -29.466  1.00  0.00     0.015 C 
ENDBRANCH   8  37
TORSDOF 8
ENDMDL
MODEL 9
REMARK VINA RESULT:      -8.6      1.907      6.809
REMARK  8 active torsions:
REMARK  status: ('A' for Active; 'I' for Inactive)
REMARK    1  A    between atoms: C_6  and  N_7 
REMARK       I    between atoms: N_7  and  C_8 
REMARK    2  A    between atoms: C_8  and  C_9 
REMARK    3  A    between atoms: C_10  and  N_11 
REMARK       I    between atoms: N_11  and  C_12 
REMARK    4  A    between atoms: C_12  and  C_13 
REMARK    5  A    between atoms: C_13  and  N_14 
REMARK    6  A    between atoms: N_14  and  C_17 
REMARK    7  A    between atoms: C_17  and  C_18 
REMARK    8  A    between atoms: C_30  and  C_31 
ROOT
HETATM    1  C   UNL     1      -6.357   1.701 -32.441  1.00  0.00     0.073 A 
HETATM    2  C   UNL     1      -7.719   1.889 -32.674  1.00  0.00     0.093 A 
HETATM    3  S   UNL     1      -8.501   0.519 -33.274  1.00  0.00    -0.075 SA
HETATM    4  C   UNL     1      -7.039  -0.337 -33.381  1.00  0.00    -0.008 A 
HETATM    5  C   UNL     1      -5.951   0.396 -32.936  1.00  0.00    -0.026 A 
HETATM    6  C   UNL     1      -4.571  -0.190 -33.030  1.00  0.00     0.041 C 
HETATM    7  C   UNL     1      -4.494  -1.353 -34.032  1.00  0.00     0.010 C 
HETATM    8  C   UNL     1      -5.616  -2.394 -33.795  1.00  0.00    -0.002 C 
HETATM    9  C   UNL     1      -7.001  -1.716 -33.983  1.00  0.00     0.052 C 
ENDROOT
BRANCH   2  10
HETATM   10  N   UNL     1      -8.397   3.088 -32.498  1.00  0.00    -0.319 N 
HETATM   11  C   UNL     1      -8.294   4.236 -33.244  1.00  0.00     0.248 C 
HETATM   12  O   UNL     1      -7.749   4.404 -34.332  1.00  0.00    -0.271 OA
HETATM   13  H   UNL     1      -9.055   3.050 -31.716  1.00  0.00     0.169 HD
BRANCH  11  14
HETATM   14  C   UNL     1      -9.024   5.423 -32.615  1.00  0.00     0.335 C 
BRANCH  14  15
HETATM   15  N   UNL     1     -10.510   5.182 -32.575  1.00  0.00    -0.063 N 
HETATM   16  H   UNL     1     -10.724   4.316 -32.068  1.00  0.00     0.278 HD
HETATM   17  H   UNL     1     -10.917   5.954 -32.020  1.00  0.00     0.278 HD
BRANCH  15  18
HETATM   18  C   UNL     1     -11.176   5.182 -33.909  1.00  0.00     0.272 C 
BRANCH  18  19
HETATM   19  C   UNL     1     -11.706   3.829 -34.253  1.00  0.00    -0.015 A 
HETATM   20  C   UNL     1     -12.135   3.534 -35.542  1.00  0.00     0.125 A 
HETATM   21  N   UNL     1     -12.663   2.347 -35.902  1.00  0.00    -0.273 NA
HETATM   22  C   UNL     1     -12.760   1.395 -34.951  1.00  0.00     0.116 A 
HETATM   23  C   UNL     1     -12.360   1.585 -33.640  1.00  0.00     0.020 A 
HETATM   24  C   UNL     1     -11.831   2.823 -33.286  1.00  0.00     0.012 A 
ENDBRANCH  18  19
ENDBRANCH  15  18
ENDBRANCH  14  15
ENDBRANCH  11  14
ENDBRANCH   2  10
BRANCH   1  25
HETATM   25  C   UNL     1      -5.576   2.794 -31.813  1.00  0.00     0.259 C 
HETATM   26  N   UNL     1      -4.593   3.376 -32.584  1.00  0.00    -0.322 N 
HETATM   27  H   UNL     1      -4.655   3.244 -33.578  1.00  0.00     0.169 HD
HETATM   28  O   UNL     1      -5.830   3.113 -30.649  1.00  0.00    -0.267 OA
BRANCH  26  29
HETATM   29  C   UNL     1      -3.729   4.418 -32.176  1.00  0.00     0.041 A 
HETATM   30  C   UNL     1      -4.027   5.791 -32.234  1.00  0.00    -0.035 A 
HETATM   31  C   UNL     1      -3.028   6.718 -31.872  1.00  0.00     0.015 A 
HETATM   32  C   UNL     1      -5.374   6.356 -32.594  1.00  0.00     0.050 C 
HETATM   33  C   UNL     1      -1.783   6.305 -31.388  1.00  0.00    -0.061 A 
HETATM   34  C   UNL     1      -0.723   7.310 -31.047  1.00  0.00     0.048 C 
HETATM   35  C   UNL     1      -1.528   4.939 -31.267  1.00  0.00     0.009 A 
HETATM   36  C   UNL     1      -2.498   4.008 -31.642  1.00  0.00     0.030 A 
ENDBRANCH  26  29
ENDBRANCH   1  25
BRANCH   8  37
HETATM   37  C   UNL     1      -5.443  -3.708 -34.646  1.00  0.00    -0.047 C 
HETATM   38  C   UNL     1      -6.796  -4.445 -34.770  1.00  0.00     0.015 C 
HETATM   39  C   UNL     1      -4.979  -3.363 -36.077  1.00  0.00     0.015 C 
HETATM   40  C   UNL     1      -4.425  -4.686 -34.030  1.00  0.00     0.015 C 
ENDBRANCH   8  37
TORSDOF 8
ENDMDL
MODEL 10
REMARK VINA RESULT:      -8.4      2.242      2.571
REMARK  8 active torsions:
REMARK  status: ('A' for Active; 'I' for Inactive)
REMARK    1  A    between atoms: C_6  and  N_7 
REMARK       I    between atoms: N_7  and  C_8 
REMARK    2  A    between atoms: C_8  and  C_9 
REMARK    3  A    between atoms: C_10  and  N_11 
REMARK       I    between atoms: N_11  and  C_12 
REMARK    4  A    between atoms: C_12  and  C_13 
REMARK    5  A    between atoms: C_13  and  N_14 
REMARK    6  A    between atoms: N_14  and  C_17 
REMARK    7  A    between atoms: C_17  and  C_18 
REMARK    8  A    between atoms: C_30  and  C_31 
ROOT
HETATM    1  C   UNL     1      -5.375   3.744 -32.353  1.00  0.00     0.073 A 
HETATM    2  C   UNL     1      -6.384   4.481 -31.732  1.00  0.00     0.093 A 
HETATM    3  S   UNL     1      -5.822   5.852 -30.923  1.00  0.00    -0.075 SA
HETATM    4  C   UNL     1      -4.205   5.449 -31.246  1.00  0.00    -0.008 A 
HETATM    5  C   UNL     1      -4.077   4.291 -31.994  1.00  0.00    -0.026 A 
HETATM    6  C   UNL     1      -2.709   3.755 -32.307  1.00  0.00     0.041 C 
HETATM    7  C   UNL     1      -1.630   4.316 -31.367  1.00  0.00     0.010 C 
HETATM    8  C   UNL     1      -1.704   5.859 -31.260  1.00  0.00    -0.002 C 
HETATM    9  C   UNL     1      -3.083   6.273 -30.676  1.00  0.00     0.052 C 
ENDROOT
BRANCH   2  10
HETATM   10  N   UNL     1      -7.725   4.126 -31.706  1.00  0.00    -0.319 N 
HETATM   11  C   UNL     1      -8.399   3.435 -30.730  1.00  0.00     0.248 C 
HETATM   12  O   UNL     1      -8.035   3.152 -29.592  1.00  0.00    -0.271 OA
HETATM   13  H   UNL     1      -8.231   4.463 -32.529  1.00  0.00     0.169 HD
BRANCH  11  14
HETATM   14  C   UNL     1      -9.813   3.033 -31.152  1.00  0.00     0.335 C 
BRANCH  14  15
HETATM   15  N   UNL     1     -10.844   3.655 -30.247  1.00  0.00    -0.063 N 
HETATM   16  H   UNL     1     -11.687   3.072 -30.205  1.00  0.00     0.278 HD
HETATM   17  H   UNL     1     -10.438   3.654 -29.296  1.00  0.00     0.278 HD
BRANCH  15  18
HETATM   18  C   UNL     1     -11.201   5.062 -30.587  1.00  0.00     0.272 C 
BRANCH  18  19
HETATM   19  C   UNL     1     -12.530   5.138 -31.265  1.00  0.00    -0.015 A 
HETATM   20  C   UNL     1     -12.732   5.981 -32.352  1.00  0.00     0.125 A 
HETATM   21  N   UNL     1     -13.917   6.126 -32.976  1.00  0.00    -0.273 NA
HETATM   22  C   UNL     1     -14.955   5.393 -32.519  1.00  0.00     0.116 A 
HETATM   23  C   UNL     1     -14.859   4.524 -31.447  1.00  0.00     0.020 A 
HETATM   24  C   UNL     1     -13.629   4.400 -30.807  1.00  0.00     0.012 A 
ENDBRANCH  18  19
ENDBRANCH  15  18
ENDBRANCH  14  15
ENDBRANCH  11  14
ENDBRANCH   2  10
BRANCH   1  25
HETATM   25  C   UNL     1      -5.747   2.577 -33.188  1.00  0.00     0.259 C 
HETATM   26  N   UNL     1      -5.622   1.333 -32.606  1.00  0.00    -0.322 N 
HETATM   27  H   UNL     1      -5.576   1.301 -31.603  1.00  0.00     0.169 HD
HETATM   28  O   UNL     1      -6.130   2.769 -34.344  1.00  0.00    -0.267 OA
BRANCH  26  29
HETATM   29  C   UNL     1      -5.907   0.095 -33.227  1.00  0.00     0.041 A 
HETATM   30  C   UNL     1      -7.194  -0.398 -33.501  1.00  0.00    -0.035 A 
HETATM   31  C   UNL     1      -7.322  -1.693 -34.047  1.00  0.00     0.015 A 
HETATM   32  C   UNL     1      -8.465   0.386 -33.319  1.00  0.00     0.050 C 
HETATM   33  C   UNL     1      -6.204  -2.460 -34.389  1.00  0.00    -0.061 A 
HETATM   34  C   UNL     1      -6.367  -3.849 -34.931  1.00  0.00     0.048 C 
HETATM   35  C   UNL     1      -4.933  -1.928 -34.177  1.00  0.00     0.009 A 
HETATM   36  C   UNL     1      -4.789  -0.656 -33.617  1.00  0.00     0.030 A 
ENDBRANCH  26  29
ENDBRANCH   1  25
BRANCH   8  37
HETATM   37  C   UNL     1      -0.484   6.494 -30.492  1.00  0.00    -0.047 C 
HETATM   38  C   UNL     1      -0.945   7.731 -29.689  1.00  0.00     0.015 C 
HETATM   39  C   UNL     1       0.097   5.483 -29.479  1.00  0.00     0.015 C 
HETATM   40  C   UNL     1       0.649   6.937 -31.436  1.00  0.00     0.015 C 
ENDBRANCH   8  37
TORSDOF 8
ENDMDL
