MODEL 1
REMARK VINA RESULT:      -9.2      0.000      0.000
REMARK  5 active torsions:
REMARK  status: ('A' for Active; 'I' for Inactive)
REMARK    1  A    between atoms: C_3  and  N_4 
REMARK       I    between atoms: N_4  and  C_5 
REMARK       I    between atoms: C_5  and  N_6 
REMARK    2  A    between atoms: N_6  and  C_7 
REMARK    3  A    between atoms: C_7  and  C_8 
REMARK       I    between atoms: C_8  and  N_9 
REMARK    4  A    between atoms: N_9  and  C_10 
REMARK    5  A    between atoms: C_19  and  C_20 
ROOT
HETATM    1  N   UNL     1      -4.740   3.972 -32.743  1.00  0.00    -0.309 N 
HETATM    2  C   UNL     1      -5.005   2.630 -32.602  1.00  0.00     0.321 C 
HETATM    3  N   UNL     1      -6.317   2.400 -32.281  1.00  0.00    -0.334 N 
HETATM    4  O   UNL     1      -4.203   1.720 -32.760  1.00  0.00    -0.247 OA
HETATM    5  H   UNL     1      -5.478   4.487 -33.195  1.00  0.00     0.170 HD
HETATM    6  H   UNL     1      -6.875   3.198 -32.018  1.00  0.00     0.164 HD
ENDROOT
BRANCH   1   7
HETATM    7  C   UNL     1      -3.435   4.509 -32.836  1.00  0.00     0.043 A 
HETATM    8  C   UNL     1      -3.008   5.127 -34.026  1.00  0.00    -0.035 A 
HETATM    9  C   UNL     1      -3.847   5.145 -35.274  1.00  0.00     0.050 C 
HETATM   10  C   UNL     1      -1.720   5.682 -34.075  1.00  0.00     0.010 A 
HETATM   11  C   UNL     1      -0.890   5.665 -32.952  1.00  0.00     0.016 A 
HETATM   12  C   UNL     1      -1.317   5.084 -31.753  1.00  0.00     0.019 A 
HETATM   13  C   UNL     1      -2.588   4.490 -31.716  1.00  0.00     0.046 A 
BRANCH  12  14
HETATM   14  C   UNL     1      -0.453   5.141 -30.577  1.00  0.00     0.179 A 
HETATM   15  O   UNL     1      -0.726   6.116 -29.650  1.00  0.00    -0.302 OA
HETATM   16  C   UNL     1       0.246   5.966 -28.710  1.00  0.00     0.163 A 
HETATM   17  C   UNL     1       1.053   4.928 -29.097  1.00  0.00     0.144 A 
HETATM   18  N   UNL     1       0.606   4.406 -30.284  1.00  0.00    -0.234 NA
ENDBRANCH  12  14
ENDBRANCH   1   7
BRANCH   3  19
HETATM   19  C   UNL     1      -7.023   1.170 -32.616  1.00  0.00     0.227 C 
BRANCH  19  20
HETATM   20  C   UNL     1      -6.312  -0.199 -32.562  1.00  0.00     0.239 C 
HETATM   21  N   UNL     1      -6.066  -0.746 -33.803  1.00  0.00    -0.326 N 
HETATM   22  H   UNL     1      -6.211  -0.124 -34.601  1.00  0.00     0.169 HD
HETATM   23  O   UNL     1      -6.165  -0.767 -31.481  1.00  0.00    -0.271 OA
BRANCH  21  24
HETATM   24  C   UNL     1      -5.752  -2.079 -34.126  1.00  0.00     0.034 A 
HETATM   25  C   UNL     1      -4.495  -2.655 -33.944  1.00  0.00     0.029 A 
HETATM   26  C   UNL     1      -4.292  -4.010 -34.223  1.00  0.00     0.002 A 
HETATM   27  C   UNL     1      -5.340  -4.797 -34.694  1.00  0.00     0.000 A 
HETATM   28  C   UNL     1      -6.595  -4.228 -34.893  1.00  0.00     0.002 A 
HETATM   29  C   UNL     1      -6.800  -2.877 -34.609  1.00  0.00     0.029 A 
ENDBRANCH  21  24
ENDBRANCH  19  20
ENDBRANCH   3  19
TORSDOF 5
ENDMDL
MODEL 2
REMARK VINA RESULT:      -8.9      1.923      9.664
REMARK  5 active torsions:
REMARK  status: ('A' for Active; 'I' for Inactive)
REMARK    1  A    between atoms: C_3  and  N_4 
REMARK       I    between atoms: N_4  and  C_5 
REMARK       I    between atoms: C_5  and  N_6 
REMARK    2  A    between atoms: N_6  and  C_7 
REMARK    3  A    between atoms: C_7  and  C_8 
REMARK       I    between atoms: C_8  and  N_9 
REMARK    4  A    between atoms: N_9  and  C_10 
REMARK    5  A    between atoms: C_19  and  C_20 
ROOT
HETATM    1  N   UNL     1      -4.198   2.292 -30.998  1.00  0.00    -0.309 N 
HETATM    2  C   UNL     1      -3.561   3.260 -31.738  1.00  0.00     0.321 C 
HETATM    3  N   UNL     1      -2.796   4.083 -30.953  1.00  0.00    -0.334 N 
HETATM    4  O   UNL     1      -3.622   3.391 -32.953  1.00  0.00    -0.247 OA
HETATM    5  H   UNL     1      -3.636   1.915 -30.252  1.00  0.00     0.170 HD
HETATM    6  H   UNL     1      -2.916   4.011 -29.954  1.00  0.00     0.164 HD
ENDROOT
BRANCH   1   7
HETATM    7  C   UNL     1      -5.226   1.465 -31.506  1.00  0.00     0.043 A 
HETATM    8  C   UNL     1      -6.575   1.819 -31.320  1.00  0.00    -0.035 A 
HETATM    9  C   UNL     1      -6.994   3.001 -30.489  1.00  0.00     0.050 C 
HETATM   10  C   UNL     1      -7.572   0.996 -31.867  1.00  0.00     0.010 A 
HETATM   11  C   UNL     1      -7.236  -0.130 -32.622  1.00  0.00     0.016 A 
HETATM   12  C   UNL     1      -5.897  -0.472 -32.843  1.00  0.00     0.019 A 
HETATM   13  C   UNL     1      -4.900   0.326 -32.260  1.00  0.00     0.046 A 
BRANCH  12  14
HETATM   14  C   UNL     1      -5.577  -1.615 -33.692  1.00  0.00     0.179 A 
HETATM   15  O   UNL     1      -4.353  -2.208 -33.504  1.00  0.00    -0.302 OA
HETATM   16  C   UNL     1      -4.308  -3.191 -34.444  1.00  0.00     0.163 A 
HETATM   17  C   UNL     1      -5.483  -3.156 -35.150  1.00  0.00     0.144 A 
HETATM   18  N   UNL     1      -6.286  -2.153 -34.669  1.00  0.00    -0.234 NA
ENDBRANCH  12  14
ENDBRANCH   1   7
BRANCH   3  19
HETATM   19  C   UNL     1      -1.614   4.785 -31.437  1.00  0.00     0.227 C 
BRANCH  19  20
HETATM   20  C   UNL     1      -0.447   5.130 -30.488  1.00  0.00     0.239 C 
HETATM   21  N   UNL     1      -0.810   5.938 -29.432  1.00  0.00    -0.326 N 
HETATM   22  H   UNL     1      -1.814   6.067 -29.293  1.00  0.00     0.169 HD
HETATM   23  O   UNL     1       0.703   4.823 -30.800  1.00  0.00    -0.271 OA
BRANCH  21  24
HETATM   24  C   UNL     1       0.018   6.701 -28.588  1.00  0.00     0.034 A 
HETATM   25  C   UNL     1       0.774   7.795 -29.011  1.00  0.00     0.029 A 
HETATM   26  C   UNL     1       1.511   8.543 -28.087  1.00  0.00     0.002 A 
HETATM   27  C   UNL     1       1.506   8.198 -26.737  1.00  0.00     0.000 A 
HETATM   28  C   UNL     1       0.766   7.100 -26.308  1.00  0.00     0.002 A 
HETATM   29  C   UNL     1       0.025   6.357 -27.228  1.00  0.00     0.029 A 
ENDBRANCH  21  24
ENDBRANCH  19  20
ENDBRANCH   3  19
TORSDOF 5
ENDMDL
MODEL 3
REMARK VINA RESULT:      -8.7      2.700      9.841
REMARK  5 active torsions:
REMARK  status: ('A' for Active; 'I' for Inactive)
REMARK    1  A    between atoms: C_3  and  N_4 
REMARK       I    between atoms: N_4  and  C_5 
REMARK       I    between atoms: C_5  and  N_6 
REMARK    2  A    between atoms: N_6  and  C_7 
REMARK    3  A    between atoms: C_7  and  C_8 
REMARK       I    between atoms: C_8  and  N_9 
REMARK    4  A    between atoms: N_9  and  C_10 
REMARK    5  A    between atoms: C_19  and  C_20 
ROOT
HETATM    1  N   UNL     1      -4.017   2.388 -31.029  1.00  0.00    -0.309 N 
HETATM    2  C   UNL     1      -3.262   3.237 -31.802  1.00  0.00     0.321 C 
HETATM    3  N   UNL     1      -2.676   4.225 -31.054  1.00  0.00    -0.334 N 
HETATM    4  O   UNL     1      -3.087   3.143 -33.010  1.00  0.00    -0.247 OA
HETATM    5  H   UNL     1      -3.606   2.179 -30.133  1.00  0.00     0.170 HD
HETATM    6  H   UNL     1      -2.988   4.328 -30.100  1.00  0.00     0.164 HD
ENDROOT
BRANCH   1   7
HETATM    7  C   UNL     1      -4.915   1.432 -31.559  1.00  0.00     0.043 A 
HETATM    8  C   UNL     1      -4.521   0.087 -31.687  1.00  0.00    -0.035 A 
HETATM    9  C   UNL     1      -3.122  -0.377 -31.390  1.00  0.00     0.050 C 
HETATM   10  C   UNL     1      -5.447  -0.844 -32.182  1.00  0.00     0.010 A 
HETATM   11  C   UNL     1      -6.751  -0.457 -32.501  1.00  0.00     0.016 A 
HETATM   12  C   UNL     1      -7.163   0.871 -32.345  1.00  0.00     0.019 A 
HETATM   13  C   UNL     1      -6.226   1.811 -31.890  1.00  0.00     0.046 A 
BRANCH  12  14
HETATM   14  C   UNL     1      -8.551   1.231 -32.622  1.00  0.00     0.179 A 
HETATM   15  O   UNL     1      -9.351   0.256 -33.165  1.00  0.00    -0.302 OA
HETATM   16  C   UNL     1     -10.548   0.875 -33.359  1.00  0.00     0.163 A 
HETATM   17  C   UNL     1     -10.428   2.173 -32.934  1.00  0.00     0.144 A 
HETATM   18  N   UNL     1      -9.157   2.395 -32.467  1.00  0.00    -0.234 NA
ENDBRANCH  12  14
ENDBRANCH   1   7
BRANCH   3  19
HETATM   19  C   UNL     1      -1.433   4.887 -31.428  1.00  0.00     0.227 C 
BRANCH  19  20
HETATM   20  C   UNL     1      -0.335   5.172 -30.381  1.00  0.00     0.239 C 
HETATM   21  N   UNL     1      -0.727   6.045 -29.390  1.00  0.00    -0.326 N 
HETATM   22  H   UNL     1      -1.726   6.259 -29.352  1.00  0.00     0.169 HD
HETATM   23  O   UNL     1       0.809   4.763 -30.572  1.00  0.00    -0.271 OA
BRANCH  21  24
HETATM   24  C   UNL     1       0.078   6.771 -28.492  1.00  0.00     0.034 A 
HETATM   25  C   UNL     1       0.914   7.824 -28.864  1.00  0.00     0.029 A 
HETATM   26  C   UNL     1       1.623   8.540 -27.894  1.00  0.00     0.002 A 
HETATM   27  C   UNL     1       1.509   8.201 -26.547  1.00  0.00     0.000 A 
HETATM   28  C   UNL     1       0.690   7.143 -26.167  1.00  0.00     0.002 A 
HETATM   29  C   UNL     1      -0.024   6.432 -27.135  1.00  0.00     0.029 A 
ENDBRANCH  21  24
ENDBRANCH  19  20
ENDBRANCH   3  19
TORSDOF 5
ENDMDL
MODEL 4
REMARK VINA RESULT:      -8.3      4.263      7.756
REMARK  5 active torsions:
REMARK  status: ('A' for Active; 'I' for Inactive)
REMARK    1  A    between atoms: C_3  and  N_4 
REMARK       I    between atoms: N_4  and  C_5 
REMARK       I    between atoms: C_5  and  N_6 
REMARK    2  A    between atoms: N_6  and  C_7 
REMARK    3  A    between atoms: C_7  and  C_8 
REMARK       I    between atoms: C_8  and  N_9 
REMARK    4  A    between atoms: N_9  and  C_10 
REMARK    5  A    between atoms: C_19  and  C_20 
ROOT
HETATM    1  N   UNL     1      -8.235   2.266 -32.771  1.00  0.00    -0.309 N 
HETATM    2  C   UNL     1      -7.084   1.843 -33.391  1.00  0.00     0.321 C 
HETATM    3  N   UNL     1      -5.975   2.064 -32.617  1.00  0.00    -0.334 N 
HETATM    4  O   UNL     1      -7.016   1.307 -34.489  1.00  0.00    -0.247 OA
HETATM    5  H   UNL     1      -8.255   2.083 -31.780  1.00  0.00     0.170 HD
HETATM    6  H   UNL     1      -6.091   2.645 -31.800  1.00  0.00     0.164 HD
ENDROOT
BRANCH   1   7
HETATM    7  C   UNL     1      -9.484   2.380 -33.425  1.00  0.00     0.043 A 
HETATM    8  C   UNL     1     -10.380   1.295 -33.430  1.00  0.00    -0.035 A 
HETATM    9  C   UNL     1     -10.024  -0.051 -32.861  1.00  0.00     0.050 C 
HETATM   10  C   UNL     1     -11.626   1.452 -34.057  1.00  0.00     0.010 A 
HETATM   11  C   UNL     1     -11.993   2.673 -34.627  1.00  0.00     0.016 A 
HETATM   12  C   UNL     1     -11.123   3.768 -34.597  1.00  0.00     0.019 A 
HETATM   13  C   UNL     1      -9.860   3.600 -34.008  1.00  0.00     0.046 A 
BRANCH  12  14
HETATM   14  C   UNL     1     -11.561   5.050 -35.141  1.00  0.00     0.179 A 
HETATM   15  O   UNL     1     -10.635   6.063 -35.172  1.00  0.00    -0.302 OA
HETATM   16  C   UNL     1     -11.320   7.128 -35.670  1.00  0.00     0.163 A 
HETATM   17  C   UNL     1     -12.607   6.727 -35.916  1.00  0.00     0.144 A 
HETATM   18  N   UNL     1     -12.757   5.406 -35.577  1.00  0.00    -0.234 NA
ENDBRANCH  12  14
ENDBRANCH   1   7
BRANCH   3  19
HETATM   19  C   UNL     1      -4.761   1.262 -32.702  1.00  0.00     0.227 C 
BRANCH  19  20
HETATM   20  C   UNL     1      -4.813  -0.276 -32.602  1.00  0.00     0.239 C 
HETATM   21  N   UNL     1      -4.816  -0.913 -33.825  1.00  0.00    -0.326 N 
HETATM   22  H   UNL     1      -4.606  -0.325 -34.634  1.00  0.00     0.169 HD
HETATM   23  O   UNL     1      -5.006  -0.809 -31.510  1.00  0.00    -0.271 OA
BRANCH  21  24
HETATM   24  C   UNL     1      -5.182  -2.239 -34.121  1.00  0.00     0.034 A 
HETATM   25  C   UNL     1      -6.435  -2.618 -34.603  1.00  0.00     0.029 A 
HETATM   26  C   UNL     1      -6.688  -3.951 -34.943  1.00  0.00     0.002 A 
HETATM   27  C   UNL     1      -5.694  -4.915 -34.795  1.00  0.00     0.000 A 
HETATM   28  C   UNL     1      -4.444  -4.550 -34.302  1.00  0.00     0.002 A 
HETATM   29  C   UNL     1      -4.190  -3.218 -33.968  1.00  0.00     0.029 A 
ENDBRANCH  21  24
ENDBRANCH  19  20
ENDBRANCH   3  19
TORSDOF 5
ENDMDL
MODEL 5
REMARK VINA RESULT:      -8.2      2.006      9.024
REMARK  5 active torsions:
REMARK  status: ('A' for Active; 'I' for Inactive)
REMARK    1  A    between atoms: C_3  and  N_4 
REMARK       I    between atoms: N_4  and  C_5 
REMARK       I    between atoms: C_5  and  N_6 
REMARK    2  A    between atoms: N_6  and  C_7 
REMARK    3  A    between atoms: C_7  and  C_8 
REMARK       I    between atoms: C_8  and  N_9 
REMARK    4  A    between atoms: N_9  and  C_10 
REMARK    5  A    between atoms: C_19  and  C_20 
ROOT
HETATM    1  N   UNL     1      -4.793   4.171 -32.760  1.00  0.00    -0.309 N 
HETATM    2  C   UNL     1      -3.527   4.402 -33.245  1.00  0.00     0.321 C 
HETATM    3  N   UNL     1      -3.471   5.540 -34.006  1.00  0.00    -0.334 N 
HETATM    4  O   UNL     1      -2.538   3.714 -33.026  1.00  0.00    -0.247 OA
HETATM    5  H   UNL     1      -5.277   5.006 -32.473  1.00  0.00     0.170 HD
HETATM    6  H   UNL     1      -4.348   5.965 -34.267  1.00  0.00     0.164 HD
ENDROOT
BRANCH   1   7
HETATM    7  C   UNL     1      -5.191   2.959 -32.151  1.00  0.00     0.043 A 
HETATM    8  C   UNL     1      -5.518   2.929 -30.783  1.00  0.00    -0.035 A 
HETATM    9  C   UNL     1      -5.352   4.125 -29.886  1.00  0.00     0.050 C 
HETATM   10  C   UNL     1      -5.946   1.719 -30.216  1.00  0.00     0.010 A 
HETATM   11  C   UNL     1      -6.088   0.572 -31.000  1.00  0.00     0.016 A 
HETATM   12  C   UNL     1      -5.799   0.598 -32.368  1.00  0.00     0.019 A 
HETATM   13  C   UNL     1      -5.331   1.797 -32.928  1.00  0.00     0.046 A 
BRANCH  12  14
HETATM   14  C   UNL     1      -6.022  -0.599 -33.175  1.00  0.00     0.179 A 
HETATM   15  O   UNL     1      -4.908  -1.258 -33.633  1.00  0.00    -0.302 OA
HETATM   16  C   UNL     1      -5.408  -2.281 -34.379  1.00  0.00     0.163 A 
HETATM   17  C   UNL     1      -6.776  -2.202 -34.344  1.00  0.00     0.144 A 
HETATM   18  N   UNL     1      -7.162  -1.132 -33.578  1.00  0.00    -0.234 NA
ENDBRANCH  12  14
ENDBRANCH   1   7
BRANCH   3  19
HETATM   19  C   UNL     1      -2.264   6.341 -34.168  1.00  0.00     0.227 C 
BRANCH  19  20
HETATM   20  C   UNL     1      -1.706   7.185 -33.003  1.00  0.00     0.239 C 
HETATM   21  N   UNL     1      -1.260   6.434 -31.937  1.00  0.00    -0.326 N 
HETATM   22  H   UNL     1      -1.180   5.428 -32.102  1.00  0.00     0.169 HD
HETATM   23  O   UNL     1      -1.837   8.409 -33.019  1.00  0.00    -0.271 OA
BRANCH  21  24
HETATM   24  C   UNL     1      -1.008   6.850 -30.616  1.00  0.00     0.034 A 
HETATM   25  C   UNL     1      -1.992   6.997 -29.639  1.00  0.00     0.029 A 
HETATM   26  C   UNL     1      -1.642   7.343 -28.330  1.00  0.00     0.002 A 
HETATM   27  C   UNL     1      -0.307   7.553 -27.991  1.00  0.00     0.000 A 
HETATM   28  C   UNL     1       0.682   7.422 -28.962  1.00  0.00     0.002 A 
HETATM   29  C   UNL     1       0.333   7.071 -30.267  1.00  0.00     0.029 A 
ENDBRANCH  21  24
ENDBRANCH  19  20
ENDBRANCH   3  19
TORSDOF 5
ENDMDL
MODEL 6
REMARK VINA RESULT:      -8.1      2.173      8.575
REMARK  5 active torsions:
REMARK  status: ('A' for Active; 'I' for Inactive)
REMARK    1  A    between atoms: C_3  and  N_4 
REMARK       I    between atoms: N_4  and  C_5 
REMARK       I    between atoms: C_5  and  N_6 
REMARK    2  A    between atoms: N_6  and  C_7 
REMARK    3  A    between atoms: C_7  and  C_8 
REMARK       I    between atoms: C_8  and  N_9 
REMARK    4  A    between atoms: N_9  and  C_10 
REMARK    5  A    between atoms: C_19  and  C_20 
ROOT
HETATM    1  N   UNL     1      -7.017   1.276 -31.857  1.00  0.00    -0.309 N 
HETATM    2  C   UNL     1      -6.095   2.273 -31.645  1.00  0.00     0.321 C 
HETATM    3  N   UNL     1      -6.532   3.188 -30.724  1.00  0.00    -0.334 N 
HETATM    4  O   UNL     1      -4.995   2.358 -32.176  1.00  0.00    -0.247 OA
HETATM    5  H   UNL     1      -7.491   0.976 -31.020  1.00  0.00     0.170 HD
HETATM    6  H   UNL     1      -7.501   3.137 -30.448  1.00  0.00     0.164 HD
ENDROOT
BRANCH   1   7
HETATM    7  C   UNL     1      -6.935   0.342 -32.916  1.00  0.00     0.043 A 
HETATM    8  C   UNL     1      -7.647   0.563 -34.109  1.00  0.00    -0.035 A 
HETATM    9  C   UNL     1      -8.604   1.710 -34.279  1.00  0.00     0.050 C 
HETATM   10  C   UNL     1      -7.516  -0.364 -35.155  1.00  0.00     0.010 A 
HETATM   11  C   UNL     1      -6.662  -1.463 -35.036  1.00  0.00     0.016 A 
HETATM   12  C   UNL     1      -5.923  -1.673 -33.867  1.00  0.00     0.019 A 
HETATM   13  C   UNL     1      -6.085  -0.770 -32.804  1.00  0.00     0.046 A 
BRANCH  12  14
HETATM   14  C   UNL     1      -4.988  -2.792 -33.798  1.00  0.00     0.179 A 
HETATM   15  O   UNL     1      -5.341  -3.941 -34.462  1.00  0.00    -0.302 OA
HETATM   16  C   UNL     1      -4.330  -4.810 -34.187  1.00  0.00     0.163 A 
HETATM   17  C   UNL     1      -3.424  -4.167 -33.385  1.00  0.00     0.144 A 
HETATM   18  N   UNL     1      -3.846  -2.885 -33.139  1.00  0.00    -0.234 NA
ENDBRANCH  12  14
ENDBRANCH   1   7
BRANCH   3  19
HETATM   19  C   UNL     1      -5.638   3.979 -29.887  1.00  0.00     0.227 C 
BRANCH  19  20
HETATM   20  C   UNL     1      -4.797   5.127 -30.482  1.00  0.00     0.239 C 
HETATM   21  N   UNL     1      -3.529   4.747 -30.864  1.00  0.00    -0.326 N 
HETATM   22  H   UNL     1      -3.351   3.740 -30.881  1.00  0.00     0.169 HD
HETATM   23  O   UNL     1      -5.220   6.282 -30.430  1.00  0.00    -0.271 OA
BRANCH  21  24
HETATM   24  C   UNL     1      -2.410   5.561 -31.123  1.00  0.00     0.034 A 
HETATM   25  C   UNL     1      -1.682   6.229 -30.139  1.00  0.00     0.029 A 
HETATM   26  C   UNL     1      -0.537   6.957 -30.480  1.00  0.00     0.002 A 
HETATM   27  C   UNL     1      -0.119   7.030 -31.807  1.00  0.00     0.000 A 
HETATM   28  C   UNL     1      -0.847   6.379 -32.798  1.00  0.00     0.002 A 
HETATM   29  C   UNL     1      -1.986   5.647 -32.457  1.00  0.00     0.029 A 
ENDBRANCH  21  24
ENDBRANCH  19  20
ENDBRANCH   3  19
TORSDOF 5
ENDMDL
MODEL 7
REMARK VINA RESULT:      -8.1      5.546      9.275
REMARK  5 active torsions:
REMARK  status: ('A' for Active; 'I' for Inactive)
REMARK    1  A    between atoms: C_3  and  N_4 
REMARK       I    between atoms: N_4  and  C_5 
REMARK       I    between atoms: C_5  and  N_6 
REMARK    2  A    between atoms: N_6  and  C_7 
REMARK    3  A    between atoms: C_7  and  C_8 
REMARK       I    between atoms: C_8  and  N_9 
REMARK    4  A    between atoms: N_9  and  C_10 
REMARK    5  A    between atoms: C_19  and  C_20 
ROOT
HETATM    1  N   UNL     1     -10.207   0.593 -32.495  1.00  0.00    -0.309 N 
HETATM    2  C   UNL     1     -10.974   1.005 -33.559  1.00  0.00     0.321 C 
HETATM    3  N   UNL     1     -12.307   0.771 -33.350  1.00  0.00    -0.334 N 
HETATM    4  O   UNL     1     -10.557   1.543 -34.577  1.00  0.00    -0.247 OA
HETATM    5  H   UNL     1     -10.626   0.775 -31.597  1.00  0.00     0.170 HD
HETATM    6  H   UNL     1     -12.556   0.190 -32.564  1.00  0.00     0.164 HD
ENDROOT
BRANCH   1   7
HETATM    7  C   UNL     1      -8.797   0.494 -32.534  1.00  0.00     0.043 A 
HETATM    8  C   UNL     1      -8.005   1.387 -31.790  1.00  0.00    -0.035 A 
HETATM    9  C   UNL     1      -8.590   2.544 -31.028  1.00  0.00     0.050 C 
HETATM   10  C   UNL     1      -6.609   1.240 -31.821  1.00  0.00     0.010 A 
HETATM   11  C   UNL     1      -6.015   0.199 -32.538  1.00  0.00     0.016 A 
HETATM   12  C   UNL     1      -6.795  -0.716 -33.253  1.00  0.00     0.019 A 
HETATM   13  C   UNL     1      -8.188  -0.544 -33.258  1.00  0.00     0.046 A 
BRANCH  12  14
HETATM   14  C   UNL     1      -6.149  -1.832 -33.938  1.00  0.00     0.179 A 
HETATM   15  O   UNL     1      -4.782  -1.914 -33.844  1.00  0.00    -0.302 OA
HETATM   16  C   UNL     1      -4.458  -2.997 -34.602  1.00  0.00     0.163 A 
HETATM   17  C   UNL     1      -5.618  -3.517 -35.114  1.00  0.00     0.144 A 
HETATM   18  N   UNL     1      -6.690  -2.774 -34.691  1.00  0.00    -0.234 NA
ENDBRANCH  12  14
ENDBRANCH   1   7
BRANCH   3  19
HETATM   19  C   UNL     1     -13.368   1.561 -33.963  1.00  0.00     0.227 C 
BRANCH  19  20
HETATM   20  C   UNL     1     -13.310   3.102 -33.975  1.00  0.00     0.239 C 
HETATM   21  N   UNL     1     -12.927   3.634 -35.188  1.00  0.00    -0.326 N 
HETATM   22  H   UNL     1     -12.902   2.981 -35.973  1.00  0.00     0.169 HD
HETATM   23  O   UNL     1     -13.436   3.725 -32.921  1.00  0.00    -0.271 OA
BRANCH  21  24
HETATM   24  C   UNL     1     -12.456   4.931 -35.467  1.00  0.00     0.034 A 
HETATM   25  C   UNL     1     -13.268   5.989 -35.874  1.00  0.00     0.029 A 
HETATM   26  C   UNL     1     -12.727   7.265 -36.057  1.00  0.00     0.002 A 
HETATM   27  C   UNL     1     -11.369   7.491 -35.843  1.00  0.00     0.000 A 
HETATM   28  C   UNL     1     -10.547   6.438 -35.450  1.00  0.00     0.002 A 
HETATM   29  C   UNL     1     -11.089   5.165 -35.261  1.00  0.00     0.029 A 
ENDBRANCH  21  24
ENDBRANCH  19  20
ENDBRANCH   3  19
TORSDOF 5
ENDMDL
MODEL 8
REMARK VINA RESULT:      -7.9      2.512      3.483
REMARK  5 active torsions:
REMARK  status: ('A' for Active; 'I' for Inactive)
REMARK    1  A    between atoms: C_3  and  N_4 
REMARK       I    between atoms: N_4  and  C_5 
REMARK       I    between atoms: C_5  and  N_6 
REMARK    2  A    between atoms: N_6  and  C_7 
REMARK    3  A    between atoms: C_7  and  C_8 
REMARK       I    between atoms: C_8  and  N_9 
REMARK    4  A    between atoms: N_9  and  C_10 
REMARK    5  A    between atoms: C_19  and  C_20 
ROOT
HETATM    1  N   UNL     1      -3.711   6.735 -32.292  1.00  0.00    -0.309 N 
HETATM    2  C   UNL     1      -4.360   5.590 -32.689  1.00  0.00     0.321 C 
HETATM    3  N   UNL     1      -5.681   5.821 -32.969  1.00  0.00    -0.334 N 
HETATM    4  O   UNL     1      -3.850   4.483 -32.813  1.00  0.00    -0.247 OA
HETATM    5  H   UNL     1      -3.992   7.559 -32.800  1.00  0.00     0.170 HD
HETATM    6  H   UNL     1      -6.060   6.715 -32.697  1.00  0.00     0.164 HD
ENDROOT
BRANCH   1   7
HETATM    7  C   UNL     1      -2.418   6.747 -31.719  1.00  0.00     0.043 A 
HETATM    8  C   UNL     1      -1.280   6.817 -32.544  1.00  0.00    -0.035 A 
HETATM    9  C   UNL     1      -1.364   6.761 -34.044  1.00  0.00     0.050 C 
HETATM   10  C   UNL     1      -0.012   6.864 -31.944  1.00  0.00     0.010 A 
HETATM   11  C   UNL     1       0.121   6.888 -30.554  1.00  0.00     0.016 A 
HETATM   12  C   UNL     1      -1.005   6.854 -29.724  1.00  0.00     0.019 A 
HETATM   13  C   UNL     1      -2.271   6.764 -30.323  1.00  0.00     0.046 A 
BRANCH  12  14
HETATM   14  C   UNL     1      -0.836   6.949 -28.277  1.00  0.00     0.179 A 
HETATM   15  O   UNL     1       0.446   6.877 -27.793  1.00  0.00    -0.302 OA
HETATM   16  C   UNL     1       0.299   6.940 -26.441  1.00  0.00     0.163 A 
HETATM   17  C   UNL     1      -1.040   7.046 -26.166  1.00  0.00     0.144 A 
HETATM   18  N   UNL     1      -1.758   7.050 -27.335  1.00  0.00    -0.234 NA
ENDBRANCH  12  14
ENDBRANCH   1   7
BRANCH   3  19
HETATM   19  C   UNL     1      -6.455   5.022 -33.911  1.00  0.00     0.227 C 
BRANCH  19  20
HETATM   20  C   UNL     1      -6.971   3.619 -33.531  1.00  0.00     0.239 C 
HETATM   21  N   UNL     1      -6.115   2.598 -33.882  1.00  0.00    -0.326 N 
HETATM   22  H   UNL     1      -5.180   2.883 -34.180  1.00  0.00     0.169 HD
HETATM   23  O   UNL     1      -8.122   3.485 -33.115  1.00  0.00    -0.271 OA
BRANCH  21  24
HETATM   24  C   UNL     1      -6.390   1.222 -33.994  1.00  0.00     0.034 A 
HETATM   25  C   UNL     1      -7.198   0.663 -34.984  1.00  0.00     0.029 A 
HETATM   26  C   UNL     1      -7.357  -0.725 -35.066  1.00  0.00     0.002 A 
HETATM   27  C   UNL     1      -6.717  -1.561 -34.153  1.00  0.00     0.000 A 
HETATM   28  C   UNL     1      -5.921  -1.011 -33.153  1.00  0.00     0.002 A 
HETATM   29  C   UNL     1      -5.757   0.373 -33.075  1.00  0.00     0.029 A 
ENDBRANCH  21  24
ENDBRANCH  19  20
ENDBRANCH   3  19
TORSDOF 5
ENDMDL
MODEL 9
REMARK VINA RESULT:      -7.9      3.795      7.694
REMARK  5 active torsions:
REMARK  status: ('A' for Active; 'I' for Inactive)
REMARK    1  A    between atoms: C_3  and  N_4 
REMARK       I    between atoms: N_4  and  C_5 
REMARK       I    between atoms: C_5  and  N_6 
REMARK    2  A    between atoms: N_6  and  C_7 
REMARK    3  A    between atoms: C_7  and  C_8 
REMARK       I    between atoms: C_8  and  N_9 
REMARK    4  A    between atoms: N_9  and  C_10 
REMARK    5  A    between atoms: C_19  and  C_20 
ROOT
HETATM    1  N   UNL     1      -6.031   2.047 -33.397  1.00  0.00    -0.309 N 
HETATM    2  C   UNL     1      -6.979   2.467 -32.494  1.00  0.00     0.321 C 
HETATM    3  N   UNL     1      -7.414   3.738 -32.763  1.00  0.00    -0.334 N 
HETATM    4  O   UNL     1      -7.426   1.808 -31.564  1.00  0.00    -0.247 OA
HETATM    5  H   UNL     1      -6.214   2.338 -34.344  1.00  0.00     0.170 HD
HETATM    6  H   UNL     1      -6.894   4.269 -33.445  1.00  0.00     0.164 HD
ENDROOT
BRANCH   1   7
HETATM    7  C   UNL     1      -5.243   0.885 -33.226  1.00  0.00     0.043 A 
HETATM    8  C   UNL     1      -4.115   0.914 -32.386  1.00  0.00    -0.035 A 
HETATM    9  C   UNL     1      -3.623   2.178 -31.735  1.00  0.00     0.050 C 
HETATM   10  C   UNL     1      -3.374  -0.265 -32.208  1.00  0.00     0.010 A 
HETATM   11  C   UNL     1      -3.772  -1.459 -32.815  1.00  0.00     0.016 A 
HETATM   12  C   UNL     1      -4.912  -1.507 -33.623  1.00  0.00     0.019 A 
HETATM   13  C   UNL     1      -5.629  -0.319 -33.837  1.00  0.00     0.046 A 
BRANCH  12  14
HETATM   14  C   UNL     1      -5.341  -2.783 -34.189  1.00  0.00     0.179 A 
HETATM   15  O   UNL     1      -6.639  -2.866 -34.627  1.00  0.00    -0.302 OA
HETATM   16  C   UNL     1      -6.769  -4.154 -35.047  1.00  0.00     0.163 A 
HETATM   17  C   UNL     1      -5.570  -4.787 -34.851  1.00  0.00     0.144 A 
HETATM   18  N   UNL     1      -4.664  -3.913 -34.305  1.00  0.00    -0.234 NA
ENDBRANCH  12  14
ENDBRANCH   1   7
BRANCH   3  19
HETATM   19  C   UNL     1      -8.736   4.230 -32.398  1.00  0.00     0.227 C 
BRANCH  19  20
HETATM   20  C   UNL     1      -9.928   3.265 -32.226  1.00  0.00     0.239 C 
HETATM   21  N   UNL     1     -10.181   2.491 -33.338  1.00  0.00    -0.326 N 
HETATM   22  H   UNL     1      -9.463   2.508 -34.066  1.00  0.00     0.169 HD
HETATM   23  O   UNL     1     -10.645   3.354 -31.230  1.00  0.00    -0.271 OA
BRANCH  21  24
HETATM   24  C   UNL     1     -11.347   1.770 -33.657  1.00  0.00     0.034 A 
HETATM   25  C   UNL     1     -11.539   0.421 -33.360  1.00  0.00     0.029 A 
HETATM   26  C   UNL     1     -12.761  -0.198 -33.647  1.00  0.00     0.002 A 
HETATM   27  C   UNL     1     -13.794   0.525 -34.240  1.00  0.00     0.000 A 
HETATM   28  C   UNL     1     -13.606   1.868 -34.552  1.00  0.00     0.002 A 
HETATM   29  C   UNL     1     -12.389   2.487 -34.261  1.00  0.00     0.029 A 
ENDBRANCH  21  24
ENDBRANCH  19  20
ENDBRANCH   3  19
TORSDOF 5
ENDMDL
MODEL 10
REMARK VINA RESULT:      -7.8      5.159      8.688
REMARK  5 active torsions:
REMARK  status: ('A' for Active; 'I' for Inactive)
REMARK    1  A    between atoms: C_3  and  N_4 
REMARK       I    between atoms: N_4  and  C_5 
REMARK       I    between atoms: C_5  and  N_6 
REMARK    2  A    between atoms: N_6  and  C_7 
REMARK    3  A    between atoms: C_7  and  C_8 
REMARK       I    between atoms: C_8  and  N_9 
REMARK    4  A    between atoms: N_9  and  C_10 
REMARK    5  A    between atoms: C_19  and  C_20 
ROOT
HETATM    1  N   UNL     1     -10.258   2.383 -31.880  1.00  0.00    -0.309 N 
HETATM    2  C   UNL     1      -8.891   2.484 -31.986  1.00  0.00     0.321 C 
HETATM    3  N   UNL     1      -8.285   2.536 -30.759  1.00  0.00    -0.334 N 
HETATM    4  O   UNL     1      -8.252   2.503 -33.030  1.00  0.00    -0.247 OA
HETATM    5  H   UNL     1     -10.565   1.784 -31.130  1.00  0.00     0.170 HD
HETATM    6  H   UNL     1      -8.880   2.670 -29.955  1.00  0.00     0.164 HD
ENDROOT
BRANCH   1   7
HETATM    7  C   UNL     1     -11.145   2.549 -32.968  1.00  0.00     0.043 A 
HETATM    8  C   UNL     1     -11.644   1.425 -33.652  1.00  0.00    -0.035 A 
HETATM    9  C   UNL     1     -11.181   0.026 -33.353  1.00  0.00     0.050 C 
HETATM   10  C   UNL     1     -12.551   1.622 -34.705  1.00  0.00     0.010 A 
HETATM   11  C   UNL     1     -12.989   2.904 -35.043  1.00  0.00     0.016 A 
HETATM   12  C   UNL     1     -12.527   4.026 -34.347  1.00  0.00     0.019 A 
HETATM   13  C   UNL     1     -11.587   3.835 -33.322  1.00  0.00     0.046 A 
BRANCH  12  14
HETATM   14  C   UNL     1     -13.054   5.347 -34.678  1.00  0.00     0.179 A 
HETATM   15  O   UNL     1     -13.808   5.976 -33.718  1.00  0.00    -0.302 OA
HETATM   16  C   UNL     1     -14.199   7.139 -34.307  1.00  0.00     0.163 A 
HETATM   17  C   UNL     1     -13.677   7.168 -35.574  1.00  0.00     0.144 A 
HETATM   18  N   UNL     1     -12.951   6.027 -35.807  1.00  0.00    -0.234 NA
ENDBRANCH  12  14
ENDBRANCH   1   7
BRANCH   3  19
HETATM   19  C   UNL     1      -6.923   2.080 -30.514  1.00  0.00     0.227 C 
BRANCH  19  20
HETATM   20  C   UNL     1      -6.468   0.666 -30.931  1.00  0.00     0.239 C 
HETATM   21  N   UNL     1      -6.111   0.566 -32.258  1.00  0.00    -0.326 N 
HETATM   22  H   UNL     1      -6.013   1.449 -32.762  1.00  0.00     0.169 HD
HETATM   23  O   UNL     1      -6.602  -0.273 -30.147  1.00  0.00    -0.271 OA
BRANCH  21  24
HETATM   24  C   UNL     1      -5.973  -0.594 -33.044  1.00  0.00     0.034 A 
HETATM   25  C   UNL     1      -7.020  -1.199 -33.740  1.00  0.00     0.029 A 
HETATM   26  C   UNL     1      -6.777  -2.307 -34.558  1.00  0.00     0.002 A 
HETATM   27  C   UNL     1      -5.489  -2.824 -34.679  1.00  0.00     0.000 A 
HETATM   28  C   UNL     1      -4.440  -2.237 -33.977  1.00  0.00     0.002 A 
HETATM   29  C   UNL     1      -4.681  -1.126 -33.165  1.00  0.00     0.029 A 
ENDBRANCH  21  24
ENDBRANCH  19  20
ENDBRANCH   3  19
TORSDOF 5
ENDMDL
