MODEL 1
REMARK VINA RESULT:      -8.8      0.000      0.000
REMARK  2 active torsions:
REMARK  status: ('A' for Active; 'I' for Inactive)
REMARK    1  A    between atoms: N_3  and  C_4 
REMARK    2  A    between atoms: C_12  and  C_13 
REMARK       I    between atoms: C_13  and  N_14 
ROOT
HETATM    1  C   UNL     1      -6.897   2.714 -31.240  1.00  0.00     0.262 C 
HETATM    2  N   UNL     1      -6.762   1.430 -31.803  1.00  0.00    -0.311 N 
HETATM    3  C   UNL     1      -5.544   0.739 -32.040  1.00  0.00     0.064 A 
HETATM    4  C   UNL     1      -5.340  -0.088 -33.164  1.00  0.00     0.061 A 
HETATM    5  C   UNL     1      -4.098  -0.736 -33.308  1.00  0.00     0.032 A 
HETATM    6  C   UNL     1      -3.086  -0.600 -32.359  1.00  0.00     0.002 A 
HETATM    7  C   UNL     1      -3.299   0.184 -31.236  1.00  0.00     0.002 A 
HETATM    8  C   UNL     1      -4.519   0.841 -31.076  1.00  0.00     0.032 A 
HETATM    9  N   UNL     1      -6.241  -0.335 -34.222  1.00  0.00    -0.325 N 
HETATM   10  C   UNL     1      -7.524   0.022 -34.493  1.00  0.00     0.227 C 
HETATM   11  O   UNL     1      -8.005  -0.416 -35.543  1.00  0.00    -0.273 OA
HETATM   12  C   UNL     1      -8.309   0.964 -33.609  1.00  0.00     0.092 C 
HETATM   13  C   UNL     1      -9.811   0.790 -33.851  1.00  0.00     0.021 C 
HETATM   14  C   UNL     1      -7.984   0.715 -32.151  1.00  0.00     0.146 C 
HETATM   15  O   UNL     1      -7.972   3.091 -30.770  1.00  0.00    -0.267 OA
HETATM   16  H   UNL     1      -5.903  -0.946 -34.959  1.00  0.00     0.169 HD
ENDROOT
BRANCH   1  17
HETATM   17  C   UNL     1      -5.779   3.658 -31.309  1.00  0.00     0.075 C 
HETATM   18  C   UNL     1      -5.181   4.140 -32.474  1.00  0.00     0.050 C 
HETATM   19  C   UNL     1      -5.620   3.932 -33.881  1.00  0.00     0.071 C 
HETATM   20  N   UNL     1      -4.102   4.924 -32.076  1.00  0.00    -0.238 N 
HETATM   21  N   UNL     1      -4.087   5.075 -30.725  1.00  0.00    -0.179 NA
HETATM   22  C   UNL     1      -5.022   4.243 -30.278  1.00  0.00     0.158 C 
BRANCH  20  23
HETATM   23  C   UNL     1      -3.070   5.546 -32.840  1.00  0.00     0.061 A 
HETATM   24  C   UNL     1      -2.830   6.915 -32.662  1.00  0.00     0.051 A 
HETATM   25  C   UNL     1      -1.828   7.515 -33.405  1.00  0.00     0.118 A 
HETATM   26  N   UNL     1      -1.051   6.851 -34.284  1.00  0.00    -0.273 NA
HETATM   27  C   UNL     1      -1.277   5.528 -34.416  1.00  0.00     0.118 A 
HETATM   28  C   UNL     1      -2.261   4.836 -33.726  1.00  0.00     0.051 A 
ENDBRANCH  20  23
ENDBRANCH   1  17
TORSDOF 2
ENDMDL
MODEL 2
REMARK VINA RESULT:      -8.5      1.803      2.473
REMARK  2 active torsions:
REMARK  status: ('A' for Active; 'I' for Inactive)
REMARK    1  A    between atoms: N_3  and  C_4 
REMARK    2  A    between atoms: C_12  and  C_13 
REMARK       I    between atoms: C_13  and  N_14 
ROOT
HETATM    1  C   UNL     1      -7.111   2.564 -30.910  1.00  0.00     0.262 C 
HETATM    2  N   UNL     1      -7.896   1.881 -31.859  1.00  0.00    -0.311 N 
HETATM    3  C   UNL     1      -7.416   1.069 -32.921  1.00  0.00     0.064 A 
HETATM    4  C   UNL     1      -8.036   1.019 -34.187  1.00  0.00     0.061 A 
HETATM    5  C   UNL     1      -7.487   0.178 -35.174  1.00  0.00     0.032 A 
HETATM    6  C   UNL     1      -6.371  -0.618 -34.921  1.00  0.00     0.002 A 
HETATM    7  C   UNL     1      -5.783  -0.596 -33.667  1.00  0.00     0.002 A 
HETATM    8  C   UNL     1      -6.305   0.234 -32.675  1.00  0.00     0.032 A 
HETATM    9  N   UNL     1      -9.160   1.755 -34.620  1.00  0.00    -0.325 N 
HETATM   10  C   UNL     1     -10.019   2.630 -34.034  1.00  0.00     0.227 C 
HETATM   11  O   UNL     1     -10.925   3.071 -34.748  1.00  0.00    -0.273 OA
HETATM   12  C   UNL     1      -9.846   3.107 -32.610  1.00  0.00     0.092 C 
HETATM   13  C   UNL     1     -11.172   3.648 -32.068  1.00  0.00     0.021 C 
HETATM   14  C   UNL     1      -9.345   1.980 -31.731  1.00  0.00     0.146 C 
HETATM   15  O   UNL     1      -7.598   2.959 -29.849  1.00  0.00    -0.267 OA
HETATM   16  H   UNL     1      -9.448   1.599 -35.581  1.00  0.00     0.169 HD
ENDROOT
BRANCH   1  17
HETATM   17  C   UNL     1      -5.722   2.908 -31.228  1.00  0.00     0.075 C 
HETATM   18  C   UNL     1      -5.300   4.003 -31.983  1.00  0.00     0.050 C 
HETATM   19  C   UNL     1      -6.124   5.129 -32.503  1.00  0.00     0.071 C 
HETATM   20  N   UNL     1      -3.920   3.886 -32.121  1.00  0.00    -0.238 N 
HETATM   21  N   UNL     1      -3.445   2.859 -31.367  1.00  0.00    -0.179 NA
HETATM   22  C   UNL     1      -4.528   2.229 -30.925  1.00  0.00     0.158 C 
BRANCH  20  23
HETATM   23  C   UNL     1      -2.993   4.642 -32.899  1.00  0.00     0.061 A 
HETATM   24  C   UNL     1      -2.069   5.462 -32.239  1.00  0.00     0.051 A 
HETATM   25  C   UNL     1      -1.172   6.194 -32.998  1.00  0.00     0.118 A 
HETATM   26  N   UNL     1      -1.122   6.151 -34.344  1.00  0.00    -0.273 NA
HETATM   27  C   UNL     1      -1.999   5.330 -34.957  1.00  0.00     0.118 A 
HETATM   28  C   UNL     1      -2.943   4.564 -34.290  1.00  0.00     0.051 A 
ENDBRANCH  20  23
ENDBRANCH   1  17
TORSDOF 2
ENDMDL
MODEL 3
REMARK VINA RESULT:      -8.2      4.122      7.302
REMARK  2 active torsions:
REMARK  status: ('A' for Active; 'I' for Inactive)
REMARK    1  A    between atoms: N_3  and  C_4 
REMARK    2  A    between atoms: C_12  and  C_13 
REMARK       I    between atoms: C_13  and  N_14 
ROOT
HETATM    1  C   UNL     1      -7.755   2.309 -32.735  1.00  0.00     0.262 C 
HETATM    2  N   UNL     1      -8.979   2.969 -32.959  1.00  0.00    -0.311 N 
HETATM    3  C   UNL     1     -10.142   2.408 -33.553  1.00  0.00     0.064 A 
HETATM    4  C   UNL     1     -10.998   3.142 -34.400  1.00  0.00     0.061 A 
HETATM    5  C   UNL     1     -12.130   2.497 -34.936  1.00  0.00     0.032 A 
HETATM    6  C   UNL     1     -12.433   1.171 -34.629  1.00  0.00     0.002 A 
HETATM    7  C   UNL     1     -11.611   0.462 -33.768  1.00  0.00     0.002 A 
HETATM    8  C   UNL     1     -10.481   1.077 -33.231  1.00  0.00     0.032 A 
HETATM    9  N   UNL     1     -10.846   4.479 -34.823  1.00  0.00    -0.325 N 
HETATM   10  C   UNL     1      -9.966   5.478 -34.550  1.00  0.00     0.227 C 
HETATM   11  O   UNL     1     -10.170   6.558 -35.114  1.00  0.00    -0.273 OA
HETATM   12  C   UNL     1      -8.756   5.275 -33.667  1.00  0.00     0.092 C 
HETATM   13  C   UNL     1      -8.255   6.622 -33.137  1.00  0.00     0.021 C 
HETATM   14  C   UNL     1      -9.090   4.353 -32.514  1.00  0.00     0.146 C 
HETATM   15  O   UNL     1      -6.933   2.753 -31.932  1.00  0.00    -0.267 OA
HETATM   16  H   UNL     1     -11.560   4.828 -35.455  1.00  0.00     0.169 HD
ENDROOT
BRANCH   1  17
HETATM   17  C   UNL     1      -7.402   1.139 -33.544  1.00  0.00     0.075 C 
HETATM   18  C   UNL     1      -6.977  -0.098 -33.058  1.00  0.00     0.050 C 
HETATM   19  C   UNL     1      -6.926  -0.556 -31.642  1.00  0.00     0.071 C 
HETATM   20  N   UNL     1      -6.655  -0.875 -34.166  1.00  0.00    -0.238 N 
HETATM   21  N   UNL     1      -6.997  -0.238 -35.318  1.00  0.00    -0.179 NA
HETATM   22  C   UNL     1      -7.345   0.988 -34.941  1.00  0.00     0.158 C 
BRANCH  20  23
HETATM   23  C   UNL     1      -6.046  -2.162 -34.258  1.00  0.00     0.061 A 
HETATM   24  C   UNL     1      -6.816  -3.242 -34.709  1.00  0.00     0.051 A 
HETATM   25  C   UNL     1      -6.221  -4.489 -34.795  1.00  0.00     0.118 A 
HETATM   26  N   UNL     1      -4.931  -4.725 -34.486  1.00  0.00    -0.273 NA
HETATM   27  C   UNL     1      -4.199  -3.665 -34.085  1.00  0.00     0.118 A 
HETATM   28  C   UNL     1      -4.702  -2.379 -33.956  1.00  0.00     0.051 A 
ENDBRANCH  20  23
ENDBRANCH   1  17
TORSDOF 2
ENDMDL
MODEL 4
REMARK VINA RESULT:      -8.2      3.275      7.474
REMARK  2 active torsions:
REMARK  status: ('A' for Active; 'I' for Inactive)
REMARK    1  A    between atoms: N_3  and  C_4 
REMARK    2  A    between atoms: C_12  and  C_13 
REMARK       I    between atoms: C_13  and  N_14 
ROOT
HETATM    1  C   UNL     1      -7.804   3.370 -33.775  1.00  0.00     0.262 C 
HETATM    2  N   UNL     1      -6.572   2.693 -33.852  1.00  0.00    -0.311 N 
HETATM    3  C   UNL     1      -6.388   1.298 -34.049  1.00  0.00     0.064 A 
HETATM    4  C   UNL     1      -5.354   0.567 -33.428  1.00  0.00     0.061 A 
HETATM    5  C   UNL     1      -5.253  -0.813 -33.691  1.00  0.00     0.032 A 
HETATM    6  C   UNL     1      -6.127  -1.460 -34.563  1.00  0.00     0.002 A 
HETATM    7  C   UNL     1      -7.121  -0.734 -35.201  1.00  0.00     0.002 A 
HETATM    8  C   UNL     1      -7.245   0.632 -34.950  1.00  0.00     0.032 A 
HETATM    9  N   UNL     1      -4.391   1.049 -32.517  1.00  0.00    -0.325 N 
HETATM   10  C   UNL     1      -4.077   2.270 -32.009  1.00  0.00     0.227 C 
HETATM   11  O   UNL     1      -3.123   2.309 -31.225  1.00  0.00    -0.273 OA
HETATM   12  C   UNL     1      -4.886   3.509 -32.316  1.00  0.00     0.092 C 
HETATM   13  C   UNL     1      -4.051   4.766 -32.050  1.00  0.00     0.021 C 
HETATM   14  C   UNL     1      -5.356   3.492 -33.755  1.00  0.00     0.146 C 
HETATM   15  O   UNL     1      -7.869   4.590 -33.938  1.00  0.00    -0.267 OA
HETATM   16  H   UNL     1      -3.736   0.361 -32.158  1.00  0.00     0.169 HD
ENDROOT
BRANCH   1  17
HETATM   17  C   UNL     1      -9.013   2.637 -33.390  1.00  0.00     0.075 C 
HETATM   18  C   UNL     1     -10.267   2.746 -33.994  1.00  0.00     0.050 C 
HETATM   19  C   UNL     1     -10.627   3.498 -35.227  1.00  0.00     0.071 C 
HETATM   20  N   UNL     1     -11.139   1.956 -33.251  1.00  0.00    -0.238 N 
HETATM   21  N   UNL     1     -10.463   1.246 -32.308  1.00  0.00    -0.179 NA
HETATM   22  C   UNL     1      -9.226   1.731 -32.336  1.00  0.00     0.158 C 
BRANCH  20  23
HETATM   23  C   UNL     1     -12.555   1.802 -33.330  1.00  0.00     0.061 A 
HETATM   24  C   UNL     1     -13.077   0.711 -34.038  1.00  0.00     0.051 A 
HETATM   25  C   UNL     1     -14.451   0.566 -34.113  1.00  0.00     0.118 A 
HETATM   26  N   UNL     1     -15.325   1.408 -33.526  1.00  0.00    -0.273 NA
HETATM   27  C   UNL     1     -14.801   2.432 -32.822  1.00  0.00     0.118 A 
HETATM   28  C   UNL     1     -13.441   2.671 -32.694  1.00  0.00     0.051 A 
ENDBRANCH  20  23
ENDBRANCH   1  17
TORSDOF 2
ENDMDL
MODEL 5
REMARK VINA RESULT:      -8.1     17.568     20.000
REMARK  2 active torsions:
REMARK  status: ('A' for Active; 'I' for Inactive)
REMARK    1  A    between atoms: N_3  and  C_4 
REMARK    2  A    between atoms: C_12  and  C_13 
REMARK       I    between atoms: C_13  and  N_14 
ROOT
HETATM    1  C   UNL     1      -3.767 -13.509 -39.637  1.00  0.00     0.262 C 
HETATM    2  N   UNL     1      -2.759 -14.042 -40.463  1.00  0.00    -0.311 N 
HETATM    3  C   UNL     1      -2.954 -14.737 -41.687  1.00  0.00     0.064 A 
HETATM    4  C   UNL     1      -2.148 -15.823 -42.087  1.00  0.00     0.061 A 
HETATM    5  C   UNL     1      -2.417 -16.444 -43.322  1.00  0.00     0.032 A 
HETATM    6  C   UNL     1      -3.436 -15.995 -44.162  1.00  0.00     0.002 A 
HETATM    7  C   UNL     1      -4.204 -14.905 -43.785  1.00  0.00     0.002 A 
HETATM    8  C   UNL     1      -3.960 -14.279 -42.563  1.00  0.00     0.032 A 
HETATM    9  N   UNL     1      -1.087 -16.414 -41.368  1.00  0.00    -0.325 N 
HETATM   10  C   UNL     1      -0.458 -16.147 -40.193  1.00  0.00     0.227 C 
HETATM   11  O   UNL     1       0.475 -16.897 -39.888  1.00  0.00    -0.273 OA
HETATM   12  C   UNL     1      -0.910 -15.046 -39.262  1.00  0.00     0.092 C 
HETATM   13  C   UNL     1       0.229 -14.649 -38.318  1.00  0.00     0.021 C 
HETATM   14  C   UNL     1      -1.375 -13.841 -40.053  1.00  0.00     0.146 C 
HETATM   15  O   UNL     1      -3.507 -12.652 -38.791  1.00  0.00    -0.267 OA
HETATM   16  H   UNL     1      -0.637 -17.207 -41.814  1.00  0.00     0.169 HD
ENDROOT
BRANCH   1  17
HETATM   17  C   UNL     1      -5.126 -14.054 -39.704  1.00  0.00     0.075 C 
HETATM   18  C   UNL     1      -6.257 -13.384 -40.171  1.00  0.00     0.050 C 
HETATM   19  C   UNL     1      -6.326 -12.050 -40.828  1.00  0.00     0.071 C 
HETATM   20  N   UNL     1      -7.341 -14.233 -39.960  1.00  0.00    -0.238 N 
HETATM   21  N   UNL     1      -6.922 -15.451 -39.526  1.00  0.00    -0.179 NA
HETATM   22  C   UNL     1      -5.624 -15.301 -39.285  1.00  0.00     0.158 C 
BRANCH  20  23
HETATM   23  C   UNL     1      -8.741 -14.014 -40.120  1.00  0.00     0.061 A 
HETATM   24  C   UNL     1      -9.487 -14.933 -40.870  1.00  0.00     0.051 A 
HETATM   25  C   UNL     1     -10.845 -14.717 -41.023  1.00  0.00     0.118 A 
HETATM   26  N   UNL     1     -11.503 -13.676 -40.474  1.00  0.00    -0.273 NA
HETATM   27  C   UNL     1     -10.772 -12.821 -39.730  1.00  0.00     0.118 A 
HETATM   28  C   UNL     1      -9.406 -12.943 -39.524  1.00  0.00     0.051 A 
ENDBRANCH  20  23
ENDBRANCH   1  17
TORSDOF 2
ENDMDL
MODEL 6
REMARK VINA RESULT:      -8.0      2.419      6.994
REMARK  2 active torsions:
REMARK  status: ('A' for Active; 'I' for Inactive)
REMARK    1  A    between atoms: N_3  and  C_4 
REMARK    2  A    between atoms: C_12  and  C_13 
REMARK       I    between atoms: C_13  and  N_14 
ROOT
HETATM    1  C   UNL     1      -5.335   4.459 -31.574  1.00  0.00     0.262 C 
HETATM    2  N   UNL     1      -4.428   5.513 -31.796  1.00  0.00    -0.311 N 
HETATM    3  C   UNL     1      -3.337   5.508 -32.705  1.00  0.00     0.064 A 
HETATM    4  C   UNL     1      -2.107   6.141 -32.429  1.00  0.00     0.061 A 
HETATM    5  C   UNL     1      -1.087   6.084 -33.398  1.00  0.00     0.032 A 
HETATM    6  C   UNL     1      -1.273   5.444 -34.622  1.00  0.00     0.002 A 
HETATM    7  C   UNL     1      -2.494   4.852 -34.908  1.00  0.00     0.002 A 
HETATM    8  C   UNL     1      -3.516   4.890 -33.961  1.00  0.00     0.032 A 
HETATM    9  N   UNL     1      -1.741   6.824 -31.250  1.00  0.00    -0.325 N 
HETATM   10  C   UNL     1      -2.378   7.160 -30.098  1.00  0.00     0.227 C 
HETATM   11  O   UNL     1      -1.717   7.799 -29.272  1.00  0.00    -0.273 OA
HETATM   12  C   UNL     1      -3.792   6.722 -29.795  1.00  0.00     0.092 C 
HETATM   13  C   UNL     1      -4.410   7.627 -28.725  1.00  0.00     0.021 C 
HETATM   14  C   UNL     1      -4.636   6.749 -31.051  1.00  0.00     0.146 C 
HETATM   15  O   UNL     1      -6.423   4.661 -31.031  1.00  0.00    -0.267 OA
HETATM   16  H   UNL     1      -0.797   7.197 -31.229  1.00  0.00     0.169 HD
ENDROOT
BRANCH   1  17
HETATM   17  C   UNL     1      -4.942   3.083 -31.890  1.00  0.00     0.075 C 
HETATM   18  C   UNL     1      -5.553   2.249 -32.827  1.00  0.00     0.050 C 
HETATM   19  C   UNL     1      -6.624   2.596 -33.801  1.00  0.00     0.071 C 
HETATM   20  N   UNL     1      -4.928   1.009 -32.728  1.00  0.00    -0.238 N 
HETATM   21  N   UNL     1      -3.862   1.072 -31.886  1.00  0.00    -0.179 NA
HETATM   22  C   UNL     1      -3.941   2.274 -31.323  1.00  0.00     0.158 C 
BRANCH  20  23
HETATM   23  C   UNL     1      -5.234  -0.241 -33.343  1.00  0.00     0.061 A 
HETATM   24  C   UNL     1      -4.188  -1.131 -33.620  1.00  0.00     0.051 A 
HETATM   25  C   UNL     1      -4.490  -2.343 -34.217  1.00  0.00     0.118 A 
HETATM   26  N   UNL     1      -5.742  -2.729 -34.534  1.00  0.00    -0.273 NA
HETATM   27  C   UNL     1      -6.737  -1.871 -34.228  1.00  0.00     0.118 A 
HETATM   28  C   UNL     1      -6.539  -0.631 -33.640  1.00  0.00     0.051 A 
ENDBRANCH  20  23
ENDBRANCH   1  17
TORSDOF 2
ENDMDL
MODEL 7
REMARK VINA RESULT:      -7.7     16.466     18.199
REMARK  2 active torsions:
REMARK  status: ('A' for Active; 'I' for Inactive)
REMARK    1  A    between atoms: N_3  and  C_4 
REMARK    2  A    between atoms: C_12  and  C_13 
REMARK       I    between atoms: C_13  and  N_14 
ROOT
HETATM    1  C   UNL     1      -4.706 -12.719 -39.152  1.00  0.00     0.262 C 
HETATM    2  N   UNL     1      -5.822 -12.850 -38.304  1.00  0.00    -0.311 N 
HETATM    3  C   UNL     1      -5.873 -13.576 -37.084  1.00  0.00     0.064 A 
HETATM    4  C   UNL     1      -7.013 -14.292 -36.666  1.00  0.00     0.061 A 
HETATM    5  C   UNL     1      -6.966 -14.976 -35.435  1.00  0.00     0.032 A 
HETATM    6  C   UNL     1      -5.837 -14.939 -34.619  1.00  0.00     0.002 A 
HETATM    7  C   UNL     1      -4.729 -14.206 -35.013  1.00  0.00     0.002 A 
HETATM    8  C   UNL     1      -4.750 -13.526 -36.230  1.00  0.00     0.032 A 
HETATM    9  N   UNL     1      -8.232 -14.446 -37.361  1.00  0.00    -0.325 N 
HETATM   10  C   UNL     1      -8.742 -13.959 -38.522  1.00  0.00     0.227 C 
HETATM   11  O   UNL     1      -9.891 -14.311 -38.806  1.00  0.00    -0.273 OA
HETATM   12  C   UNL     1      -7.935 -13.095 -39.464  1.00  0.00     0.092 C 
HETATM   13  C   UNL     1      -8.868 -12.300 -40.384  1.00  0.00     0.021 C 
HETATM   14  C   UNL     1      -7.044 -12.151 -38.685  1.00  0.00     0.146 C 
HETATM   15  O   UNL     1      -4.650 -11.820 -39.993  1.00  0.00    -0.267 OA
HETATM   16  H   UNL     1      -8.933 -15.021 -36.905  1.00  0.00     0.169 HD
ENDROOT
BRANCH   1  17
HETATM   17  C   UNL     1      -3.642 -13.726 -39.113  1.00  0.00     0.075 C 
HETATM   18  C   UNL     1      -2.326 -13.515 -38.702  1.00  0.00     0.050 C 
HETATM   19  C   UNL     1      -1.745 -12.291 -38.085  1.00  0.00     0.071 C 
HETATM   20  N   UNL     1      -1.640 -14.706 -38.923  1.00  0.00    -0.238 N 
HETATM   21  N   UNL     1      -2.496 -15.690 -39.310  1.00  0.00    -0.179 NA
HETATM   22  C   UNL     1      -3.656 -15.074 -39.514  1.00  0.00     0.158 C 
BRANCH  20  23
HETATM   23  C   UNL     1      -0.253 -15.017 -38.815  1.00  0.00     0.061 A 
HETATM   24  C   UNL     1       0.249 -15.442 -37.578  1.00  0.00     0.051 A 
HETATM   25  C   UNL     1       1.596 -15.742 -37.476  1.00  0.00     0.118 A 
HETATM   26  N   UNL     1       2.459 -15.668 -38.510  1.00  0.00    -0.273 NA
HETATM   27  C   UNL     1       1.948 -15.289 -39.700  1.00  0.00     0.118 A 
HETATM   28  C   UNL     1       0.617 -14.957 -39.903  1.00  0.00     0.051 A 
ENDBRANCH  20  23
ENDBRANCH   1  17
TORSDOF 2
ENDMDL
MODEL 8
REMARK VINA RESULT:      -7.5      3.937      6.910
REMARK  2 active torsions:
REMARK  status: ('A' for Active; 'I' for Inactive)
REMARK    1  A    between atoms: N_3  and  C_4 
REMARK    2  A    between atoms: C_12  and  C_13 
REMARK       I    between atoms: C_13  and  N_14 
ROOT
HETATM    1  C   UNL     1     -11.145   1.382 -33.337  1.00  0.00     0.262 C 
HETATM    2  N   UNL     1     -11.878   2.554 -33.604  1.00  0.00    -0.311 N 
HETATM    3  C   UNL     1     -11.343   3.858 -33.788  1.00  0.00     0.064 A 
HETATM    4  C   UNL     1     -11.993   5.023 -33.332  1.00  0.00     0.061 A 
HETATM    5  C   UNL     1     -11.383   6.271 -33.569  1.00  0.00     0.032 A 
HETATM    6  C   UNL     1     -10.178   6.379 -34.260  1.00  0.00     0.002 A 
HETATM    7  C   UNL     1      -9.557   5.236 -34.739  1.00  0.00     0.002 A 
HETATM    8  C   UNL     1     -10.138   3.989 -34.511  1.00  0.00     0.032 A 
HETATM    9  N   UNL     1     -13.205   5.104 -32.614  1.00  0.00    -0.325 N 
HETATM   10  C   UNL     1     -14.138   4.206 -32.203  1.00  0.00     0.227 C 
HETATM   11  O   UNL     1     -15.110   4.665 -31.594  1.00  0.00    -0.273 OA
HETATM   12  C   UNL     1     -13.976   2.717 -32.403  1.00  0.00     0.092 C 
HETATM   13  C   UNL     1     -15.337   2.019 -32.320  1.00  0.00     0.021 C 
HETATM   14  C   UNL     1     -13.324   2.430 -33.739  1.00  0.00     0.146 C 
HETATM   15  O   UNL     1     -11.641   0.269 -33.521  1.00  0.00    -0.267 OA
HETATM   16  H   UNL     1     -13.504   6.038 -32.353  1.00  0.00     0.169 HD
ENDROOT
BRANCH   1  17
HETATM   17  C   UNL     1      -9.815   1.478 -32.730  1.00  0.00     0.075 C 
HETATM   18  C   UNL     1      -8.624   1.007 -33.283  1.00  0.00     0.050 C 
HETATM   19  C   UNL     1      -8.406   0.444 -34.644  1.00  0.00     0.071 C 
HETATM   20  N   UNL     1      -7.630   1.215 -32.330  1.00  0.00    -0.238 N 
HETATM   21  N   UNL     1      -8.113   1.924 -31.276  1.00  0.00    -0.179 NA
HETATM   22  C   UNL     1      -9.425   1.987 -31.478  1.00  0.00     0.158 C 
BRANCH  20  23
HETATM   23  C   UNL     1      -6.263   0.806 -32.305  1.00  0.00     0.061 A 
HETATM   24  C   UNL     1      -5.265   1.783 -32.409  1.00  0.00     0.051 A 
HETATM   25  C   UNL     1      -3.940   1.382 -32.384  1.00  0.00     0.118 A 
HETATM   26  N   UNL     1      -3.550   0.100 -32.246  1.00  0.00    -0.273 NA
HETATM   27  C   UNL     1      -4.527  -0.821 -32.113  1.00  0.00     0.118 A 
HETATM   28  C   UNL     1      -5.881  -0.524 -32.136  1.00  0.00     0.051 A 
ENDBRANCH  20  23
ENDBRANCH   1  17
TORSDOF 2
ENDMDL
MODEL 9
REMARK VINA RESULT:      -7.4      2.960      6.979
REMARK  2 active torsions:
REMARK  status: ('A' for Active; 'I' for Inactive)
REMARK    1  A    between atoms: N_3  and  C_4 
REMARK    2  A    between atoms: C_12  and  C_13 
REMARK       I    between atoms: C_13  and  N_14 
ROOT
HETATM    1  C   UNL     1      -4.977   3.189 -31.489  1.00  0.00     0.262 C 
HETATM    2  N   UNL     1      -5.889   4.152 -31.017  1.00  0.00    -0.311 N 
HETATM    3  C   UNL     1      -7.304   4.027 -30.985  1.00  0.00     0.064 A 
HETATM    4  C   UNL     1      -8.174   5.110 -31.229  1.00  0.00     0.061 A 
HETATM    5  C   UNL     1      -9.563   4.886 -31.169  1.00  0.00     0.032 A 
HETATM    6  C   UNL     1     -10.091   3.635 -30.852  1.00  0.00     0.002 A 
HETATM    7  C   UNL     1      -9.236   2.579 -30.577  1.00  0.00     0.002 A 
HETATM    8  C   UNL     1      -7.857   2.777 -30.637  1.00  0.00     0.032 A 
HETATM    9  N   UNL     1      -7.821   6.433 -31.570  1.00  0.00    -0.325 N 
HETATM   10  C   UNL     1      -6.650   7.110 -31.702  1.00  0.00     0.227 C 
HETATM   11  O   UNL     1      -6.739   8.305 -32.004  1.00  0.00    -0.273 OA
HETATM   12  C   UNL     1      -5.304   6.438 -31.566  1.00  0.00     0.092 C 
HETATM   13  C   UNL     1      -4.221   7.478 -31.260  1.00  0.00     0.021 C 
HETATM   14  C   UNL     1      -5.343   5.390 -30.474  1.00  0.00     0.146 C 
HETATM   15  O   UNL     1      -3.785   3.238 -31.177  1.00  0.00    -0.267 OA
HETATM   16  H   UNL     1      -8.595   7.071 -31.729  1.00  0.00     0.169 HD
ENDROOT
BRANCH   1  17
HETATM   17  C   UNL     1      -5.421   2.177 -32.451  1.00  0.00     0.075 C 
HETATM   18  C   UNL     1      -5.319   0.795 -32.294  1.00  0.00     0.050 C 
HETATM   19  C   UNL     1      -4.884   0.040 -31.086  1.00  0.00     0.071 C 
HETATM   20  N   UNL     1      -5.766   0.222 -33.482  1.00  0.00    -0.238 N 
HETATM   21  N   UNL     1      -6.278   1.170 -34.311  1.00  0.00    -0.179 NA
HETATM   22  C   UNL     1      -5.978   2.329 -33.733  1.00  0.00     0.158 C 
BRANCH  20  23
HETATM   23  C   UNL     1      -5.754  -1.134 -33.925  1.00  0.00     0.061 A 
HETATM   24  C   UNL     1      -4.532  -1.816 -33.981  1.00  0.00     0.051 A 
HETATM   25  C   UNL     1      -4.525  -3.131 -34.412  1.00  0.00     0.118 A 
HETATM   26  N   UNL     1      -5.636  -3.806 -34.768  1.00  0.00    -0.273 NA
HETATM   27  C   UNL     1      -6.806  -3.141 -34.676  1.00  0.00     0.118 A 
HETATM   28  C   UNL     1      -6.919  -1.821 -34.266  1.00  0.00     0.051 A 
ENDBRANCH  20  23
ENDBRANCH   1  17
TORSDOF 2
ENDMDL
MODEL 10
REMARK VINA RESULT:      -7.4      3.381      7.468
REMARK  2 active torsions:
REMARK  status: ('A' for Active; 'I' for Inactive)
REMARK    1  A    between atoms: N_3  and  C_4 
REMARK    2  A    between atoms: C_12  and  C_13 
REMARK       I    between atoms: C_13  and  N_14 
ROOT
HETATM    1  C   UNL     1      -4.536   7.335 -30.807  1.00  0.00     0.262 C 
HETATM    2  N   UNL     1      -3.392   7.603 -30.031  1.00  0.00    -0.311 N 
HETATM    3  C   UNL     1      -2.066   7.176 -30.310  1.00  0.00     0.064 A 
HETATM    4  C   UNL     1      -1.156   6.796 -29.302  1.00  0.00     0.061 A 
HETATM    5  C   UNL     1       0.139   6.392 -29.681  1.00  0.00     0.032 A 
HETATM    6  C   UNL     1       0.545   6.386 -31.015  1.00  0.00     0.002 A 
HETATM    7  C   UNL     1      -0.338   6.794 -32.002  1.00  0.00     0.002 A 
HETATM    8  C   UNL     1      -1.628   7.191 -31.651  1.00  0.00     0.032 A 
HETATM    9  N   UNL     1      -1.392   6.733 -27.913  1.00  0.00    -0.325 N 
HETATM   10  C   UNL     1      -2.436   7.051 -27.102  1.00  0.00     0.227 C 
HETATM   11  O   UNL     1      -2.263   6.872 -25.891  1.00  0.00    -0.273 OA
HETATM   12  C   UNL     1      -3.766   7.525 -27.638  1.00  0.00     0.092 C 
HETATM   13  C   UNL     1      -4.543   8.269 -26.547  1.00  0.00     0.021 C 
HETATM   14  C   UNL     1      -3.563   8.425 -28.838  1.00  0.00     0.146 C 
HETATM   15  O   UNL     1      -5.561   8.007 -30.678  1.00  0.00    -0.267 OA
HETATM   16  H   UNL     1      -0.615   6.413 -27.345  1.00  0.00     0.169 HD
ENDROOT
BRANCH   1  17
HETATM   17  C   UNL     1      -4.552   6.175 -31.702  1.00  0.00     0.075 C 
HETATM   18  C   UNL     1      -4.823   4.857 -31.333  1.00  0.00     0.050 C 
HETATM   19  C   UNL     1      -5.292   4.353 -30.013  1.00  0.00     0.071 C 
HETATM   20  N   UNL     1      -4.628   4.075 -32.469  1.00  0.00    -0.238 N 
HETATM   21  N   UNL     1      -4.395   4.855 -33.558  1.00  0.00    -0.179 NA
HETATM   22  C   UNL     1      -4.255   6.085 -33.074  1.00  0.00     0.158 C 
BRANCH  20  23
HETATM   23  C   UNL     1      -4.631   2.658 -32.637  1.00  0.00     0.061 A 
HETATM   24  C   UNL     1      -3.508   1.927 -32.229  1.00  0.00     0.051 A 
HETATM   25  C   UNL     1      -3.515   0.553 -32.394  1.00  0.00     0.118 A 
HETATM   26  N   UNL     1      -4.554  -0.132 -32.913  1.00  0.00    -0.273 NA
HETATM   27  C   UNL     1      -5.637   0.588 -33.269  1.00  0.00     0.118 A 
HETATM   28  C   UNL     1      -5.726   1.967 -33.154  1.00  0.00     0.051 A 
ENDBRANCH  20  23
ENDBRANCH   1  17
TORSDOF 2
ENDMDL
