MODEL 1
REMARK VINA RESULT:     -10.1      0.000      0.000
REMARK  6 active torsions:
REMARK  status: ('A' for Active; 'I' for Inactive)
REMARK    1  A    between atoms: C_8  and  C_9 
REMARK    2  A    between atoms: C_9  and  C_10 
REMARK    3  A    between atoms: C_10  and  N_11 
REMARK       I    between atoms: N_11  and  C_12 
REMARK    4  A    between atoms: C_12  and  C_13 
REMARK    5  A    between atoms: C_18  and  C_19 
REMARK    6  A    between atoms: C_29  and  C_30 
ROOT
HETATM    1  C   UNL     1      -8.886   2.988 -31.709  1.00  0.00     0.148 A 
HETATM    2  N   UNL     1      -7.671   2.868 -31.125  1.00  0.00    -0.165 NA
HETATM    3  N   UNL     1      -7.012   2.024 -31.946  1.00  0.00    -0.240 N 
HETATM    4  C   UNL     1      -7.705   1.702 -33.075  1.00  0.00     0.123 A 
HETATM    5  N   UNL     1      -7.173   0.945 -34.050  1.00  0.00    -0.366 N 
HETATM    6  C   UNL     1      -5.804   0.455 -34.030  1.00  0.00     0.118 C 
HETATM    7  C   UNL     1      -4.945   1.097 -32.925  1.00  0.00     0.066 C 
HETATM    8  C   UNL     1      -5.682   1.538 -31.646  1.00  0.00     0.221 C 
HETATM    9  C   UNL     1      -8.938   2.276 -32.938  1.00  0.00     0.088 A 
HETATM   10  H   UNL     1      -7.724   0.666 -34.860  1.00  0.00     0.161 HD
ENDROOT
BRANCH   1  11
HETATM   11  C   UNL     1      -9.992   3.760 -31.125  1.00  0.00     0.272 C 
HETATM   12  N   UNL     1     -10.351   4.878 -31.845  1.00  0.00    -0.355 N 
HETATM   13  H   UNL     1      -9.935   4.966 -32.769  1.00  0.00     0.162 HD
HETATM   14  O   UNL     1     -10.550   3.426 -30.083  1.00  0.00    -0.266 OA
BRANCH  12  15
HETATM   15  C   UNL     1     -11.483   5.684 -31.443  1.00  0.00     0.127 C 
BRANCH  15  16
HETATM   16  C   UNL     1     -12.695   5.547 -32.363  1.00  0.00     0.060 C 
BRANCH  16  17
HETATM   17  C   UNL     1     -13.323   4.189 -32.303  1.00  0.00    -0.029 A 
HETATM   18  C   UNL     1     -13.167   3.120 -33.241  1.00  0.00    -0.002 A 
HETATM   19  C   UNL     1     -12.441   2.962 -34.441  1.00  0.00     0.014 A 
HETATM   20  C   UNL     1     -13.939   2.050 -32.788  1.00  0.00     0.042 A 
HETATM   21  C   UNL     1     -12.517   1.751 -35.138  1.00  0.00     0.001 A 
HETATM   22  C   UNL     1     -13.299   0.702 -34.659  1.00  0.00     0.002 A 
HETATM   23  C   UNL     1     -14.025   0.832 -33.471  1.00  0.00     0.030 A 
HETATM   24  N   UNL     1     -14.540   2.451 -31.618  1.00  0.00    -0.365 N 
HETATM   25  H   UNL     1     -15.161   1.875 -31.066  1.00  0.00     0.165 HD
HETATM   26  C   UNL     1     -14.182   3.737 -31.320  1.00  0.00     0.096 A 
ENDBRANCH  16  17
ENDBRANCH  15  16
ENDBRANCH  12  15
ENDBRANCH   1  11
BRANCH   8  27
HETATM   27  C   UNL     1      -5.740   0.464 -30.584  1.00  0.00     0.409 C 
HETATM   28  F   UNL     1      -6.755  -0.405 -30.744  1.00  0.00    -0.169 F 
HETATM   29  F   UNL     1      -4.591  -0.263 -30.597  1.00  0.00    -0.169 F 
HETATM   30  F   UNL     1      -5.840   0.980 -29.337  1.00  0.00    -0.169 F 
ENDBRANCH   8  27
BRANCH   6  31
HETATM   31  C   UNL     1      -5.779  -1.062 -34.101  1.00  0.00    -0.033 A 
HETATM   32  C   UNL     1      -4.622  -1.749 -33.683  1.00  0.00     0.049 A 
HETATM   33  C   UNL     1      -4.569  -3.118 -33.851  1.00  0.00     0.105 A 
HETATM   34  C   UNL     1      -5.619  -3.824 -34.385  1.00  0.00     0.105 A 
HETATM   35  O   UNL     1      -3.508  -3.914 -33.553  1.00  0.00    -0.323 OA
HETATM   36  O   UNL     1      -5.353  -5.154 -34.486  1.00  0.00    -0.323 OA
HETATM   37  C   UNL     1      -6.780  -3.202 -34.781  1.00  0.00     0.040 A 
HETATM   38  C   UNL     1      -3.993  -5.194 -34.010  1.00  0.00     0.352 A 
HETATM   39  C   UNL     1      -6.851  -1.811 -34.646  1.00  0.00     0.012 A 
ENDBRANCH   6  31
TORSDOF 6
ENDMDL
MODEL 2
REMARK VINA RESULT:     -10.0      6.552     10.047
REMARK  6 active torsions:
REMARK  status: ('A' for Active; 'I' for Inactive)
REMARK    1  A    between atoms: C_8  and  C_9 
REMARK    2  A    between atoms: C_9  and  C_10 
REMARK    3  A    between atoms: C_10  and  N_11 
REMARK       I    between atoms: N_11  and  C_12 
REMARK    4  A    between atoms: C_12  and  C_13 
REMARK    5  A    between atoms: C_18  and  C_19 
REMARK    6  A    between atoms: C_29  and  C_30 
ROOT
HETATM    1  C   UNL     1      -4.099   3.712 -32.776  1.00  0.00     0.148 A 
HETATM    2  N   UNL     1      -3.312   4.471 -33.573  1.00  0.00    -0.165 NA
HETATM    3  N   UNL     1      -2.378   4.949 -32.725  1.00  0.00    -0.240 N 
HETATM    4  C   UNL     1      -2.465   4.436 -31.465  1.00  0.00     0.123 A 
HETATM    5  N   UNL     1      -1.566   4.729 -30.510  1.00  0.00    -0.366 N 
HETATM    6  C   UNL     1      -0.391   5.554 -30.737  1.00  0.00     0.118 C 
HETATM    7  C   UNL     1      -0.134   5.846 -32.227  1.00  0.00     0.066 C 
HETATM    8  C   UNL     1      -1.370   5.900 -33.144  1.00  0.00     0.221 C 
HETATM    9  C   UNL     1      -3.592   3.661 -31.449  1.00  0.00     0.088 A 
HETATM   10  H   UNL     1      -1.678   4.383 -29.558  1.00  0.00     0.161 HD
ENDROOT
BRANCH   1  11
HETATM   11  C   UNL     1      -5.317   3.038 -33.248  1.00  0.00     0.272 C 
HETATM   12  N   UNL     1      -5.545   1.804 -32.678  1.00  0.00    -0.355 N 
HETATM   13  H   UNL     1      -4.951   1.561 -31.890  1.00  0.00     0.162 HD
HETATM   14  O   UNL     1      -6.070   3.542 -34.077  1.00  0.00    -0.266 OA
BRANCH  12  15
HETATM   15  C   UNL     1      -6.752   1.064 -32.974  1.00  0.00     0.127 C 
BRANCH  15  16
HETATM   16  C   UNL     1      -6.620   0.124 -34.171  1.00  0.00     0.060 C 
BRANCH  16  17
HETATM   17  C   UNL     1      -5.597  -0.949 -33.961  1.00  0.00    -0.029 A 
HETATM   18  C   UNL     1      -5.708  -2.333 -34.306  1.00  0.00    -0.002 A 
HETATM   19  C   UNL     1      -6.713  -3.119 -34.909  1.00  0.00     0.014 A 
HETATM   20  C   UNL     1      -4.520  -2.956 -33.922  1.00  0.00     0.042 A 
HETATM   21  C   UNL     1      -6.495  -4.488 -35.099  1.00  0.00     0.001 A 
HETATM   22  C   UNL     1      -5.299  -5.080 -34.702  1.00  0.00     0.002 A 
HETATM   23  C   UNL     1      -4.286  -4.324 -34.106  1.00  0.00     0.030 A 
HETATM   24  N   UNL     1      -3.716  -1.990 -33.367  1.00  0.00    -0.365 N 
HETATM   25  H   UNL     1      -2.789  -2.156 -32.999  1.00  0.00     0.165 HD
HETATM   26  C   UNL     1      -4.355  -0.779 -33.379  1.00  0.00     0.096 A 
ENDBRANCH  16  17
ENDBRANCH  15  16
ENDBRANCH  12  15
ENDBRANCH   1  11
BRANCH   8  27
HETATM   27  C   UNL     1      -1.968   7.282 -33.268  1.00  0.00     0.409 C 
HETATM   28  F   UNL     1      -3.143   7.426 -32.628  1.00  0.00    -0.169 F 
HETATM   29  F   UNL     1      -1.117   8.204 -32.745  1.00  0.00    -0.169 F 
HETATM   30  F   UNL     1      -2.162   7.644 -34.558  1.00  0.00    -0.169 F 
ENDBRANCH   8  27
BRANCH   6  31
HETATM   31  C   UNL     1      -0.398   6.758 -29.810  1.00  0.00    -0.033 A 
HETATM   32  C   UNL     1       0.802   7.146 -29.183  1.00  0.00     0.049 A 
HETATM   33  C   UNL     1       0.764   8.173 -28.261  1.00  0.00     0.105 A 
HETATM   34  C   UNL     1      -0.400   8.838 -27.964  1.00  0.00     0.105 A 
HETATM   35  O   UNL     1       1.820   8.625 -27.533  1.00  0.00    -0.323 OA
HETATM   36  O   UNL     1      -0.224   9.796 -27.015  1.00  0.00    -0.323 OA
HETATM   37  C   UNL     1      -1.591   8.514 -28.571  1.00  0.00     0.040 A 
HETATM   38  C   UNL     1       1.173   9.615 -26.706  1.00  0.00     0.352 A 
HETATM   39  C   UNL     1      -1.586   7.459 -29.490  1.00  0.00     0.012 A 
ENDBRANCH   6  31
TORSDOF 6
ENDMDL
MODEL 3
REMARK VINA RESULT:      -9.7      5.019      8.162
REMARK  6 active torsions:
REMARK  status: ('A' for Active; 'I' for Inactive)
REMARK    1  A    between atoms: C_8  and  C_9 
REMARK    2  A    between atoms: C_9  and  C_10 
REMARK    3  A    between atoms: C_10  and  N_11 
REMARK       I    between atoms: N_11  and  C_12 
REMARK    4  A    between atoms: C_12  and  C_13 
REMARK    5  A    between atoms: C_18  and  C_19 
REMARK    6  A    between atoms: C_29  and  C_30 
ROOT
HETATM    1  C   UNL     1      -4.109   4.789 -31.810  1.00  0.00     0.148 A 
HETATM    2  N   UNL     1      -5.148   4.269 -31.117  1.00  0.00    -0.165 NA
HETATM    3  N   UNL     1      -4.876   2.949 -31.092  1.00  0.00    -0.240 N 
HETATM    4  C   UNL     1      -3.664   2.626 -31.626  1.00  0.00     0.123 A 
HETATM    5  N   UNL     1      -3.186   1.370 -31.609  1.00  0.00    -0.366 N 
HETATM    6  C   UNL     1      -3.870   0.258 -30.968  1.00  0.00     0.118 C 
HETATM    7  C   UNL     1      -5.056   0.699 -30.092  1.00  0.00     0.066 C 
HETATM    8  C   UNL     1      -5.792   1.983 -30.521  1.00  0.00     0.221 C 
HETATM    9  C   UNL     1      -3.155   3.787 -32.138  1.00  0.00     0.088 A 
HETATM   10  H   UNL     1      -2.305   1.136 -32.064  1.00  0.00     0.161 HD
ENDROOT
BRANCH   1  11
HETATM   11  C   UNL     1      -4.005   6.212 -32.166  1.00  0.00     0.272 C 
HETATM   12  N   UNL     1      -3.987   7.070 -31.089  1.00  0.00    -0.355 N 
HETATM   13  H   UNL     1      -3.887   6.637 -30.175  1.00  0.00     0.162 HD
HETATM   14  O   UNL     1      -3.932   6.596 -33.331  1.00  0.00    -0.266 OA
BRANCH  12  15
HETATM   15  C   UNL     1      -3.795   8.492 -31.279  1.00  0.00     0.127 C 
BRANCH  15  16
HETATM   16  C   UNL     1      -2.342   8.942 -31.141  1.00  0.00     0.060 C 
BRANCH  16  17
HETATM   17  C   UNL     1      -1.611   8.228 -30.047  1.00  0.00    -0.029 A 
HETATM   18  C   UNL     1      -0.764   7.081 -30.173  1.00  0.00    -0.002 A 
HETATM   19  C   UNL     1      -0.345   6.283 -31.259  1.00  0.00     0.014 A 
HETATM   20  C   UNL     1      -0.305   6.757 -28.896  1.00  0.00     0.042 A 
HETATM   21  C   UNL     1       0.507   5.197 -31.028  1.00  0.00     0.001 A 
HETATM   22  C   UNL     1       0.946   4.899 -29.740  1.00  0.00     0.002 A 
HETATM   23  C   UNL     1       0.548   5.676 -28.648  1.00  0.00     0.030 A 
HETATM   24  N   UNL     1      -0.849   7.671 -28.026  1.00  0.00    -0.365 N 
HETATM   25  H   UNL     1      -0.688   7.678 -27.028  1.00  0.00     0.165 HD
HETATM   26  C   UNL     1      -1.641   8.557 -28.704  1.00  0.00     0.096 A 
ENDBRANCH  16  17
ENDBRANCH  15  16
ENDBRANCH  12  15
ENDBRANCH   1  11
BRANCH   8  27
HETATM   27  C   UNL     1      -6.946   1.730 -31.463  1.00  0.00     0.409 C 
HETATM   28  F   UNL     1      -7.416   0.470 -31.421  1.00  0.00    -0.169 F 
HETATM   29  F   UNL     1      -7.986   2.551 -31.153  1.00  0.00    -0.169 F 
HETATM   30  F   UNL     1      -6.628   2.002 -32.750  1.00  0.00    -0.169 F 
ENDBRANCH   8  27
BRANCH   6  31
HETATM   31  C   UNL     1      -4.152  -0.845 -31.974  1.00  0.00    -0.033 A 
HETATM   32  C   UNL     1      -3.541  -2.102 -31.801  1.00  0.00     0.049 A 
HETATM   33  C   UNL     1      -3.718  -3.062 -32.777  1.00  0.00     0.105 A 
HETATM   34  C   UNL     1      -4.492  -2.834 -33.888  1.00  0.00     0.105 A 
HETATM   35  O   UNL     1      -3.151  -4.299 -32.785  1.00  0.00    -0.323 OA
HETATM   36  O   UNL     1      -4.515  -3.899 -34.734  1.00  0.00    -0.323 OA
HETATM   37  C   UNL     1      -5.132  -1.633 -34.086  1.00  0.00     0.040 A 
HETATM   38  C   UNL     1      -3.617  -4.801 -34.056  1.00  0.00     0.352 A 
HETATM   39  C   UNL     1      -4.948  -0.631 -33.126  1.00  0.00     0.012 A 
ENDBRANCH   6  31
TORSDOF 6
ENDMDL
MODEL 4
REMARK VINA RESULT:      -9.5      5.387      8.760
REMARK  6 active torsions:
REMARK  status: ('A' for Active; 'I' for Inactive)
REMARK    1  A    between atoms: C_8  and  C_9 
REMARK    2  A    between atoms: C_9  and  C_10 
REMARK    3  A    between atoms: C_10  and  N_11 
REMARK       I    between atoms: N_11  and  C_12 
REMARK    4  A    between atoms: C_12  and  C_13 
REMARK    5  A    between atoms: C_18  and  C_19 
REMARK    6  A    between atoms: C_29  and  C_30 
ROOT
HETATM    1  C   UNL     1      -4.471   4.931 -31.179  1.00  0.00     0.148 A 
HETATM    2  N   UNL     1      -5.728   5.005 -31.677  1.00  0.00    -0.165 NA
HETATM    3  N   UNL     1      -6.135   3.720 -31.687  1.00  0.00    -0.240 N 
HETATM    4  C   UNL     1      -5.249   2.857 -31.113  1.00  0.00     0.123 A 
HETATM    5  N   UNL     1      -5.523   1.551 -30.954  1.00  0.00    -0.366 N 
HETATM    6  C   UNL     1      -6.797   0.947 -31.310  1.00  0.00     0.118 C 
HETATM    7  C   UNL     1      -7.887   1.982 -31.642  1.00  0.00     0.066 C 
HETATM    8  C   UNL     1      -7.411   3.319 -32.241  1.00  0.00     0.221 C 
HETATM    9  C   UNL     1      -4.142   3.599 -30.808  1.00  0.00     0.088 A 
HETATM   10  H   UNL     1      -4.827   0.909 -30.576  1.00  0.00     0.161 HD
ENDROOT
BRANCH   1  11
HETATM   11  C   UNL     1      -3.582   6.095 -31.052  1.00  0.00     0.272 C 
HETATM   12  N   UNL     1      -2.667   6.229 -32.073  1.00  0.00    -0.355 N 
HETATM   13  H   UNL     1      -2.800   5.618 -32.874  1.00  0.00     0.162 HD
HETATM   14  O   UNL     1      -3.660   6.884 -30.114  1.00  0.00    -0.266 OA
BRANCH  12  15
HETATM   15  C   UNL     1      -1.787   7.376 -32.132  1.00  0.00     0.127 C 
BRANCH  15  16
HETATM   16  C   UNL     1      -0.319   7.041 -31.879  1.00  0.00     0.060 C 
BRANCH  16  17
HETATM   17  C   UNL     1      -0.079   6.455 -30.522  1.00  0.00    -0.029 A 
HETATM   18  C   UNL     1      -0.238   7.104 -29.256  1.00  0.00    -0.002 A 
HETATM   19  C   UNL     1      -0.640   8.396 -28.858  1.00  0.00     0.014 A 
HETATM   20  C   UNL     1       0.103   6.180 -28.268  1.00  0.00     0.042 A 
HETATM   21  C   UNL     1      -0.681   8.715 -27.496  1.00  0.00     0.001 A 
HETATM   22  C   UNL     1      -0.331   7.770 -26.533  1.00  0.00     0.002 A 
HETATM   23  C   UNL     1       0.066   6.482 -26.902  1.00  0.00     0.030 A 
HETATM   24  N   UNL     1       0.455   5.015 -28.906  1.00  0.00    -0.365 N 
HETATM   25  H   UNL     1       0.749   4.170 -28.435  1.00  0.00     0.165 HD
HETATM   26  C   UNL     1       0.355   5.169 -30.262  1.00  0.00     0.096 A 
ENDBRANCH  16  17
ENDBRANCH  15  16
ENDBRANCH  12  15
ENDBRANCH   1  11
BRANCH   8  27
HETATM   27  C   UNL     1      -7.354   3.316 -33.751  1.00  0.00     0.409 C 
HETATM   28  F   UNL     1      -6.252   2.728 -34.252  1.00  0.00    -0.169 F 
HETATM   29  F   UNL     1      -8.424   2.645 -34.254  1.00  0.00    -0.169 F 
HETATM   30  F   UNL     1      -7.419   4.564 -34.270  1.00  0.00    -0.169 F 
ENDBRANCH   8  27
BRANCH   6  31
HETATM   31  C   UNL     1      -6.594  -0.162 -32.328  1.00  0.00    -0.033 A 
HETATM   32  C   UNL     1      -5.384  -0.883 -32.324  1.00  0.00     0.049 A 
HETATM   33  C   UNL     1      -5.166  -1.815 -33.319  1.00  0.00     0.105 A 
HETATM   34  C   UNL     1      -6.104  -2.074 -34.288  1.00  0.00     0.105 A 
HETATM   35  O   UNL     1      -4.033  -2.548 -33.485  1.00  0.00    -0.323 OA
HETATM   36  O   UNL     1      -5.682  -3.006 -35.184  1.00  0.00    -0.323 OA
HETATM   37  C   UNL     1      -7.312  -1.417 -34.317  1.00  0.00     0.040 A 
HETATM   38  C   UNL     1      -4.347  -3.259 -34.701  1.00  0.00     0.352 A 
HETATM   39  C   UNL     1      -7.548  -0.447 -33.336  1.00  0.00     0.012 A 
ENDBRANCH   6  31
TORSDOF 6
ENDMDL
MODEL 5
REMARK VINA RESULT:      -9.4      5.256      8.303
REMARK  6 active torsions:
REMARK  status: ('A' for Active; 'I' for Inactive)
REMARK    1  A    between atoms: C_8  and  C_9 
REMARK    2  A    between atoms: C_9  and  C_10 
REMARK    3  A    between atoms: C_10  and  N_11 
REMARK       I    between atoms: N_11  and  C_12 
REMARK    4  A    between atoms: C_12  and  C_13 
REMARK    5  A    between atoms: C_18  and  C_19 
REMARK    6  A    between atoms: C_29  and  C_30 
ROOT
HETATM    1  C   UNL     1      -5.556   5.096 -29.348  1.00  0.00     0.148 A 
HETATM    2  N   UNL     1      -4.844   5.403 -30.457  1.00  0.00    -0.165 NA
HETATM    3  N   UNL     1      -5.065   4.350 -31.270  1.00  0.00    -0.240 N 
HETATM    4  C   UNL     1      -5.972   3.457 -30.781  1.00  0.00     0.123 A 
HETATM    5  N   UNL     1      -6.383   2.393 -31.491  1.00  0.00    -0.366 N 
HETATM    6  C   UNL     1      -5.961   2.126 -32.857  1.00  0.00     0.118 C 
HETATM    7  C   UNL     1      -5.210   3.305 -33.502  1.00  0.00     0.066 C 
HETATM    8  C   UNL     1      -4.406   4.214 -32.552  1.00  0.00     0.221 C 
HETATM    9  C   UNL     1      -6.283   3.887 -29.521  1.00  0.00     0.088 A 
HETATM   10  H   UNL     1      -7.017   1.705 -31.088  1.00  0.00     0.161 HD
ENDROOT
BRANCH   1  11
HETATM   11  C   UNL     1      -5.560   5.926 -28.134  1.00  0.00     0.272 C 
HETATM   12  N   UNL     1      -4.317   6.371 -27.743  1.00  0.00    -0.355 N 
HETATM   13  H   UNL     1      -3.560   6.221 -28.405  1.00  0.00     0.162 HD
HETATM   14  O   UNL     1      -6.592   6.201 -27.528  1.00  0.00    -0.266 OA
BRANCH  12  15
HETATM   15  C   UNL     1      -4.173   7.273 -26.620  1.00  0.00     0.127 C 
BRANCH  15  16
HETATM   16  C   UNL     1      -2.836   8.009 -26.588  1.00  0.00     0.060 C 
BRANCH  16  17
HETATM   17  C   UNL     1      -1.713   7.207 -27.170  1.00  0.00    -0.029 A 
HETATM   18  C   UNL     1      -1.258   7.208 -28.527  1.00  0.00    -0.002 A 
HETATM   19  C   UNL     1      -1.653   7.893 -29.696  1.00  0.00     0.014 A 
HETATM   20  C   UNL     1      -0.197   6.306 -28.613  1.00  0.00     0.042 A 
HETATM   21  C   UNL     1      -0.980   7.649 -30.898  1.00  0.00     0.001 A 
HETATM   22  C   UNL     1       0.074   6.740 -30.951  1.00  0.00     0.002 A 
HETATM   23  C   UNL     1       0.487   6.051 -29.807  1.00  0.00     0.030 A 
HETATM   24  N   UNL     1      -0.012   5.778 -27.358  1.00  0.00    -0.365 N 
HETATM   25  H   UNL     1       0.693   5.092 -27.123  1.00  0.00     0.165 HD
HETATM   26  C   UNL     1      -0.921   6.307 -26.483  1.00  0.00     0.096 A 
ENDBRANCH  16  17
ENDBRANCH  15  16
ENDBRANCH  12  15
ENDBRANCH   1  11
BRANCH   8  27
HETATM   27  C   UNL     1      -2.973   3.772 -32.365  1.00  0.00     0.409 C 
HETATM   28  F   UNL     1      -2.737   3.181 -31.179  1.00  0.00    -0.169 F 
HETATM   29  F   UNL     1      -2.636   2.874 -33.329  1.00  0.00    -0.169 F 
HETATM   30  F   UNL     1      -2.099   4.798 -32.489  1.00  0.00    -0.169 F 
ENDBRANCH   8  27
BRANCH   6  31
HETATM   31  C   UNL     1      -5.284   0.769 -32.950  1.00  0.00    -0.033 A 
HETATM   32  C   UNL     1      -5.702  -0.138 -33.944  1.00  0.00     0.049 A 
HETATM   33  C   UNL     1      -5.156  -1.406 -33.952  1.00  0.00     0.105 A 
HETATM   34  C   UNL     1      -4.204  -1.792 -33.041  1.00  0.00     0.105 A 
HETATM   35  O   UNL     1      -5.494  -2.409 -34.806  1.00  0.00    -0.323 OA
HETATM   36  O   UNL     1      -3.818  -3.085 -33.209  1.00  0.00    -0.323 OA
HETATM   37  C   UNL     1      -3.744  -0.933 -32.071  1.00  0.00     0.040 A 
HETATM   38  C   UNL     1      -4.682  -3.486 -34.292  1.00  0.00     0.352 A 
HETATM   39  C   UNL     1      -4.299   0.351 -32.022  1.00  0.00     0.012 A 
ENDBRANCH   6  31
TORSDOF 6
ENDMDL
MODEL 6
REMARK VINA RESULT:      -9.4      5.279      8.668
REMARK  6 active torsions:
REMARK  status: ('A' for Active; 'I' for Inactive)
REMARK    1  A    between atoms: C_8  and  C_9 
REMARK    2  A    between atoms: C_9  and  C_10 
REMARK    3  A    between atoms: C_10  and  N_11 
REMARK       I    between atoms: N_11  and  C_12 
REMARK    4  A    between atoms: C_12  and  C_13 
REMARK    5  A    between atoms: C_18  and  C_19 
REMARK    6  A    between atoms: C_29  and  C_30 
ROOT
HETATM    1  C   UNL     1      -4.033   4.254 -32.753  1.00  0.00     0.148 A 
HETATM    2  N   UNL     1      -5.356   3.978 -32.679  1.00  0.00    -0.165 NA
HETATM    3  N   UNL     1      -5.386   2.647 -32.468  1.00  0.00    -0.240 N 
HETATM    4  C   UNL     1      -4.155   2.090 -32.287  1.00  0.00     0.123 A 
HETATM    5  N   UNL     1      -3.994   0.792 -31.977  1.00  0.00    -0.366 N 
HETATM    6  C   UNL     1      -5.102  -0.121 -31.743  1.00  0.00     0.118 C 
HETATM    7  C   UNL     1      -6.461   0.592 -31.625  1.00  0.00     0.066 C 
HETATM    8  C   UNL     1      -6.626   1.901 -32.420  1.00  0.00     0.221 C 
HETATM    9  C   UNL     1      -3.251   3.093 -32.503  1.00  0.00     0.088 A 
HETATM   10  H   UNL     1      -3.066   0.380 -31.902  1.00  0.00     0.161 HD
ENDROOT
BRANCH   1  11
HETATM   11  C   UNL     1      -3.501   5.590 -33.056  1.00  0.00     0.272 C 
HETATM   12  N   UNL     1      -2.892   6.217 -31.991  1.00  0.00    -0.355 N 
HETATM   13  H   UNL     1      -2.733   5.643 -31.167  1.00  0.00     0.162 HD
HETATM   14  O   UNL     1      -3.588   6.096 -34.172  1.00  0.00    -0.266 OA
BRANCH  12  15
HETATM   15  C   UNL     1      -2.240   7.498 -32.161  1.00  0.00     0.127 C 
BRANCH  15  16
HETATM   16  C   UNL     1      -0.738   7.465 -31.888  1.00  0.00     0.060 C 
BRANCH  16  17
HETATM   17  C   UNL     1      -0.390   6.742 -30.623  1.00  0.00    -0.029 A 
HETATM   18  C   UNL     1      -0.455   7.251 -29.287  1.00  0.00    -0.002 A 
HETATM   19  C   UNL     1      -0.832   8.488 -28.723  1.00  0.00     0.014 A 
HETATM   20  C   UNL     1      -0.032   6.233 -28.431  1.00  0.00     0.042 A 
HETATM   21  C   UNL     1      -0.769   8.660 -27.336  1.00  0.00     0.001 A 
HETATM   22  C   UNL     1      -0.341   7.624 -26.509  1.00  0.00     0.002 A 
HETATM   23  C   UNL     1       0.035   6.388 -27.042  1.00  0.00     0.030 A 
HETATM   24  N   UNL     1       0.276   5.147 -29.214  1.00  0.00    -0.365 N 
HETATM   25  H   UNL     1       0.611   4.261 -28.860  1.00  0.00     0.165 HD
HETATM   26  C   UNL     1       0.071   5.442 -30.535  1.00  0.00     0.096 A 
ENDBRANCH  16  17
ENDBRANCH  15  16
ENDBRANCH  12  15
ENDBRANCH   1  11
BRANCH   8  27
HETATM   27  C   UNL     1      -7.174   1.695 -33.813  1.00  0.00     0.409 C 
HETATM   28  F   UNL     1      -7.718   2.802 -34.352  1.00  0.00    -0.169 F 
HETATM   29  F   UNL     1      -6.177   1.298 -34.648  1.00  0.00    -0.169 F 
HETATM   30  F   UNL     1      -8.109   0.719 -33.858  1.00  0.00    -0.169 F 
ENDBRANCH   8  27
BRANCH   6  31
HETATM   31  C   UNL     1      -5.040  -1.292 -32.708  1.00  0.00    -0.033 A 
HETATM   32  C   UNL     1      -6.201  -1.656 -33.418  1.00  0.00     0.049 A 
HETATM   33  C   UNL     1      -6.164  -2.786 -34.210  1.00  0.00     0.105 A 
HETATM   34  C   UNL     1      -5.025  -3.541 -34.345  1.00  0.00     0.105 A 
HETATM   35  O   UNL     1      -7.212  -3.300 -34.910  1.00  0.00    -0.323 OA
HETATM   36  O   UNL     1      -5.209  -4.621 -35.150  1.00  0.00    -0.323 OA
HETATM   37  C   UNL     1      -3.859  -3.208 -33.696  1.00  0.00     0.040 A 
HETATM   38  C   UNL     1      -6.612  -4.493 -35.457  1.00  0.00     0.352 A 
HETATM   39  C   UNL     1      -3.876  -2.083 -32.864  1.00  0.00     0.012 A 
ENDBRANCH   6  31
TORSDOF 6
ENDMDL
MODEL 7
REMARK VINA RESULT:      -9.2      6.471      9.920
REMARK  6 active torsions:
REMARK  status: ('A' for Active; 'I' for Inactive)
REMARK    1  A    between atoms: C_8  and  C_9 
REMARK    2  A    between atoms: C_9  and  C_10 
REMARK    3  A    between atoms: C_10  and  N_11 
REMARK       I    between atoms: N_11  and  C_12 
REMARK    4  A    between atoms: C_12  and  C_13 
REMARK    5  A    between atoms: C_18  and  C_19 
REMARK    6  A    between atoms: C_29  and  C_30 
ROOT
HETATM    1  C   UNL     1      -4.332   4.441 -32.218  1.00  0.00     0.148 A 
HETATM    2  N   UNL     1      -4.195   5.728 -32.617  1.00  0.00    -0.165 NA
HETATM    3  N   UNL     1      -3.072   6.131 -31.988  1.00  0.00    -0.240 N 
HETATM    4  C   UNL     1      -2.431   5.136 -31.313  1.00  0.00     0.123 A 
HETATM    5  N   UNL     1      -1.250   5.331 -30.701  1.00  0.00    -0.366 N 
HETATM    6  C   UNL     1      -0.516   6.585 -30.753  1.00  0.00     0.118 C 
HETATM    7  C   UNL     1      -1.084   7.579 -31.782  1.00  0.00     0.066 C 
HETATM    8  C   UNL     1      -2.598   7.497 -32.059  1.00  0.00     0.221 C 
HETATM    9  C   UNL     1      -3.238   4.035 -31.406  1.00  0.00     0.088 A 
HETATM   10  H   UNL     1      -0.813   4.592 -30.153  1.00  0.00     0.161 HD
ENDROOT
BRANCH   1  11
HETATM   11  C   UNL     1      -5.475   3.596 -32.591  1.00  0.00     0.272 C 
HETATM   12  N   UNL     1      -5.712   2.545 -31.733  1.00  0.00    -0.355 N 
HETATM   13  H   UNL     1      -5.186   2.552 -30.862  1.00  0.00     0.162 HD
HETATM   14  O   UNL     1      -6.164   3.820 -33.583  1.00  0.00    -0.266 OA
BRANCH  12  15
HETATM   15  C   UNL     1      -6.859   1.682 -31.918  1.00  0.00     0.127 C 
BRANCH  15  16
HETATM   16  C   UNL     1      -6.700   0.301 -31.286  1.00  0.00     0.060 C 
BRANCH  16  17
HETATM   17  C   UNL     1      -5.642  -0.527 -31.948  1.00  0.00    -0.029 A 
HETATM   18  C   UNL     1      -5.795  -1.385 -33.083  1.00  0.00    -0.002 A 
HETATM   19  C   UNL     1      -6.881  -1.732 -33.913  1.00  0.00     0.014 A 
HETATM   20  C   UNL     1      -4.550  -1.958 -33.345  1.00  0.00     0.042 A 
HETATM   21  C   UNL     1      -6.684  -2.635 -34.964  1.00  0.00     0.001 A 
HETATM   22  C   UNL     1      -5.428  -3.191 -35.198  1.00  0.00     0.002 A 
HETATM   23  C   UNL     1      -4.335  -2.861 -34.392  1.00  0.00     0.030 A 
HETATM   24  N   UNL     1      -3.672  -1.466 -32.408  1.00  0.00    -0.365 N 
HETATM   25  H   UNL     1      -2.693  -1.711 -32.356  1.00  0.00     0.165 HD
HETATM   26  C   UNL     1      -4.318  -0.610 -31.559  1.00  0.00     0.096 A 
ENDBRANCH  16  17
ENDBRANCH  15  16
ENDBRANCH  12  15
ENDBRANCH   1  11
BRANCH   8  27
HETATM   27  C   UNL     1      -3.423   8.390 -31.162  1.00  0.00     0.409 C 
HETATM   28  F   UNL     1      -4.481   8.949 -31.777  1.00  0.00    -0.169 F 
HETATM   29  F   UNL     1      -3.909   7.672 -30.114  1.00  0.00    -0.169 F 
HETATM   30  F   UNL     1      -2.692   9.391 -30.620  1.00  0.00    -0.169 F 
ENDBRANCH   8  27
BRANCH   6  31
HETATM   31  C   UNL     1      -0.289   7.127 -29.352  1.00  0.00    -0.033 A 
HETATM   32  C   UNL     1      -1.359   7.127 -28.436  1.00  0.00     0.049 A 
HETATM   33  C   UNL     1      -1.173   7.719 -27.203  1.00  0.00     0.105 A 
HETATM   34  C   UNL     1       0.028   8.277 -26.840  1.00  0.00     0.105 A 
HETATM   35  O   UNL     1      -2.119   7.851 -26.235  1.00  0.00    -0.323 OA
HETATM   36  O   UNL     1      -0.008   8.826 -25.596  1.00  0.00    -0.323 OA
HETATM   37  C   UNL     1       1.110   8.275 -27.688  1.00  0.00     0.040 A 
HETATM   38  C   UNL     1      -1.388   8.602 -25.243  1.00  0.00     0.352 A 
HETATM   39  C   UNL     1       0.942   7.705 -28.956  1.00  0.00     0.012 A 
ENDBRANCH   6  31
TORSDOF 6
ENDMDL
MODEL 8
REMARK VINA RESULT:      -9.2      4.291      7.295
REMARK  6 active torsions:
REMARK  status: ('A' for Active; 'I' for Inactive)
REMARK    1  A    between atoms: C_8  and  C_9 
REMARK    2  A    between atoms: C_9  and  C_10 
REMARK    3  A    between atoms: C_10  and  N_11 
REMARK       I    between atoms: N_11  and  C_12 
REMARK    4  A    between atoms: C_12  and  C_13 
REMARK    5  A    between atoms: C_18  and  C_19 
REMARK    6  A    between atoms: C_29  and  C_30 
ROOT
HETATM    1  C   UNL     1      -6.359   4.289 -29.862  1.00  0.00     0.148 A 
HETATM    2  N   UNL     1      -6.690   4.620 -31.133  1.00  0.00    -0.165 NA
HETATM    3  N   UNL     1      -6.960   3.429 -31.705  1.00  0.00    -0.240 N 
HETATM    4  C   UNL     1      -6.935   2.381 -30.834  1.00  0.00     0.123 A 
HETATM    5  N   UNL     1      -7.265   1.133 -31.206  1.00  0.00    -0.366 N 
HETATM    6  C   UNL     1      -7.740   0.790 -32.536  1.00  0.00     0.118 C 
HETATM    7  C   UNL     1      -8.077   2.021 -33.396  1.00  0.00     0.066 C 
HETATM    8  C   UNL     1      -7.270   3.303 -33.113  1.00  0.00     0.221 C 
HETATM    9  C   UNL     1      -6.511   2.893 -29.639  1.00  0.00     0.088 A 
HETATM   10  H   UNL     1      -7.185   0.351 -30.557  1.00  0.00     0.161 HD
ENDROOT
BRANCH   1  11
HETATM   11  C   UNL     1      -5.905   5.267 -28.863  1.00  0.00     0.272 C 
HETATM   12  N   UNL     1      -4.695   5.858 -29.152  1.00  0.00    -0.355 N 
HETATM   13  H   UNL     1      -4.324   5.684 -30.082  1.00  0.00     0.162 HD
HETATM   14  O   UNL     1      -6.561   5.536 -27.860  1.00  0.00    -0.266 OA
BRANCH  12  15
HETATM   15  C   UNL     1      -4.165   6.908 -28.309  1.00  0.00     0.127 C 
BRANCH  15  16
HETATM   16  C   UNL     1      -3.104   7.769 -28.990  1.00  0.00     0.060 C 
BRANCH  16  17
HETATM   17  C   UNL     1      -2.148   6.970 -29.821  1.00  0.00    -0.029 A 
HETATM   18  C   UNL     1      -2.300   6.585 -31.191  1.00  0.00    -0.002 A 
HETATM   19  C   UNL     1      -3.299   6.794 -32.165  1.00  0.00     0.014 A 
HETATM   20  C   UNL     1      -1.171   5.846 -31.546  1.00  0.00     0.042 A 
HETATM   21  C   UNL     1      -3.133   6.258 -33.447  1.00  0.00     0.001 A 
HETATM   22  C   UNL     1      -1.995   5.522 -33.769  1.00  0.00     0.002 A 
HETATM   23  C   UNL     1      -0.990   5.304 -32.823  1.00  0.00     0.030 A 
HETATM   24  N   UNL     1      -0.362   5.785 -30.437  1.00  0.00    -0.365 N 
HETATM   25  H   UNL     1       0.530   5.309 -30.403  1.00  0.00     0.165 HD
HETATM   26  C   UNL     1      -0.941   6.451 -29.391  1.00  0.00     0.096 A 
ENDBRANCH  16  17
ENDBRANCH  15  16
ENDBRANCH  12  15
ENDBRANCH   1  11
BRANCH   8  27
HETATM   27  C   UNL     1      -6.013   3.420 -33.943  1.00  0.00     0.409 C 
HETATM   28  F   UNL     1      -4.884   3.153 -33.261  1.00  0.00    -0.169 F 
HETATM   29  F   UNL     1      -6.062   2.545 -34.984  1.00  0.00    -0.169 F 
HETATM   30  F   UNL     1      -5.874   4.648 -34.495  1.00  0.00    -0.169 F 
ENDBRANCH   8  27
BRANCH   6  31
HETATM   31  C   UNL     1      -6.832  -0.246 -33.176  1.00  0.00    -0.033 A 
HETATM   32  C   UNL     1      -7.410  -1.356 -33.825  1.00  0.00     0.049 A 
HETATM   33  C   UNL     1      -6.577  -2.345 -34.308  1.00  0.00     0.105 A 
HETATM   34  C   UNL     1      -5.211  -2.261 -34.199  1.00  0.00     0.105 A 
HETATM   35  O   UNL     1      -6.979  -3.499 -34.905  1.00  0.00    -0.323 OA
HETATM   36  O   UNL     1      -4.580  -3.349 -34.717  1.00  0.00    -0.323 OA
HETATM   37  C   UNL     1      -4.600  -1.184 -33.600  1.00  0.00     0.040 A 
HETATM   38  C   UNL     1      -5.710  -4.154 -35.110  1.00  0.00     0.352 A 
HETATM   39  C   UNL     1      -5.421  -0.179 -33.076  1.00  0.00     0.012 A 
ENDBRANCH   6  31
TORSDOF 6
ENDMDL
MODEL 9
REMARK VINA RESULT:      -9.1      5.545      8.480
REMARK  6 active torsions:
REMARK  status: ('A' for Active; 'I' for Inactive)
REMARK    1  A    between atoms: C_8  and  C_9 
REMARK    2  A    between atoms: C_9  and  C_10 
REMARK    3  A    between atoms: C_10  and  N_11 
REMARK       I    between atoms: N_11  and  C_12 
REMARK    4  A    between atoms: C_12  and  C_13 
REMARK    5  A    between atoms: C_18  and  C_19 
REMARK    6  A    between atoms: C_29  and  C_30 
ROOT
HETATM    1  C   UNL     1      -3.268   4.686 -31.936  1.00  0.00     0.148 A 
HETATM    2  N   UNL     1      -4.590   4.914 -32.116  1.00  0.00    -0.165 NA
HETATM    3  N   UNL     1      -5.140   3.692 -31.966  1.00  0.00    -0.240 N 
HETATM    4  C   UNL     1      -4.252   2.731 -31.584  1.00  0.00     0.123 A 
HETATM    5  N   UNL     1      -4.634   1.474 -31.302  1.00  0.00    -0.366 N 
HETATM    6  C   UNL     1      -6.021   1.034 -31.310  1.00  0.00     0.118 C 
HETATM    7  C   UNL     1      -7.025   2.196 -31.415  1.00  0.00     0.066 C 
HETATM    8  C   UNL     1      -6.553   3.451 -32.175  1.00  0.00     0.221 C 
HETATM    9  C   UNL     1      -3.022   3.329 -31.592  1.00  0.00     0.088 A 
HETATM   10  H   UNL     1      -3.950   0.754 -31.074  1.00  0.00     0.161 HD
ENDROOT
BRANCH   1  11
HETATM   11  C   UNL     1      -2.241   5.727 -32.083  1.00  0.00     0.272 C 
HETATM   12  N   UNL     1      -2.733   7.013 -32.130  1.00  0.00    -0.355 N 
HETATM   13  H   UNL     1      -3.717   7.122 -31.901  1.00  0.00     0.162 HD
HETATM   14  O   UNL     1      -1.043   5.465 -32.150  1.00  0.00    -0.266 OA
BRANCH  12  15
HETATM   15  C   UNL     1      -1.835   8.147 -32.179  1.00  0.00     0.127 C 
BRANCH  15  16
HETATM   16  C   UNL     1      -2.068   9.166 -31.066  1.00  0.00     0.060 C 
BRANCH  16  17
HETATM   17  C   UNL     1      -2.248   8.531 -29.722  1.00  0.00    -0.029 A 
HETATM   18  C   UNL     1      -1.235   7.953 -28.892  1.00  0.00    -0.002 A 
HETATM   19  C   UNL     1       0.160   7.784 -29.017  1.00  0.00     0.014 A 
HETATM   20  C   UNL     1      -1.860   7.479 -27.738  1.00  0.00     0.042 A 
HETATM   21  C   UNL     1       0.871   7.149 -27.993  1.00  0.00     0.001 A 
HETATM   22  C   UNL     1       0.217   6.685 -26.854  1.00  0.00     0.002 A 
HETATM   23  C   UNL     1      -1.164   6.843 -26.704  1.00  0.00     0.030 A 
HETATM   24  N   UNL     1      -3.200   7.759 -27.859  1.00  0.00    -0.365 N 
HETATM   25  H   UNL     1      -3.899   7.528 -27.166  1.00  0.00     0.165 HD
HETATM   26  C   UNL     1      -3.447   8.387 -29.049  1.00  0.00     0.096 A 
ENDBRANCH  16  17
ENDBRANCH  15  16
ENDBRANCH  12  15
ENDBRANCH   1  11
BRANCH   8  27
HETATM   27  C   UNL     1      -6.870   3.416 -33.652  1.00  0.00     0.409 C 
HETATM   28  F   UNL     1      -8.069   2.876 -33.938  1.00  0.00    -0.169 F 
HETATM   29  F   UNL     1      -6.876   4.680 -34.155  1.00  0.00    -0.169 F 
HETATM   30  F   UNL     1      -5.939   2.737 -34.361  1.00  0.00    -0.169 F 
ENDBRANCH   8  27
BRANCH   6  31
HETATM   31  C   UNL     1      -6.211  -0.108 -32.293  1.00  0.00    -0.033 A 
HETATM   32  C   UNL     1      -5.137  -0.984 -32.541  1.00  0.00     0.049 A 
HETATM   33  C   UNL     1      -5.285  -1.953 -33.514  1.00  0.00     0.105 A 
HETATM   34  C   UNL     1      -6.454  -2.099 -34.220  1.00  0.00     0.105 A 
HETATM   35  O   UNL     1      -4.327  -2.834 -33.909  1.00  0.00    -0.323 OA
HETATM   36  O   UNL     1      -6.382  -3.094 -35.144  1.00  0.00    -0.323 OA
HETATM   37  C   UNL     1      -7.540  -1.286 -33.992  1.00  0.00     0.040 A 
HETATM   38  C   UNL     1      -5.013  -3.515 -34.980  1.00  0.00     0.352 A 
HETATM   39  C   UNL     1      -7.408  -0.279 -33.031  1.00  0.00     0.012 A 
ENDBRANCH   6  31
TORSDOF 6
ENDMDL
MODEL 10
REMARK VINA RESULT:      -8.9      7.355     10.724
REMARK  6 active torsions:
REMARK  status: ('A' for Active; 'I' for Inactive)
REMARK    1  A    between atoms: C_8  and  C_9 
REMARK    2  A    between atoms: C_9  and  C_10 
REMARK    3  A    between atoms: C_10  and  N_11 
REMARK       I    between atoms: N_11  and  C_12 
REMARK    4  A    between atoms: C_12  and  C_13 
REMARK    5  A    between atoms: C_18  and  C_19 
REMARK    6  A    between atoms: C_29  and  C_30 
ROOT
HETATM    1  C   UNL     1      -3.353   4.830 -31.192  1.00  0.00     0.148 A 
HETATM    2  N   UNL     1      -4.094   5.781 -30.576  1.00  0.00    -0.165 NA
HETATM    3  N   UNL     1      -3.168   6.641 -30.105  1.00  0.00    -0.240 N 
HETATM    4  C   UNL     1      -1.895   6.346 -30.493  1.00  0.00     0.123 A 
HETATM    5  N   UNL     1      -0.853   7.141 -30.194  1.00  0.00    -0.366 N 
HETATM    6  C   UNL     1      -0.985   8.409 -29.494  1.00  0.00     0.118 C 
HETATM    7  C   UNL     1      -2.444   8.879 -29.360  1.00  0.00     0.066 C 
HETATM    8  C   UNL     1      -3.521   7.780 -29.284  1.00  0.00     0.221 C 
HETATM    9  C   UNL     1      -1.970   5.158 -31.166  1.00  0.00     0.088 A 
HETATM   10  H   UNL     1       0.099   6.876 -30.442  1.00  0.00     0.161 HD
ENDROOT
BRANCH   1  11
HETATM   11  C   UNL     1      -3.930   3.622 -31.800  1.00  0.00     0.272 C 
HETATM   12  N   UNL     1      -5.204   3.320 -31.372  1.00  0.00    -0.355 N 
HETATM   13  H   UNL     1      -5.668   4.033 -30.814  1.00  0.00     0.162 HD
HETATM   14  O   UNL     1      -3.323   2.948 -32.628  1.00  0.00    -0.266 OA
BRANCH  12  15
HETATM   15  C   UNL     1      -5.936   2.214 -31.951  1.00  0.00     0.127 C 
BRANCH  15  16
HETATM   16  C   UNL     1      -5.860   0.928 -31.131  1.00  0.00     0.060 C 
BRANCH  16  17
HETATM   17  C   UNL     1      -5.050  -0.142 -31.796  1.00  0.00    -0.029 A 
HETATM   18  C   UNL     1      -5.453  -0.991 -32.875  1.00  0.00    -0.002 A 
HETATM   19  C   UNL     1      -6.636  -1.123 -33.633  1.00  0.00     0.014 A 
HETATM   20  C   UNL     1      -4.382  -1.837 -33.165  1.00  0.00     0.042 A 
HETATM   21  C   UNL     1      -6.703  -2.090 -34.642  1.00  0.00     0.001 A 
HETATM   22  C   UNL     1      -5.616  -2.921 -34.905  1.00  0.00     0.002 A 
HETATM   23  C   UNL     1      -4.433  -2.808 -34.171  1.00  0.00     0.030 A 
HETATM   24  N   UNL     1      -3.365  -1.514 -32.298  1.00  0.00    -0.365 N 
HETATM   25  H   UNL     1      -2.462  -1.968 -32.280  1.00  0.00     0.165 HD
HETATM   26  C   UNL     1      -3.756  -0.501 -31.466  1.00  0.00     0.096 A 
ENDBRANCH  16  17
ENDBRANCH  15  16
ENDBRANCH  12  15
ENDBRANCH   1  11
BRANCH   8  27
HETATM   27  C   UNL     1      -3.831   7.337 -27.873  1.00  0.00     0.409 C 
HETATM   28  F   UNL     1      -4.145   8.348 -27.042  1.00  0.00    -0.169 F 
HETATM   29  F   UNL     1      -4.892   6.486 -27.877  1.00  0.00    -0.169 F 
HETATM   30  F   UNL     1      -2.807   6.653 -27.312  1.00  0.00    -0.169 F 
ENDBRANCH   8  27
BRANCH   6  31
HETATM   31  C   UNL     1      -0.163   8.399 -28.216  1.00  0.00    -0.033 A 
HETATM   32  C   UNL     1      -0.273   9.484 -27.324  1.00  0.00     0.049 A 
HETATM   33  C   UNL     1       0.555   9.518 -26.220  1.00  0.00     0.105 A 
HETATM   34  C   UNL     1       1.456   8.515 -25.958  1.00  0.00     0.105 A 
HETATM   35  O   UNL     1       0.611  10.518 -25.300  1.00  0.00    -0.323 OA
HETATM   36  O   UNL     1       2.189   8.754 -24.837  1.00  0.00    -0.323 OA
HETATM   37  C   UNL     1       1.579   7.422 -26.783  1.00  0.00     0.040 A 
HETATM   38  C   UNL     1       1.688  10.052 -24.459  1.00  0.00     0.352 A 
HETATM   39  C   UNL     1       0.770   7.375 -27.925  1.00  0.00     0.012 A 
ENDBRANCH   6  31
TORSDOF 6
ENDMDL
