MODEL 1
REMARK VINA RESULT:      -9.3      0.000      0.000
REMARK  3 active torsions:
REMARK  status: ('A' for Active; 'I' for Inactive)
REMARK    1  A    between atoms: C_7  and  C_8 
REMARK    2  A    between atoms: C_12  and  C_13 
REMARK    3  A    between atoms: C_16  and  C_17 
ROOT
HETATM    1  C   UNL     1      -6.728  -4.426 -35.409  1.00  0.00     0.048 C 
HETATM    2  C   UNL     1      -6.011  -3.300 -34.728  1.00  0.00    -0.061 A 
HETATM    3  C   UNL     1      -6.689  -2.142 -34.329  1.00  0.00     0.021 A 
HETATM    4  C   UNL     1      -6.032  -1.070 -33.660  1.00  0.00     0.008 A 
HETATM    5  C   UNL     1      -4.650  -1.197 -33.415  1.00  0.00     0.068 A 
HETATM    6  N   UNL     1      -3.920  -0.245 -32.820  1.00  0.00    -0.252 NA
HETATM    7  C   UNL     1      -4.494   0.910 -32.423  1.00  0.00     0.040 A 
HETATM    8  C   UNL     1      -5.850   1.123 -32.618  1.00  0.00     0.044 A 
HETATM    9  C   UNL     1      -6.645   0.139 -33.227  1.00  0.00     0.034 A 
HETATM   10  C   UNL     1      -3.993  -2.356 -33.803  1.00  0.00     0.033 A 
HETATM   11  C   UNL     1      -4.654  -3.404 -34.445  1.00  0.00     0.009 A 
ENDROOT
BRANCH   9  12
HETATM   12  C   UNL     1      -8.078   0.387 -33.376  1.00  0.00     0.207 A 
HETATM   13  O   UNL     1      -8.910  -0.230 -32.475  1.00  0.00    -0.191 OA
HETATM   14  N   UNL     1     -10.217   0.148 -32.798  1.00  0.00    -0.108 NA
HETATM   15  C   UNL     1     -10.045   0.960 -33.841  1.00  0.00     0.189 A 
HETATM   16  N   UNL     1      -8.744   1.116 -34.255  1.00  0.00    -0.202 NA
BRANCH  15  17
HETATM   17  C   UNL     1     -11.161   1.640 -34.563  1.00  0.00     0.282 C 
HETATM   18  N   UNL     1     -10.663   2.954 -35.176  1.00  0.00    -0.060 N 
HETATM   19  H   UNL     1     -10.141   3.451 -34.440  1.00  0.00     0.278 HD
HETATM   20  H   UNL     1      -9.964   2.730 -35.897  1.00  0.00     0.278 HD
HETATM   21  C   UNL     1     -11.760   3.797 -35.745  1.00  0.00     0.259 C 
HETATM   22  C   UNL     1     -12.849   4.003 -34.691  1.00  0.00     0.195 C 
HETATM   23  O   UNL     1     -13.347   2.738 -34.240  1.00  0.00    -0.387 OA
HETATM   24  C   UNL     1     -12.324   1.959 -33.601  1.00  0.00     0.208 C 
ENDBRANCH  15  17
ENDBRANCH   9  12
BRANCH   7  25
HETATM   25  C   UNL     1      -3.623   1.965 -31.785  1.00  0.00     0.038 A 
HETATM   26  C   UNL     1      -3.190   3.180 -32.575  1.00  0.00     0.011 A 
HETATM   27  C   UNL     1      -4.200   3.329 -31.477  1.00  0.00     0.011 A 
ENDBRANCH   7  25
TORSDOF 3
ENDMDL
MODEL 2
REMARK VINA RESULT:      -9.1      0.895      4.037
REMARK  3 active torsions:
REMARK  status: ('A' for Active; 'I' for Inactive)
REMARK    1  A    between atoms: C_7  and  C_8 
REMARK    2  A    between atoms: C_12  and  C_13 
REMARK    3  A    between atoms: C_16  and  C_17 
ROOT
HETATM    1  C   UNL     1      -4.691   3.062 -30.938  1.00  0.00     0.048 C 
HETATM    2  C   UNL     1      -4.667   1.795 -31.740  1.00  0.00    -0.061 A 
HETATM    3  C   UNL     1      -5.833   1.272 -32.310  1.00  0.00     0.021 A 
HETATM    4  C   UNL     1      -5.828   0.082 -33.093  1.00  0.00     0.008 A 
HETATM    5  C   UNL     1      -4.597  -0.579 -33.274  1.00  0.00     0.068 A 
HETATM    6  N   UNL     1      -4.472  -1.719 -33.966  1.00  0.00    -0.252 NA
HETATM    7  C   UNL     1      -5.552  -2.300 -34.531  1.00  0.00     0.040 A 
HETATM    8  C   UNL     1      -6.805  -1.718 -34.410  1.00  0.00     0.044 A 
HETATM    9  C   UNL     1      -6.966  -0.516 -33.701  1.00  0.00     0.034 A 
HETATM   10  C   UNL     1      -3.446  -0.043 -32.715  1.00  0.00     0.033 A 
HETATM   11  C   UNL     1      -3.465   1.132 -31.962  1.00  0.00     0.009 A 
ENDROOT
BRANCH   9  12
HETATM   12  C   UNL     1      -8.298   0.085 -33.633  1.00  0.00     0.207 A 
HETATM   13  O   UNL     1      -8.965  -0.026 -32.439  1.00  0.00    -0.191 OA
HETATM   14  N   UNL     1     -10.198   0.615 -32.598  1.00  0.00    -0.108 NA
HETATM   15  C   UNL     1     -10.145   1.058 -33.854  1.00  0.00     0.189 A 
HETATM   16  N   UNL     1      -9.005   0.730 -34.544  1.00  0.00    -0.202 NA
BRANCH  15  17
HETATM   17  C   UNL     1     -11.243   1.825 -34.514  1.00  0.00     0.282 C 
HETATM   18  N   UNL     1     -10.680   3.104 -35.145  1.00  0.00    -0.060 N 
HETATM   19  H   UNL     1     -10.086   3.555 -34.433  1.00  0.00     0.278 HD
HETATM   20  H   UNL     1     -10.036   2.836 -35.901  1.00  0.00     0.278 HD
HETATM   21  C   UNL     1     -11.739   4.032 -35.653  1.00  0.00     0.259 C 
HETATM   22  C   UNL     1     -12.756   4.308 -34.545  1.00  0.00     0.195 C 
HETATM   23  O   UNL     1     -13.322   3.078 -34.077  1.00  0.00    -0.387 OA
HETATM   24  C   UNL     1     -12.330   2.219 -33.494  1.00  0.00     0.208 C 
ENDBRANCH  15  17
ENDBRANCH   9  12
BRANCH   7  25
HETATM   25  C   UNL     1      -5.365  -3.600 -35.274  1.00  0.00     0.038 A 
HETATM   26  C   UNL     1      -5.317  -4.911 -34.522  1.00  0.00     0.011 A 
HETATM   27  C   UNL     1      -6.511  -4.582 -35.367  1.00  0.00     0.011 A 
ENDBRANCH   7  25
TORSDOF 3
ENDMDL
MODEL 3
REMARK VINA RESULT:      -9.1      1.339      4.355
REMARK  3 active torsions:
REMARK  status: ('A' for Active; 'I' for Inactive)
REMARK    1  A    between atoms: C_7  and  C_8 
REMARK    2  A    between atoms: C_12  and  C_13 
REMARK    3  A    between atoms: C_16  and  C_17 
ROOT
HETATM    1  C   UNL     1      -4.492   3.001 -30.843  1.00  0.00     0.048 C 
HETATM    2  C   UNL     1      -4.539   1.743 -31.657  1.00  0.00    -0.061 A 
HETATM    3  C   UNL     1      -5.704   1.355 -32.330  1.00  0.00     0.021 A 
HETATM    4  C   UNL     1      -5.763   0.175 -33.126  1.00  0.00     0.008 A 
HETATM    5  C   UNL     1      -4.601  -0.618 -33.213  1.00  0.00     0.068 A 
HETATM    6  N   UNL     1      -4.544  -1.761 -33.908  1.00  0.00    -0.252 NA
HETATM    7  C   UNL     1      -5.629  -2.216 -34.568  1.00  0.00     0.040 A 
HETATM    8  C   UNL     1      -6.817  -1.500 -34.544  1.00  0.00     0.044 A 
HETATM    9  C   UNL     1      -6.904  -0.291 -33.835  1.00  0.00     0.034 A 
HETATM   10  C   UNL     1      -3.450  -0.214 -32.553  1.00  0.00     0.033 A 
HETATM   11  C   UNL     1      -3.403   0.953 -31.788  1.00  0.00     0.009 A 
ENDROOT
BRANCH   9  12
HETATM   12  C   UNL     1      -8.163   0.453 -33.870  1.00  0.00     0.207 A 
HETATM   13  O   UNL     1      -8.149   1.662 -34.520  1.00  0.00    -0.191 OA
HETATM   14  N   UNL     1      -9.443   2.188 -34.434  1.00  0.00    -0.108 NA
HETATM   15  C   UNL     1     -10.104   1.246 -33.762  1.00  0.00     0.189 A 
HETATM   16  N   UNL     1      -9.351   0.169 -33.365  1.00  0.00    -0.202 NA
BRANCH  15  17
HETATM   17  C   UNL     1     -11.553   1.335 -33.410  1.00  0.00     0.282 C 
HETATM   18  N   UNL     1     -12.206  -0.047 -33.532  1.00  0.00    -0.060 N 
HETATM   19  H   UNL     1     -11.915  -0.438 -34.440  1.00  0.00     0.278 HD
HETATM   20  H   UNL     1     -11.787  -0.666 -32.826  1.00  0.00     0.278 HD
HETATM   21  C   UNL     1     -13.695  -0.014 -33.393  1.00  0.00     0.259 C 
HETATM   22  C   UNL     1     -14.280   1.013 -34.365  1.00  0.00     0.195 C 
HETATM   23  O   UNL     1     -13.707   2.303 -34.124  1.00  0.00    -0.387 OA
HETATM   24  C   UNL     1     -12.289   2.310 -34.352  1.00  0.00     0.208 C 
ENDBRANCH  15  17
ENDBRANCH   9  12
BRANCH   7  25
HETATM   25  C   UNL     1      -5.524  -3.526 -35.311  1.00  0.00     0.038 A 
HETATM   26  C   UNL     1      -5.408  -4.829 -34.552  1.00  0.00     0.011 A 
HETATM   27  C   UNL     1      -6.679  -4.502 -35.278  1.00  0.00     0.011 A 
ENDBRANCH   7  25
TORSDOF 3
ENDMDL
MODEL 4
REMARK VINA RESULT:      -8.7      3.357      7.091
REMARK  3 active torsions:
REMARK  status: ('A' for Active; 'I' for Inactive)
REMARK    1  A    between atoms: C_7  and  C_8 
REMARK    2  A    between atoms: C_12  and  C_13 
REMARK    3  A    between atoms: C_16  and  C_17 
ROOT
HETATM    1  C   UNL     1      -9.483   2.736 -31.023  1.00  0.00     0.048 C 
HETATM    2  C   UNL     1      -8.892   1.612 -31.820  1.00  0.00    -0.061 A 
HETATM    3  C   UNL     1      -7.508   1.486 -31.986  1.00  0.00     0.021 A 
HETATM    4  C   UNL     1      -6.926   0.413 -32.720  1.00  0.00     0.008 A 
HETATM    5  C   UNL     1      -7.794  -0.534 -33.299  1.00  0.00     0.068 A 
HETATM    6  N   UNL     1      -7.366  -1.569 -34.033  1.00  0.00    -0.252 NA
HETATM    7  C   UNL     1      -6.048  -1.750 -34.258  1.00  0.00     0.040 A 
HETATM    8  C   UNL     1      -5.117  -0.872 -33.723  1.00  0.00     0.044 A 
HETATM    9  C   UNL     1      -5.535   0.215 -32.938  1.00  0.00     0.034 A 
HETATM   10  C   UNL     1      -9.164  -0.405 -33.115  1.00  0.00     0.033 A 
HETATM   11  C   UNL     1      -9.718   0.645 -32.381  1.00  0.00     0.009 A 
ENDROOT
BRANCH   9  12
HETATM   12  C   UNL     1      -4.518   1.094 -32.359  1.00  0.00     0.207 A 
HETATM   13  O   UNL     1      -3.657   0.528 -31.452  1.00  0.00    -0.191 OA
HETATM   14  N   UNL     1      -2.779   1.536 -31.039  1.00  0.00    -0.108 NA
HETATM   15  C   UNL     1      -3.184   2.593 -31.742  1.00  0.00     0.189 A 
HETATM   16  N   UNL     1      -4.273   2.378 -32.550  1.00  0.00    -0.202 NA
BRANCH  15  17
HETATM   17  C   UNL     1      -2.551   3.943 -31.658  1.00  0.00     0.282 C 
HETATM   18  N   UNL     1      -3.475   4.907 -30.905  1.00  0.00    -0.060 N 
HETATM   19  H   UNL     1      -4.417   4.799 -31.309  1.00  0.00     0.278 HD
HETATM   20  H   UNL     1      -3.560   4.580 -29.933  1.00  0.00     0.278 HD
HETATM   21  C   UNL     1      -3.012   6.329 -30.948  1.00  0.00     0.259 C 
HETATM   22  C   UNL     1      -2.768   6.746 -32.399  1.00  0.00     0.195 C 
HETATM   23  O   UNL     1      -1.813   5.870 -33.011  1.00  0.00    -0.387 OA
HETATM   24  C   UNL     1      -2.289   4.516 -33.066  1.00  0.00     0.208 C 
ENDBRANCH  15  17
ENDBRANCH   9  12
BRANCH   7  25
HETATM   25  C   UNL     1      -5.617  -2.914 -35.118  1.00  0.00     0.038 A 
HETATM   26  C   UNL     1      -5.158  -4.207 -34.482  1.00  0.00     0.011 A 
HETATM   27  C   UNL     1      -6.480  -4.154 -35.189  1.00  0.00     0.011 A 
ENDBRANCH   7  25
TORSDOF 3
ENDMDL
MODEL 5
REMARK VINA RESULT:      -8.1     14.314     16.165
REMARK  3 active torsions:
REMARK  status: ('A' for Active; 'I' for Inactive)
REMARK    1  A    between atoms: C_7  and  C_8 
REMARK    2  A    between atoms: C_12  and  C_13 
REMARK    3  A    between atoms: C_16  and  C_17 
ROOT
HETATM    1  C   UNL     1      -2.567 -12.392 -38.183  1.00  0.00     0.048 C 
HETATM    2  C   UNL     1      -4.020 -12.504 -38.535  1.00  0.00    -0.061 A 
HETATM    3  C   UNL     1      -4.960 -12.966 -37.607  1.00  0.00     0.021 A 
HETATM    4  C   UNL     1      -6.348 -13.058 -37.914  1.00  0.00     0.008 A 
HETATM    5  C   UNL     1      -6.761 -12.678 -39.206  1.00  0.00     0.068 A 
HETATM    6  N   UNL     1      -8.033 -12.747 -39.619  1.00  0.00    -0.252 NA
HETATM    7  C   UNL     1      -8.998 -13.201 -38.793  1.00  0.00     0.040 A 
HETATM    8  C   UNL     1      -8.687 -13.593 -37.499  1.00  0.00     0.044 A 
HETATM    9  C   UNL     1      -7.364 -13.520 -37.033  1.00  0.00     0.034 A 
HETATM   10  C   UNL     1      -5.820 -12.208 -40.112  1.00  0.00     0.033 A 
HETATM   11  C   UNL     1      -4.466 -12.110 -39.791  1.00  0.00     0.009 A 
ENDROOT
BRANCH   9  12
HETATM   12  C   UNL     1      -7.086 -13.905 -35.649  1.00  0.00     0.207 A 
HETATM   13  O   UNL     1      -7.559 -13.069 -34.668  1.00  0.00    -0.191 OA
HETATM   14  N   UNL     1      -7.187 -13.627 -33.441  1.00  0.00    -0.108 NA
HETATM   15  C   UNL     1      -6.548 -14.741 -33.799  1.00  0.00     0.189 A 
HETATM   16  N   UNL     1      -6.433 -14.941 -35.153  1.00  0.00    -0.202 NA
BRANCH  15  17
HETATM   17  C   UNL     1      -5.950 -15.708 -32.832  1.00  0.00     0.282 C 
HETATM   18  N   UNL     1      -7.032 -16.230 -31.878  1.00  0.00    -0.060 N 
HETATM   19  H   UNL     1      -7.555 -15.409 -31.537  1.00  0.00     0.278 HD
HETATM   20  H   UNL     1      -7.711 -16.773 -32.427  1.00  0.00     0.278 HD
HETATM   21  C   UNL     1      -6.486 -17.048 -30.751  1.00  0.00     0.259 C 
HETATM   22  C   UNL     1      -5.384 -16.265 -30.035  1.00  0.00     0.195 C 
HETATM   23  O   UNL     1      -4.353 -15.903 -30.961  1.00  0.00    -0.387 OA
HETATM   24  C   UNL     1      -4.843 -15.034 -31.994  1.00  0.00     0.208 C 
ENDBRANCH  15  17
ENDBRANCH   9  12
BRANCH   7  25
HETATM   25  C   UNL     1     -10.412 -13.290 -39.315  1.00  0.00     0.038 A 
HETATM   26  C   UNL     1     -10.901 -12.320 -40.366  1.00  0.00     0.011 A 
HETATM   27  C   UNL     1     -10.660 -13.754 -40.732  1.00  0.00     0.011 A 
ENDBRANCH   7  25
TORSDOF 3
ENDMDL
MODEL 6
REMARK VINA RESULT:      -8.1      3.243      6.821
REMARK  3 active torsions:
REMARK  status: ('A' for Active; 'I' for Inactive)
REMARK    1  A    between atoms: C_7  and  C_8 
REMARK    2  A    between atoms: C_12  and  C_13 
REMARK    3  A    between atoms: C_16  and  C_17 
ROOT
HETATM    1  C   UNL     1      -3.953  -2.818 -34.013  1.00  0.00     0.048 C 
HETATM    2  C   UNL     1      -5.133  -1.896 -33.939  1.00  0.00    -0.061 A 
HETATM    3  C   UNL     1      -4.998  -0.573 -33.502  1.00  0.00     0.021 A 
HETATM    4  C   UNL     1      -6.102   0.324 -33.446  1.00  0.00     0.008 A 
HETATM    5  C   UNL     1      -7.365  -0.162 -33.835  1.00  0.00     0.068 A 
HETATM    6  N   UNL     1      -8.480   0.579 -33.799  1.00  0.00    -0.252 NA
HETATM    7  C   UNL     1      -8.439   1.858 -33.371  1.00  0.00     0.040 A 
HETATM    8  C   UNL     1      -7.238   2.425 -32.972  1.00  0.00     0.044 A 
HETATM    9  C   UNL     1      -6.049   1.678 -33.011  1.00  0.00     0.034 A 
HETATM   10  C   UNL     1      -7.483  -1.472 -34.280  1.00  0.00     0.033 A 
HETATM   11  C   UNL     1      -6.389  -2.335 -34.343  1.00  0.00     0.009 A 
ENDROOT
BRANCH   9  12
HETATM   12  C   UNL     1      -4.799   2.328 -32.620  1.00  0.00     0.207 A 
HETATM   13  O   UNL     1      -4.170   1.837 -31.503  1.00  0.00    -0.191 OA
HETATM   14  N   UNL     1      -3.008   2.595 -31.321  1.00  0.00    -0.108 NA
HETATM   15  C   UNL     1      -3.043   3.446 -32.346  1.00  0.00     0.189 A 
HETATM   16  N   UNL     1      -4.144   3.342 -33.159  1.00  0.00    -0.202 NA
BRANCH  15  17
HETATM   17  C   UNL     1      -2.000   4.483 -32.604  1.00  0.00     0.282 C 
HETATM   18  N   UNL     1      -2.241   5.702 -31.706  1.00  0.00    -0.060 N 
HETATM   19  H   UNL     1      -3.241   5.940 -31.783  1.00  0.00     0.278 HD
HETATM   20  H   UNL     1      -2.108   5.414 -30.727  1.00  0.00     0.278 HD
HETATM   21  C   UNL     1      -1.366   6.869 -32.039  1.00  0.00     0.259 C 
HETATM   22  C   UNL     1      -1.484   7.191 -33.529  1.00  0.00     0.195 C 
HETATM   23  O   UNL     1      -1.140   6.042 -34.312  1.00  0.00    -0.387 OA
HETATM   24  C   UNL     1      -2.036   4.945 -34.076  1.00  0.00     0.208 C 
ENDBRANCH  15  17
ENDBRANCH   9  12
BRANCH   7  25
HETATM   25  C   UNL     1      -9.727   2.642 -33.319  1.00  0.00     0.038 A 
HETATM   26  C   UNL     1     -10.184   3.444 -34.517  1.00  0.00     0.011 A 
HETATM   27  C   UNL     1     -10.914   2.190 -34.138  1.00  0.00     0.011 A 
ENDBRANCH   7  25
TORSDOF 3
ENDMDL
MODEL 7
REMARK VINA RESULT:      -7.9      3.447      7.207
REMARK  3 active torsions:
REMARK  status: ('A' for Active; 'I' for Inactive)
REMARK    1  A    between atoms: C_7  and  C_8 
REMARK    2  A    between atoms: C_12  and  C_13 
REMARK    3  A    between atoms: C_16  and  C_17 
ROOT
HETATM    1  C   UNL     1      -4.249  -1.283 -33.661  1.00  0.00     0.048 C 
HETATM    2  C   UNL     1      -5.586  -0.619 -33.795  1.00  0.00    -0.061 A 
HETATM    3  C   UNL     1      -5.726   0.769 -33.673  1.00  0.00     0.021 A 
HETATM    4  C   UNL     1      -6.983   1.421 -33.820  1.00  0.00     0.008 A 
HETATM    5  C   UNL     1      -8.112   0.621 -34.084  1.00  0.00     0.068 A 
HETATM    6  N   UNL     1      -9.348   1.116 -34.215  1.00  0.00    -0.252 NA
HETATM    7  C   UNL     1      -9.572   2.442 -34.090  1.00  0.00     0.040 A 
HETATM    8  C   UNL     1      -8.520   3.309 -33.835  1.00  0.00     0.044 A 
HETATM    9  C   UNL     1      -7.210   2.821 -33.706  1.00  0.00     0.034 A 
HETATM   10  C   UNL     1      -7.957  -0.752 -34.217  1.00  0.00     0.033 A 
HETATM   11  C   UNL     1      -6.716  -1.375 -34.085  1.00  0.00     0.009 A 
ENDROOT
BRANCH   9  12
HETATM   12  C   UNL     1      -6.125   3.775 -33.478  1.00  0.00     0.207 A 
HETATM   13  O   UNL     1      -6.051   4.843 -34.336  1.00  0.00    -0.191 OA
HETATM   14  N   UNL     1      -4.957   5.616 -33.933  1.00  0.00    -0.108 NA
HETATM   15  C   UNL     1      -4.495   4.953 -32.874  1.00  0.00     0.189 A 
HETATM   16  N   UNL     1      -5.165   3.793 -32.570  1.00  0.00    -0.202 NA
BRANCH  15  17
HETATM   17  C   UNL     1      -3.313   5.384 -32.070  1.00  0.00     0.282 C 
HETATM   18  N   UNL     1      -2.461   6.368 -32.880  1.00  0.00    -0.060 N 
HETATM   19  H   UNL     1      -2.331   5.955 -33.816  1.00  0.00     0.278 HD
HETATM   20  H   UNL     1      -3.014   7.221 -33.038  1.00  0.00     0.278 HD
HETATM   21  C   UNL     1      -1.153   6.696 -32.232  1.00  0.00     0.259 C 
HETATM   22  C   UNL     1      -0.411   5.403 -31.889  1.00  0.00     0.195 C 
HETATM   23  O   UNL     1      -1.220   4.579 -31.041  1.00  0.00    -0.387 OA
HETATM   24  C   UNL     1      -2.435   4.174 -31.691  1.00  0.00     0.208 C 
ENDBRANCH  15  17
ENDBRANCH   9  12
BRANCH   7  25
HETATM   25  C   UNL     1     -10.988   2.949 -34.214  1.00  0.00     0.038 A 
HETATM   26  C   UNL     1     -11.473   3.554 -35.512  1.00  0.00     0.011 A 
HETATM   27  C   UNL     1     -11.976   2.207 -35.087  1.00  0.00     0.011 A 
ENDBRANCH   7  25
TORSDOF 3
ENDMDL
MODEL 8
REMARK VINA RESULT:      -7.9      2.054      2.874
REMARK  3 active torsions:
REMARK  status: ('A' for Active; 'I' for Inactive)
REMARK    1  A    between atoms: C_7  and  C_8 
REMARK    2  A    between atoms: C_12  and  C_13 
REMARK    3  A    between atoms: C_16  and  C_17 
ROOT
HETATM    1  C   UNL     1      -6.691  -1.964 -34.336  1.00  0.00     0.048 C 
HETATM    2  C   UNL     1      -5.782  -0.927 -33.748  1.00  0.00    -0.061 A 
HETATM    3  C   UNL     1      -6.166   0.417 -33.668  1.00  0.00     0.021 A 
HETATM    4  C   UNL     1      -5.327   1.413 -33.092  1.00  0.00     0.008 A 
HETATM    5  C   UNL     1      -4.068   1.011 -32.605  1.00  0.00     0.068 A 
HETATM    6  N   UNL     1      -3.183   1.860 -32.069  1.00  0.00    -0.252 NA
HETATM    7  C   UNL     1      -3.467   3.176 -31.973  1.00  0.00     0.040 A 
HETATM    8  C   UNL     1      -4.686   3.664 -32.421  1.00  0.00     0.044 A 
HETATM    9  C   UNL     1      -5.640   2.796 -32.977  1.00  0.00     0.034 A 
HETATM   10  C   UNL     1      -3.705  -0.327 -32.678  1.00  0.00     0.033 A 
HETATM   11  C   UNL     1      -4.544  -1.294 -33.232  1.00  0.00     0.009 A 
ENDROOT
BRANCH   9  12
HETATM   12  C   UNL     1      -6.927   3.346 -33.399  1.00  0.00     0.207 A 
HETATM   13  O   UNL     1      -6.893   4.496 -34.147  1.00  0.00    -0.191 OA
HETATM   14  N   UNL     1      -8.218   4.835 -34.439  1.00  0.00    -0.108 NA
HETATM   15  C   UNL     1      -8.912   3.857 -33.858  1.00  0.00     0.189 A 
HETATM   16  N   UNL     1      -8.162   2.929 -33.177  1.00  0.00    -0.202 NA
BRANCH  15  17
HETATM   17  C   UNL     1     -10.402   3.760 -33.887  1.00  0.00     0.282 C 
HETATM   18  N   UNL     1     -10.837   2.315 -33.615  1.00  0.00    -0.060 N 
HETATM   19  H   UNL     1     -10.265   1.709 -34.222  1.00  0.00     0.278 HD
HETATM   20  H   UNL     1     -10.562   2.070 -32.655  1.00  0.00     0.278 HD
HETATM   21  C   UNL     1     -12.301   2.086 -33.824  1.00  0.00     0.259 C 
HETATM   22  C   UNL     1     -12.706   2.583 -35.212  1.00  0.00     0.195 C 
HETATM   23  O   UNL     1     -12.370   3.967 -35.360  1.00  0.00    -0.387 OA
HETATM   24  C   UNL     1     -10.954   4.188 -35.262  1.00  0.00     0.208 C 
ENDBRANCH  15  17
ENDBRANCH   9  12
BRANCH   7  25
HETATM   25  C   UNL     1      -2.425   4.099 -31.390  1.00  0.00     0.038 A 
HETATM   26  C   UNL     1      -1.479   4.854 -32.295  1.00  0.00     0.011 A 
HETATM   27  C   UNL     1      -2.562   5.594 -31.569  1.00  0.00     0.011 A 
ENDBRANCH   7  25
TORSDOF 3
ENDMDL
MODEL 9
REMARK VINA RESULT:      -7.8      2.218      4.546
REMARK  3 active torsions:
REMARK  status: ('A' for Active; 'I' for Inactive)
REMARK    1  A    between atoms: C_7  and  C_8 
REMARK    2  A    between atoms: C_12  and  C_13 
REMARK    3  A    between atoms: C_16  and  C_17 
ROOT
HETATM    1  C   UNL     1      -3.349   2.688 -31.669  1.00  0.00     0.048 C 
HETATM    2  C   UNL     1      -3.861   1.392 -32.222  1.00  0.00    -0.061 A 
HETATM    3  C   UNL     1      -5.199   1.240 -32.602  1.00  0.00     0.021 A 
HETATM    4  C   UNL     1      -5.699   0.025 -33.149  1.00  0.00     0.008 A 
HETATM    5  C   UNL     1      -4.801  -1.051 -33.292  1.00  0.00     0.068 A 
HETATM    6  N   UNL     1      -5.161  -2.249 -33.769  1.00  0.00    -0.252 NA
HETATM    7  C   UNL     1      -6.437  -2.484 -34.138  1.00  0.00     0.040 A 
HETATM    8  C   UNL     1      -7.392  -1.483 -34.039  1.00  0.00     0.044 A 
HETATM    9  C   UNL     1      -7.042  -0.212 -33.555  1.00  0.00     0.034 A 
HETATM   10  C   UNL     1      -3.473  -0.883 -32.925  1.00  0.00     0.033 A 
HETATM   11  C   UNL     1      -2.995   0.319 -32.402  1.00  0.00     0.009 A 
ENDROOT
BRANCH   9  12
HETATM   12  C   UNL     1      -8.071   0.827 -33.505  1.00  0.00     0.207 A 
HETATM   13  O   UNL     1      -8.534   1.296 -34.708  1.00  0.00    -0.191 OA
HETATM   14  N   UNL     1      -9.502   2.266 -34.424  1.00  0.00    -0.108 NA
HETATM   15  C   UNL     1      -9.537   2.273 -33.092  1.00  0.00     0.189 A 
HETATM   16  N   UNL     1      -8.650   1.423 -32.477  1.00  0.00    -0.202 NA
BRANCH  15  17
HETATM   17  C   UNL     1     -10.432   3.155 -32.286  1.00  0.00     0.282 C 
HETATM   18  N   UNL     1     -10.603   4.507 -32.988  1.00  0.00    -0.060 N 
HETATM   19  H   UNL     1      -9.661   4.829 -33.256  1.00  0.00     0.278 HD
HETATM   20  H   UNL     1     -11.097   4.350 -33.876  1.00  0.00     0.278 HD
HETATM   21  C   UNL     1     -11.320   5.523 -32.154  1.00  0.00     0.259 C 
HETATM   22  C   UNL     1     -10.640   5.638 -30.789  1.00  0.00     0.195 C 
HETATM   23  O   UNL     1     -10.612   4.361 -30.141  1.00  0.00    -0.387 OA
HETATM   24  C   UNL     1      -9.841   3.403 -30.882  1.00  0.00     0.208 C 
ENDBRANCH  15  17
ENDBRANCH   9  12
BRANCH   7  25
HETATM   25  C   UNL     1      -6.801  -3.861 -34.640  1.00  0.00     0.038 A 
HETATM   26  C   UNL     1      -6.349  -4.321 -36.007  1.00  0.00     0.011 A 
HETATM   27  C   UNL     1      -5.727  -4.916 -34.779  1.00  0.00     0.011 A 
ENDBRANCH   7  25
TORSDOF 3
ENDMDL
MODEL 10
REMARK VINA RESULT:      -7.6      4.435      8.767
REMARK  3 active torsions:
REMARK  status: ('A' for Active; 'I' for Inactive)
REMARK    1  A    between atoms: C_7  and  C_8 
REMARK    2  A    between atoms: C_12  and  C_13 
REMARK    3  A    between atoms: C_16  and  C_17 
ROOT
HETATM    1  C   UNL     1      -7.909   6.537 -31.415  1.00  0.00     0.048 C 
HETATM    2  C   UNL     1      -7.627   5.084 -31.654  1.00  0.00    -0.061 A 
HETATM    3  C   UNL     1      -6.331   4.628 -31.921  1.00  0.00     0.021 A 
HETATM    4  C   UNL     1      -6.039   3.249 -32.128  1.00  0.00     0.008 A 
HETATM    5  C   UNL     1      -7.109   2.335 -32.070  1.00  0.00     0.068 A 
HETATM    6  N   UNL     1      -6.962   1.020 -32.275  1.00  0.00    -0.252 NA
HETATM    7  C   UNL     1      -5.749   0.502 -32.559  1.00  0.00     0.040 A 
HETATM    8  C   UNL     1      -4.635   1.325 -32.631  1.00  0.00     0.044 A 
HETATM    9  C   UNL     1      -4.754   2.706 -32.408  1.00  0.00     0.034 A 
HETATM   10  C   UNL     1      -8.387   2.798 -31.791  1.00  0.00     0.033 A 
HETATM   11  C   UNL     1      -8.655   4.151 -31.576  1.00  0.00     0.009 A 
ENDROOT
BRANCH   9  12
HETATM   12  C   UNL     1      -3.548   3.531 -32.454  1.00  0.00     0.207 A 
HETATM   13  O   UNL     1      -3.322   4.233 -33.611  1.00  0.00    -0.191 OA
HETATM   14  N   UNL     1      -2.132   4.947 -33.433  1.00  0.00    -0.108 NA
HETATM   15  C   UNL     1      -1.771   4.620 -32.192  1.00  0.00     0.189 A 
HETATM   16  N   UNL     1      -2.597   3.725 -31.557  1.00  0.00    -0.202 NA
BRANCH  15  17
HETATM   17  C   UNL     1      -0.543   5.136 -31.518  1.00  0.00     0.282 C 
HETATM   18  N   UNL     1      -0.651   4.927 -30.003  1.00  0.00    -0.060 N 
HETATM   19  H   UNL     1      -1.583   5.266 -29.718  1.00  0.00     0.278 HD
HETATM   20  H   UNL     1      -0.665   3.916 -29.816  1.00  0.00     0.278 HD
HETATM   21  C   UNL     1       0.443   5.595 -29.231  1.00  0.00     0.259 C 
HETATM   22  C   UNL     1       0.526   7.070 -29.627  1.00  0.00     0.195 C 
HETATM   23  O   UNL     1       0.736   7.191 -31.039  1.00  0.00    -0.387 OA
HETATM   24  C   UNL     1      -0.357   6.643 -31.792  1.00  0.00     0.208 C 
ENDBRANCH  15  17
ENDBRANCH   9  12
BRANCH   7  25
HETATM   25  C   UNL     1      -5.639  -0.982 -32.813  1.00  0.00     0.038 A 
HETATM   26  C   UNL     1      -5.703  -1.523 -34.224  1.00  0.00     0.011 A 
HETATM   27  C   UNL     1      -4.402  -1.539 -33.479  1.00  0.00     0.011 A 
ENDBRANCH   7  25
TORSDOF 3
ENDMDL
