MODEL 1
REMARK VINA RESULT:     -10.0      0.000      0.000
REMARK  6 active torsions:
REMARK  status: ('A' for Active; 'I' for Inactive)
REMARK    1  A    between atoms: C_6  and  N_7 
REMARK       I    between atoms: N_7  and  C_8 
REMARK    2  A    between atoms: C_8  and  C_9 
REMARK    3  A    between atoms: C_9  and  S_10 
REMARK    4  A    between atoms: S_10  and  C_11 
REMARK    5  A    between atoms: N_16  and  C_18 
REMARK    6  A    between atoms: C_18  and  C_19 
ROOT
HETATM    1  C   UNL     1      -6.755   1.242 -30.551  1.00  0.00     0.169 A 
HETATM    2  N   UNL     1      -7.552   0.412 -31.138  1.00  0.00    -0.228 NA
HETATM    3  C   UNL     1      -8.535   0.951 -31.930  1.00  0.00     0.052 A 
HETATM    4  C   UNL     1      -8.713   2.271 -32.100  1.00  0.00     0.060 A 
HETATM    5  C   UNL     1      -9.712   2.879 -33.016  1.00  0.00     0.281 C 
HETATM    6  N   UNL     1     -10.272   1.870 -34.003  1.00  0.00    -0.063 N 
HETATM    7  H   UNL     1      -9.506   1.642 -34.648  1.00  0.00     0.280 HD
HETATM    8  C   UNL     1     -10.653   0.586 -33.294  1.00  0.00     0.241 C 
HETATM    9  C   UNL     1      -9.409  -0.043 -32.655  1.00  0.00     0.088 C 
HETATM   10  C   UNL     1      -7.825   3.193 -31.370  1.00  0.00     0.257 A 
HETATM   11  O   UNL     1      -7.974   4.403 -31.471  1.00  0.00    -0.267 OA
HETATM   12  N   UNL     1      -6.865   2.594 -30.620  1.00  0.00    -0.302 N 
HETATM   13  H   UNL     1      -6.195   3.168 -30.129  1.00  0.00     0.171 HD
ENDROOT
BRANCH   1  14
HETATM   14  S   UNL     1      -5.417   0.734 -29.578  1.00  0.00    -0.083 SA
BRANCH  14  15
HETATM   15  C   UNL     1      -4.269   0.201 -30.887  1.00  0.00     0.185 C 
BRANCH  15  16
HETATM   16  C   UNL     1      -4.346   1.048 -32.147  1.00  0.00     0.231 C 
HETATM   17  N   UNL     1      -4.766   0.510 -33.332  1.00  0.00    -0.327 N 
HETATM   18  H   UNL     1      -4.827   1.234 -34.040  1.00  0.00     0.169 HD
HETATM   19  O   UNL     1      -4.078   2.256 -32.156  1.00  0.00    -0.272 OA
BRANCH  17  20
HETATM   20  C   UNL     1      -5.113  -0.784 -33.763  1.00  0.00     0.035 A 
HETATM   21  C   UNL     1      -4.308  -1.919 -33.677  1.00  0.00     0.037 A 
HETATM   22  C   UNL     1      -4.751  -3.175 -34.145  1.00  0.00    -0.054 A 
HETATM   23  C   UNL     1      -6.020  -3.288 -34.740  1.00  0.00    -0.056 A 
HETATM   24  C   UNL     1      -3.806  -4.347 -34.067  1.00  0.00     0.049 C 
HETATM   25  C   UNL     1      -6.530  -4.596 -35.280  1.00  0.00     0.049 C 
HETATM   26  C   UNL     1      -6.825  -2.147 -34.834  1.00  0.00     0.009 A 
HETATM   27  C   UNL     1      -6.373  -0.914 -34.358  1.00  0.00     0.030 A 
ENDBRANCH  17  20
ENDBRANCH  15  16
ENDBRANCH  14  15
ENDBRANCH   1  14
BRANCH   6  28
HETATM   28  C   UNL     1     -11.377   2.465 -34.843  1.00  0.00     0.273 C 
BRANCH  28  29
HETATM   29  C   UNL     1     -12.750   2.231 -34.267  1.00  0.00    -0.030 A 
HETATM   30  C   UNL     1     -13.280   3.112 -33.306  1.00  0.00     0.048 A 
HETATM   31  C   UNL     1     -14.558   2.876 -32.843  1.00  0.00     0.105 A 
HETATM   32  C   UNL     1     -15.302   1.807 -33.274  1.00  0.00     0.105 A 
HETATM   33  O   UNL     1     -15.223   3.644 -31.940  1.00  0.00    -0.323 OA
HETATM   34  O   UNL     1     -16.529   1.763 -32.694  1.00  0.00    -0.323 OA
HETATM   35  C   UNL     1     -14.810   0.908 -34.193  1.00  0.00     0.040 A 
HETATM   36  C   UNL     1     -16.476   2.925 -31.841  1.00  0.00     0.352 A 
HETATM   37  C   UNL     1     -13.521   1.125 -34.695  1.00  0.00     0.012 A 
ENDBRANCH  28  29
ENDBRANCH   6  28
TORSDOF 6
ENDMDL
MODEL 2
REMARK VINA RESULT:     -10.0      6.040     10.103
REMARK  6 active torsions:
REMARK  status: ('A' for Active; 'I' for Inactive)
REMARK    1  A    between atoms: C_6  and  N_7 
REMARK       I    between atoms: N_7  and  C_8 
REMARK    2  A    between atoms: C_8  and  C_9 
REMARK    3  A    between atoms: C_9  and  S_10 
REMARK    4  A    between atoms: S_10  and  C_11 
REMARK    5  A    between atoms: N_16  and  C_18 
REMARK    6  A    between atoms: C_18  and  C_19 
ROOT
HETATM    1  C   UNL     1      -2.220   4.902 -32.512  1.00  0.00     0.169 A 
HETATM    2  N   UNL     1      -2.323   3.791 -31.860  1.00  0.00    -0.228 NA
HETATM    3  C   UNL     1      -3.404   2.997 -32.155  1.00  0.00     0.052 A 
HETATM    4  C   UNL     1      -4.346   3.327 -33.053  1.00  0.00     0.060 A 
HETATM    5  C   UNL     1      -5.477   2.451 -33.453  1.00  0.00     0.281 C 
HETATM    6  N   UNL     1      -5.271   1.013 -33.012  1.00  0.00    -0.063 N 
HETATM    7  H   UNL     1      -4.504   0.642 -33.587  1.00  0.00     0.280 HD
HETATM    8  C   UNL     1      -4.810   0.957 -31.570  1.00  0.00     0.241 C 
HETATM    9  C   UNL     1      -3.463   1.677 -31.426  1.00  0.00     0.088 C 
HETATM   10  C   UNL     1      -4.232   4.627 -33.736  1.00  0.00     0.257 A 
HETATM   11  O   UNL     1      -5.086   4.981 -34.538  1.00  0.00    -0.267 OA
HETATM   12  N   UNL     1      -3.131   5.353 -33.412  1.00  0.00    -0.302 N 
HETATM   13  H   UNL     1      -2.969   6.234 -33.876  1.00  0.00     0.171 HD
ENDROOT
BRANCH   1  14
HETATM   14  S   UNL     1      -0.884   5.985 -32.320  1.00  0.00    -0.083 SA
BRANCH  14  15
HETATM   15  C   UNL     1      -0.888   6.160 -30.507  1.00  0.00     0.185 C 
BRANCH  15  16
HETATM   16  C   UNL     1       0.146   5.292 -29.810  1.00  0.00     0.231 C 
HETATM   17  N   UNL     1       0.508   5.532 -28.513  1.00  0.00    -0.327 N 
HETATM   18  H   UNL     1       1.147   4.814 -28.190  1.00  0.00     0.169 HD
HETATM   19  O   UNL     1       0.676   4.315 -30.355  1.00  0.00    -0.272 OA
BRANCH  17  20
HETATM   20  C   UNL     1       0.197   6.528 -27.568  1.00  0.00     0.035 A 
HETATM   21  C   UNL     1      -0.977   6.609 -26.821  1.00  0.00     0.037 A 
HETATM   22  C   UNL     1      -1.194   7.655 -25.898  1.00  0.00    -0.054 A 
HETATM   23  C   UNL     1      -0.222   8.660 -25.744  1.00  0.00    -0.056 A 
HETATM   24  C   UNL     1      -2.509   7.708 -25.164  1.00  0.00     0.049 C 
HETATM   25  C   UNL     1      -0.415   9.812 -24.796  1.00  0.00     0.049 C 
HETATM   26  C   UNL     1       0.952   8.584 -26.501  1.00  0.00     0.009 A 
HETATM   27  C   UNL     1       1.153   7.536 -27.403  1.00  0.00     0.030 A 
ENDBRANCH  17  20
ENDBRANCH  15  16
ENDBRANCH  14  15
ENDBRANCH   1  14
BRANCH   6  28
HETATM   28  C   UNL     1      -6.480   0.159 -33.310  1.00  0.00     0.273 C 
BRANCH  28  29
HETATM   29  C   UNL     1      -6.125  -1.248 -33.717  1.00  0.00    -0.030 A 
HETATM   30  C   UNL     1      -4.883  -1.803 -33.358  1.00  0.00     0.048 A 
HETATM   31  C   UNL     1      -4.625  -3.109 -33.720  1.00  0.00     0.105 A 
HETATM   32  C   UNL     1      -5.528  -3.859 -34.430  1.00  0.00     0.105 A 
HETATM   33  O   UNL     1      -3.492  -3.799 -33.427  1.00  0.00    -0.323 OA
HETATM   34  O   UNL     1      -5.077  -5.115 -34.679  1.00  0.00    -0.323 OA
HETATM   35  C   UNL     1      -6.743  -3.344 -34.823  1.00  0.00     0.040 A 
HETATM   36  C   UNL     1      -3.780  -5.074 -34.049  1.00  0.00     0.352 A 
HETATM   37  C   UNL     1      -7.043  -2.026 -34.462  1.00  0.00     0.012 A 
ENDBRANCH  28  29
ENDBRANCH   6  28
TORSDOF 6
ENDMDL
MODEL 3
REMARK VINA RESULT:      -9.9      4.906      8.009
REMARK  6 active torsions:
REMARK  status: ('A' for Active; 'I' for Inactive)
REMARK    1  A    between atoms: C_6  and  N_7 
REMARK       I    between atoms: N_7  and  C_8 
REMARK    2  A    between atoms: C_8  and  C_9 
REMARK    3  A    between atoms: C_9  and  S_10 
REMARK    4  A    between atoms: S_10  and  C_11 
REMARK    5  A    between atoms: N_16  and  C_18 
REMARK    6  A    between atoms: C_18  and  C_19 
ROOT
HETATM    1  C   UNL     1      -5.531   5.657 -29.476  1.00  0.00     0.169 A 
HETATM    2  N   UNL     1      -5.931   4.438 -29.324  1.00  0.00    -0.228 NA
HETATM    3  C   UNL     1      -6.227   3.736 -30.466  1.00  0.00     0.052 A 
HETATM    4  C   UNL     1      -6.142   4.255 -31.701  1.00  0.00     0.060 A 
HETATM    5  C   UNL     1      -6.374   3.495 -32.957  1.00  0.00     0.281 C 
HETATM    6  N   UNL     1      -6.371   1.995 -32.726  1.00  0.00    -0.063 N 
HETATM    7  H   UNL     1      -5.401   1.740 -32.501  1.00  0.00     0.280 HD
HETATM    8  C   UNL     1      -7.214   1.639 -31.518  1.00  0.00     0.241 C 
HETATM    9  C   UNL     1      -6.628   2.296 -30.263  1.00  0.00     0.088 C 
HETATM   10  C   UNL     1      -5.741   5.666 -31.837  1.00  0.00     0.257 A 
HETATM   11  O   UNL     1      -5.683   6.188 -32.942  1.00  0.00    -0.267 OA
HETATM   12  N   UNL     1      -5.445   6.296 -30.672  1.00  0.00    -0.302 N 
HETATM   13  H   UNL     1      -5.121   7.251 -30.696  1.00  0.00     0.171 HD
ENDROOT
BRANCH   1  14
HETATM   14  S   UNL     1      -5.045   6.660 -28.151  1.00  0.00    -0.083 SA
BRANCH  14  15
HETATM   15  C   UNL     1      -3.715   7.610 -28.957  1.00  0.00     0.185 C 
BRANCH  15  16
HETATM   16  C   UNL     1      -2.320   7.194 -28.520  1.00  0.00     0.231 C 
HETATM   17  N   UNL     1      -1.452   6.612 -29.401  1.00  0.00    -0.327 N 
HETATM   18  H   UNL     1      -0.549   6.474 -28.959  1.00  0.00     0.169 HD
HETATM   19  O   UNL     1      -1.891   7.395 -27.376  1.00  0.00    -0.272 OA
BRANCH  17  20
HETATM   20  C   UNL     1      -1.540   6.178 -30.736  1.00  0.00     0.035 A 
HETATM   21  C   UNL     1      -2.134   4.995 -31.174  1.00  0.00     0.037 A 
HETATM   22  C   UNL     1      -2.167   4.647 -32.543  1.00  0.00    -0.054 A 
HETATM   23  C   UNL     1      -1.563   5.494 -33.490  1.00  0.00    -0.056 A 
HETATM   24  C   UNL     1      -2.779   3.328 -32.937  1.00  0.00     0.049 C 
HETATM   25  C   UNL     1      -1.545   5.158 -34.956  1.00  0.00     0.049 C 
HETATM   26  C   UNL     1      -0.960   6.676 -33.049  1.00  0.00     0.009 A 
HETATM   27  C   UNL     1      -0.944   7.008 -31.692  1.00  0.00     0.030 A 
ENDBRANCH  17  20
ENDBRANCH  15  16
ENDBRANCH  14  15
ENDBRANCH   1  14
BRANCH   6  28
HETATM   28  C   UNL     1      -6.733   1.236 -33.980  1.00  0.00     0.273 C 
BRANCH  28  29
HETATM   29  C   UNL     1      -6.143  -0.150 -34.025  1.00  0.00    -0.030 A 
HETATM   30  C   UNL     1      -6.898  -1.231 -34.516  1.00  0.00     0.048 A 
HETATM   31  C   UNL     1      -6.296  -2.471 -34.575  1.00  0.00     0.105 A 
HETATM   32  C   UNL     1      -5.007  -2.675 -34.150  1.00  0.00     0.105 A 
HETATM   33  O   UNL     1      -6.874  -3.606 -35.047  1.00  0.00    -0.323 OA
HETATM   34  O   UNL     1      -4.612  -3.965 -34.297  1.00  0.00    -0.323 OA
HETATM   35  C   UNL     1      -4.245  -1.649 -33.639  1.00  0.00     0.040 A 
HETATM   36  C   UNL     1      -5.801  -4.558 -34.859  1.00  0.00     0.352 A 
HETATM   37  C   UNL     1      -4.820  -0.374 -33.577  1.00  0.00     0.012 A 
ENDBRANCH  28  29
ENDBRANCH   6  28
TORSDOF 6
ENDMDL
MODEL 4
REMARK VINA RESULT:      -9.9      3.012      7.834
REMARK  6 active torsions:
REMARK  status: ('A' for Active; 'I' for Inactive)
REMARK    1  A    between atoms: C_6  and  N_7 
REMARK       I    between atoms: N_7  and  C_8 
REMARK    2  A    between atoms: C_8  and  C_9 
REMARK    3  A    between atoms: C_9  and  S_10 
REMARK    4  A    between atoms: S_10  and  C_11 
REMARK    5  A    between atoms: N_16  and  C_18 
REMARK    6  A    between atoms: C_18  and  C_19 
ROOT
HETATM    1  C   UNL     1      -8.988   5.498 -32.509  1.00  0.00     0.169 A 
HETATM    2  N   UNL     1      -7.849   5.415 -33.113  1.00  0.00    -0.228 NA
HETATM    3  C   UNL     1      -7.099   4.291 -32.870  1.00  0.00     0.052 A 
HETATM    4  C   UNL     1      -7.478   3.310 -32.036  1.00  0.00     0.060 A 
HETATM    5  C   UNL     1      -6.728   2.045 -31.820  1.00  0.00     0.281 C 
HETATM    6  N   UNL     1      -5.677   1.814 -32.891  1.00  0.00    -0.063 N 
HETATM    7  H   UNL     1      -6.189   1.609 -33.758  1.00  0.00     0.280 HD
HETATM    8  C   UNL     1      -4.877   3.077 -33.136  1.00  0.00     0.241 C 
HETATM    9  C   UNL     1      -5.804   4.190 -33.639  1.00  0.00     0.088 C 
HETATM   10  C   UNL     1      -8.755   3.462 -31.317  1.00  0.00     0.257 A 
HETATM   11  O   UNL     1      -9.122   2.606 -30.523  1.00  0.00    -0.267 OA
HETATM   12  N   UNL     1      -9.454   4.586 -31.617  1.00  0.00    -0.302 N 
HETATM   13  H   UNL     1     -10.358   4.731 -31.192  1.00  0.00     0.171 HD
ENDROOT
BRANCH   1  14
HETATM   14  S   UNL     1     -10.092   6.808 -32.757  1.00  0.00    -0.083 SA
BRANCH  14  15
HETATM   15  C   UNL     1     -11.213   6.039 -33.970  1.00  0.00     0.185 C 
BRANCH  15  16
HETATM   16  C   UNL     1     -10.508   5.545 -35.223  1.00  0.00     0.231 C 
HETATM   17  N   UNL     1     -10.572   4.232 -35.595  1.00  0.00    -0.327 N 
HETATM   18  H   UNL     1     -10.112   4.100 -36.489  1.00  0.00     0.169 HD
HETATM   19  O   UNL     1      -9.883   6.301 -35.979  1.00  0.00    -0.272 OA
BRANCH  17  20
HETATM   20  C   UNL     1     -11.118   3.067 -35.023  1.00  0.00     0.035 A 
HETATM   21  C   UNL     1     -10.434   2.146 -34.231  1.00  0.00     0.037 A 
HETATM   22  C   UNL     1     -11.075   1.003 -33.707  1.00  0.00    -0.054 A 
HETATM   23  C   UNL     1     -12.427   0.763 -34.010  1.00  0.00    -0.056 A 
HETATM   24  C   UNL     1     -10.259   0.024 -32.903  1.00  0.00     0.049 C 
HETATM   25  C   UNL     1     -13.150  -0.454 -33.502  1.00  0.00     0.049 C 
HETATM   26  C   UNL     1     -13.112   1.682 -34.812  1.00  0.00     0.009 A 
HETATM   27  C   UNL     1     -12.463   2.813 -35.315  1.00  0.00     0.030 A 
ENDBRANCH  17  20
ENDBRANCH  15  16
ENDBRANCH  14  15
ENDBRANCH   1  14
BRANCH   6  28
HETATM   28  C   UNL     1      -4.836   0.596 -32.594  1.00  0.00     0.273 C 
BRANCH  28  29
HETATM   29  C   UNL     1      -5.301  -0.637 -33.324  1.00  0.00    -0.030 A 
HETATM   30  C   UNL     1      -4.478  -1.776 -33.397  1.00  0.00     0.048 A 
HETATM   31  C   UNL     1      -4.968  -2.893 -34.042  1.00  0.00     0.105 A 
HETATM   32  C   UNL     1      -6.211  -2.911 -34.623  1.00  0.00     0.105 A 
HETATM   33  O   UNL     1      -4.314  -4.077 -34.175  1.00  0.00    -0.323 OA
HETATM   34  O   UNL     1      -6.496  -4.106 -35.200  1.00  0.00    -0.323 OA
HETATM   35  C   UNL     1      -7.036  -1.809 -34.596  1.00  0.00     0.040 A 
HETATM   36  C   UNL     1      -5.288  -4.844 -34.923  1.00  0.00     0.352 A 
HETATM   37  C   UNL     1      -6.575  -0.662 -33.939  1.00  0.00     0.012 A 
ENDBRANCH  28  29
ENDBRANCH   6  28
TORSDOF 6
ENDMDL
MODEL 5
REMARK VINA RESULT:      -9.8      5.148      9.599
REMARK  6 active torsions:
REMARK  status: ('A' for Active; 'I' for Inactive)
REMARK    1  A    between atoms: C_6  and  N_7 
REMARK       I    between atoms: N_7  and  C_8 
REMARK    2  A    between atoms: C_8  and  C_9 
REMARK    3  A    between atoms: C_9  and  S_10 
REMARK    4  A    between atoms: S_10  and  C_11 
REMARK    5  A    between atoms: N_16  and  C_18 
REMARK    6  A    between atoms: C_18  and  C_19 
ROOT
HETATM    1  C   UNL     1      -5.807   1.704 -30.735  1.00  0.00     0.169 A 
HETATM    2  N   UNL     1      -4.771   1.929 -31.473  1.00  0.00    -0.228 NA
HETATM    3  C   UNL     1      -4.202   3.175 -31.380  1.00  0.00     0.052 A 
HETATM    4  C   UNL     1      -4.677   4.153 -30.593  1.00  0.00     0.060 A 
HETATM    5  C   UNL     1      -4.033   5.479 -30.409  1.00  0.00     0.281 C 
HETATM    6  N   UNL     1      -2.604   5.497 -30.920  1.00  0.00    -0.063 N 
HETATM    7  H   UNL     1      -2.061   4.909 -30.277  1.00  0.00     0.280 HD
HETATM    8  C   UNL     1      -2.519   4.854 -32.290  1.00  0.00     0.241 C 
HETATM    9  C   UNL     1      -2.954   3.387 -32.203  1.00  0.00     0.088 C 
HETATM   10  C   UNL     1      -5.895   3.885 -29.809  1.00  0.00     0.257 A 
HETATM   11  O   UNL     1      -6.381   4.759 -29.104  1.00  0.00    -0.267 OA
HETATM   12  N   UNL     1      -6.395   2.629 -29.933  1.00  0.00    -0.302 N 
HETATM   13  H   UNL     1      -7.204   2.365 -29.389  1.00  0.00     0.171 HD
ENDROOT
BRANCH   1  14
HETATM   14  S   UNL     1      -6.603   0.168 -30.671  1.00  0.00    -0.083 SA
BRANCH  14  15
HETATM   15  C   UNL     1      -7.830   0.403 -31.996  1.00  0.00     0.185 C 
BRANCH  15  16
HETATM   16  C   UNL     1      -7.273   1.101 -33.226  1.00  0.00     0.231 C 
HETATM   17  N   UNL     1      -6.482   0.431 -34.118  1.00  0.00    -0.327 N 
HETATM   18  H   UNL     1      -6.267   1.027 -34.909  1.00  0.00     0.169 HD
HETATM   19  O   UNL     1      -7.534   2.279 -33.501  1.00  0.00    -0.272 OA
BRANCH  17  20
HETATM   20  C   UNL     1      -5.922  -0.859 -34.167  1.00  0.00     0.035 A 
HETATM   21  C   UNL     1      -6.531  -1.996 -34.697  1.00  0.00     0.037 A 
HETATM   22  C   UNL     1      -5.882  -3.251 -34.694  1.00  0.00    -0.054 A 
HETATM   23  C   UNL     1      -4.604  -3.371 -34.120  1.00  0.00    -0.056 A 
HETATM   24  C   UNL     1      -6.622  -4.446 -35.236  1.00  0.00     0.049 C 
HETATM   25  C   UNL     1      -3.880  -4.689 -34.065  1.00  0.00     0.049 C 
HETATM   26  C   UNL     1      -3.997  -2.233 -33.580  1.00  0.00     0.009 A 
HETATM   27  C   UNL     1      -4.650  -0.998 -33.599  1.00  0.00     0.030 A 
ENDBRANCH  17  20
ENDBRANCH  15  16
ENDBRANCH  14  15
ENDBRANCH   1  14
BRANCH   6  28
HETATM   28  C   UNL     1      -2.003   6.880 -30.847  1.00  0.00     0.273 C 
BRANCH  28  29
HETATM   29  C   UNL     1      -0.983   7.024 -29.747  1.00  0.00    -0.030 A 
HETATM   30  C   UNL     1      -0.838   8.246 -29.063  1.00  0.00     0.048 A 
HETATM   31  C   UNL     1       0.081   8.311 -28.036  1.00  0.00     0.105 A 
HETATM   32  C   UNL     1       0.860   7.237 -27.687  1.00  0.00     0.105 A 
HETATM   33  O   UNL     1       0.322   9.402 -27.263  1.00  0.00    -0.323 OA
HETATM   34  O   UNL     1       1.693   7.516 -26.652  1.00  0.00    -0.323 OA
HETATM   35  C   UNL     1       0.767   6.032 -28.348  1.00  0.00     0.040 A 
HETATM   36  C   UNL     1       1.357   8.894 -26.388  1.00  0.00     0.352 A 
HETATM   37  C   UNL     1      -0.165   5.926 -29.387  1.00  0.00     0.012 A 
ENDBRANCH  28  29
ENDBRANCH   6  28
TORSDOF 6
ENDMDL
MODEL 6
REMARK VINA RESULT:      -9.7      4.389      8.768
REMARK  6 active torsions:
REMARK  status: ('A' for Active; 'I' for Inactive)
REMARK    1  A    between atoms: C_6  and  N_7 
REMARK       I    between atoms: N_7  and  C_8 
REMARK    2  A    between atoms: C_8  and  C_9 
REMARK    3  A    between atoms: C_9  and  S_10 
REMARK    4  A    between atoms: S_10  and  C_11 
REMARK    5  A    between atoms: N_16  and  C_18 
REMARK    6  A    between atoms: C_18  and  C_19 
ROOT
HETATM    1  C   UNL     1      -7.767   2.378 -32.001  1.00  0.00     0.169 A 
HETATM    2  N   UNL     1      -6.649   2.014 -31.467  1.00  0.00    -0.228 NA
HETATM    3  C   UNL     1      -5.528   2.717 -31.834  1.00  0.00     0.052 A 
HETATM    4  C   UNL     1      -5.541   3.727 -32.719  1.00  0.00     0.060 A 
HETATM    5  C   UNL     1      -4.361   4.559 -33.070  1.00  0.00     0.281 C 
HETATM    6  N   UNL     1      -3.225   4.389 -32.077  1.00  0.00    -0.063 N 
HETATM    7  H   UNL     1      -3.539   4.827 -31.202  1.00  0.00     0.280 HD
HETATM    8  C   UNL     1      -2.992   2.921 -31.780  1.00  0.00     0.241 C 
HETATM    9  C   UNL     1      -4.248   2.314 -31.145  1.00  0.00     0.088 C 
HETATM   10  C   UNL     1      -6.822   4.079 -33.355  1.00  0.00     0.257 A 
HETATM   11  O   UNL     1      -6.872   4.971 -34.191  1.00  0.00    -0.267 OA
HETATM   12  N   UNL     1      -7.892   3.358 -32.934  1.00  0.00    -0.302 N 
HETATM   13  H   UNL     1      -8.807   3.577 -33.297  1.00  0.00     0.171 HD
ENDROOT
BRANCH   1  14
HETATM   14  S   UNL     1      -9.285   1.652 -31.595  1.00  0.00    -0.083 SA
BRANCH  14  15
HETATM   15  C   UNL     1      -9.301   0.282 -32.796  1.00  0.00     0.185 C 
BRANCH  15  16
HETATM   16  C   UNL     1      -9.013   0.720 -34.222  1.00  0.00     0.231 C 
HETATM   17  N   UNL     1      -8.023   0.126 -34.955  1.00  0.00    -0.327 N 
HETATM   18  H   UNL     1      -8.025   0.490 -35.902  1.00  0.00     0.169 HD
HETATM   19  O   UNL     1      -9.675   1.593 -34.799  1.00  0.00    -0.272 OA
BRANCH  17  20
HETATM   20  C   UNL     1      -7.037  -0.841 -34.684  1.00  0.00     0.035 A 
HETATM   21  C   UNL     1      -7.134  -2.205 -34.957  1.00  0.00     0.037 A 
HETATM   22  C   UNL     1      -6.085  -3.097 -34.641  1.00  0.00    -0.054 A 
HETATM   23  C   UNL     1      -4.926  -2.612 -34.009  1.00  0.00    -0.056 A 
HETATM   24  C   UNL     1      -6.281  -4.566 -34.916  1.00  0.00     0.049 C 
HETATM   25  C   UNL     1      -3.792  -3.523 -33.625  1.00  0.00     0.049 C 
HETATM   26  C   UNL     1      -4.833  -1.245 -33.728  1.00  0.00     0.009 A 
HETATM   27  C   UNL     1      -5.877  -0.376 -34.055  1.00  0.00     0.030 A 
ENDBRANCH  17  20
ENDBRANCH  15  16
ENDBRANCH  14  15
ENDBRANCH   1  14
BRANCH   6  28
HETATM   28  C   UNL     1      -1.988   5.138 -32.511  1.00  0.00     0.273 C 
BRANCH  28  29
HETATM   29  C   UNL     1      -1.391   5.980 -31.414  1.00  0.00    -0.030 A 
HETATM   30  C   UNL     1      -2.196   6.460 -30.364  1.00  0.00     0.048 A 
HETATM   31  C   UNL     1      -1.592   7.191 -29.363  1.00  0.00     0.105 A 
HETATM   32  C   UNL     1      -0.250   7.476 -29.378  1.00  0.00     0.105 A 
HETATM   33  O   UNL     1      -2.219   7.700 -28.270  1.00  0.00    -0.323 OA
HETATM   34  O   UNL     1       0.138   8.204 -28.300  1.00  0.00    -0.323 OA
HETATM   35  C   UNL     1       0.567   7.048 -30.400  1.00  0.00     0.040 A 
HETATM   36  C   UNL     1      -1.115   8.353 -27.600  1.00  0.00     0.352 A 
HETATM   37  C   UNL     1      -0.010   6.291 -31.427  1.00  0.00     0.012 A 
ENDBRANCH  28  29
ENDBRANCH   6  28
TORSDOF 6
ENDMDL
MODEL 7
REMARK VINA RESULT:      -9.7      4.079      8.813
REMARK  6 active torsions:
REMARK  status: ('A' for Active; 'I' for Inactive)
REMARK    1  A    between atoms: C_6  and  N_7 
REMARK       I    between atoms: N_7  and  C_8 
REMARK    2  A    between atoms: C_8  and  C_9 
REMARK    3  A    between atoms: C_9  and  S_10 
REMARK    4  A    between atoms: S_10  and  C_11 
REMARK    5  A    between atoms: N_16  and  C_18 
REMARK    6  A    between atoms: C_18  and  C_19 
ROOT
HETATM    1  C   UNL     1      -7.439   2.313 -31.795  1.00  0.00     0.169 A 
HETATM    2  N   UNL     1      -7.248   3.405 -32.458  1.00  0.00    -0.228 NA
HETATM    3  C   UNL     1      -5.944   3.785 -32.664  1.00  0.00     0.052 A 
HETATM    4  C   UNL     1      -4.888   3.100 -32.198  1.00  0.00     0.060 A 
HETATM    5  C   UNL     1      -3.469   3.441 -32.477  1.00  0.00     0.281 C 
HETATM    6  N   UNL     1      -3.332   4.426 -33.624  1.00  0.00    -0.063 N 
HETATM    7  H   UNL     1      -3.597   3.916 -34.475  1.00  0.00     0.280 HD
HETATM    8  C   UNL     1      -4.315   5.568 -33.466  1.00  0.00     0.241 C 
HETATM    9  C   UNL     1      -5.750   5.027 -33.498  1.00  0.00     0.088 C 
HETATM   10  C   UNL     1      -5.141   1.892 -31.394  1.00  0.00     0.257 A 
HETATM   11  O   UNL     1      -4.207   1.257 -30.923  1.00  0.00    -0.267 OA
HETATM   12  N   UNL     1      -6.449   1.563 -31.245  1.00  0.00    -0.302 N 
HETATM   13  H   UNL     1      -6.691   0.722 -30.742  1.00  0.00     0.171 HD
ENDROOT
BRANCH   1  14
HETATM   14  S   UNL     1      -9.012   1.649 -31.509  1.00  0.00    -0.083 SA
BRANCH  14  15
HETATM   15  C   UNL     1      -9.022   0.331 -32.767  1.00  0.00     0.185 C 
BRANCH  15  16
HETATM   16  C   UNL     1      -8.676   0.821 -34.163  1.00  0.00     0.231 C 
HETATM   17  N   UNL     1      -7.717   0.195 -34.910  1.00  0.00    -0.327 N 
HETATM   18  H   UNL     1      -7.674   0.606 -35.837  1.00  0.00     0.169 HD
HETATM   19  O   UNL     1      -9.261   1.768 -34.703  1.00  0.00    -0.272 OA
BRANCH  17  20
HETATM   20  C   UNL     1      -6.809  -0.855 -34.676  1.00  0.00     0.035 A 
HETATM   21  C   UNL     1      -7.004  -2.194 -35.010  1.00  0.00     0.037 A 
HETATM   22  C   UNL     1      -6.028  -3.175 -34.726  1.00  0.00    -0.054 A 
HETATM   23  C   UNL     1      -4.843  -2.806 -34.065  1.00  0.00    -0.056 A 
HETATM   24  C   UNL     1      -6.329  -4.611 -35.069  1.00  0.00     0.049 C 
HETATM   25  C   UNL     1      -3.784  -3.816 -33.713  1.00  0.00     0.049 C 
HETATM   26  C   UNL     1      -4.652  -1.464 -33.722  1.00  0.00     0.009 A 
HETATM   27  C   UNL     1      -5.624  -0.506 -34.018  1.00  0.00     0.030 A 
ENDBRANCH  17  20
ENDBRANCH  15  16
ENDBRANCH  14  15
ENDBRANCH   1  14
BRANCH   6  28
HETATM   28  C   UNL     1      -1.900   4.863 -33.816  1.00  0.00     0.273 C 
BRANCH  28  29
HETATM   29  C   UNL     1      -1.344   5.609 -32.630  1.00  0.00    -0.030 A 
HETATM   30  C   UNL     1      -0.823   4.909 -31.527  1.00  0.00     0.048 A 
HETATM   31  C   UNL     1      -0.289   5.639 -30.486  1.00  0.00     0.105 A 
HETATM   32  C   UNL     1      -0.275   7.011 -30.491  1.00  0.00     0.105 A 
HETATM   33  O   UNL     1       0.277   5.117 -29.366  1.00  0.00    -0.323 OA
HETATM   34  O   UNL     1       0.297   7.528 -29.374  1.00  0.00    -0.323 OA
HETATM   35  C   UNL     1      -0.798   7.734 -31.540  1.00  0.00     0.040 A 
HETATM   36  C   UNL     1       0.640   6.325 -28.655  1.00  0.00     0.352 A 
HETATM   37  C   UNL     1      -1.337   7.024 -32.620  1.00  0.00     0.012 A 
ENDBRANCH  28  29
ENDBRANCH   6  28
TORSDOF 6
ENDMDL
MODEL 8
REMARK VINA RESULT:      -9.7      3.955      7.646
REMARK  6 active torsions:
REMARK  status: ('A' for Active; 'I' for Inactive)
REMARK    1  A    between atoms: C_6  and  N_7 
REMARK       I    between atoms: N_7  and  C_8 
REMARK    2  A    between atoms: C_8  and  C_9 
REMARK    3  A    between atoms: C_9  and  S_10 
REMARK    4  A    between atoms: S_10  and  C_11 
REMARK    5  A    between atoms: N_16  and  C_18 
REMARK    6  A    between atoms: C_18  and  C_19 
ROOT
HETATM    1  C   UNL     1      -8.974   4.578 -31.202  1.00  0.00     0.169 A 
HETATM    2  N   UNL     1      -9.348   3.341 -31.192  1.00  0.00    -0.228 NA
HETATM    3  C   UNL     1      -8.864   2.539 -32.196  1.00  0.00     0.052 A 
HETATM    4  C   UNL     1      -8.057   2.977 -33.174  1.00  0.00     0.060 A 
HETATM    5  C   UNL     1      -7.450   2.115 -34.221  1.00  0.00     0.281 C 
HETATM    6  N   UNL     1      -7.546   0.640 -33.874  1.00  0.00    -0.063 N 
HETATM    7  H   UNL     1      -6.909   0.489 -33.082  1.00  0.00     0.280 HD
HETATM    8  C   UNL     1      -8.941   0.295 -33.394  1.00  0.00     0.241 C 
HETATM    9  C   UNL     1      -9.264   1.085 -32.121  1.00  0.00     0.088 C 
HETATM   10  C   UNL     1      -7.697   4.406 -33.192  1.00  0.00     0.257 A 
HETATM   11  O   UNL     1      -6.990   4.854 -34.085  1.00  0.00    -0.267 OA
HETATM   12  N   UNL     1      -8.194   5.138 -32.163  1.00  0.00    -0.302 N 
HETATM   13  H   UNL     1      -7.950   6.114 -32.090  1.00  0.00     0.171 HD
ENDROOT
BRANCH   1  14
HETATM   14  S   UNL     1      -9.429   5.709 -29.973  1.00  0.00    -0.083 SA
BRANCH  14  15
HETATM   15  C   UNL     1      -7.927   6.738 -29.933  1.00  0.00     0.185 C 
BRANCH  15  16
HETATM   16  C   UNL     1      -7.071   6.518 -28.696  1.00  0.00     0.231 C 
HETATM   17  N   UNL     1      -6.038   5.623 -28.706  1.00  0.00    -0.327 N 
HETATM   18  H   UNL     1      -5.533   5.663 -27.827  1.00  0.00     0.169 HD
HETATM   19  O   UNL     1      -7.236   7.155 -27.648  1.00  0.00    -0.272 OA
BRANCH  17  20
HETATM   20  C   UNL     1      -5.545   4.691 -29.639  1.00  0.00     0.035 A 
HETATM   21  C   UNL     1      -5.901   3.345 -29.717  1.00  0.00     0.037 A 
HETATM   22  C   UNL     1      -5.344   2.489 -30.692  1.00  0.00    -0.054 A 
HETATM   23  C   UNL     1      -4.385   2.990 -31.591  1.00  0.00    -0.056 A 
HETATM   24  C   UNL     1      -5.736   1.034 -30.683  1.00  0.00     0.049 C 
HETATM   25  C   UNL     1      -3.739   2.115 -32.630  1.00  0.00     0.049 C 
HETATM   26  C   UNL     1      -4.021   4.338 -31.507  1.00  0.00     0.009 A 
HETATM   27  C   UNL     1      -4.589   5.172 -30.541  1.00  0.00     0.030 A 
ENDBRANCH  17  20
ENDBRANCH  15  16
ENDBRANCH  14  15
ENDBRANCH   1  14
BRANCH   6  28
HETATM   28  C   UNL     1      -7.044  -0.232 -35.000  1.00  0.00     0.273 C 
BRANCH  28  29
HETATM   29  C   UNL     1      -6.099  -1.310 -34.536  1.00  0.00    -0.030 A 
HETATM   30  C   UNL     1      -6.334  -2.657 -34.870  1.00  0.00     0.048 A 
HETATM   31  C   UNL     1      -5.416  -3.599 -34.457  1.00  0.00     0.105 A 
HETATM   32  C   UNL     1      -4.308  -3.262 -33.720  1.00  0.00     0.105 A 
HETATM   33  O   UNL     1      -5.481  -4.931 -34.719  1.00  0.00    -0.323 OA
HETATM   34  O   UNL     1      -3.537  -4.339 -33.421  1.00  0.00    -0.323 OA
HETATM   35  C   UNL     1      -4.056  -1.960 -33.351  1.00  0.00     0.040 A 
HETATM   36  C   UNL     1      -4.287  -5.400 -34.049  1.00  0.00     0.352 A 
HETATM   37  C   UNL     1      -4.961  -0.975 -33.765  1.00  0.00     0.012 A 
ENDBRANCH  28  29
ENDBRANCH   6  28
TORSDOF 6
ENDMDL
MODEL 9
REMARK VINA RESULT:      -9.5      4.076      7.997
REMARK  6 active torsions:
REMARK  status: ('A' for Active; 'I' for Inactive)
REMARK    1  A    between atoms: C_6  and  N_7 
REMARK       I    between atoms: N_7  and  C_8 
REMARK    2  A    between atoms: C_8  and  C_9 
REMARK    3  A    between atoms: C_9  and  S_10 
REMARK    4  A    between atoms: S_10  and  C_11 
REMARK    5  A    between atoms: N_16  and  C_18 
REMARK    6  A    between atoms: C_18  and  C_19 
ROOT
HETATM    1  C   UNL     1      -8.168   4.708 -31.285  1.00  0.00     0.169 A 
HETATM    2  N   UNL     1      -8.752   3.563 -31.154  1.00  0.00    -0.228 NA
HETATM    3  C   UNL     1      -8.514   2.630 -32.133  1.00  0.00     0.052 A 
HETATM    4  C   UNL     1      -7.738   2.858 -33.205  1.00  0.00     0.060 A 
HETATM    5  C   UNL     1      -7.395   1.842 -34.233  1.00  0.00     0.281 C 
HETATM    6  N   UNL     1      -7.716   0.431 -33.773  1.00  0.00    -0.063 N 
HETATM    7  H   UNL     1      -7.044   0.212 -33.027  1.00  0.00     0.280 HD
HETATM    8  C   UNL     1      -9.099   0.374 -33.155  1.00  0.00     0.241 C 
HETATM    9  C   UNL     1      -9.155   1.281 -31.920  1.00  0.00     0.088 C 
HETATM   10  C   UNL     1      -7.134   4.194 -33.356  1.00  0.00     0.257 A 
HETATM   11  O   UNL     1      -6.447   4.454 -34.334  1.00  0.00    -0.267 OA
HETATM   12  N   UNL     1      -7.395   5.061 -32.345  1.00  0.00    -0.302 N 
HETATM   13  H   UNL     1      -6.977   5.979 -32.364  1.00  0.00     0.171 HD
ENDROOT
BRANCH   1  14
HETATM   14  S   UNL     1      -8.298   5.971 -30.108  1.00  0.00    -0.083 SA
BRANCH  14  15
HETATM   15  C   UNL     1      -6.583   6.585 -30.127  1.00  0.00     0.185 C 
BRANCH  15  16
HETATM   16  C   UNL     1      -5.648   5.808 -29.215  1.00  0.00     0.231 C 
HETATM   17  N   UNL     1      -4.435   5.364 -29.663  1.00  0.00    -0.327 N 
HETATM   18  H   UNL     1      -3.918   4.936 -28.903  1.00  0.00     0.169 HD
HETATM   19  O   UNL     1      -5.913   5.576 -28.028  1.00  0.00    -0.272 OA
BRANCH  17  20
HETATM   20  C   UNL     1      -3.778   5.371 -30.908  1.00  0.00     0.035 A 
HETATM   21  C   UNL     1      -3.089   6.448 -31.463  1.00  0.00     0.037 A 
HETATM   22  C   UNL     1      -2.465   6.353 -32.726  1.00  0.00    -0.054 A 
HETATM   23  C   UNL     1      -2.562   5.157 -33.461  1.00  0.00    -0.056 A 
HETATM   24  C   UNL     1      -1.783   7.573 -33.287  1.00  0.00     0.049 C 
HETATM   25  C   UNL     1      -1.940   5.012 -34.824  1.00  0.00     0.049 C 
HETATM   26  C   UNL     1      -3.261   4.080 -32.908  1.00  0.00     0.009 A 
HETATM   27  C   UNL     1      -3.864   4.189 -31.653  1.00  0.00     0.030 A 
ENDBRANCH  17  20
ENDBRANCH  15  16
ENDBRANCH  14  15
ENDBRANCH   1  14
BRANCH   6  28
HETATM   28  C   UNL     1      -7.484  -0.580 -34.869  1.00  0.00     0.273 C 
BRANCH  28  29
HETATM   29  C   UNL     1      -6.411  -1.582 -34.533  1.00  0.00    -0.030 A 
HETATM   30  C   UNL     1      -6.585  -2.945 -34.837  1.00  0.00     0.048 A 
HETATM   31  C   UNL     1      -5.555  -3.814 -34.547  1.00  0.00     0.105 A 
HETATM   32  C   UNL     1      -4.390  -3.390 -33.956  1.00  0.00     0.105 A 
HETATM   33  O   UNL     1      -5.553  -5.148 -34.802  1.00  0.00    -0.323 OA
HETATM   34  O   UNL     1      -3.510  -4.405 -33.760  1.00  0.00    -0.323 OA
HETATM   35  C   UNL     1      -4.191  -2.070 -33.619  1.00  0.00     0.040 A 
HETATM   36  C   UNL     1      -4.251  -5.523 -34.290  1.00  0.00     0.352 A 
HETATM   37  C   UNL     1      -5.212  -1.158 -33.912  1.00  0.00     0.012 A 
ENDBRANCH  28  29
ENDBRANCH   6  28
TORSDOF 6
ENDMDL
MODEL 10
REMARK VINA RESULT:      -9.5      2.063      3.668
REMARK  6 active torsions:
REMARK  status: ('A' for Active; 'I' for Inactive)
REMARK    1  A    between atoms: C_6  and  N_7 
REMARK       I    between atoms: N_7  and  C_8 
REMARK    2  A    between atoms: C_8  and  C_9 
REMARK    3  A    between atoms: C_9  and  S_10 
REMARK    4  A    between atoms: S_10  and  C_11 
REMARK    5  A    between atoms: N_16  and  C_18 
REMARK    6  A    between atoms: C_18  and  C_19 
ROOT
HETATM    1  C   UNL     1      -4.762   1.558 -31.505  1.00  0.00     0.169 A 
HETATM    2  N   UNL     1      -5.554   1.929 -30.554  1.00  0.00    -0.228 NA
HETATM    3  C   UNL     1      -6.581   2.773 -30.897  1.00  0.00     0.052 A 
HETATM    4  C   UNL     1      -6.780   3.236 -32.141  1.00  0.00     0.060 A 
HETATM    5  C   UNL     1      -7.930   4.080 -32.556  1.00  0.00     0.281 C 
HETATM    6  N   UNL     1      -9.043   4.079 -31.524  1.00  0.00    -0.063 N 
HETATM    7  H   UNL     1      -9.454   3.138 -31.546  1.00  0.00     0.280 HD
HETATM    8  C   UNL     1      -8.480   4.286 -30.132  1.00  0.00     0.241 C 
HETATM    9  C   UNL     1      -7.529   3.136 -29.780  1.00  0.00     0.088 C 
HETATM   10  C   UNL     1      -5.824   2.843 -33.191  1.00  0.00     0.257 A 
HETATM   11  O   UNL     1      -5.949   3.270 -34.331  1.00  0.00    -0.267 OA
HETATM   12  N   UNL     1      -4.845   1.994 -32.789  1.00  0.00    -0.302 N 
HETATM   13  H   UNL     1      -4.182   1.650 -33.468  1.00  0.00     0.171 HD
ENDROOT
BRANCH   1  14
HETATM   14  S   UNL     1      -3.462   0.440 -31.266  1.00  0.00    -0.083 SA
BRANCH  14  15
HETATM   15  C   UNL     1      -3.390  -0.307 -32.926  1.00  0.00     0.185 C 
BRANCH  15  16
HETATM   16  C   UNL     1      -3.959  -1.715 -32.985  1.00  0.00     0.231 C 
HETATM   17  N   UNL     1      -5.272  -1.931 -33.298  1.00  0.00    -0.327 N 
HETATM   18  H   UNL     1      -5.455  -2.926 -33.365  1.00  0.00     0.169 HD
HETATM   19  O   UNL     1      -3.266  -2.723 -32.796  1.00  0.00    -0.272 OA
BRANCH  17  20
HETATM   20  C   UNL     1      -6.382  -1.098 -33.535  1.00  0.00     0.035 A 
HETATM   21  C   UNL     1      -7.312  -0.684 -32.582  1.00  0.00     0.037 A 
HETATM   22  C   UNL     1      -8.397   0.152 -32.925  1.00  0.00    -0.054 A 
HETATM   23  C   UNL     1      -8.569   0.556 -34.261  1.00  0.00    -0.056 A 
HETATM   24  C   UNL     1      -9.392   0.517 -31.854  1.00  0.00     0.049 C 
HETATM   25  C   UNL     1      -9.724   1.422 -34.686  1.00  0.00     0.049 C 
HETATM   26  C   UNL     1      -7.641   0.133 -35.219  1.00  0.00     0.009 A 
HETATM   27  C   UNL     1      -6.569  -0.687 -34.859  1.00  0.00     0.030 A 
ENDBRANCH  17  20
ENDBRANCH  15  16
ENDBRANCH  14  15
ENDBRANCH   1  14
BRANCH   6  28
HETATM   28  C   UNL     1     -10.149   5.038 -31.894  1.00  0.00     0.273 C 
BRANCH  28  29
HETATM   29  C   UNL     1     -11.518   4.411 -31.841  1.00  0.00    -0.030 A 
HETATM   30  C   UNL     1     -11.902   3.453 -32.797  1.00  0.00     0.048 A 
HETATM   31  C   UNL     1     -13.151   2.880 -32.678  1.00  0.00     0.105 A 
HETATM   32  C   UNL     1     -14.021   3.233 -31.678  1.00  0.00     0.105 A 
HETATM   33  O   UNL     1     -13.661   1.924 -33.498  1.00  0.00    -0.323 OA
HETATM   34  O   UNL     1     -15.192   2.547 -31.743  1.00  0.00    -0.323 OA
HETATM   35  C   UNL     1     -13.693   4.184 -30.738  1.00  0.00     0.040 A 
HETATM   36  C   UNL     1     -14.966   1.722 -32.905  1.00  0.00     0.352 A 
HETATM   37  C   UNL     1     -12.428   4.778 -30.821  1.00  0.00     0.012 A 
ENDBRANCH  28  29
ENDBRANCH   6  28
TORSDOF 6
ENDMDL
