MODEL 1
REMARK VINA RESULT:      -9.1      0.000      0.000
REMARK  7 active torsions:
REMARK  status: ('A' for Active; 'I' for Inactive)
REMARK    1  A    between atoms: C_3  and  C_4 
REMARK       I    between atoms: C_4  and  N_5 
REMARK    2  A    between atoms: N_5  and  C_6 
REMARK    3  A    between atoms: C_6  and  C_7 
REMARK    4  A    between atoms: C_7  and  O_8 
REMARK    5  A    between atoms: C_7  and  C_9 
REMARK    6  A    between atoms: C_18  and  N_19 
REMARK       I    between atoms: N_19  and  C_20 
REMARK    7  A    between atoms: C_20  and  C_21 
ROOT
HETATM    1  C   UNL     1      -1.927   5.117 -34.628  1.00  0.00     0.050 C 
HETATM    2  C   UNL     1      -2.252   5.288 -33.178  1.00  0.00    -0.037 A 
HETATM    3  C   UNL     1      -3.356   4.738 -32.535  1.00  0.00     0.080 A 
HETATM    4  S   UNL     1      -3.392   5.185 -30.878  1.00  0.00    -0.066 SA
HETATM    5  C   UNL     1      -1.934   6.030 -30.977  1.00  0.00     0.078 A 
HETATM    6  C   UNL     1      -1.436   6.033 -32.260  1.00  0.00     0.045 A 
ENDROOT
BRANCH   3   7
HETATM    7  C   UNL     1      -4.377   3.852 -33.090  1.00  0.00     0.259 C 
HETATM    8  N   UNL     1      -4.394   2.576 -32.575  1.00  0.00    -0.354 N 
HETATM    9  H   UNL     1      -3.843   2.393 -31.745  1.00  0.00     0.162 HD
HETATM   10  O   UNL     1      -5.177   4.198 -33.958  1.00  0.00    -0.267 OA
BRANCH   8  11
HETATM   11  C   UNL     1      -5.316   1.554 -33.031  1.00  0.00     0.159 C 
BRANCH  11  12
HETATM   12  C   UNL     1      -5.066   0.180 -32.377  1.00  0.00     0.169 C 
BRANCH  12  13
HETATM   13  O   UNL     1      -3.716   0.116 -31.903  1.00  0.00    -0.389 OA
HETATM   14  H   UNL     1      -3.753  -0.248 -31.001  1.00  0.00     0.210 HD
ENDBRANCH  12  13
BRANCH  12  15
HETATM   15  C   UNL     1      -5.364  -0.994 -33.295  1.00  0.00    -0.028 A 
HETATM   16  C   UNL     1      -4.328  -1.865 -33.674  1.00  0.00     0.013 A 
HETATM   17  C   UNL     1      -4.588  -2.958 -34.504  1.00  0.00     0.043 A 
HETATM   18  C   UNL     1      -5.883  -3.189 -34.952  1.00  0.00     0.116 A 
HETATM   19  F   UNL     1      -6.129  -4.239 -35.747  1.00  0.00    -0.206 F 
HETATM   20  C   UNL     1      -6.925  -2.350 -34.584  1.00  0.00     0.043 A 
HETATM   21  C   UNL     1      -6.667  -1.255 -33.757  1.00  0.00     0.013 A 
ENDBRANCH  12  15
ENDBRANCH  11  12
ENDBRANCH   8  11
ENDBRANCH   3   7
BRANCH   5  22
HETATM   22  N   UNL     1      -1.325   6.597 -29.872  1.00  0.00    -0.317 N 
HETATM   23  C   UNL     1      -0.227   6.111 -29.189  1.00  0.00     0.258 C 
HETATM   24  O   UNL     1       0.334   5.035 -29.372  1.00  0.00    -0.267 OA
HETATM   25  H   UNL     1      -1.743   7.460 -29.545  1.00  0.00     0.169 HD
BRANCH  23  26
HETATM   26  C   UNL     1       0.361   7.022 -28.156  1.00  0.00     0.054 A 
HETATM   27  C   UNL     1       0.146   6.941 -26.772  1.00  0.00     0.049 A 
HETATM   28 CL   UNL     1      -0.796   5.704 -26.016  1.00  0.00    -0.083 Cl
HETATM   29  C   UNL     1       0.732   7.883 -25.914  1.00  0.00     0.025 A 
HETATM   30  C   UNL     1       1.541   8.901 -26.420  1.00  0.00     0.002 A 
HETATM   31  C   UNL     1       1.776   8.981 -27.788  1.00  0.00     0.001 A 
HETATM   32  C   UNL     1       1.193   8.048 -28.647  1.00  0.00     0.019 A 
ENDBRANCH  23  26
ENDBRANCH   5  22
TORSDOF 7
ENDMDL
MODEL 2
REMARK VINA RESULT:      -8.9      4.375     10.693
REMARK  7 active torsions:
REMARK  status: ('A' for Active; 'I' for Inactive)
REMARK    1  A    between atoms: C_3  and  C_4 
REMARK       I    between atoms: C_4  and  N_5 
REMARK    2  A    between atoms: N_5  and  C_6 
REMARK    3  A    between atoms: C_6  and  C_7 
REMARK    4  A    between atoms: C_7  and  O_8 
REMARK    5  A    between atoms: C_7  and  C_9 
REMARK    6  A    between atoms: C_18  and  N_19 
REMARK       I    between atoms: N_19  and  C_20 
REMARK    7  A    between atoms: C_20  and  C_21 
ROOT
HETATM    1  C   UNL     1      -6.028   4.491 -29.370  1.00  0.00     0.050 C 
HETATM    2  C   UNL     1      -5.419   3.879 -30.591  1.00  0.00    -0.037 A 
HETATM    3  C   UNL     1      -4.374   4.428 -31.325  1.00  0.00     0.080 A 
HETATM    4  S   UNL     1      -3.976   3.439 -32.670  1.00  0.00    -0.066 SA
HETATM    5  C   UNL     1      -5.110   2.259 -32.257  1.00  0.00     0.078 A 
HETATM    6  C   UNL     1      -5.834   2.618 -31.143  1.00  0.00     0.045 A 
ENDROOT
BRANCH   3   7
HETATM    7  C   UNL     1      -3.619   5.649 -31.050  1.00  0.00     0.259 C 
HETATM    8  N   UNL     1      -2.272   5.473 -30.828  1.00  0.00    -0.354 N 
HETATM    9  H   UNL     1      -1.870   4.568 -31.045  1.00  0.00     0.162 HD
HETATM   10  O   UNL     1      -4.128   6.767 -31.012  1.00  0.00    -0.267 OA
BRANCH   8  11
HETATM   11  C   UNL     1      -1.375   6.566 -30.508  1.00  0.00     0.159 C 
BRANCH  11  12
HETATM   12  C   UNL     1      -0.022   6.092 -29.942  1.00  0.00     0.169 C 
BRANCH  12  13
HETATM   13  O   UNL     1      -0.053   4.673 -29.756  1.00  0.00    -0.389 OA
HETATM   14  H   UNL     1       0.541   4.289 -30.425  1.00  0.00     0.210 HD
ENDBRANCH  12  13
BRANCH  12  15
HETATM   15  C   UNL     1       0.378   6.789 -28.652  1.00  0.00    -0.028 A 
HETATM   16  C   UNL     1       0.001   6.238 -27.415  1.00  0.00     0.013 A 
HETATM   17  C   UNL     1       0.373   6.858 -26.220  1.00  0.00     0.043 A 
HETATM   18  C   UNL     1       1.128   8.024 -26.255  1.00  0.00     0.116 A 
HETATM   19  F   UNL     1       1.483   8.615 -25.107  1.00  0.00    -0.206 F 
HETATM   20  C   UNL     1       1.521   8.582 -27.464  1.00  0.00     0.043 A 
HETATM   21  C   UNL     1       1.148   7.967 -28.659  1.00  0.00     0.013 A 
ENDBRANCH  12  15
ENDBRANCH  11  12
ENDBRANCH   8  11
ENDBRANCH   3   7
BRANCH   5  22
HETATM   22  N   UNL     1      -5.234   1.069 -32.951  1.00  0.00    -0.317 N 
HETATM   23  C   UNL     1      -4.969  -0.201 -32.477  1.00  0.00     0.258 C 
HETATM   24  O   UNL     1      -4.473  -0.490 -31.393  1.00  0.00    -0.267 OA
HETATM   25  H   UNL     1      -5.555   1.160 -33.908  1.00  0.00     0.169 HD
BRANCH  23  26
HETATM   26  C   UNL     1      -5.383  -1.334 -33.364  1.00  0.00     0.054 A 
HETATM   27  C   UNL     1      -6.690  -1.604 -33.796  1.00  0.00     0.049 A 
HETATM   28 CL   UNL     1      -8.051  -0.605 -33.424  1.00  0.00    -0.083 Cl
HETATM   29  C   UNL     1      -6.947  -2.725 -34.600  1.00  0.00     0.025 A 
HETATM   30  C   UNL     1      -5.911  -3.575 -34.987  1.00  0.00     0.002 A 
HETATM   31  C   UNL     1      -4.609  -3.309 -34.581  1.00  0.00     0.001 A 
HETATM   32  C   UNL     1      -4.347  -2.196 -33.778  1.00  0.00     0.019 A 
ENDBRANCH  23  26
ENDBRANCH   5  22
TORSDOF 7
ENDMDL
MODEL 3
REMARK VINA RESULT:      -8.9      4.046      9.797
REMARK  7 active torsions:
REMARK  status: ('A' for Active; 'I' for Inactive)
REMARK    1  A    between atoms: C_3  and  C_4 
REMARK       I    between atoms: C_4  and  N_5 
REMARK    2  A    between atoms: N_5  and  C_6 
REMARK    3  A    between atoms: C_6  and  C_7 
REMARK    4  A    between atoms: C_7  and  O_8 
REMARK    5  A    between atoms: C_7  and  C_9 
REMARK    6  A    between atoms: C_18  and  N_19 
REMARK       I    between atoms: N_19  and  C_20 
REMARK    7  A    between atoms: C_20  and  C_21 
ROOT
HETATM    1  C   UNL     1      -7.335   5.481 -30.733  1.00  0.00     0.050 C 
HETATM    2  C   UNL     1      -6.319   4.633 -31.429  1.00  0.00    -0.037 A 
HETATM    3  C   UNL     1      -4.974   4.953 -31.573  1.00  0.00     0.080 A 
HETATM    4  S   UNL     1      -4.140   3.738 -32.455  1.00  0.00    -0.066 SA
HETATM    5  C   UNL     1      -5.510   2.760 -32.584  1.00  0.00     0.078 A 
HETATM    6  C   UNL     1      -6.615   3.356 -32.020  1.00  0.00     0.045 A 
ENDROOT
BRANCH   3   7
HETATM    7  C   UNL     1      -4.258   6.113 -31.046  1.00  0.00     0.259 C 
HETATM    8  N   UNL     1      -3.874   7.045 -31.983  1.00  0.00    -0.354 N 
HETATM    9  H   UNL     1      -4.260   6.965 -32.917  1.00  0.00     0.162 HD
HETATM   10  O   UNL     1      -4.003   6.268 -29.854  1.00  0.00    -0.267 OA
BRANCH   8  11
HETATM   11  C   UNL     1      -3.127   8.241 -31.646  1.00  0.00     0.159 C 
BRANCH  11  12
HETATM   12  C   UNL     1      -1.648   8.171 -32.076  1.00  0.00     0.169 C 
BRANCH  12  13
HETATM   13  O   UNL     1      -1.571   7.856 -33.470  1.00  0.00    -0.389 OA
HETATM   14  H   UNL     1      -2.120   8.510 -33.937  1.00  0.00     0.210 HD
ENDBRANCH  12  13
BRANCH  12  15
HETATM   15  C   UNL     1      -0.823   7.188 -31.261  1.00  0.00    -0.028 A 
HETATM   16  C   UNL     1      -0.582   7.438 -29.900  1.00  0.00     0.013 A 
HETATM   17  C   UNL     1       0.160   6.537 -29.133  1.00  0.00     0.043 A 
HETATM   18  C   UNL     1       0.658   5.381 -29.721  1.00  0.00     0.116 A 
HETATM   19  F   UNL     1       1.370   4.519 -28.983  1.00  0.00    -0.206 F 
HETATM   20  C   UNL     1       0.426   5.106 -31.062  1.00  0.00     0.043 A 
HETATM   21  C   UNL     1      -0.313   6.006 -31.830  1.00  0.00     0.013 A 
ENDBRANCH  12  15
ENDBRANCH  11  12
ENDBRANCH   8  11
ENDBRANCH   3   7
BRANCH   5  22
HETATM   22  N   UNL     1      -5.475   1.501 -33.155  1.00  0.00    -0.317 N 
HETATM   23  C   UNL     1      -5.362   0.293 -32.495  1.00  0.00     0.258 C 
HETATM   24  O   UNL     1      -5.162   0.128 -31.296  1.00  0.00    -0.267 OA
HETATM   25  H   UNL     1      -5.542   1.484 -34.166  1.00  0.00     0.169 HD
BRANCH  23  26
HETATM   26  C   UNL     1      -5.558  -0.934 -33.331  1.00  0.00     0.054 A 
HETATM   27  C   UNL     1      -6.787  -1.423 -33.798  1.00  0.00     0.049 A 
HETATM   28 CL   UNL     1      -8.300  -0.626 -33.538  1.00  0.00    -0.083 Cl
HETATM   29  C   UNL     1      -6.834  -2.609 -34.546  1.00  0.00     0.025 A 
HETATM   30  C   UNL     1      -5.665  -3.309 -34.842  1.00  0.00     0.002 A 
HETATM   31  C   UNL     1      -4.438  -2.826 -34.401  1.00  0.00     0.001 A 
HETATM   32  C   UNL     1      -4.386  -1.648 -33.654  1.00  0.00     0.019 A 
ENDBRANCH  23  26
ENDBRANCH   5  22
TORSDOF 7
ENDMDL
MODEL 4
REMARK VINA RESULT:      -8.9      7.024     10.171
REMARK  7 active torsions:
REMARK  status: ('A' for Active; 'I' for Inactive)
REMARK    1  A    between atoms: C_3  and  C_4 
REMARK       I    between atoms: C_4  and  N_5 
REMARK    2  A    between atoms: N_5  and  C_6 
REMARK    3  A    between atoms: C_6  and  C_7 
REMARK    4  A    between atoms: C_7  and  O_8 
REMARK    5  A    between atoms: C_7  and  C_9 
REMARK    6  A    between atoms: C_18  and  N_19 
REMARK       I    between atoms: N_19  and  C_20 
REMARK    7  A    between atoms: C_20  and  C_21 
ROOT
HETATM    1  C   UNL     1      -7.036   0.411 -35.365  1.00  0.00     0.050 C 
HETATM    2  C   UNL     1      -7.876   0.701 -34.163  1.00  0.00    -0.037 A 
HETATM    3  C   UNL     1      -7.394   0.864 -32.869  1.00  0.00     0.080 A 
HETATM    4  S   UNL     1      -8.673   1.158 -31.764  1.00  0.00    -0.066 SA
HETATM    5  C   UNL     1      -9.848   1.149 -32.976  1.00  0.00     0.078 A 
HETATM    6  C   UNL     1      -9.303   0.872 -34.209  1.00  0.00     0.045 A 
ENDROOT
BRANCH   3   7
HETATM    7  C   UNL     1      -6.005   0.851 -32.414  1.00  0.00     0.259 C 
HETATM    8  N   UNL     1      -5.607  -0.295 -31.765  1.00  0.00    -0.354 N 
HETATM    9  H   UNL     1      -6.220  -1.100 -31.807  1.00  0.00     0.162 HD
HETATM   10  O   UNL     1      -5.226   1.788 -32.586  1.00  0.00    -0.267 OA
BRANCH   8  11
HETATM   11  C   UNL     1      -4.276  -0.470 -31.217  1.00  0.00     0.159 C 
BRANCH  11  12
HETATM   12  C   UNL     1      -3.262  -1.001 -32.250  1.00  0.00     0.169 C 
BRANCH  12  13
HETATM   13  O   UNL     1      -2.949   0.034 -33.187  1.00  0.00    -0.389 OA
HETATM   14  H   UNL     1      -3.783   0.493 -33.388  1.00  0.00     0.210 HD
ENDBRANCH  12  13
BRANCH  12  15
HETATM   15  C   UNL     1      -3.730  -2.252 -32.975  1.00  0.00    -0.028 A 
HETATM   16  C   UNL     1      -3.305  -3.517 -32.533  1.00  0.00     0.013 A 
HETATM   17  C   UNL     1      -3.739  -4.677 -33.179  1.00  0.00     0.043 A 
HETATM   18  C   UNL     1      -4.603  -4.579 -34.262  1.00  0.00     0.116 A 
HETATM   19  F   UNL     1      -5.017  -5.694 -34.879  1.00  0.00    -0.206 F 
HETATM   20  C   UNL     1      -5.045  -3.343 -34.712  1.00  0.00     0.043 A 
HETATM   21  C   UNL     1      -4.611  -2.182 -34.071  1.00  0.00     0.013 A 
ENDBRANCH  12  15
ENDBRANCH  11  12
ENDBRANCH   8  11
ENDBRANCH   3   7
BRANCH   5  22
HETATM   22  N   UNL     1     -11.178   1.436 -32.726  1.00  0.00    -0.317 N 
HETATM   23  C   UNL     1     -11.860   2.585 -33.077  1.00  0.00     0.258 C 
HETATM   24  O   UNL     1     -11.381   3.599 -33.574  1.00  0.00    -0.267 OA
HETATM   25  H   UNL     1     -11.689   0.714 -32.233  1.00  0.00     0.169 HD
BRANCH  23  26
HETATM   26  C   UNL     1     -13.343   2.558 -32.874  1.00  0.00     0.054 A 
HETATM   27  C   UNL     1     -14.219   1.569 -33.348  1.00  0.00     0.049 A 
HETATM   28 CL   UNL     1     -13.703   0.155 -34.198  1.00  0.00    -0.083 Cl
HETATM   29  C   UNL     1     -15.598   1.683 -33.116  1.00  0.00     0.025 A 
HETATM   30  C   UNL     1     -16.113   2.768 -32.408  1.00  0.00     0.002 A 
HETATM   31  C   UNL     1     -15.254   3.745 -31.918  1.00  0.00     0.001 A 
HETATM   32  C   UNL     1     -13.881   3.639 -32.147  1.00  0.00     0.019 A 
ENDBRANCH  23  26
ENDBRANCH   5  22
TORSDOF 7
ENDMDL
MODEL 5
REMARK VINA RESULT:      -8.8      6.855     10.285
REMARK  7 active torsions:
REMARK  status: ('A' for Active; 'I' for Inactive)
REMARK    1  A    between atoms: C_3  and  C_4 
REMARK       I    between atoms: C_4  and  N_5 
REMARK    2  A    between atoms: N_5  and  C_6 
REMARK    3  A    between atoms: C_6  and  C_7 
REMARK    4  A    between atoms: C_7  and  O_8 
REMARK    5  A    between atoms: C_7  and  C_9 
REMARK    6  A    between atoms: C_18  and  N_19 
REMARK       I    between atoms: N_19  and  C_20 
REMARK    7  A    between atoms: C_20  and  C_21 
ROOT
HETATM    1  C   UNL     1      -7.370   3.778 -29.944  1.00  0.00     0.050 C 
HETATM    2  C   UNL     1      -7.882   2.692 -30.836  1.00  0.00    -0.037 A 
HETATM    3  C   UNL     1      -9.119   2.694 -31.470  1.00  0.00     0.080 A 
HETATM    4  S   UNL     1      -9.347   1.259 -32.384  1.00  0.00    -0.066 SA
HETATM    5  C   UNL     1      -7.809   0.669 -32.018  1.00  0.00     0.078 A 
HETATM    6  C   UNL     1      -7.132   1.510 -31.165  1.00  0.00     0.045 A 
ENDROOT
BRANCH   3   7
HETATM    7  C   UNL     1     -10.137   3.742 -31.463  1.00  0.00     0.259 C 
HETATM    8  N   UNL     1     -11.362   3.371 -30.957  1.00  0.00    -0.354 N 
HETATM    9  H   UNL     1     -11.424   2.486 -30.467  1.00  0.00     0.162 HD
HETATM   10  O   UNL     1      -9.940   4.883 -31.877  1.00  0.00    -0.267 OA
BRANCH   8  11
HETATM   11  C   UNL     1     -12.498   4.270 -30.903  1.00  0.00     0.159 C 
BRANCH  11  12
HETATM   12  C   UNL     1     -13.678   3.806 -31.780  1.00  0.00     0.169 C 
BRANCH  12  13
HETATM   13  O   UNL     1     -14.243   2.612 -31.227  1.00  0.00    -0.389 OA
HETATM   14  H   UNL     1     -13.825   2.480 -30.358  1.00  0.00     0.210 HD
ENDBRANCH  12  13
BRANCH  12  15
HETATM   15  C   UNL     1     -13.306   3.592 -33.238  1.00  0.00    -0.028 A 
HETATM   16  C   UNL     1     -13.033   4.700 -34.059  1.00  0.00     0.013 A 
HETATM   17  C   UNL     1     -12.674   4.520 -35.397  1.00  0.00     0.043 A 
HETATM   18  C   UNL     1     -12.580   3.236 -35.917  1.00  0.00     0.116 A 
HETATM   19  F   UNL     1     -12.235   3.067 -37.201  1.00  0.00    -0.206 F 
HETATM   20  C   UNL     1     -12.835   2.125 -35.125  1.00  0.00     0.043 A 
HETATM   21  C   UNL     1     -13.196   2.302 -33.789  1.00  0.00     0.013 A 
ENDBRANCH  12  15
ENDBRANCH  11  12
ENDBRANCH   8  11
ENDBRANCH   3   7
BRANCH   5  22
HETATM   22  N   UNL     1      -7.310  -0.500 -32.564  1.00  0.00    -0.317 N 
HETATM   23  C   UNL     1      -6.729  -0.654 -33.807  1.00  0.00     0.258 C 
HETATM   24  O   UNL     1      -6.652   0.195 -34.691  1.00  0.00    -0.267 OA
HETATM   25  H   UNL     1      -7.387  -1.320 -31.973  1.00  0.00     0.169 HD
BRANCH  23  26
HETATM   26  C   UNL     1      -6.083  -1.978 -34.074  1.00  0.00     0.054 A 
HETATM   27  C   UNL     1      -4.730  -2.288 -33.873  1.00  0.00     0.049 A 
HETATM   28 CL   UNL     1      -3.580  -1.184 -33.202  1.00  0.00    -0.083 Cl
HETATM   29  C   UNL     1      -4.245  -3.564 -34.197  1.00  0.00     0.025 A 
HETATM   30  C   UNL     1      -5.099  -4.540 -34.711  1.00  0.00     0.002 A 
HETATM   31  C   UNL     1      -6.446  -4.252 -34.898  1.00  0.00     0.001 A 
HETATM   32  C   UNL     1      -6.934  -2.982 -34.579  1.00  0.00     0.019 A 
ENDBRANCH  23  26
ENDBRANCH   5  22
TORSDOF 7
ENDMDL
MODEL 6
REMARK VINA RESULT:      -8.6      6.707     10.217
REMARK  7 active torsions:
REMARK  status: ('A' for Active; 'I' for Inactive)
REMARK    1  A    between atoms: C_3  and  C_4 
REMARK       I    between atoms: C_4  and  N_5 
REMARK    2  A    between atoms: N_5  and  C_6 
REMARK    3  A    between atoms: C_6  and  C_7 
REMARK    4  A    between atoms: C_7  and  O_8 
REMARK    5  A    between atoms: C_7  and  C_9 
REMARK    6  A    between atoms: C_18  and  N_19 
REMARK       I    between atoms: N_19  and  C_20 
REMARK    7  A    between atoms: C_20  and  C_21 
ROOT
HETATM    1  C   UNL     1      -6.875   4.500 -31.929  1.00  0.00     0.050 C 
HETATM    2  C   UNL     1      -7.486   3.174 -32.253  1.00  0.00    -0.037 A 
HETATM    3  C   UNL     1      -8.844   2.942 -32.437  1.00  0.00     0.080 A 
HETATM    4  S   UNL     1      -9.151   1.286 -32.767  1.00  0.00    -0.066 SA
HETATM    5  C   UNL     1      -7.512   0.882 -32.746  1.00  0.00     0.078 A 
HETATM    6  C   UNL     1      -6.725   1.968 -32.438  1.00  0.00     0.045 A 
ENDROOT
BRANCH   3   7
HETATM    7  C   UNL     1      -9.938   3.912 -32.420  1.00  0.00     0.259 C 
HETATM    8  N   UNL     1     -10.449   4.248 -33.652  1.00  0.00    -0.354 N 
HETATM    9  H   UNL     1     -10.174   3.686 -34.449  1.00  0.00     0.162 HD
HETATM   10  O   UNL     1     -10.387   4.409 -31.388  1.00  0.00    -0.267 OA
BRANCH   8  11
HETATM   11  C   UNL     1     -11.512   5.218 -33.828  1.00  0.00     0.159 C 
BRANCH  11  12
HETATM   12  C   UNL     1     -12.696   4.674 -34.653  1.00  0.00     0.169 C 
BRANCH  12  13
HETATM   13  O   UNL     1     -13.821   5.548 -34.507  1.00  0.00    -0.389 OA
HETATM   14  H   UNL     1     -14.316   5.509 -35.344  1.00  0.00     0.210 HD
ENDBRANCH  12  13
BRANCH  12  15
HETATM   15  C   UNL     1     -13.080   3.247 -34.300  1.00  0.00    -0.028 A 
HETATM   16  C   UNL     1     -13.893   3.000 -33.180  1.00  0.00     0.013 A 
HETATM   17  C   UNL     1     -14.269   1.696 -32.851  1.00  0.00     0.043 A 
HETATM   18  C   UNL     1     -13.841   0.636 -33.640  1.00  0.00     0.116 A 
HETATM   19  F   UNL     1     -14.203  -0.614 -33.321  1.00  0.00    -0.206 F 
HETATM   20  C   UNL     1     -13.045   0.855 -34.757  1.00  0.00     0.043 A 
HETATM   21  C   UNL     1     -12.666   2.156 -35.086  1.00  0.00     0.013 A 
ENDBRANCH  12  15
ENDBRANCH  11  12
ENDBRANCH   8  11
ENDBRANCH   3   7
BRANCH   5  22
HETATM   22  N   UNL     1      -7.053  -0.386 -33.052  1.00  0.00    -0.317 N 
HETATM   23  C   UNL     1      -6.718  -0.870 -34.302  1.00  0.00     0.258 C 
HETATM   24  O   UNL     1      -6.872  -0.296 -35.375  1.00  0.00    -0.267 OA
HETATM   25  H   UNL     1      -6.959  -1.013 -32.261  1.00  0.00     0.169 HD
BRANCH  23  26
HETATM   26  C   UNL     1      -6.051  -2.210 -34.332  1.00  0.00     0.054 A 
HETATM   27  C   UNL     1      -4.728  -2.479 -33.951  1.00  0.00     0.049 A 
HETATM   28 CL   UNL     1      -3.655  -1.289 -33.300  1.00  0.00    -0.083 Cl
HETATM   29  C   UNL     1      -4.215  -3.779 -34.062  1.00  0.00     0.025 A 
HETATM   30  C   UNL     1      -5.011  -4.820 -34.541  1.00  0.00     0.002 A 
HETATM   31  C   UNL     1      -6.329  -4.571 -34.905  1.00  0.00     0.001 A 
HETATM   32  C   UNL     1      -6.845  -3.277 -34.799  1.00  0.00     0.019 A 
ENDBRANCH  23  26
ENDBRANCH   5  22
TORSDOF 7
ENDMDL
MODEL 7
REMARK VINA RESULT:      -8.6      4.457      9.922
REMARK  7 active torsions:
REMARK  status: ('A' for Active; 'I' for Inactive)
REMARK    1  A    between atoms: C_3  and  C_4 
REMARK       I    between atoms: C_4  and  N_5 
REMARK    2  A    between atoms: N_5  and  C_6 
REMARK    3  A    between atoms: C_6  and  C_7 
REMARK    4  A    between atoms: C_7  and  O_8 
REMARK    5  A    between atoms: C_7  and  C_9 
REMARK    6  A    between atoms: C_18  and  N_19 
REMARK       I    between atoms: N_19  and  C_20 
REMARK    7  A    between atoms: C_20  and  C_21 
ROOT
HETATM    1  C   UNL     1      -8.986   3.423 -30.523  1.00  0.00     0.050 C 
HETATM    2  C   UNL     1      -7.950   2.748 -31.363  1.00  0.00    -0.037 A 
HETATM    3  C   UNL     1      -6.856   3.378 -31.945  1.00  0.00     0.080 A 
HETATM    4  S   UNL     1      -5.915   2.269 -32.855  1.00  0.00    -0.066 SA
HETATM    5  C   UNL     1      -6.885   0.954 -32.433  1.00  0.00     0.078 A 
HETATM    6  C   UNL     1      -7.952   1.340 -31.655  1.00  0.00     0.045 A 
ENDROOT
BRANCH   3   7
HETATM    7  C   UNL     1      -6.448   4.776 -31.823  1.00  0.00     0.259 C 
HETATM    8  N   UNL     1      -5.576   5.049 -30.793  1.00  0.00    -0.354 N 
HETATM    9  H   UNL     1      -5.143   4.265 -30.319  1.00  0.00     0.162 HD
HETATM   10  O   UNL     1      -6.842   5.666 -32.574  1.00  0.00    -0.267 OA
BRANCH   8  11
HETATM   11  C   UNL     1      -5.092   6.384 -30.501  1.00  0.00     0.159 C 
BRANCH  11  12
HETATM   12  C   UNL     1      -3.556   6.458 -30.387  1.00  0.00     0.169 C 
BRANCH  12  13
HETATM   13  O   UNL     1      -3.178   7.732 -29.855  1.00  0.00    -0.389 OA
HETATM   14  H   UNL     1      -3.859   7.977 -29.204  1.00  0.00     0.210 HD
ENDBRANCH  12  13
BRANCH  12  15
HETATM   15  C   UNL     1      -2.834   6.193 -31.697  1.00  0.00    -0.028 A 
HETATM   16  C   UNL     1      -2.553   7.260 -32.568  1.00  0.00     0.013 A 
HETATM   17  C   UNL     1      -1.876   7.035 -33.769  1.00  0.00     0.043 A 
HETATM   18  C   UNL     1      -1.472   5.749 -34.102  1.00  0.00     0.116 A 
HETATM   19  F   UNL     1      -0.823   5.537 -35.255  1.00  0.00    -0.206 F 
HETATM   20  C   UNL     1      -1.730   4.679 -33.255  1.00  0.00     0.043 A 
HETATM   21  C   UNL     1      -2.409   4.900 -32.056  1.00  0.00     0.013 A 
ENDBRANCH  12  15
ENDBRANCH  11  12
ENDBRANCH   8  11
ENDBRANCH   3   7
BRANCH   5  22
HETATM   22  N   UNL     1      -6.585  -0.344 -32.806  1.00  0.00    -0.317 N 
HETATM   23  C   UNL     1      -6.512  -0.842 -34.092  1.00  0.00     0.258 C 
HETATM   24  O   UNL     1      -6.807  -0.250 -35.126  1.00  0.00    -0.267 OA
HETATM   25  H   UNL     1      -6.403  -0.981 -32.040  1.00  0.00     0.169 HD
BRANCH  23  26
HETATM   26  C   UNL     1      -5.965  -2.229 -34.230  1.00  0.00     0.054 A 
HETATM   27  C   UNL     1      -4.668  -2.639 -33.889  1.00  0.00     0.049 A 
HETATM   28 CL   UNL     1      -3.489  -1.598 -33.170  1.00  0.00    -0.083 Cl
HETATM   29  C   UNL     1      -4.271  -3.968 -34.103  1.00  0.00     0.025 A 
HETATM   30  C   UNL     1      -5.159  -4.897 -34.644  1.00  0.00     0.002 A 
HETATM   31  C   UNL     1      -6.453  -4.508 -34.970  1.00  0.00     0.001 A 
HETATM   32  C   UNL     1      -6.853  -3.186 -34.762  1.00  0.00     0.019 A 
ENDBRANCH  23  26
ENDBRANCH   5  22
TORSDOF 7
ENDMDL
MODEL 8
REMARK VINA RESULT:      -8.5      4.379      5.838
REMARK  7 active torsions:
REMARK  status: ('A' for Active; 'I' for Inactive)
REMARK    1  A    between atoms: C_3  and  C_4 
REMARK       I    between atoms: C_4  and  N_5 
REMARK    2  A    between atoms: N_5  and  C_6 
REMARK    3  A    between atoms: C_6  and  C_7 
REMARK    4  A    between atoms: C_7  and  O_8 
REMARK    5  A    between atoms: C_7  and  C_9 
REMARK    6  A    between atoms: C_18  and  N_19 
REMARK       I    between atoms: N_19  and  C_20 
REMARK    7  A    between atoms: C_20  and  C_21 
ROOT
HETATM    1  C   UNL     1      -4.304  -1.382 -32.477  1.00  0.00     0.050 C 
HETATM    2  C   UNL     1      -4.409   0.106 -32.365  1.00  0.00    -0.037 A 
HETATM    3  C   UNL     1      -5.533   0.855 -32.692  1.00  0.00     0.080 A 
HETATM    4  S   UNL     1      -5.252   2.531 -32.451  1.00  0.00    -0.066 SA
HETATM    5  C   UNL     1      -3.695   2.278 -31.850  1.00  0.00     0.078 A 
HETATM    6  C   UNL     1      -3.351   0.946 -31.876  1.00  0.00     0.045 A 
ENDROOT
BRANCH   3   7
HETATM    7  C   UNL     1      -6.839   0.378 -33.143  1.00  0.00     0.259 C 
HETATM    8  N   UNL     1      -7.672   1.341 -33.664  1.00  0.00    -0.354 N 
HETATM    9  H   UNL     1      -7.276   2.251 -33.868  1.00  0.00     0.162 HD
HETATM   10  O   UNL     1      -7.193  -0.798 -33.072  1.00  0.00    -0.267 OA
BRANCH   8  11
HETATM   11  C   UNL     1      -9.015   1.055 -34.130  1.00  0.00     0.159 C 
BRANCH  11  12
HETATM   12  C   UNL     1     -10.087   1.249 -33.038  1.00  0.00     0.169 C 
BRANCH  12  13
HETATM   13  O   UNL     1      -9.819   0.364 -31.944  1.00  0.00    -0.389 OA
HETATM   14  H   UNL     1      -9.134  -0.257 -32.247  1.00  0.00     0.210 HD
ENDBRANCH  12  13
BRANCH  12  15
HETATM   15  C   UNL     1     -11.509   1.059 -33.540  1.00  0.00    -0.028 A 
HETATM   16  C   UNL     1     -12.186  -0.145 -33.282  1.00  0.00     0.013 A 
HETATM   17  C   UNL     1     -13.499  -0.329 -33.722  1.00  0.00     0.043 A 
HETATM   18  C   UNL     1     -14.141   0.689 -34.415  1.00  0.00     0.116 A 
HETATM   19  F   UNL     1     -15.400   0.509 -34.836  1.00  0.00    -0.206 F 
HETATM   20  C   UNL     1     -13.498   1.892 -34.674  1.00  0.00     0.043 A 
HETATM   21  C   UNL     1     -12.185   2.077 -34.238  1.00  0.00     0.013 A 
ENDBRANCH  12  15
ENDBRANCH  11  12
ENDBRANCH   8  11
ENDBRANCH   3   7
BRANCH   5  22
HETATM   22  N   UNL     1      -2.910   3.306 -31.359  1.00  0.00    -0.317 N 
HETATM   23  C   UNL     1      -2.223   4.251 -32.095  1.00  0.00     0.258 C 
HETATM   24  O   UNL     1      -2.097   4.281 -33.316  1.00  0.00    -0.267 OA
HETATM   25  H   UNL     1      -2.845   3.354 -30.349  1.00  0.00     0.169 HD
BRANCH  23  26
HETATM   26  C   UNL     1      -1.617   5.379 -31.318  1.00  0.00     0.054 A 
HETATM   27  C   UNL     1      -2.323   6.333 -30.571  1.00  0.00     0.049 A 
HETATM   28 CL   UNL     1      -4.040   6.316 -30.365  1.00  0.00    -0.083 Cl
HETATM   29  C   UNL     1      -1.632   7.363 -29.915  1.00  0.00     0.025 A 
HETATM   30  C   UNL     1      -0.242   7.446 -29.988  1.00  0.00     0.002 A 
HETATM   31  C   UNL     1       0.471   6.496 -30.710  1.00  0.00     0.001 A 
HETATM   32  C   UNL     1      -0.211   5.470 -31.367  1.00  0.00     0.019 A 
ENDBRANCH  23  26
ENDBRANCH   5  22
TORSDOF 7
ENDMDL
MODEL 9
REMARK VINA RESULT:      -8.5      1.958      2.452
REMARK  7 active torsions:
REMARK  status: ('A' for Active; 'I' for Inactive)
REMARK    1  A    between atoms: C_3  and  C_4 
REMARK       I    between atoms: C_4  and  N_5 
REMARK    2  A    between atoms: N_5  and  C_6 
REMARK    3  A    between atoms: C_6  and  C_7 
REMARK    4  A    between atoms: C_7  and  O_8 
REMARK    5  A    between atoms: C_7  and  C_9 
REMARK    6  A    between atoms: C_18  and  N_19 
REMARK       I    between atoms: N_19  and  C_20 
REMARK    7  A    between atoms: C_20  and  C_21 
ROOT
HETATM    1  C   UNL     1      -4.878   4.537 -34.708  1.00  0.00     0.050 C 
HETATM    2  C   UNL     1      -4.553   4.505 -33.248  1.00  0.00    -0.037 A 
HETATM    3  C   UNL     1      -5.183   3.700 -32.306  1.00  0.00     0.080 A 
HETATM    4  S   UNL     1      -4.546   3.972 -30.735  1.00  0.00    -0.066 SA
HETATM    5  C   UNL     1      -3.399   5.079 -31.290  1.00  0.00     0.078 A 
HETATM    6  C   UNL     1      -3.518   5.298 -32.644  1.00  0.00     0.045 A 
ENDROOT
BRANCH   3   7
HETATM    7  C   UNL     1      -6.223   2.697 -32.523  1.00  0.00     0.259 C 
HETATM    8  N   UNL     1      -5.771   1.412 -32.724  1.00  0.00    -0.354 N 
HETATM    9  H   UNL     1      -4.796   1.217 -32.529  1.00  0.00     0.162 HD
HETATM   10  O   UNL     1      -7.425   2.956 -32.533  1.00  0.00    -0.267 OA
BRANCH   8  11
HETATM   11  C   UNL     1      -6.658   0.296 -32.988  1.00  0.00     0.159 C 
BRANCH  11  12
HETATM   12  C   UNL     1      -6.484  -0.292 -34.403  1.00  0.00     0.169 C 
BRANCH  12  13
HETATM   13  O   UNL     1      -7.718  -0.183 -35.120  1.00  0.00    -0.389 OA
HETATM   14  H   UNL     1      -8.365  -0.741 -34.652  1.00  0.00     0.210 HD
ENDBRANCH  12  13
BRANCH  12  15
HETATM   15  C   UNL     1      -5.990  -1.729 -34.408  1.00  0.00    -0.028 A 
HETATM   16  C   UNL     1      -6.837  -2.757 -34.858  1.00  0.00     0.013 A 
HETATM   17  C   UNL     1      -6.393  -4.081 -34.884  1.00  0.00     0.043 A 
HETATM   18  C   UNL     1      -5.102  -4.383 -34.469  1.00  0.00     0.116 A 
HETATM   19  F   UNL     1      -4.679  -5.654 -34.496  1.00  0.00    -0.206 F 
HETATM   20  C   UNL     1      -4.243  -3.385 -34.029  1.00  0.00     0.043 A 
HETATM   21  C   UNL     1      -4.685  -2.061 -33.999  1.00  0.00     0.013 A 
ENDBRANCH  12  15
ENDBRANCH  11  12
ENDBRANCH   8  11
ENDBRANCH   3   7
BRANCH   5  22
HETATM   22  N   UNL     1      -2.444   5.641 -30.462  1.00  0.00    -0.317 N 
HETATM   23  C   UNL     1      -2.440   6.924 -29.950  1.00  0.00     0.258 C 
HETATM   24  O   UNL     1      -3.224   7.826 -30.227  1.00  0.00    -0.267 OA
HETATM   25  H   UNL     1      -1.674   5.030 -30.216  1.00  0.00     0.169 HD
BRANCH  23  26
HETATM   26  C   UNL     1      -1.400   7.215 -28.913  1.00  0.00     0.054 A 
HETATM   27  C   UNL     1      -1.607   7.236 -27.526  1.00  0.00     0.049 A 
HETATM   28 CL   UNL     1      -3.114   6.847 -26.772  1.00  0.00    -0.083 Cl
HETATM   29  C   UNL     1      -0.550   7.560 -26.662  1.00  0.00     0.025 A 
HETATM   30  C   UNL     1       0.717   7.854 -27.167  1.00  0.00     0.002 A 
HETATM   31  C   UNL     1       0.939   7.819 -28.539  1.00  0.00     0.001 A 
HETATM   32  C   UNL     1      -0.110   7.500 -29.404  1.00  0.00     0.019 A 
ENDBRANCH  23  26
ENDBRANCH   5  22
TORSDOF 7
ENDMDL
MODEL 10
REMARK VINA RESULT:      -8.4      2.590      3.173
REMARK  7 active torsions:
REMARK  status: ('A' for Active; 'I' for Inactive)
REMARK    1  A    between atoms: C_3  and  C_4 
REMARK       I    between atoms: C_4  and  N_5 
REMARK    2  A    between atoms: N_5  and  C_6 
REMARK    3  A    between atoms: C_6  and  C_7 
REMARK    4  A    between atoms: C_7  and  O_8 
REMARK    5  A    between atoms: C_7  and  C_9 
REMARK    6  A    between atoms: C_18  and  N_19 
REMARK       I    between atoms: N_19  and  C_20 
REMARK    7  A    between atoms: C_20  and  C_21 
ROOT
HETATM    1  C   UNL     1      -4.326   1.982 -32.759  1.00  0.00     0.050 C 
HETATM    2  C   UNL     1      -4.260   3.376 -32.224  1.00  0.00    -0.037 A 
HETATM    3  C   UNL     1      -5.264   4.330 -32.349  1.00  0.00     0.080 A 
HETATM    4  S   UNL     1      -4.800   5.816 -31.626  1.00  0.00    -0.066 SA
HETATM    5  C   UNL     1      -3.325   5.199 -31.083  1.00  0.00     0.078 A 
HETATM    6  C   UNL     1      -3.142   3.895 -31.484  1.00  0.00     0.045 A 
ENDROOT
BRANCH   3   7
HETATM    7  C   UNL     1      -6.585   4.178 -32.954  1.00  0.00     0.259 C 
HETATM    8  N   UNL     1      -7.537   3.590 -32.152  1.00  0.00    -0.354 N 
HETATM    9  H   UNL     1      -7.323   3.475 -31.168  1.00  0.00     0.162 HD
HETATM   10  O   UNL     1      -6.854   4.539 -34.098  1.00  0.00    -0.267 OA
BRANCH   8  11
HETATM   11  C   UNL     1      -8.892   3.329 -32.597  1.00  0.00     0.159 C 
BRANCH  11  12
HETATM   12  C   UNL     1      -9.310   1.854 -32.429  1.00  0.00     0.169 C 
BRANCH  12  13
HETATM   13  O   UNL     1      -9.360   1.528 -31.036  1.00  0.00    -0.389 OA
HETATM   14  H   UNL     1      -8.456   1.631 -30.691  1.00  0.00     0.210 HD
ENDBRANCH  12  13
BRANCH  12  15
HETATM   15  C   UNL     1      -8.412   0.878 -33.172  1.00  0.00    -0.028 A 
HETATM   16  C   UNL     1      -8.417   0.856 -34.577  1.00  0.00     0.013 A 
HETATM   17  C   UNL     1      -7.586  -0.024 -35.275  1.00  0.00     0.043 A 
HETATM   18  C   UNL     1      -6.745  -0.878 -34.574  1.00  0.00     0.116 A 
HETATM   19  F   UNL     1      -5.949  -1.721 -35.246  1.00  0.00    -0.206 F 
HETATM   20  C   UNL     1      -6.715  -0.869 -33.186  1.00  0.00     0.043 A 
HETATM   21  C   UNL     1      -7.546   0.007 -32.486  1.00  0.00     0.013 A 
ENDBRANCH  12  15
ENDBRANCH  11  12
ENDBRANCH   8  11
ENDBRANCH   3   7
BRANCH   5  22
HETATM   22  N   UNL     1      -2.456   5.931 -30.294  1.00  0.00    -0.317 N 
HETATM   23  C   UNL     1      -1.691   7.012 -30.686  1.00  0.00     0.258 C 
HETATM   24  O   UNL     1      -1.562   7.445 -31.826  1.00  0.00    -0.267 OA
HETATM   25  H   UNL     1      -2.388   5.627 -29.330  1.00  0.00     0.169 HD
BRANCH  23  26
HETATM   26  C   UNL     1      -0.992   7.755 -29.589  1.00  0.00     0.054 A 
HETATM   27  C   UNL     1      -1.540   8.794 -28.823  1.00  0.00     0.049 A 
HETATM   28 CL   UNL     1      -3.172   9.345 -28.976  1.00  0.00    -0.083 Cl
HETATM   29  C   UNL     1      -0.761   9.432 -27.845  1.00  0.00     0.025 A 
HETATM   30  C   UNL     1       0.557   9.038 -27.617  1.00  0.00     0.002 A 
HETATM   31  C   UNL     1       1.106   7.998 -28.357  1.00  0.00     0.001 A 
HETATM   32  C   UNL     1       0.337   7.361 -29.333  1.00  0.00     0.019 A 
ENDBRANCH  23  26
ENDBRANCH   5  22
TORSDOF 7
ENDMDL
