MODEL 1
REMARK VINA RESULT:      -9.5      0.000      0.000
REMARK  3 active torsions:
REMARK  status: ('A' for Active; 'I' for Inactive)
REMARK    1  A    between atoms: C_3  and  N_4 
REMARK       I    between atoms: N_4  and  C_5 
REMARK    2  A    between atoms: C_5  and  C_6 
REMARK    3  A    between atoms: C_17  and  O_18 
ROOT
HETATM    1  C   UNL     1      -4.806   3.033 -32.475  1.00  0.00     0.153 A 
HETATM    2  N   UNL     1      -5.972   3.367 -33.075  1.00  0.00    -0.168 NA
HETATM    3  N   UNL     1      -6.398   2.216 -33.636  1.00  0.00    -0.276 N 
HETATM    4  H   UNL     1      -7.260   2.229 -34.168  1.00  0.00     0.189 HD
HETATM    5  C   UNL     1      -5.579   1.156 -33.393  1.00  0.00     0.069 A 
HETATM    6  C   UNL     1      -4.533   1.653 -32.648  1.00  0.00     0.007 A 
HETATM    7  C   UNL     1      -3.444   0.772 -32.143  1.00  0.00     0.048 C 
HETATM    8  C   UNL     1      -3.297  -0.495 -33.018  1.00  0.00     0.044 C 
HETATM    9  C   UNL     1      -4.604  -1.073 -33.550  1.00  0.00    -0.043 A 
HETATM   10  C   UNL     1      -5.716  -0.234 -33.792  1.00  0.00    -0.001 A 
HETATM   11  C   UNL     1      -4.678  -2.427 -33.898  1.00  0.00     0.044 A 
HETATM   12  C   UNL     1      -5.841  -2.959 -34.463  1.00  0.00     0.068 A 
HETATM   13  C   UNL     1      -6.936  -2.124 -34.691  1.00  0.00     0.037 A 
HETATM   14  C   UNL     1      -6.876  -0.764 -34.358  1.00  0.00     0.017 A 
ENDROOT
BRANCH   1  15
HETATM   15  C   UNL     1      -4.004   4.030 -31.734  1.00  0.00     0.277 C 
HETATM   16  N   UNL     1      -2.755   4.204 -32.305  1.00  0.00    -0.321 N 
HETATM   17  H   UNL     1      -2.631   3.651 -33.147  1.00  0.00     0.169 HD
HETATM   18  O   UNL     1      -4.451   4.624 -30.761  1.00  0.00    -0.266 OA
BRANCH  16  19
HETATM   19  C   UNL     1      -1.713   5.059 -31.892  1.00  0.00     0.043 A 
HETATM   20  C   UNL     1      -1.460   6.237 -32.631  1.00  0.00    -0.035 A 
HETATM   21  C   UNL     1      -2.274   6.633 -33.835  1.00  0.00     0.050 C 
HETATM   22  C   UNL     1      -0.393   7.076 -32.255  1.00  0.00     0.012 A 
HETATM   23  C   UNL     1       0.398   6.769 -31.151  1.00  0.00     0.043 A 
HETATM   24  C   UNL     1       0.129   5.620 -30.426  1.00  0.00     0.118 A 
HETATM   25  C   UNL     1      -0.912   4.769 -30.783  1.00  0.00     0.072 A 
HETATM   26  F   UNL     1       0.897   5.317 -29.370  1.00  0.00    -0.206 F 
ENDBRANCH  16  19
ENDBRANCH   1  15
BRANCH  12  27
HETATM   27  O   UNL     1      -5.776  -4.296 -34.745  1.00  0.00    -0.356 OA
HETATM   28  C   UNL     1      -4.632  -4.999 -34.278  1.00  0.00     0.210 C 
ENDBRANCH  12  27
TORSDOF 3
ENDMDL
MODEL 2
REMARK VINA RESULT:      -9.4      1.802      2.577
REMARK  3 active torsions:
REMARK  status: ('A' for Active; 'I' for Inactive)
REMARK    1  A    between atoms: C_3  and  N_4 
REMARK       I    between atoms: N_4  and  C_5 
REMARK    2  A    between atoms: C_5  and  C_6 
REMARK    3  A    between atoms: C_17  and  O_18 
ROOT
HETATM    1  C   UNL     1      -3.473   1.609 -31.636  1.00  0.00     0.153 A 
HETATM    2  N   UNL     1      -2.559   0.949 -30.888  1.00  0.00    -0.168 NA
HETATM    3  N   UNL     1      -2.713  -0.345 -31.242  1.00  0.00    -0.276 N 
HETATM    4  H   UNL     1      -2.136  -1.041 -30.785  1.00  0.00     0.189 HD
HETATM    5  C   UNL     1      -3.654  -0.537 -32.206  1.00  0.00     0.069 A 
HETATM    6  C   UNL     1      -4.172   0.709 -32.480  1.00  0.00     0.007 A 
HETATM    7  C   UNL     1      -5.206   0.912 -33.530  1.00  0.00     0.048 C 
HETATM    8  C   UNL     1      -6.015  -0.383 -33.779  1.00  0.00     0.044 C 
HETATM    9  C   UNL     1      -5.212  -1.676 -33.695  1.00  0.00    -0.043 A 
HETATM   10  C   UNL     1      -4.072  -1.764 -32.863  1.00  0.00    -0.001 A 
HETATM   11  C   UNL     1      -5.657  -2.820 -34.370  1.00  0.00     0.044 A 
HETATM   12  C   UNL     1      -4.980  -4.037 -34.241  1.00  0.00     0.068 A 
HETATM   13  C   UNL     1      -3.853  -4.111 -33.422  1.00  0.00     0.037 A 
HETATM   14  C   UNL     1      -3.398  -2.979 -32.733  1.00  0.00     0.017 A 
ENDROOT
BRANCH   1  15
HETATM   15  C   UNL     1      -3.633   3.076 -31.546  1.00  0.00     0.277 C 
HETATM   16  N   UNL     1      -2.530   3.741 -32.051  1.00  0.00    -0.321 N 
HETATM   17  H   UNL     1      -1.832   3.107 -32.428  1.00  0.00     0.169 HD
HETATM   18  O   UNL     1      -4.653   3.587 -31.100  1.00  0.00    -0.266 OA
BRANCH  16  19
HETATM   19  C   UNL     1      -2.308   5.130 -32.139  1.00  0.00     0.043 A 
HETATM   20  C   UNL     1      -2.125   5.715 -33.413  1.00  0.00    -0.035 A 
HETATM   21  C   UNL     1      -2.182   4.918 -34.690  1.00  0.00     0.050 C 
HETATM   22  C   UNL     1      -1.857   7.094 -33.510  1.00  0.00     0.012 A 
HETATM   23  C   UNL     1      -1.793   7.888 -32.368  1.00  0.00     0.043 A 
HETATM   24  C   UNL     1      -1.988   7.305 -31.127  1.00  0.00     0.118 A 
HETATM   25  C   UNL     1      -2.244   5.944 -31.003  1.00  0.00     0.072 A 
HETATM   26  F   UNL     1      -1.916   8.067 -30.027  1.00  0.00    -0.206 F 
ENDBRANCH  16  19
ENDBRANCH   1  15
BRANCH  12  27
HETATM   27  O   UNL     1      -5.522  -5.067 -34.961  1.00  0.00    -0.356 OA
HETATM   28  C   UNL     1      -6.703  -4.786 -35.700  1.00  0.00     0.210 C 
ENDBRANCH  12  27
TORSDOF 3
ENDMDL
MODEL 3
REMARK VINA RESULT:      -9.0      3.279      8.451
REMARK  3 active torsions:
REMARK  status: ('A' for Active; 'I' for Inactive)
REMARK    1  A    between atoms: C_3  and  N_4 
REMARK       I    between atoms: N_4  and  C_5 
REMARK    2  A    between atoms: C_5  and  C_6 
REMARK    3  A    between atoms: C_17  and  O_18 
ROOT
HETATM    1  C   UNL     1      -5.930   1.382 -33.335  1.00  0.00     0.153 A 
HETATM    2  N   UNL     1      -6.768   2.233 -33.972  1.00  0.00    -0.168 NA
HETATM    3  N   UNL     1      -6.192   3.444 -33.815  1.00  0.00    -0.276 N 
HETATM    4  H   UNL     1      -6.663   4.255 -34.199  1.00  0.00     0.189 HD
HETATM    5  C   UNL     1      -5.010   3.402 -33.143  1.00  0.00     0.069 A 
HETATM    6  C   UNL     1      -4.813   2.080 -32.811  1.00  0.00     0.007 A 
HETATM    7  C   UNL     1      -3.587   1.626 -32.100  1.00  0.00     0.048 C 
HETATM    8  C   UNL     1      -2.951   2.778 -31.287  1.00  0.00     0.044 C 
HETATM    9  C   UNL     1      -3.028   4.153 -31.939  1.00  0.00    -0.043 A 
HETATM   10  C   UNL     1      -4.090   4.477 -32.815  1.00  0.00    -0.001 A 
HETATM   11  C   UNL     1      -2.097   5.142 -31.595  1.00  0.00     0.044 A 
HETATM   12  C   UNL     1      -2.197   6.434 -32.121  1.00  0.00     0.068 A 
HETATM   13  C   UNL     1      -3.245   6.741 -32.990  1.00  0.00     0.037 A 
HETATM   14  C   UNL     1      -4.191   5.767 -33.337  1.00  0.00     0.017 A 
ENDROOT
BRANCH   1  15
HETATM   15  C   UNL     1      -6.204  -0.069 -33.270  1.00  0.00     0.277 C 
HETATM   16  N   UNL     1      -5.202  -0.805 -33.878  1.00  0.00    -0.321 N 
HETATM   17  H   UNL     1      -4.444  -0.221 -34.220  1.00  0.00     0.169 HD
HETATM   18  O   UNL     1      -7.196  -0.514 -32.706  1.00  0.00    -0.266 OA
BRANCH  16  19
HETATM   19  C   UNL     1      -5.102  -2.203 -34.020  1.00  0.00     0.043 A 
HETATM   20  C   UNL     1      -4.123  -2.900 -33.275  1.00  0.00    -0.035 A 
HETATM   21  C   UNL     1      -3.190  -2.211 -32.313  1.00  0.00     0.050 C 
HETATM   22  C   UNL     1      -3.985  -4.291 -33.443  1.00  0.00     0.012 A 
HETATM   23  C   UNL     1      -4.816  -4.988 -34.315  1.00  0.00     0.043 A 
HETATM   24  C   UNL     1      -5.781  -4.297 -35.027  1.00  0.00     0.118 A 
HETATM   25  C   UNL     1      -5.932  -2.921 -34.888  1.00  0.00     0.072 A 
HETATM   26  F   UNL     1      -6.575  -4.965 -35.875  1.00  0.00    -0.206 F 
ENDBRANCH  16  19
ENDBRANCH   1  15
BRANCH  12  27
HETATM   27  O   UNL     1      -1.217   7.294 -31.706  1.00  0.00    -0.356 OA
HETATM   28  C   UNL     1       0.014   6.717 -31.293  1.00  0.00     0.210 C 
ENDBRANCH  12  27
TORSDOF 3
ENDMDL
MODEL 4
REMARK VINA RESULT:      -8.7      1.759      2.023
REMARK  3 active torsions:
REMARK  status: ('A' for Active; 'I' for Inactive)
REMARK    1  A    between atoms: C_3  and  N_4 
REMARK       I    between atoms: N_4  and  C_5 
REMARK    2  A    between atoms: C_5  and  C_6 
REMARK    3  A    between atoms: C_17  and  O_18 
ROOT
HETATM    1  C   UNL     1      -5.510   3.115 -32.598  1.00  0.00     0.153 A 
HETATM    2  N   UNL     1      -6.694   3.233 -33.243  1.00  0.00    -0.168 NA
HETATM    3  N   UNL     1      -6.901   2.012 -33.780  1.00  0.00    -0.276 N 
HETATM    4  H   UNL     1      -7.735   1.866 -34.338  1.00  0.00     0.189 HD
HETATM    5  C   UNL     1      -5.927   1.111 -33.478  1.00  0.00     0.069 A 
HETATM    6  C   UNL     1      -5.005   1.796 -32.718  1.00  0.00     0.007 A 
HETATM    7  C   UNL     1      -3.803   1.123 -32.152  1.00  0.00     0.048 C 
HETATM    8  C   UNL     1      -3.417  -0.124 -32.981  1.00  0.00     0.044 C 
HETATM    9  C   UNL     1      -4.590  -0.926 -33.533  1.00  0.00    -0.043 A 
HETATM   10  C   UNL     1      -5.817  -0.293 -33.835  1.00  0.00    -0.001 A 
HETATM   11  C   UNL     1      -4.426  -2.284 -33.839  1.00  0.00     0.044 A 
HETATM   12  C   UNL     1      -5.463  -3.017 -34.421  1.00  0.00     0.068 A 
HETATM   13  C   UNL     1      -6.673  -2.384 -34.709  1.00  0.00     0.037 A 
HETATM   14  C   UNL     1      -6.852  -1.025 -34.419  1.00  0.00     0.017 A 
ENDROOT
BRANCH   1  15
HETATM   15  C   UNL     1      -4.911   4.251 -31.866  1.00  0.00     0.277 C 
HETATM   16  N   UNL     1      -4.201   5.085 -32.712  1.00  0.00    -0.321 N 
HETATM   17  H   UNL     1      -4.253   4.790 -33.682  1.00  0.00     0.169 HD
HETATM   18  O   UNL     1      -5.082   4.406 -30.663  1.00  0.00    -0.266 OA
BRANCH  16  19
HETATM   19  C   UNL     1      -3.494   6.262 -32.394  1.00  0.00     0.043 A 
HETATM   20  C   UNL     1      -2.143   6.380 -32.794  1.00  0.00    -0.035 A 
HETATM   21  C   UNL     1      -1.429   5.305 -33.572  1.00  0.00     0.050 C 
HETATM   22  C   UNL     1      -1.415   7.533 -32.444  1.00  0.00     0.012 A 
HETATM   23  C   UNL     1      -2.016   8.564 -31.727  1.00  0.00     0.043 A 
HETATM   24  C   UNL     1      -3.344   8.442 -31.354  1.00  0.00     0.118 A 
HETATM   25  C   UNL     1      -4.084   7.310 -31.679  1.00  0.00     0.072 A 
HETATM   26  F   UNL     1      -3.921   9.429 -30.655  1.00  0.00    -0.206 F 
ENDBRANCH  16  19
ENDBRANCH   1  15
BRANCH  12  27
HETATM   27  O   UNL     1      -5.167  -4.332 -34.658  1.00  0.00    -0.356 OA
HETATM   28  C   UNL     1      -4.052  -4.876 -33.965  1.00  0.00     0.210 C 
ENDBRANCH  12  27
TORSDOF 3
ENDMDL
MODEL 5
REMARK VINA RESULT:      -8.6      4.939      7.130
REMARK  3 active torsions:
REMARK  status: ('A' for Active; 'I' for Inactive)
REMARK    1  A    between atoms: C_3  and  N_4 
REMARK       I    between atoms: N_4  and  C_5 
REMARK    2  A    between atoms: C_5  and  C_6 
REMARK    3  A    between atoms: C_17  and  O_18 
ROOT
HETATM    1  C   UNL     1      -7.015   2.767 -33.388  1.00  0.00     0.153 A 
HETATM    2  N   UNL     1      -6.257   3.020 -32.296  1.00  0.00    -0.168 NA
HETATM    3  N   UNL     1      -5.561   1.880 -32.103  1.00  0.00    -0.276 N 
HETATM    4  H   UNL     1      -4.931   1.828 -31.312  1.00  0.00     0.189 HD
HETATM    5  C   UNL     1      -5.810   0.925 -33.041  1.00  0.00     0.069 A 
HETATM    6  C   UNL     1      -6.754   1.465 -33.886  1.00  0.00     0.007 A 
HETATM    7  C   UNL     1      -7.249   0.727 -35.079  1.00  0.00     0.048 C 
HETATM    8  C   UNL     1      -7.091  -0.802 -34.898  1.00  0.00     0.044 C 
HETATM    9  C   UNL     1      -5.833  -1.241 -34.158  1.00  0.00    -0.043 A 
HETATM   10  C   UNL     1      -5.236  -0.401 -33.190  1.00  0.00    -0.001 A 
HETATM   11  C   UNL     1      -5.316  -2.527 -34.362  1.00  0.00     0.044 A 
HETATM   12  C   UNL     1      -4.211  -2.979 -33.634  1.00  0.00     0.068 A 
HETATM   13  C   UNL     1      -3.625  -2.139 -32.685  1.00  0.00     0.037 A 
HETATM   14  C   UNL     1      -4.135  -0.853 -32.462  1.00  0.00     0.017 A 
ENDROOT
BRANCH   1  15
HETATM   15  C   UNL     1      -7.941   3.779 -33.940  1.00  0.00     0.277 C 
HETATM   16  N   UNL     1      -9.221   3.273 -34.084  1.00  0.00    -0.321 N 
HETATM   17  H   UNL     1      -9.302   2.318 -33.748  1.00  0.00     0.169 HD
HETATM   18  O   UNL     1      -7.574   4.920 -34.190  1.00  0.00    -0.266 OA
BRANCH  16  19
HETATM   19  C   UNL     1     -10.371   3.924 -34.572  1.00  0.00     0.043 A 
HETATM   20  C   UNL     1     -11.525   3.158 -34.854  1.00  0.00    -0.035 A 
HETATM   21  C   UNL     1     -11.586   1.669 -34.632  1.00  0.00     0.050 C 
HETATM   22  C   UNL     1     -12.665   3.791 -35.385  1.00  0.00     0.012 A 
HETATM   23  C   UNL     1     -12.675   5.164 -35.613  1.00  0.00     0.043 A 
HETATM   24  C   UNL     1     -11.544   5.906 -35.318  1.00  0.00     0.118 A 
HETATM   25  C   UNL     1     -10.401   5.304 -34.803  1.00  0.00     0.072 A 
HETATM   26  F   UNL     1     -11.548   7.227 -35.547  1.00  0.00    -0.206 F 
ENDBRANCH  16  19
ENDBRANCH   1  15
BRANCH  12  27
HETATM   27  O   UNL     1      -3.809  -4.250 -33.940  1.00  0.00    -0.356 OA
HETATM   28  C   UNL     1      -4.808  -5.148 -34.405  1.00  0.00     0.210 C 
ENDBRANCH  12  27
TORSDOF 3
ENDMDL
MODEL 6
REMARK VINA RESULT:      -8.5      6.068      9.070
REMARK  3 active torsions:
REMARK  status: ('A' for Active; 'I' for Inactive)
REMARK    1  A    between atoms: C_3  and  N_4 
REMARK       I    between atoms: N_4  and  C_5 
REMARK    2  A    between atoms: C_5  and  C_6 
REMARK    3  A    between atoms: C_17  and  O_18 
ROOT
HETATM    1  C   UNL     1      -8.494   1.765 -33.730  1.00  0.00     0.153 A 
HETATM    2  N   UNL     1      -8.027   2.819 -33.020  1.00  0.00    -0.168 NA
HETATM    3  N   UNL     1      -9.141   3.432 -32.566  1.00  0.00    -0.276 N 
HETATM    4  H   UNL     1      -9.036   4.276 -32.015  1.00  0.00     0.189 HD
HETATM    5  C   UNL     1     -10.293   2.800 -32.920  1.00  0.00     0.069 A 
HETATM    6  C   UNL     1      -9.910   1.719 -33.682  1.00  0.00     0.007 A 
HETATM    7  C   UNL     1     -10.903   0.749 -34.219  1.00  0.00     0.048 C 
HETATM    8  C   UNL     1     -12.300   1.399 -34.363  1.00  0.00     0.044 C 
HETATM    9  C   UNL     1     -12.671   2.391 -33.267  1.00  0.00    -0.043 A 
HETATM   10  C   UNL     1     -11.670   3.130 -32.595  1.00  0.00    -0.001 A 
HETATM   11  C   UNL     1     -14.019   2.650 -32.986  1.00  0.00     0.044 A 
HETATM   12  C   UNL     1     -14.381   3.615 -32.041  1.00  0.00     0.068 A 
HETATM   13  C   UNL     1     -13.385   4.334 -31.379  1.00  0.00     0.037 A 
HETATM   14  C   UNL     1     -12.032   4.095 -31.654  1.00  0.00     0.017 A 
ENDROOT
BRANCH   1  15
HETATM   15  C   UNL     1      -7.579   0.822 -34.408  1.00  0.00     0.277 C 
HETATM   16  N   UNL     1      -7.354  -0.308 -33.642  1.00  0.00    -0.321 N 
HETATM   17  H   UNL     1      -7.887  -0.305 -32.778  1.00  0.00     0.169 HD
HETATM   18  O   UNL     1      -7.130   1.048 -35.525  1.00  0.00    -0.266 OA
BRANCH  16  19
HETATM   19  C   UNL     1      -6.549  -1.425 -33.942  1.00  0.00     0.043 A 
HETATM   20  C   UNL     1      -5.168  -1.375 -33.641  1.00  0.00    -0.035 A 
HETATM   21  C   UNL     1      -4.521  -0.181 -32.989  1.00  0.00     0.050 C 
HETATM   22  C   UNL     1      -4.346  -2.468 -33.977  1.00  0.00     0.012 A 
HETATM   23  C   UNL     1      -4.881  -3.602 -34.580  1.00  0.00     0.043 A 
HETATM   24  C   UNL     1      -6.238  -3.645 -34.855  1.00  0.00     0.118 A 
HETATM   25  C   UNL     1      -7.071  -2.576 -34.543  1.00  0.00     0.072 A 
HETATM   26  F   UNL     1      -6.753  -4.732 -35.446  1.00  0.00    -0.206 F 
ENDBRANCH  16  19
ENDBRANCH   1  15
BRANCH  12  27
HETATM   27  O   UNL     1     -15.730   3.757 -31.863  1.00  0.00    -0.356 OA
HETATM   28  C   UNL     1     -16.540   2.622 -32.138  1.00  0.00     0.210 C 
ENDBRANCH  12  27
TORSDOF 3
ENDMDL
MODEL 7
REMARK VINA RESULT:      -8.4      3.874      9.970
REMARK  3 active torsions:
REMARK  status: ('A' for Active; 'I' for Inactive)
REMARK    1  A    between atoms: C_3  and  N_4 
REMARK       I    between atoms: N_4  and  C_5 
REMARK    2  A    between atoms: C_5  and  C_6 
REMARK    3  A    between atoms: C_17  and  O_18 
ROOT
HETATM    1  C   UNL     1      -1.333   5.133 -31.210  1.00  0.00     0.153 A 
HETATM    2  N   UNL     1      -0.014   4.842 -31.291  1.00  0.00    -0.168 NA
HETATM    3  N   UNL     1       0.578   5.768 -30.506  1.00  0.00    -0.276 N 
HETATM    4  H   UNL     1       1.589   5.759 -30.429  1.00  0.00     0.189 HD
HETATM    5  C   UNL     1      -0.301   6.610 -29.900  1.00  0.00     0.069 A 
HETATM    6  C   UNL     1      -1.550   6.231 -30.340  1.00  0.00     0.007 A 
HETATM    7  C   UNL     1      -2.787   6.898 -29.852  1.00  0.00     0.048 C 
HETATM    8  C   UNL     1      -2.494   8.336 -29.363  1.00  0.00     0.044 C 
HETATM    9  C   UNL     1      -1.159   8.520 -28.651  1.00  0.00    -0.043 A 
HETATM   10  C   UNL     1      -0.054   7.696 -28.967  1.00  0.00    -0.001 A 
HETATM   11  C   UNL     1      -0.989   9.576 -27.745  1.00  0.00     0.044 A 
HETATM   12  C   UNL     1       0.250   9.811 -27.142  1.00  0.00     0.068 A 
HETATM   13  C   UNL     1       1.332   8.988 -27.457  1.00  0.00     0.037 A 
HETATM   14  C   UNL     1       1.184   7.933 -28.367  1.00  0.00     0.017 A 
ENDROOT
BRANCH   1  15
HETATM   15  C   UNL     1      -2.346   4.341 -31.939  1.00  0.00     0.277 C 
HETATM   16  N   UNL     1      -2.866   3.329 -31.151  1.00  0.00    -0.321 N 
HETATM   17  H   UNL     1      -2.491   3.339 -30.208  1.00  0.00     0.169 HD
HETATM   18  O   UNL     1      -2.672   4.612 -33.089  1.00  0.00    -0.266 OA
BRANCH  16  19
HETATM   19  C   UNL     1      -3.845   2.372 -31.486  1.00  0.00     0.043 A 
HETATM   20  C   UNL     1      -5.131   2.475 -30.907  1.00  0.00    -0.035 A 
HETATM   21  C   UNL     1      -5.510   3.584 -29.961  1.00  0.00     0.050 C 
HETATM   22  C   UNL     1      -6.102   1.498 -31.200  1.00  0.00     0.012 A 
HETATM   23  C   UNL     1      -5.816   0.448 -32.067  1.00  0.00     0.043 A 
HETATM   24  C   UNL     1      -4.557   0.367 -32.639  1.00  0.00     0.118 A 
HETATM   25  C   UNL     1      -3.576   1.312 -32.359  1.00  0.00     0.072 A 
HETATM   26  F   UNL     1      -4.278  -0.650 -33.466  1.00  0.00    -0.206 F 
ENDBRANCH  16  19
ENDBRANCH   1  15
BRANCH  12  27
HETATM   27  O   UNL     1       0.269  10.869 -26.275  1.00  0.00    -0.356 OA
HETATM   28  C   UNL     1       1.366  10.945 -25.374  1.00  0.00     0.210 C 
ENDBRANCH  12  27
TORSDOF 3
ENDMDL
MODEL 8
REMARK VINA RESULT:      -8.4     16.499     17.619
REMARK  3 active torsions:
REMARK  status: ('A' for Active; 'I' for Inactive)
REMARK    1  A    between atoms: C_3  and  N_4 
REMARK       I    between atoms: N_4  and  C_5 
REMARK    2  A    between atoms: C_5  and  C_6 
REMARK    3  A    between atoms: C_17  and  O_18 
ROOT
HETATM    1  C   UNL     1      -3.792 -13.079 -37.650  1.00  0.00     0.153 A 
HETATM    2  N   UNL     1      -4.313 -13.243 -36.412  1.00  0.00    -0.168 NA
HETATM    3  N   UNL     1      -5.648 -13.193 -36.605  1.00  0.00    -0.276 N 
HETATM    4  H   UNL     1      -6.255 -13.273 -35.797  1.00  0.00     0.189 HD
HETATM    5  C   UNL     1      -6.005 -13.041 -37.909  1.00  0.00     0.069 A 
HETATM    6  C   UNL     1      -4.825 -12.958 -38.614  1.00  0.00     0.007 A 
HETATM    7  C   UNL     1      -4.807 -12.834 -40.097  1.00  0.00     0.048 C 
HETATM    8  C   UNL     1      -6.121 -12.211 -40.624  1.00  0.00     0.044 C 
HETATM    9  C   UNL     1      -7.383 -12.629 -39.877  1.00  0.00    -0.043 A 
HETATM   10  C   UNL     1      -7.327 -12.982 -38.509  1.00  0.00    -0.001 A 
HETATM   11  C   UNL     1      -8.627 -12.569 -40.519  1.00  0.00     0.044 A 
HETATM   12  C   UNL     1      -9.805 -12.870 -39.828  1.00  0.00     0.068 A 
HETATM   13  C   UNL     1      -9.737 -13.224 -38.480  1.00  0.00     0.037 A 
HETATM   14  C   UNL     1      -8.503 -13.280 -37.819  1.00  0.00     0.017 A 
ENDROOT
BRANCH   1  15
HETATM   15  C   UNL     1      -2.332 -13.071 -37.881  1.00  0.00     0.277 C 
HETATM   16  N   UNL     1      -1.829 -14.354 -38.008  1.00  0.00    -0.321 N 
HETATM   17  H   UNL     1      -2.555 -15.063 -37.961  1.00  0.00     0.169 HD
HETATM   18  O   UNL     1      -1.699 -12.027 -37.973  1.00  0.00    -0.266 OA
BRANCH  16  19
HETATM   19  C   UNL     1      -0.498 -14.756 -38.233  1.00  0.00     0.043 A 
HETATM   20  C   UNL     1       0.049 -14.623 -39.530  1.00  0.00    -0.035 A 
HETATM   21  C   UNL     1      -0.728 -14.044 -40.684  1.00  0.00     0.050 C 
HETATM   22  C   UNL     1       1.363 -15.063 -39.777  1.00  0.00     0.012 A 
HETATM   23  C   UNL     1       2.136 -15.606 -38.754  1.00  0.00     0.043 A 
HETATM   24  C   UNL     1       1.594 -15.717 -37.484  1.00  0.00     0.118 A 
HETATM   25  C   UNL     1       0.295 -15.299 -37.216  1.00  0.00     0.072 A 
HETATM   26  F   UNL     1       2.332 -16.249 -36.501  1.00  0.00    -0.206 F 
ENDBRANCH  16  19
ENDBRANCH   1  15
BRANCH  12  27
HETATM   27  O   UNL     1     -10.944 -12.778 -40.580  1.00  0.00    -0.356 OA
HETATM   28  C   UNL     1     -11.588 -13.997 -40.926  1.00  0.00     0.210 C 
ENDBRANCH  12  27
TORSDOF 3
ENDMDL
MODEL 9
REMARK VINA RESULT:      -8.3     17.069     18.827
REMARK  3 active torsions:
REMARK  status: ('A' for Active; 'I' for Inactive)
REMARK    1  A    between atoms: C_3  and  N_4 
REMARK       I    between atoms: N_4  and  C_5 
REMARK    2  A    between atoms: C_5  and  C_6 
REMARK    3  A    between atoms: C_17  and  O_18 
ROOT
HETATM    1  C   UNL     1      -4.736 -13.242 -39.932  1.00  0.00     0.153 A 
HETATM    2  N   UNL     1      -4.317 -13.230 -41.219  1.00  0.00    -0.168 NA
HETATM    3  N   UNL     1      -3.022 -13.607 -41.148  1.00  0.00    -0.276 N 
HETATM    4  H   UNL     1      -2.485 -13.650 -42.007  1.00  0.00     0.189 HD
HETATM    5  C   UNL     1      -2.606 -13.894 -39.885  1.00  0.00     0.069 A 
HETATM    6  C   UNL     1      -3.692 -13.661 -39.070  1.00  0.00     0.007 A 
HETATM    7  C   UNL     1      -3.638 -13.913 -37.604  1.00  0.00     0.048 C 
HETATM    8  C   UNL     1      -2.186 -13.837 -37.075  1.00  0.00     0.044 C 
HETATM    9  C   UNL     1      -1.122 -14.392 -38.016  1.00  0.00    -0.043 A 
HETATM   10  C   UNL     1      -1.313 -14.361 -39.417  1.00  0.00    -0.001 A 
HETATM   11  C   UNL     1       0.098 -14.847 -37.500  1.00  0.00     0.044 A 
HETATM   12  C   UNL     1       1.117 -15.284 -38.351  1.00  0.00     0.068 A 
HETATM   13  C   UNL     1       0.916 -15.256 -39.732  1.00  0.00     0.037 A 
HETATM   14  C   UNL     1      -0.294 -14.795 -40.266  1.00  0.00     0.017 A 
ENDROOT
BRANCH   1  15
HETATM   15  C   UNL     1      -6.123 -12.881 -39.567  1.00  0.00     0.277 C 
HETATM   16  N   UNL     1      -7.043 -13.479 -40.410  1.00  0.00    -0.321 N 
HETATM   17  H   UNL     1      -6.605 -14.086 -41.096  1.00  0.00     0.169 HD
HETATM   18  O   UNL     1      -6.372 -12.164 -38.606  1.00  0.00    -0.266 OA
BRANCH  16  19
HETATM   19  C   UNL     1      -8.449 -13.380 -40.386  1.00  0.00     0.043 A 
HETATM   20  C   UNL     1      -9.220 -14.563 -40.454  1.00  0.00    -0.035 A 
HETATM   21  C   UNL     1      -8.602 -15.934 -40.528  1.00  0.00     0.050 C 
HETATM   22  C   UNL     1     -10.625 -14.473 -40.475  1.00  0.00     0.012 A 
HETATM   23  C   UNL     1     -11.260 -13.236 -40.409  1.00  0.00     0.043 A 
HETATM   24  C   UNL     1     -10.493 -12.086 -40.327  1.00  0.00     0.118 A 
HETATM   25  C   UNL     1      -9.104 -12.146 -40.314  1.00  0.00     0.072 A 
HETATM   26  F   UNL     1     -11.103 -10.894 -40.273  1.00  0.00    -0.206 F 
ENDBRANCH  16  19
ENDBRANCH   1  15
BRANCH  12  27
HETATM   27  O   UNL     1       2.250 -15.707 -37.711  1.00  0.00    -0.356 OA
HETATM   28  C   UNL     1       2.074 -16.410 -36.487  1.00  0.00     0.210 C 
ENDBRANCH  12  27
TORSDOF 3
ENDMDL
MODEL 10
REMARK VINA RESULT:      -8.3      4.026      8.654
REMARK  3 active torsions:
REMARK  status: ('A' for Active; 'I' for Inactive)
REMARK    1  A    between atoms: C_3  and  N_4 
REMARK       I    between atoms: N_4  and  C_5 
REMARK    2  A    between atoms: C_5  and  C_6 
REMARK    3  A    between atoms: C_17  and  O_18 
ROOT
HETATM    1  C   UNL     1      -4.197   1.499 -31.297  1.00  0.00     0.153 A 
HETATM    2  N   UNL     1      -3.122   2.310 -31.431  1.00  0.00    -0.168 NA
HETATM    3  N   UNL     1      -3.543   3.500 -30.950  1.00  0.00    -0.276 N 
HETATM    4  H   UNL     1      -2.900   4.282 -30.970  1.00  0.00     0.189 HD
HETATM    5  C   UNL     1      -4.821   3.477 -30.483  1.00  0.00     0.069 A 
HETATM    6  C   UNL     1      -5.277   2.195 -30.699  1.00  0.00     0.007 A 
HETATM    7  C   UNL     1      -6.636   1.766 -30.270  1.00  0.00     0.048 C 
HETATM    8  C   UNL     1      -7.599   2.972 -30.170  1.00  0.00     0.044 C 
HETATM    9  C   UNL     1      -6.974   4.263 -29.652  1.00  0.00    -0.043 A 
HETATM   10  C   UNL     1      -5.602   4.534 -29.865  1.00  0.00    -0.001 A 
HETATM   11  C   UNL     1      -7.779   5.236 -29.046  1.00  0.00     0.044 A 
HETATM   12  C   UNL     1      -7.240   6.459 -28.638  1.00  0.00     0.068 A 
HETATM   13  C   UNL     1      -5.883   6.714 -28.847  1.00  0.00     0.037 A 
HETATM   14  C   UNL     1      -5.065   5.756 -29.460  1.00  0.00     0.017 A 
ENDROOT
BRANCH   1  15
HETATM   15  C   UNL     1      -4.153   0.082 -31.716  1.00  0.00     0.277 C 
HETATM   16  N   UNL     1      -4.970  -0.151 -32.809  1.00  0.00    -0.321 N 
HETATM   17  H   UNL     1      -5.416   0.695 -33.149  1.00  0.00     0.169 HD
HETATM   18  O   UNL     1      -3.439  -0.737 -31.151  1.00  0.00    -0.266 OA
BRANCH  16  19
HETATM   19  C   UNL     1      -5.195  -1.362 -33.493  1.00  0.00     0.043 A 
HETATM   20  C   UNL     1      -6.488  -1.636 -33.995  1.00  0.00    -0.035 A 
HETATM   21  C   UNL     1      -7.637  -0.673 -33.850  1.00  0.00     0.050 C 
HETATM   22  C   UNL     1      -6.735  -2.862 -34.642  1.00  0.00     0.012 A 
HETATM   23  C   UNL     1      -5.716  -3.796 -34.810  1.00  0.00     0.043 A 
HETATM   24  C   UNL     1      -4.450  -3.509 -34.327  1.00  0.00     0.118 A 
HETATM   25  C   UNL     1      -4.181  -2.310 -33.676  1.00  0.00     0.072 A 
HETATM   26  F   UNL     1      -3.471  -4.412 -34.479  1.00  0.00    -0.206 F 
ENDBRANCH  16  19
ENDBRANCH   1  15
BRANCH  12  27
HETATM   27  O   UNL     1      -8.138   7.310 -28.055  1.00  0.00    -0.356 OA
HETATM   28  C   UNL     1      -7.692   8.632 -27.782  1.00  0.00     0.210 C 
ENDBRANCH  12  27
TORSDOF 3
ENDMDL
