MODEL 1
REMARK VINA RESULT:      -8.1      0.000      0.000
REMARK  7 active torsions:
REMARK  status: ('A' for Active; 'I' for Inactive)
REMARK    1  A    between atoms: C_2  and  C_3 
REMARK    2  A    between atoms: C_6  and  O_7 
REMARK    3  A    between atoms: O_7  and  C_8 
REMARK    4  A    between atoms: C_8  and  C_9 
REMARK       I    between atoms: C_9  and  N_10 
REMARK    5  A    between atoms: N_10  and  N_11 
REMARK       I    between atoms: N_11  and  C_12 
REMARK    6  A    between atoms: C_12  and  C_13 
REMARK    7  A    between atoms: C_16  and  N_17 
ROOT
HETATM    1  N   UNL     1      -5.339   2.931 -29.621  1.00  0.00    -0.263 N 
HETATM    2  C   UNL     1      -4.453   2.841 -30.679  1.00  0.00     0.270 C 
HETATM    3  O   UNL     1      -3.765   3.779 -31.067  1.00  0.00    -0.266 OA
HETATM    4  H   UNL     1      -6.079   2.248 -29.501  1.00  0.00     0.190 HD
ENDROOT
BRANCH   1   5
HETATM    5  N   UNL     1      -5.525   4.187 -29.031  1.00  0.00    -0.265 N 
HETATM    6  C   UNL     1      -6.765   4.781 -28.947  1.00  0.00     0.260 C 
HETATM    7  O   UNL     1      -6.928   5.782 -28.247  1.00  0.00    -0.269 OA
HETATM    8  H   UNL     1      -4.868   4.442 -28.294  1.00  0.00     0.190 HD
BRANCH   6   9
HETATM    9  C   UNL     1      -7.885   4.207 -29.808  1.00  0.00     0.280 C 
BRANCH   9  10
HETATM   10  O   UNL     1      -7.679   4.602 -31.157  1.00  0.00    -0.342 OA
BRANCH  10  11
HETATM   11  C   UNL     1      -7.586   3.619 -32.098  1.00  0.00     0.069 A 
HETATM   12  C   UNL     1      -6.648   3.868 -33.100  1.00  0.00     0.037 A 
HETATM   13  C   UNL     1      -6.446   2.950 -34.132  1.00  0.00     0.010 A 
HETATM   14  C   UNL     1      -7.193   1.768 -34.179  1.00  0.00    -0.058 A 
HETATM   15  C   UNL     1      -8.130   1.518 -33.168  1.00  0.00     0.010 A 
HETATM   16  C   UNL     1      -8.326   2.440 -32.132  1.00  0.00     0.037 A 
BRANCH  14  17
HETATM   17  C   UNL     1      -6.961   0.763 -35.277  1.00  0.00     0.034 C 
HETATM   18  C   UNL     1      -7.759  -0.513 -35.054  1.00  0.00     0.010 C 
ENDBRANCH  14  17
ENDBRANCH  10  11
ENDBRANCH   9  10
ENDBRANCH   6   9
ENDBRANCH   1   5
BRANCH   2  19
HETATM   19  C   UNL     1      -4.449   1.542 -31.404  1.00  0.00     0.033 A 
HETATM   20  C   UNL     1      -5.380   0.573 -31.027  1.00  0.00     0.019 A 
HETATM   21  C   UNL     1      -5.361  -0.688 -31.629  1.00  0.00     0.032 A 
HETATM   22  C   UNL     1      -4.411  -1.006 -32.620  1.00  0.00     0.058 A 
HETATM   23  C   UNL     1      -3.524  -0.008 -33.035  1.00  0.00     0.032 A 
HETATM   24  C   UNL     1      -3.541   1.260 -32.431  1.00  0.00     0.019 A 
BRANCH  22  25
HETATM   25  N   UNL     1      -4.410  -2.334 -33.161  1.00  0.00    -0.238 N 
HETATM   26  N   UNL     1      -5.305  -2.631 -34.147  1.00  0.00    -0.172 NA
HETATM   27  C   UNL     1      -5.063  -3.892 -34.498  1.00  0.00     0.053 A 
HETATM   28  C   UNL     1      -5.854  -4.542 -35.569  1.00  0.00     0.072 C 
HETATM   29  C   UNL     1      -4.041  -4.453 -33.718  1.00  0.00     0.055 A 
HETATM   30  C   UNL     1      -3.654  -3.461 -32.838  1.00  0.00     0.035 A 
HETATM   31  C   UNL     1      -2.676  -3.590 -31.730  1.00  0.00     0.070 C 
ENDBRANCH  22  25
ENDBRANCH   2  19
TORSDOF 7
ENDMDL
MODEL 2
REMARK VINA RESULT:      -7.7      1.146      2.300
REMARK  7 active torsions:
REMARK  status: ('A' for Active; 'I' for Inactive)
REMARK    1  A    between atoms: C_2  and  C_3 
REMARK    2  A    between atoms: C_6  and  O_7 
REMARK    3  A    between atoms: O_7  and  C_8 
REMARK    4  A    between atoms: C_8  and  C_9 
REMARK       I    between atoms: C_9  and  N_10 
REMARK    5  A    between atoms: N_10  and  N_11 
REMARK       I    between atoms: N_11  and  C_12 
REMARK    6  A    between atoms: C_12  and  C_13 
REMARK    7  A    between atoms: C_16  and  N_17 
ROOT
HETATM    1  N   UNL     1      -5.253   3.563 -29.160  1.00  0.00    -0.263 N 
HETATM    2  C   UNL     1      -4.628   3.475 -30.392  1.00  0.00     0.270 C 
HETATM    3  O   UNL     1      -4.114   4.433 -30.959  1.00  0.00    -0.266 OA
HETATM    4  H   UNL     1      -5.897   2.843 -28.851  1.00  0.00     0.190 HD
ENDROOT
BRANCH   1   5
HETATM    5  N   UNL     1      -5.385   4.832 -28.585  1.00  0.00    -0.265 N 
HETATM    6  C   UNL     1      -6.614   5.428 -28.399  1.00  0.00     0.260 C 
HETATM    7  O   UNL     1      -6.712   6.444 -27.710  1.00  0.00    -0.269 OA
HETATM    8  H   UNL     1      -4.662   5.104 -27.919  1.00  0.00     0.190 HD
BRANCH   6   9
HETATM    9  C   UNL     1      -7.808   4.834 -29.137  1.00  0.00     0.280 C 
BRANCH   9  10
HETATM   10  O   UNL     1      -7.642   5.050 -30.532  1.00  0.00    -0.342 OA
BRANCH  10  11
HETATM   11  C   UNL     1      -8.024   4.051 -31.377  1.00  0.00     0.069 A 
HETATM   12  C   UNL     1      -8.920   3.137 -30.821  1.00  0.00     0.037 A 
HETATM   13  C   UNL     1      -9.396   2.059 -31.569  1.00  0.00     0.010 A 
HETATM   14  C   UNL     1      -8.971   1.875 -32.889  1.00  0.00    -0.058 A 
HETATM   15  C   UNL     1      -8.076   2.798 -33.446  1.00  0.00     0.010 A 
HETATM   16  C   UNL     1      -7.604   3.880 -32.694  1.00  0.00     0.037 A 
BRANCH  14  17
HETATM   17  C   UNL     1      -9.501   0.728 -33.708  1.00  0.00     0.034 C 
HETATM   18  C   UNL     1     -10.919   0.351 -33.305  1.00  0.00     0.010 C 
ENDBRANCH  14  17
ENDBRANCH  10  11
ENDBRANCH   9  10
ENDBRANCH   6   9
ENDBRANCH   1   5
BRANCH   2  19
HETATM   19  C   UNL     1      -4.701   2.146 -31.056  1.00  0.00     0.033 A 
HETATM   20  C   UNL     1      -3.705   1.811 -31.975  1.00  0.00     0.019 A 
HETATM   21  C   UNL     1      -3.778   0.606 -32.678  1.00  0.00     0.032 A 
HETATM   22  C   UNL     1      -4.847  -0.289 -32.477  1.00  0.00     0.058 A 
HETATM   23  C   UNL     1      -5.805   0.027 -31.508  1.00  0.00     0.032 A 
HETATM   24  C   UNL     1      -5.734   1.238 -30.801  1.00  0.00     0.019 A 
BRANCH  22  25
HETATM   25  N   UNL     1      -4.891  -1.485 -33.267  1.00  0.00    -0.238 N 
HETATM   26  N   UNL     1      -3.974  -2.463 -33.012  1.00  0.00    -0.172 NA
HETATM   27  C   UNL     1      -4.264  -3.465 -33.839  1.00  0.00     0.053 A 
HETATM   28  C   UNL     1      -3.464  -4.712 -33.822  1.00  0.00     0.072 C 
HETATM   29  C   UNL     1      -5.341  -3.142 -34.677  1.00  0.00     0.055 A 
HETATM   30  C   UNL     1      -5.714  -1.857 -34.331  1.00  0.00     0.035 A 
HETATM   31  C   UNL     1      -6.738  -1.020 -34.999  1.00  0.00     0.070 C 
ENDBRANCH  22  25
ENDBRANCH   2  19
TORSDOF 7
ENDMDL
MODEL 3
REMARK VINA RESULT:      -7.5      1.820      2.791
REMARK  7 active torsions:
REMARK  status: ('A' for Active; 'I' for Inactive)
REMARK    1  A    between atoms: C_2  and  C_3 
REMARK    2  A    between atoms: C_6  and  O_7 
REMARK    3  A    between atoms: O_7  and  C_8 
REMARK    4  A    between atoms: C_8  and  C_9 
REMARK       I    between atoms: C_9  and  N_10 
REMARK    5  A    between atoms: N_10  and  N_11 
REMARK       I    between atoms: N_11  and  C_12 
REMARK    6  A    between atoms: C_12  and  C_13 
REMARK    7  A    between atoms: C_16  and  N_17 
ROOT
HETATM    1  N   UNL     1      -3.883   4.139 -30.872  1.00  0.00    -0.263 N 
HETATM    2  C   UNL     1      -4.882   3.279 -30.449  1.00  0.00     0.270 C 
HETATM    3  O   UNL     1      -5.664   3.545 -29.543  1.00  0.00    -0.266 OA
HETATM    4  H   UNL     1      -3.096   3.796 -31.413  1.00  0.00     0.190 HD
ENDROOT
BRANCH   1   5
HETATM    5  N   UNL     1      -3.701   5.329 -30.158  1.00  0.00    -0.265 N 
HETATM    6  C   UNL     1      -3.929   6.564 -30.723  1.00  0.00     0.260 C 
HETATM    7  O   UNL     1      -3.959   7.573 -30.016  1.00  0.00    -0.269 OA
HETATM    8  H   UNL     1      -3.840   5.276 -29.149  1.00  0.00     0.190 HD
BRANCH   6   9
HETATM    9  C   UNL     1      -4.058   6.637 -32.240  1.00  0.00     0.280 C 
BRANCH   9  10
HETATM   10  O   UNL     1      -5.436   6.661 -32.585  1.00  0.00    -0.342 OA
BRANCH  10  11
HETATM   11  C   UNL     1      -6.005   5.493 -32.999  1.00  0.00     0.069 A 
HETATM   12  C   UNL     1      -7.216   5.190 -32.375  1.00  0.00     0.037 A 
HETATM   13  C   UNL     1      -7.913   4.024 -32.696  1.00  0.00     0.010 A 
HETATM   14  C   UNL     1      -7.397   3.135 -33.645  1.00  0.00    -0.058 A 
HETATM   15  C   UNL     1      -6.184   3.445 -34.275  1.00  0.00     0.010 A 
HETATM   16  C   UNL     1      -5.491   4.617 -33.952  1.00  0.00     0.037 A 
BRANCH  14  17
HETATM   17  C   UNL     1      -8.157   1.888 -34.014  1.00  0.00     0.034 C 
HETATM   18  C   UNL     1      -9.001   1.376 -32.857  1.00  0.00     0.010 C 
ENDBRANCH  14  17
ENDBRANCH  10  11
ENDBRANCH   9  10
ENDBRANCH   6   9
ENDBRANCH   1   5
BRANCH   2  19
HETATM   19  C   UNL     1      -4.897   1.943 -31.101  1.00  0.00     0.033 A 
HETATM   20  C   UNL     1      -3.891   1.645 -32.022  1.00  0.00     0.019 A 
HETATM   21  C   UNL     1      -3.912   0.431 -32.714  1.00  0.00     0.032 A 
HETATM   22  C   UNL     1      -4.939  -0.509 -32.501  1.00  0.00     0.058 A 
HETATM   23  C   UNL     1      -5.907  -0.228 -31.531  1.00  0.00     0.032 A 
HETATM   24  C   UNL     1      -5.888   0.991 -30.834  1.00  0.00     0.019 A 
BRANCH  22  25
HETATM   25  N   UNL     1      -4.932  -1.713 -33.281  1.00  0.00    -0.238 N 
HETATM   26  N   UNL     1      -3.941  -2.623 -33.056  1.00  0.00    -0.172 NA
HETATM   27  C   UNL     1      -4.194  -3.650 -33.864  1.00  0.00     0.053 A 
HETATM   28  C   UNL     1      -3.310  -4.839 -33.871  1.00  0.00     0.072 C 
HETATM   29  C   UNL     1      -5.322  -3.410 -34.661  1.00  0.00     0.055 A 
HETATM   30  C   UNL     1      -5.768  -2.150 -34.308  1.00  0.00     0.035 A 
HETATM   31  C   UNL     1      -6.874  -1.391 -34.941  1.00  0.00     0.070 C 
ENDBRANCH  22  25
ENDBRANCH   2  19
TORSDOF 7
ENDMDL
MODEL 4
REMARK VINA RESULT:      -7.5      2.905      6.918
REMARK  7 active torsions:
REMARK  status: ('A' for Active; 'I' for Inactive)
REMARK    1  A    between atoms: C_2  and  C_3 
REMARK    2  A    between atoms: C_6  and  O_7 
REMARK    3  A    between atoms: O_7  and  C_8 
REMARK    4  A    between atoms: C_8  and  C_9 
REMARK       I    between atoms: C_9  and  N_10 
REMARK    5  A    between atoms: N_10  and  N_11 
REMARK       I    between atoms: N_11  and  C_12 
REMARK    6  A    between atoms: C_12  and  C_13 
REMARK    7  A    between atoms: C_16  and  N_17 
ROOT
HETATM    1  N   UNL     1      -4.336  -2.195 -33.804  1.00  0.00    -0.263 N 
HETATM    2  C   UNL     1      -3.864  -1.875 -32.543  1.00  0.00     0.270 C 
HETATM    3  O   UNL     1      -3.369  -2.696 -31.778  1.00  0.00    -0.266 OA
HETATM    4  H   UNL     1      -4.976  -1.578 -34.292  1.00  0.00     0.190 HD
ENDROOT
BRANCH   1   5
HETATM    5  N   UNL     1      -4.333  -3.544 -34.179  1.00  0.00    -0.265 N 
HETATM    6  C   UNL     1      -5.455  -4.167 -34.680  1.00  0.00     0.260 C 
HETATM    7  O   UNL     1      -5.368  -5.285 -35.189  1.00  0.00    -0.269 OA
HETATM    8  H   UNL     1      -3.443  -3.921 -34.501  1.00  0.00     0.190 HD
BRANCH   6   9
HETATM    9  C   UNL     1      -6.795  -3.461 -34.505  1.00  0.00     0.280 C 
BRANCH   9  10
HETATM   10  O   UNL     1      -6.763  -2.229 -35.212  1.00  0.00    -0.342 OA
BRANCH  10  11
HETATM   11  C   UNL     1      -7.144  -1.104 -34.542  1.00  0.00     0.069 A 
HETATM   12  C   UNL     1      -6.736   0.089 -35.140  1.00  0.00     0.037 A 
HETATM   13  C   UNL     1      -7.052   1.320 -34.564  1.00  0.00     0.010 A 
HETATM   14  C   UNL     1      -7.778   1.373 -33.369  1.00  0.00    -0.058 A 
HETATM   15  C   UNL     1      -8.192   0.174 -32.775  1.00  0.00     0.010 A 
HETATM   16  C   UNL     1      -7.876  -1.059 -33.357  1.00  0.00     0.037 A 
BRANCH  14  17
HETATM   17  C   UNL     1      -8.143   2.701 -32.757  1.00  0.00     0.034 C 
HETATM   18  C   UNL     1      -8.575   2.554 -31.306  1.00  0.00     0.010 C 
ENDBRANCH  14  17
ENDBRANCH  10  11
ENDBRANCH   9  10
ENDBRANCH   6   9
ENDBRANCH   1   5
BRANCH   2  19
HETATM   19  C   UNL     1      -4.083  -0.468 -32.114  1.00  0.00     0.033 A 
HETATM   20  C   UNL     1      -4.973  -0.228 -31.066  1.00  0.00     0.019 A 
HETATM   21  C   UNL     1      -5.267   1.083 -30.682  1.00  0.00     0.032 A 
HETATM   22  C   UNL     1      -4.677   2.181 -31.338  1.00  0.00     0.058 A 
HETATM   23  C   UNL     1      -3.739   1.929 -32.345  1.00  0.00     0.032 A 
HETATM   24  C   UNL     1      -3.443   0.612 -32.732  1.00  0.00     0.019 A 
BRANCH  22  25
HETATM   25  N   UNL     1      -5.060   3.503 -30.932  1.00  0.00    -0.238 N 
HETATM   26  N   UNL     1      -5.383   3.708 -29.623  1.00  0.00    -0.172 NA
HETATM   27  C   UNL     1      -5.648   5.007 -29.508  1.00  0.00     0.053 A 
HETATM   28  C   UNL     1      -6.027   5.587 -28.198  1.00  0.00     0.072 C 
HETATM   29  C   UNL     1      -5.549   5.661 -30.744  1.00  0.00     0.055 A 
HETATM   30  C   UNL     1      -5.208   4.684 -31.660  1.00  0.00     0.035 A 
HETATM   31  C   UNL     1      -5.089   4.846 -33.129  1.00  0.00     0.070 C 
ENDBRANCH  22  25
ENDBRANCH   2  19
TORSDOF 7
ENDMDL
MODEL 5
REMARK VINA RESULT:      -7.4      3.493      7.063
REMARK  7 active torsions:
REMARK  status: ('A' for Active; 'I' for Inactive)
REMARK    1  A    between atoms: C_2  and  C_3 
REMARK    2  A    between atoms: C_6  and  O_7 
REMARK    3  A    between atoms: O_7  and  C_8 
REMARK    4  A    between atoms: C_8  and  C_9 
REMARK       I    between atoms: C_9  and  N_10 
REMARK    5  A    between atoms: N_10  and  N_11 
REMARK       I    between atoms: N_11  and  C_12 
REMARK    6  A    between atoms: C_12  and  C_13 
REMARK    7  A    between atoms: C_16  and  N_17 
ROOT
HETATM    1  N   UNL     1      -7.534   2.143 -32.160  1.00  0.00    -0.263 N 
HETATM    2  C   UNL     1      -6.373   1.831 -31.474  1.00  0.00     0.270 C 
HETATM    3  O   UNL     1      -6.260   0.847 -30.750  1.00  0.00    -0.266 OA
HETATM    4  H   UNL     1      -7.692   3.079 -32.516  1.00  0.00     0.190 HD
ENDROOT
BRANCH   1   5
HETATM    5  N   UNL     1      -8.661   1.345 -31.933  1.00  0.00    -0.265 N 
HETATM    6  C   UNL     1      -9.109   0.429 -32.861  1.00  0.00     0.260 C 
HETATM    7  O   UNL     1      -9.971  -0.395 -32.552  1.00  0.00    -0.269 OA
HETATM    8  H   UNL     1      -8.865   1.118 -30.961  1.00  0.00     0.190 HD
BRANCH   6   9
HETATM    9  C   UNL     1      -8.563   0.534 -34.280  1.00  0.00     0.280 C 
BRANCH   9  10
HETATM   10  O   UNL     1      -7.145   0.461 -34.235  1.00  0.00    -0.342 OA
BRANCH  10  11
HETATM   11  C   UNL     1      -6.572  -0.775 -34.295  1.00  0.00     0.069 A 
HETATM   12  C   UNL     1      -5.246  -0.817 -33.862  1.00  0.00     0.037 A 
HETATM   13  C   UNL     1      -4.530  -2.015 -33.869  1.00  0.00     0.010 A 
HETATM   14  C   UNL     1      -5.134  -3.193 -34.322  1.00  0.00    -0.058 A 
HETATM   15  C   UNL     1      -6.467  -3.149 -34.750  1.00  0.00     0.010 A 
HETATM   16  C   UNL     1      -7.183  -1.946 -34.738  1.00  0.00     0.037 A 
BRANCH  14  17
HETATM   17  C   UNL     1      -4.374  -4.494 -34.308  1.00  0.00     0.034 C 
HETATM   18  C   UNL     1      -3.435  -4.588 -33.115  1.00  0.00     0.010 C 
ENDBRANCH  14  17
ENDBRANCH  10  11
ENDBRANCH   9  10
ENDBRANCH   6   9
ENDBRANCH   1   5
BRANCH   2  19
HETATM   19  C   UNL     1      -5.274   2.826 -31.584  1.00  0.00     0.033 A 
HETATM   20  C   UNL     1      -3.958   2.369 -31.501  1.00  0.00     0.019 A 
HETATM   21  C   UNL     1      -2.898   3.280 -31.522  1.00  0.00     0.032 A 
HETATM   22  C   UNL     1      -3.131   4.665 -31.626  1.00  0.00     0.058 A 
HETATM   23  C   UNL     1      -4.451   5.107 -31.772  1.00  0.00     0.032 A 
HETATM   24  C   UNL     1      -5.518   4.194 -31.751  1.00  0.00     0.019 A 
BRANCH  22  25
HETATM   25  N   UNL     1      -2.004   5.550 -31.589  1.00  0.00    -0.238 N 
HETATM   26  N   UNL     1      -1.534   5.948 -30.372  1.00  0.00    -0.172 NA
HETATM   27  C   UNL     1      -0.473   6.713 -30.618  1.00  0.00     0.053 A 
HETATM   28  C   UNL     1       0.300   7.311 -29.504  1.00  0.00     0.072 C 
HETATM   29  C   UNL     1      -0.260   6.865 -31.995  1.00  0.00     0.055 A 
HETATM   30  C   UNL     1      -1.267   6.149 -32.612  1.00  0.00     0.035 A 
HETATM   31  C   UNL     1      -1.547   6.082 -34.067  1.00  0.00     0.070 C 
ENDBRANCH  22  25
ENDBRANCH   2  19
TORSDOF 7
ENDMDL
MODEL 6
REMARK VINA RESULT:      -7.4      3.489      6.550
REMARK  7 active torsions:
REMARK  status: ('A' for Active; 'I' for Inactive)
REMARK    1  A    between atoms: C_2  and  C_3 
REMARK    2  A    between atoms: C_6  and  O_7 
REMARK    3  A    between atoms: O_7  and  C_8 
REMARK    4  A    between atoms: C_8  and  C_9 
REMARK       I    between atoms: C_9  and  N_10 
REMARK    5  A    between atoms: N_10  and  N_11 
REMARK       I    between atoms: N_11  and  C_12 
REMARK    6  A    between atoms: C_12  and  C_13 
REMARK    7  A    between atoms: C_16  and  N_17 
ROOT
HETATM    1  N   UNL     1      -5.504  -0.494 -31.791  1.00  0.00    -0.263 N 
HETATM    2  C   UNL     1      -5.945  -0.589 -33.099  1.00  0.00     0.270 C 
HETATM    3  O   UNL     1      -5.240  -0.980 -34.023  1.00  0.00    -0.266 OA
HETATM    4  H   UNL     1      -5.998   0.079 -31.115  1.00  0.00     0.190 HD
ENDROOT
BRANCH   1   5
HETATM    5  N   UNL     1      -4.154  -0.766 -31.536  1.00  0.00    -0.265 N 
HETATM    6  C   UNL     1      -3.237   0.235 -31.303  1.00  0.00     0.260 C 
HETATM    7  O   UNL     1      -2.112  -0.040 -30.883  1.00  0.00    -0.269 OA
HETATM    8  H   UNL     1      -3.950  -1.659 -31.088  1.00  0.00     0.190 HD
BRANCH   6   9
HETATM    9  C   UNL     1      -3.638   1.661 -31.662  1.00  0.00     0.280 C 
BRANCH   9  10
HETATM   10  O   UNL     1      -4.514   2.160 -30.660  1.00  0.00    -0.342 OA
BRANCH  10  11
HETATM   11  C   UNL     1      -5.684   2.729 -31.067  1.00  0.00     0.069 A 
HETATM   12  C   UNL     1      -6.640   2.865 -30.060  1.00  0.00     0.037 A 
HETATM   13  C   UNL     1      -7.887   3.428 -30.332  1.00  0.00     0.010 A 
HETATM   14  C   UNL     1      -8.199   3.859 -31.626  1.00  0.00    -0.058 A 
HETATM   15  C   UNL     1      -7.235   3.727 -32.634  1.00  0.00     0.010 A 
HETATM   16  C   UNL     1      -5.983   3.165 -32.356  1.00  0.00     0.037 A 
BRANCH  14  17
HETATM   17  C   UNL     1      -9.535   4.491 -31.919  1.00  0.00     0.034 C 
HETATM   18  C   UNL     1     -10.662   3.813 -31.156  1.00  0.00     0.010 C 
ENDBRANCH  14  17
ENDBRANCH  10  11
ENDBRANCH   9  10
ENDBRANCH   6   9
ENDBRANCH   1   5
BRANCH   2  19
HETATM   19  C   UNL     1      -7.323  -0.089 -33.349  1.00  0.00     0.033 A 
HETATM   20  C   UNL     1      -7.676   0.248 -34.658  1.00  0.00     0.019 A 
HETATM   21  C   UNL     1      -8.933   0.795 -34.925  1.00  0.00     0.032 A 
HETATM   22  C   UNL     1      -9.864   1.017 -33.891  1.00  0.00     0.058 A 
HETATM   23  C   UNL     1      -9.524   0.618 -32.594  1.00  0.00     0.032 A 
HETATM   24  C   UNL     1      -8.260   0.069 -32.323  1.00  0.00     0.019 A 
BRANCH  22  25
HETATM   25  N   UNL     1     -11.117   1.630 -34.224  1.00  0.00    -0.238 N 
HETATM   26  N   UNL     1     -11.109   2.924 -34.654  1.00  0.00    -0.172 NA
HETATM   27  C   UNL     1     -12.375   3.227 -34.935  1.00  0.00     0.053 A 
HETATM   28  C   UNL     1     -12.733   4.570 -35.448  1.00  0.00     0.072 C 
HETATM   29  C   UNL     1     -13.233   2.155 -34.651  1.00  0.00     0.055 A 
HETATM   30  C   UNL     1     -12.425   1.148 -34.160  1.00  0.00     0.035 A 
HETATM   31  C   UNL     1     -12.867  -0.158 -33.613  1.00  0.00     0.070 C 
ENDBRANCH  22  25
ENDBRANCH   2  19
TORSDOF 7
ENDMDL
MODEL 7
REMARK VINA RESULT:      -7.4      3.471      6.493
REMARK  7 active torsions:
REMARK  status: ('A' for Active; 'I' for Inactive)
REMARK    1  A    between atoms: C_2  and  C_3 
REMARK    2  A    between atoms: C_6  and  O_7 
REMARK    3  A    between atoms: O_7  and  C_8 
REMARK    4  A    between atoms: C_8  and  C_9 
REMARK       I    between atoms: C_9  and  N_10 
REMARK    5  A    between atoms: N_10  and  N_11 
REMARK       I    between atoms: N_11  and  C_12 
REMARK    6  A    between atoms: C_12  and  C_13 
REMARK    7  A    between atoms: C_16  and  N_17 
ROOT
HETATM    1  N   UNL     1      -5.225   3.520 -32.754  1.00  0.00    -0.263 N 
HETATM    2  C   UNL     1      -5.980   4.041 -33.790  1.00  0.00     0.270 C 
HETATM    3  O   UNL     1      -5.565   4.892 -34.569  1.00  0.00    -0.266 OA
HETATM    4  H   UNL     1      -5.667   3.041 -31.977  1.00  0.00     0.190 HD
ENDROOT
BRANCH   1   5
HETATM    5  N   UNL     1      -3.957   4.069 -32.531  1.00  0.00    -0.265 N 
HETATM    6  C   UNL     1      -2.992   3.412 -31.799  1.00  0.00     0.260 C 
HETATM    7  O   UNL     1      -1.831   3.823 -31.794  1.00  0.00    -0.269 OA
HETATM    8  H   UNL     1      -3.606   4.701 -33.250  1.00  0.00     0.190 HD
BRANCH   6   9
HETATM    9  C   UNL     1      -3.434   2.228 -30.947  1.00  0.00     0.280 C 
BRANCH   9  10
HETATM   10  O   UNL     1      -2.959   1.028 -31.543  1.00  0.00    -0.342 OA
BRANCH  10  11
HETATM   11  C   UNL     1      -3.858   0.261 -32.224  1.00  0.00     0.069 A 
HETATM   12  C   UNL     1      -5.130   0.219 -31.652  1.00  0.00     0.037 A 
HETATM   13  C   UNL     1      -6.151  -0.529 -32.239  1.00  0.00     0.010 A 
HETATM   14  C   UNL     1      -5.909  -1.256 -33.409  1.00  0.00    -0.058 A 
HETATM   15  C   UNL     1      -4.633  -1.206 -33.985  1.00  0.00     0.010 A 
HETATM   16  C   UNL     1      -3.611  -0.452 -33.395  1.00  0.00     0.037 A 
BRANCH  14  17
HETATM   17  C   UNL     1      -7.015  -2.045 -34.060  1.00  0.00     0.034 C 
HETATM   18  C   UNL     1      -6.498  -3.325 -34.698  1.00  0.00     0.010 C 
ENDBRANCH  14  17
ENDBRANCH  10  11
ENDBRANCH   9  10
ENDBRANCH   6   9
ENDBRANCH   1   5
BRANCH   2  19
HETATM   19  C   UNL     1      -7.392   3.575 -33.853  1.00  0.00     0.033 A 
HETATM   20  C   UNL     1      -7.630   2.215 -34.054  1.00  0.00     0.019 A 
HETATM   21  C   UNL     1      -8.939   1.747 -34.196  1.00  0.00     0.032 A 
HETATM   22  C   UNL     1     -10.036   2.629 -34.140  1.00  0.00     0.058 A 
HETATM   23  C   UNL     1      -9.790   3.980 -33.875  1.00  0.00     0.032 A 
HETATM   24  C   UNL     1      -8.475   4.453 -33.733  1.00  0.00     0.019 A 
BRANCH  22  25
HETATM   25  N   UNL     1     -11.351   2.094 -34.346  1.00  0.00    -0.238 N 
HETATM   26  N   UNL     1     -11.674   0.919 -33.733  1.00  0.00    -0.172 NA
HETATM   27  C   UNL     1     -12.945   0.677 -34.046  1.00  0.00     0.053 A 
HETATM   28  C   UNL     1     -13.631  -0.530 -33.529  1.00  0.00     0.072 C 
HETATM   29  C   UNL     1     -13.458   1.661 -34.902  1.00  0.00     0.055 A 
HETATM   30  C   UNL     1     -12.420   2.546 -35.121  1.00  0.00     0.035 A 
HETATM   31  C   UNL     1     -12.422   3.706 -36.044  1.00  0.00     0.070 C 
ENDBRANCH  22  25
ENDBRANCH   2  19
TORSDOF 7
ENDMDL
MODEL 8
REMARK VINA RESULT:      -7.4      3.518      5.305
REMARK  7 active torsions:
REMARK  status: ('A' for Active; 'I' for Inactive)
REMARK    1  A    between atoms: C_2  and  C_3 
REMARK    2  A    between atoms: C_6  and  O_7 
REMARK    3  A    between atoms: O_7  and  C_8 
REMARK    4  A    between atoms: C_8  and  C_9 
REMARK       I    between atoms: C_9  and  N_10 
REMARK    5  A    between atoms: N_10  and  N_11 
REMARK       I    between atoms: N_11  and  C_12 
REMARK    6  A    between atoms: C_12  and  C_13 
REMARK    7  A    between atoms: C_16  and  N_17 
ROOT
HETATM    1  N   UNL     1     -10.956   2.365 -35.253  1.00  0.00    -0.263 N 
HETATM    2  C   UNL     1     -10.927   1.465 -34.202  1.00  0.00     0.270 C 
HETATM    3  O   UNL     1     -11.897   1.226 -33.490  1.00  0.00    -0.266 OA
HETATM    4  H   UNL     1     -10.097   2.745 -35.636  1.00  0.00     0.190 HD
ENDROOT
BRANCH   1   5
HETATM    5  N   UNL     1     -12.127   3.108 -35.444  1.00  0.00    -0.265 N 
HETATM    6  C   UNL     1     -12.128   4.486 -35.446  1.00  0.00     0.260 C 
HETATM    7  O   UNL     1     -13.126   5.105 -35.818  1.00  0.00    -0.269 OA
HETATM    8  H   UNL     1     -12.853   2.669 -36.008  1.00  0.00     0.190 HD
BRANCH   6   9
HETATM    9  C   UNL     1     -10.895   5.197 -34.900  1.00  0.00     0.280 C 
BRANCH   9  10
HETATM   10  O   UNL     1     -10.876   5.068 -33.485  1.00  0.00    -0.342 OA
BRANCH  10  11
HETATM   11  C   UNL     1      -9.778   4.494 -32.916  1.00  0.00     0.069 A 
HETATM   12  C   UNL     1      -8.642   4.495 -33.727  1.00  0.00     0.037 A 
HETATM   13  C   UNL     1      -7.444   3.939 -33.277  1.00  0.00     0.010 A 
HETATM   14  C   UNL     1      -7.369   3.363 -32.004  1.00  0.00    -0.058 A 
HETATM   15  C   UNL     1      -8.509   3.369 -31.190  1.00  0.00     0.010 A 
HETATM   16  C   UNL     1      -9.709   3.931 -31.643  1.00  0.00     0.037 A 
BRANCH  14  17
HETATM   17  C   UNL     1      -6.071   2.784 -31.504  1.00  0.00     0.034 C 
HETATM   18  C   UNL     1      -6.250   2.054 -30.181  1.00  0.00     0.010 C 
ENDBRANCH  14  17
ENDBRANCH  10  11
ENDBRANCH   9  10
ENDBRANCH   6   9
ENDBRANCH   1   5
BRANCH   2  19
HETATM   19  C   UNL     1      -9.600   0.860 -33.911  1.00  0.00     0.033 A 
HETATM   20  C   UNL     1      -8.626   0.892 -34.910  1.00  0.00     0.019 A 
HETATM   21  C   UNL     1      -7.393   0.267 -34.706  1.00  0.00     0.032 A 
HETATM   22  C   UNL     1      -7.108  -0.402 -33.501  1.00  0.00     0.058 A 
HETATM   23  C   UNL     1      -8.067  -0.374 -32.482  1.00  0.00     0.032 A 
HETATM   24  C   UNL     1      -9.307   0.253 -32.685  1.00  0.00     0.019 A 
BRANCH  22  25
HETATM   25  N   UNL     1      -5.844  -1.068 -33.374  1.00  0.00    -0.238 N 
HETATM   26  N   UNL     1      -4.880  -0.484 -32.605  1.00  0.00    -0.172 NA
HETATM   27  C   UNL     1      -3.843  -1.319 -32.617  1.00  0.00     0.053 A 
HETATM   28  C   UNL     1      -2.609  -0.999 -31.862  1.00  0.00     0.072 C 
HETATM   29  C   UNL     1      -4.094  -2.435 -33.428  1.00  0.00     0.055 A 
HETATM   30  C   UNL     1      -5.364  -2.250 -33.939  1.00  0.00     0.035 A 
HETATM   31  C   UNL     1      -6.051  -3.102 -34.940  1.00  0.00     0.070 C 
ENDBRANCH  22  25
ENDBRANCH   2  19
TORSDOF 7
ENDMDL
MODEL 9
REMARK VINA RESULT:      -7.3      3.482      6.774
REMARK  7 active torsions:
REMARK  status: ('A' for Active; 'I' for Inactive)
REMARK    1  A    between atoms: C_2  and  C_3 
REMARK    2  A    between atoms: C_6  and  O_7 
REMARK    3  A    between atoms: O_7  and  C_8 
REMARK    4  A    between atoms: C_8  and  C_9 
REMARK       I    between atoms: C_9  and  N_10 
REMARK    5  A    between atoms: N_10  and  N_11 
REMARK       I    between atoms: N_11  and  C_12 
REMARK    6  A    between atoms: C_12  and  C_13 
REMARK    7  A    between atoms: C_16  and  N_17 
ROOT
HETATM    1  N   UNL     1      -8.610   2.505 -34.219  1.00  0.00    -0.263 N 
HETATM    2  C   UNL     1      -8.423   3.760 -33.668  1.00  0.00     0.270 C 
HETATM    3  O   UNL     1      -9.341   4.538 -33.430  1.00  0.00    -0.266 OA
HETATM    4  H   UNL     1      -7.841   2.007 -34.654  1.00  0.00     0.190 HD
ENDROOT
BRANCH   1   5
HETATM    5  N   UNL     1      -9.907   2.151 -34.612  1.00  0.00    -0.265 N 
HETATM    6  C   UNL     1     -10.674   1.262 -33.891  1.00  0.00     0.260 C 
HETATM    7  O   UNL     1     -11.872   1.129 -34.145  1.00  0.00    -0.269 OA
HETATM    8  H   UNL     1     -10.427   2.854 -35.135  1.00  0.00     0.190 HD
BRANCH   6   9
HETATM    9  C   UNL     1      -9.970   0.406 -32.845  1.00  0.00     0.280 C 
BRANCH   9  10
HETATM   10  O   UNL     1      -8.969  -0.375 -33.484  1.00  0.00    -0.342 OA
BRANCH  10  11
HETATM   11  C   UNL     1      -7.708  -0.334 -32.966  1.00  0.00     0.069 A 
HETATM   12  C   UNL     1      -6.716  -0.795 -33.832  1.00  0.00     0.037 A 
HETATM   13  C   UNL     1      -5.377  -0.814 -33.437  1.00  0.00     0.010 A 
HETATM   14  C   UNL     1      -5.014  -0.378 -32.158  1.00  0.00    -0.058 A 
HETATM   15  C   UNL     1      -6.012   0.090 -31.294  1.00  0.00     0.010 A 
HETATM   16  C   UNL     1      -7.353   0.112 -31.695  1.00  0.00     0.037 A 
BRANCH  14  17
HETATM   17  C   UNL     1      -3.568  -0.373 -31.736  1.00  0.00     0.034 C 
HETATM   18  C   UNL     1      -2.941  -1.754 -31.849  1.00  0.00     0.010 C 
ENDBRANCH  14  17
ENDBRANCH  10  11
ENDBRANCH   9  10
ENDBRANCH   6   9
ENDBRANCH   1   5
BRANCH   2  19
HETATM   19  C   UNL     1      -7.007   4.168 -33.465  1.00  0.00     0.033 A 
HETATM   20  C   UNL     1      -6.040   3.166 -33.364  1.00  0.00     0.019 A 
HETATM   21  C   UNL     1      -4.710   3.502 -33.096  1.00  0.00     0.032 A 
HETATM   22  C   UNL     1      -4.320   4.844 -32.923  1.00  0.00     0.058 A 
HETATM   23  C   UNL     1      -5.285   5.843 -33.088  1.00  0.00     0.032 A 
HETATM   24  C   UNL     1      -6.622   5.508 -33.357  1.00  0.00     0.019 A 
BRANCH  22  25
HETATM   25  N   UNL     1      -2.950   5.119 -32.598  1.00  0.00    -0.238 N 
HETATM   26  N   UNL     1      -2.640   5.412 -31.302  1.00  0.00    -0.172 NA
HETATM   27  C   UNL     1      -1.320   5.575 -31.267  1.00  0.00     0.053 A 
HETATM   28  C   UNL     1      -0.633   5.894 -29.993  1.00  0.00     0.072 C 
HETATM   29  C   UNL     1      -0.752   5.436 -32.541  1.00  0.00     0.055 A 
HETATM   30  C   UNL     1      -1.808   5.182 -33.396  1.00  0.00     0.035 A 
HETATM   31  C   UNL     1      -1.746   5.064 -34.873  1.00  0.00     0.070 C 
ENDBRANCH  22  25
ENDBRANCH   2  19
TORSDOF 7
ENDMDL
MODEL 10
REMARK VINA RESULT:      -7.2      3.126      5.124
REMARK  7 active torsions:
REMARK  status: ('A' for Active; 'I' for Inactive)
REMARK    1  A    between atoms: C_2  and  C_3 
REMARK    2  A    between atoms: C_6  and  O_7 
REMARK    3  A    between atoms: O_7  and  C_8 
REMARK    4  A    between atoms: C_8  and  C_9 
REMARK       I    between atoms: C_9  and  N_10 
REMARK    5  A    between atoms: N_10  and  N_11 
REMARK       I    between atoms: N_11  and  C_12 
REMARK    6  A    between atoms: C_12  and  C_13 
REMARK    7  A    between atoms: C_16  and  N_17 
ROOT
HETATM    1  N   UNL     1     -10.316   1.801 -35.058  1.00  0.00    -0.263 N 
HETATM    2  C   UNL     1     -10.221   0.949 -33.972  1.00  0.00     0.270 C 
HETATM    3  O   UNL     1     -11.168   0.673 -33.244  1.00  0.00    -0.266 OA
HETATM    4  H   UNL     1      -9.487   2.223 -35.463  1.00  0.00     0.190 HD
ENDROOT
BRANCH   1   5
HETATM    5  N   UNL     1     -11.537   2.453 -35.271  1.00  0.00    -0.265 N 
HETATM    6  C   UNL     1     -11.687   3.808 -35.072  1.00  0.00     0.260 C 
HETATM    7  O   UNL     1     -12.706   4.383 -35.461  1.00  0.00    -0.269 OA
HETATM    8  H   UNL     1     -12.152   2.043 -35.972  1.00  0.00     0.190 HD
BRANCH   6   9
HETATM    9  C   UNL     1     -10.598   4.536 -34.292  1.00  0.00     0.280 C 
BRANCH   9  10
HETATM   10  O   UNL     1     -10.793   4.305 -32.904  1.00  0.00    -0.342 OA
BRANCH  10  11
HETATM   11  C   UNL     1      -9.694   4.019 -32.149  1.00  0.00     0.069 A 
HETATM   12  C   UNL     1      -8.481   4.138 -32.830  1.00  0.00     0.037 A 
HETATM   13  C   UNL     1      -7.272   3.873 -32.185  1.00  0.00     0.010 A 
HETATM   14  C   UNL     1      -7.262   3.475 -30.844  1.00  0.00    -0.058 A 
HETATM   15  C   UNL     1      -8.480   3.363 -30.161  1.00  0.00     0.010 A 
HETATM   16  C   UNL     1      -9.691   3.633 -30.811  1.00  0.00     0.037 A 
BRANCH  14  17
HETATM   17  C   UNL     1      -5.958   3.213 -30.136  1.00  0.00     0.034 C 
HETATM   18  C   UNL     1      -4.997   4.384 -30.267  1.00  0.00     0.010 C 
ENDBRANCH  14  17
ENDBRANCH  10  11
ENDBRANCH   9  10
ENDBRANCH   6   9
ENDBRANCH   1   5
BRANCH   2  19
HETATM   19  C   UNL     1      -8.854   0.449 -33.667  1.00  0.00     0.033 A 
HETATM   20  C   UNL     1      -8.485   0.311 -32.328  1.00  0.00     0.019 A 
HETATM   21  C   UNL     1      -7.185  -0.081 -31.996  1.00  0.00     0.032 A 
HETATM   22  C   UNL     1      -6.228  -0.343 -32.995  1.00  0.00     0.058 A 
HETATM   23  C   UNL     1      -6.626  -0.263 -34.334  1.00  0.00     0.032 A 
HETATM   24  C   UNL     1      -7.931   0.131 -34.670  1.00  0.00     0.019 A 
BRANCH  22  25
HETATM   25  N   UNL     1      -4.897  -0.690 -32.589  1.00  0.00    -0.238 N 
HETATM   26  N   UNL     1      -4.621  -2.001 -32.334  1.00  0.00    -0.172 NA
HETATM   27  C   UNL     1      -3.326  -2.053 -32.029  1.00  0.00     0.053 A 
HETATM   28  C   UNL     1      -2.679  -3.346 -31.705  1.00  0.00     0.072 C 
HETATM   29  C   UNL     1      -2.747  -0.776 -32.035  1.00  0.00     0.055 A 
HETATM   30  C   UNL     1      -3.768   0.097 -32.358  1.00  0.00     0.035 A 
HETATM   31  C   UNL     1      -3.694   1.578 -32.388  1.00  0.00     0.070 C 
ENDBRANCH  22  25
ENDBRANCH   2  19
TORSDOF 7
ENDMDL
