MODEL 1
REMARK VINA RESULT:      -9.1      0.000      0.000
REMARK  6 active torsions:
REMARK  status: ('A' for Active; 'I' for Inactive)
REMARK    1  A    between atoms: C_2  and  O_3 
REMARK    2  A    between atoms: C_2  and  C_4 
REMARK    3  A    between atoms: C_7  and  N_8 
REMARK       I    between atoms: N_8  and  C_9 
REMARK    4  A    between atoms: C_9  and  C_10 
REMARK    5  A    between atoms: C_13  and  C_14 
REMARK    6  A    between atoms: C_19  and  C_20 
ROOT
HETATM    1  C   UNL     1      -6.987   2.000 -32.991  1.00  0.00     0.096 A 
HETATM    2  C   UNL     1      -6.161   0.918 -33.236  1.00  0.00     0.138 A 
HETATM    3  N   UNL     1      -4.986   1.189 -32.573  1.00  0.00    -0.240 N 
HETATM    4  C   UNL     1      -3.837   0.304 -32.558  1.00  0.00     0.221 C 
HETATM    5  C   UNL     1      -4.284  -1.135 -32.863  1.00  0.00     0.068 C 
HETATM    6  C   UNL     1      -5.183  -1.170 -34.107  1.00  0.00     0.143 C 
HETATM    7  N   UNL     1      -6.314  -0.248 -33.916  1.00  0.00    -0.363 N 
HETATM    8  N   UNL     1      -4.968   2.381 -31.965  1.00  0.00    -0.181 NA
HETATM    9  C   UNL     1      -6.198   2.854 -32.179  1.00  0.00     0.160 A 
HETATM   10  H   UNL     1      -7.223  -0.703 -34.016  1.00  0.00     0.162 HD
ENDROOT
BRANCH   1  11
HETATM   11  C   UNL     1      -8.336   2.299 -33.446  1.00  0.00     0.261 C 
HETATM   12  N   UNL     1      -9.320   1.546 -32.831  1.00  0.00    -0.323 N 
HETATM   13  H   UNL     1      -8.991   0.872 -32.149  1.00  0.00     0.169 HD
HETATM   14  O   UNL     1      -8.511   3.117 -34.341  1.00  0.00    -0.267 OA
BRANCH  12  15
HETATM   15  C   UNL     1     -10.693   1.508 -33.148  1.00  0.00     0.035 A 
HETATM   16  C   UNL     1     -11.380   0.345 -33.503  1.00  0.00     0.030 A 
HETATM   17  C   UNL     1     -12.760   0.372 -33.741  1.00  0.00     0.012 A 
HETATM   18  C   UNL     1     -13.482   1.565 -33.634  1.00  0.00    -0.030 A 
HETATM   19  C   UNL     1     -12.786   2.738 -33.311  1.00  0.00     0.012 A 
HETATM   20  C   UNL     1     -11.408   2.709 -33.071  1.00  0.00     0.030 A 
BRANCH  18  21
HETATM   21  C   UNL     1     -14.981   1.570 -33.846  1.00  0.00     0.147 C 
HETATM   22  C   UNL     1     -15.765   1.784 -32.561  1.00  0.00     0.044 C 
BRANCH  21  23
HETATM   23  O   UNL     1     -15.387   0.333 -34.433  1.00  0.00    -0.391 OA
HETATM   24  H   UNL     1     -16.294   0.158 -34.125  1.00  0.00     0.210 HD
ENDBRANCH  21  23
ENDBRANCH  18  21
ENDBRANCH  12  15
ENDBRANCH   1  11
BRANCH   4  25
HETATM   25  C   UNL     1      -3.091   0.333 -31.240  1.00  0.00     0.409 C 
HETATM   26  F   UNL     1      -2.649   1.569 -30.918  1.00  0.00    -0.169 F 
HETATM   27  F   UNL     1      -3.938  -0.042 -30.240  1.00  0.00    -0.169 F 
HETATM   28  F   UNL     1      -2.054  -0.526 -31.184  1.00  0.00    -0.169 F 
ENDBRANCH   4  25
BRANCH   6  29
HETATM   29  C   UNL     1      -5.607  -2.574 -34.437  1.00  0.00     0.075 A 
HETATM   30  O   UNL     1      -4.648  -3.541 -34.310  1.00  0.00    -0.325 OA
HETATM   31  C   UNL     1      -5.228  -4.726 -34.627  1.00  0.00     0.142 A 
HETATM   32  C   UNL     1      -6.548  -4.542 -34.961  1.00  0.00     0.027 A 
HETATM   33  C   UNL     1      -6.796  -3.154 -34.836  1.00  0.00     0.037 A 
ENDBRANCH   6  29
TORSDOF 6
ENDMDL
MODEL 2
REMARK VINA RESULT:      -9.0      3.757      8.619
REMARK  6 active torsions:
REMARK  status: ('A' for Active; 'I' for Inactive)
REMARK    1  A    between atoms: C_2  and  O_3 
REMARK    2  A    between atoms: C_2  and  C_4 
REMARK    3  A    between atoms: C_7  and  N_8 
REMARK       I    between atoms: N_8  and  C_9 
REMARK    4  A    between atoms: C_9  and  C_10 
REMARK    5  A    between atoms: C_13  and  C_14 
REMARK    6  A    between atoms: C_19  and  C_20 
ROOT
HETATM    1  C   UNL     1      -8.348   2.525 -33.444  1.00  0.00     0.096 A 
HETATM    2  C   UNL     1      -9.673   2.922 -33.463  1.00  0.00     0.138 A 
HETATM    3  N   UNL     1      -9.655   4.268 -33.753  1.00  0.00    -0.240 N 
HETATM    4  C   UNL     1     -10.842   5.091 -33.878  1.00  0.00     0.221 C 
HETATM    5  C   UNL     1     -12.056   4.206 -34.208  1.00  0.00     0.068 C 
HETATM    6  C   UNL     1     -12.127   3.007 -33.252  1.00  0.00     0.143 C 
HETATM    7  N   UNL     1     -10.853   2.272 -33.297  1.00  0.00    -0.363 N 
HETATM    8  N   UNL     1      -8.424   4.782 -33.868  1.00  0.00    -0.181 NA
HETATM    9  C   UNL     1      -7.632   3.717 -33.727  1.00  0.00     0.160 A 
HETATM   10  H   UNL     1     -10.969   1.286 -33.540  1.00  0.00     0.162 HD
ENDROOT
BRANCH   1  11
HETATM   11  C   UNL     1      -7.738   1.234 -33.169  1.00  0.00     0.261 C 
HETATM   12  N   UNL     1      -6.590   0.984 -33.898  1.00  0.00    -0.323 N 
HETATM   13  H   UNL     1      -6.315   1.717 -34.542  1.00  0.00     0.169 HD
HETATM   14  O   UNL     1      -8.278   0.458 -32.390  1.00  0.00    -0.267 OA
BRANCH  12  15
HETATM   15  C   UNL     1      -5.856  -0.218 -33.954  1.00  0.00     0.035 A 
HETATM   16  C   UNL     1      -4.662  -0.436 -33.263  1.00  0.00     0.030 A 
HETATM   17  C   UNL     1      -4.022  -1.681 -33.313  1.00  0.00     0.012 A 
HETATM   18  C   UNL     1      -4.559  -2.733 -34.062  1.00  0.00    -0.030 A 
HETATM   19  C   UNL     1      -5.739  -2.503 -34.782  1.00  0.00     0.012 A 
HETATM   20  C   UNL     1      -6.380  -1.259 -34.728  1.00  0.00     0.030 A 
BRANCH  18  21
HETATM   21  C   UNL     1      -3.882  -4.086 -34.068  1.00  0.00     0.147 C 
HETATM   22  C   UNL     1      -4.838  -5.231 -34.366  1.00  0.00     0.044 C 
BRANCH  21  23
HETATM   23  O   UNL     1      -3.263  -4.321 -32.803  1.00  0.00    -0.391 OA
HETATM   24  H   UNL     1      -3.732  -5.068 -32.393  1.00  0.00     0.210 HD
ENDBRANCH  21  23
ENDBRANCH  18  21
ENDBRANCH  12  15
ENDBRANCH   1  11
BRANCH   4  25
HETATM   25  C   UNL     1     -10.702   6.169 -34.933  1.00  0.00     0.409 C 
HETATM   26  F   UNL     1     -10.009   5.752 -36.015  1.00  0.00    -0.169 F 
HETATM   27  F   UNL     1     -11.941   6.516 -35.384  1.00  0.00    -0.169 F 
HETATM   28  F   UNL     1     -10.145   7.308 -34.474  1.00  0.00    -0.169 F 
ENDBRANCH   4  25
BRANCH   6  29
HETATM   29  C   UNL     1     -13.324   2.146 -33.542  1.00  0.00     0.075 A 
HETATM   30  O   UNL     1     -14.409   2.323 -32.727  1.00  0.00    -0.325 OA
HETATM   31  C   UNL     1     -15.380   1.481 -33.162  1.00  0.00     0.142 A 
HETATM   32  C   UNL     1     -14.941   0.758 -34.245  1.00  0.00     0.027 A 
HETATM   33  C   UNL     1     -13.615   1.187 -34.494  1.00  0.00     0.037 A 
ENDBRANCH   6  29
TORSDOF 6
ENDMDL
MODEL 3
REMARK VINA RESULT:      -8.8      5.008      8.131
REMARK  6 active torsions:
REMARK  status: ('A' for Active; 'I' for Inactive)
REMARK    1  A    between atoms: C_2  and  O_3 
REMARK    2  A    between atoms: C_2  and  C_4 
REMARK    3  A    between atoms: C_7  and  N_8 
REMARK       I    between atoms: N_8  and  C_9 
REMARK    4  A    between atoms: C_9  and  C_10 
REMARK    5  A    between atoms: C_13  and  C_14 
REMARK    6  A    between atoms: C_19  and  C_20 
ROOT
HETATM    1  C   UNL     1      -5.784   2.635 -30.463  1.00  0.00     0.096 A 
HETATM    2  C   UNL     1      -5.105   3.840 -30.505  1.00  0.00     0.138 A 
HETATM    3  N   UNL     1      -5.953   4.765 -29.937  1.00  0.00    -0.240 N 
HETATM    4  C   UNL     1      -5.632   6.169 -29.772  1.00  0.00     0.221 C 
HETATM    5  C   UNL     1      -4.106   6.358 -29.772  1.00  0.00     0.068 C 
HETATM    6  C   UNL     1      -3.469   5.626 -30.961  1.00  0.00     0.143 C 
HETATM    7  N   UNL     1      -3.871   4.211 -30.933  1.00  0.00    -0.363 N 
HETATM    8  N   UNL     1      -7.142   4.266 -29.583  1.00  0.00    -0.181 NA
HETATM    9  C   UNL     1      -7.024   2.965 -29.858  1.00  0.00     0.160 A 
HETATM   10  H   UNL     1      -3.076   3.569 -30.918  1.00  0.00     0.162 HD
ENDROOT
BRANCH   1  11
HETATM   11  C   UNL     1      -5.416   1.311 -30.936  1.00  0.00     0.261 C 
HETATM   12  N   UNL     1      -5.647   1.107 -32.284  1.00  0.00    -0.323 N 
HETATM   13  H   UNL     1      -6.052   1.893 -32.780  1.00  0.00     0.169 HD
HETATM   14  O   UNL     1      -4.997   0.474 -30.145  1.00  0.00    -0.267 OA
BRANCH  12  15
HETATM   15  C   UNL     1      -5.523  -0.100 -33.003  1.00  0.00     0.035 A 
HETATM   16  C   UNL     1      -4.312  -0.764 -33.208  1.00  0.00     0.030 A 
HETATM   17  C   UNL     1      -4.274  -1.995 -33.875  1.00  0.00     0.012 A 
HETATM   18  C   UNL     1      -5.446  -2.585 -34.357  1.00  0.00    -0.030 A 
HETATM   19  C   UNL     1      -6.657  -1.901 -34.180  1.00  0.00     0.012 A 
HETATM   20  C   UNL     1      -6.694  -0.672 -33.510  1.00  0.00     0.030 A 
BRANCH  18  21
HETATM   21  C   UNL     1      -5.396  -3.938 -35.033  1.00  0.00     0.147 C 
HETATM   22  C   UNL     1      -6.774  -4.522 -35.303  1.00  0.00     0.044 C 
BRANCH  21  23
HETATM   23  O   UNL     1      -4.659  -4.853 -34.224  1.00  0.00    -0.391 OA
HETATM   24  H   UNL     1      -4.618  -4.471 -33.330  1.00  0.00     0.210 HD
ENDBRANCH  21  23
ENDBRANCH  18  21
ENDBRANCH  12  15
ENDBRANCH   1  11
BRANCH   4  25
HETATM   25  C   UNL     1      -6.214   6.760 -28.505  1.00  0.00     0.409 C 
HETATM   26  F   UNL     1      -6.049   5.956 -27.432  1.00  0.00    -0.169 F 
HETATM   27  F   UNL     1      -5.564   7.922 -28.214  1.00  0.00    -0.169 F 
HETATM   28  F   UNL     1      -7.519   7.084 -28.606  1.00  0.00    -0.169 F 
ENDBRANCH   4  25
BRANCH   6  29
HETATM   29  C   UNL     1      -1.980   5.823 -30.992  1.00  0.00     0.075 A 
HETATM   30  O   UNL     1      -1.220   4.687 -31.055  1.00  0.00    -0.325 OA
HETATM   31  C   UNL     1       0.079   5.075 -31.098  1.00  0.00     0.142 A 
HETATM   32  C   UNL     1       0.175   6.445 -31.060  1.00  0.00     0.027 A 
HETATM   33  C   UNL     1      -1.153   6.931 -30.995  1.00  0.00     0.037 A 
ENDBRANCH   6  29
TORSDOF 6
ENDMDL
MODEL 4
REMARK VINA RESULT:      -8.7      4.044      8.171
REMARK  6 active torsions:
REMARK  status: ('A' for Active; 'I' for Inactive)
REMARK    1  A    between atoms: C_2  and  O_3 
REMARK    2  A    between atoms: C_2  and  C_4 
REMARK    3  A    between atoms: C_7  and  N_8 
REMARK       I    between atoms: N_8  and  C_9 
REMARK    4  A    between atoms: C_9  and  C_10 
REMARK    5  A    between atoms: C_13  and  C_14 
REMARK    6  A    between atoms: C_19  and  C_20 
ROOT
HETATM    1  C   UNL     1      -4.073   0.317 -32.898  1.00  0.00     0.096 A 
HETATM    2  C   UNL     1      -5.295   0.077 -33.500  1.00  0.00     0.138 A 
HETATM    3  N   UNL     1      -5.198  -1.181 -34.052  1.00  0.00    -0.240 N 
HETATM    4  C   UNL     1      -6.267  -1.836 -34.780  1.00  0.00     0.221 C 
HETATM    5  C   UNL     1      -7.621  -1.230 -34.371  1.00  0.00     0.068 C 
HETATM    6  C   UNL     1      -7.567   0.303 -34.427  1.00  0.00     0.143 C 
HETATM    7  N   UNL     1      -6.452   0.781 -33.595  1.00  0.00    -0.363 N 
HETATM    8  N   UNL     1      -3.995  -1.748 -33.902  1.00  0.00    -0.181 NA
HETATM    9  C   UNL     1      -3.327  -0.860 -33.162  1.00  0.00     0.160 A 
HETATM   10  H   UNL     1      -6.746   1.443 -32.873  1.00  0.00     0.162 HD
ENDROOT
BRANCH   1  11
HETATM   11  C   UNL     1      -3.568   1.478 -32.183  1.00  0.00     0.261 C 
HETATM   12  N   UNL     1      -3.749   2.676 -32.850  1.00  0.00    -0.323 N 
HETATM   13  H   UNL     1      -4.198   2.606 -33.756  1.00  0.00     0.169 HD
HETATM   14  O   UNL     1      -2.991   1.332 -31.112  1.00  0.00    -0.267 OA
BRANCH  12  15
HETATM   15  C   UNL     1      -3.253   3.944 -32.484  1.00  0.00     0.035 A 
HETATM   16  C   UNL     1      -3.717   4.677 -31.390  1.00  0.00     0.030 A 
HETATM   17  C   UNL     1      -3.130   5.902 -31.046  1.00  0.00     0.012 A 
HETATM   18  C   UNL     1      -2.070   6.422 -31.795  1.00  0.00    -0.030 A 
HETATM   19  C   UNL     1      -1.627   5.702 -32.913  1.00  0.00     0.012 A 
HETATM   20  C   UNL     1      -2.212   4.477 -33.253  1.00  0.00     0.030 A 
BRANCH  18  21
HETATM   21  C   UNL     1      -1.415   7.723 -31.383  1.00  0.00     0.147 C 
HETATM   22  C   UNL     1      -1.852   8.204 -30.009  1.00  0.00     0.044 C 
BRANCH  21  23
HETATM   23  O   UNL     1      -1.715   8.737 -32.342  1.00  0.00    -0.391 OA
HETATM   24  H   UNL     1      -0.871   9.002 -32.748  1.00  0.00     0.210 HD
ENDBRANCH  21  23
ENDBRANCH  18  21
ENDBRANCH  12  15
ENDBRANCH   1  11
BRANCH   4  25
HETATM   25  C   UNL     1      -6.296  -3.334 -34.559  1.00  0.00     0.409 C 
HETATM   26  F   UNL     1      -7.475  -3.763 -34.057  1.00  0.00    -0.169 F 
HETATM   27  F   UNL     1      -6.141  -3.964 -35.758  1.00  0.00    -0.169 F 
HETATM   28  F   UNL     1      -5.299  -3.786 -33.774  1.00  0.00    -0.169 F 
ENDBRANCH   4  25
BRANCH   6  29
HETATM   29  C   UNL     1      -8.891   0.910 -34.057  1.00  0.00     0.075 A 
HETATM   30  O   UNL     1      -9.120   2.183 -34.506  1.00  0.00    -0.325 OA
HETATM   31  C   UNL     1     -10.362   2.537 -34.093  1.00  0.00     0.142 A 
HETATM   32  C   UNL     1     -10.943   1.516 -33.380  1.00  0.00     0.027 A 
HETATM   33  C   UNL     1      -9.997   0.463 -33.358  1.00  0.00     0.037 A 
ENDBRANCH   6  29
TORSDOF 6
ENDMDL
MODEL 5
REMARK VINA RESULT:      -8.7      1.540      1.892
REMARK  6 active torsions:
REMARK  status: ('A' for Active; 'I' for Inactive)
REMARK    1  A    between atoms: C_2  and  O_3 
REMARK    2  A    between atoms: C_2  and  C_4 
REMARK    3  A    between atoms: C_7  and  N_8 
REMARK       I    between atoms: N_8  and  C_9 
REMARK    4  A    between atoms: C_9  and  C_10 
REMARK    5  A    between atoms: C_13  and  C_14 
REMARK    6  A    between atoms: C_19  and  C_20 
ROOT
HETATM    1  C   UNL     1      -7.829   1.455 -32.272  1.00  0.00     0.096 A 
HETATM    2  C   UNL     1      -6.856   0.598 -32.755  1.00  0.00     0.138 A 
HETATM    3  N   UNL     1      -5.662   1.074 -32.260  1.00  0.00    -0.240 N 
HETATM    4  C   UNL     1      -4.373   0.463 -32.517  1.00  0.00     0.221 C 
HETATM    5  C   UNL     1      -4.564  -1.016 -32.895  1.00  0.00     0.068 C 
HETATM    6  C   UNL     1      -5.642  -1.163 -33.978  1.00  0.00     0.143 C 
HETATM    7  N   UNL     1      -6.885  -0.525 -33.518  1.00  0.00    -0.363 N 
HETATM    8  N   UNL     1      -5.781   2.198 -31.544  1.00  0.00    -0.181 NA
HETATM    9  C   UNL     1      -7.099   2.404 -31.512  1.00  0.00     0.160 A 
HETATM   10  H   UNL     1      -7.686  -1.160 -33.519  1.00  0.00     0.162 HD
ENDROOT
BRANCH   1  11
HETATM   11  C   UNL     1      -9.269   1.482 -32.475  1.00  0.00     0.261 C 
HETATM   12  N   UNL     1      -9.842   2.727 -32.291  1.00  0.00    -0.323 N 
HETATM   13  H   UNL     1      -9.202   3.467 -32.027  1.00  0.00     0.169 HD
HETATM   14  O   UNL     1      -9.869   0.445 -32.730  1.00  0.00    -0.267 OA
BRANCH  12  15
HETATM   15  C   UNL     1     -11.216   3.044 -32.282  1.00  0.00     0.035 A 
HETATM   16  C   UNL     1     -12.127   2.595 -33.241  1.00  0.00     0.030 A 
HETATM   17  C   UNL     1     -13.490   2.896 -33.131  1.00  0.00     0.012 A 
HETATM   18  C   UNL     1     -13.971   3.659 -32.063  1.00  0.00    -0.030 A 
HETATM   19  C   UNL     1     -13.052   4.138 -31.119  1.00  0.00     0.012 A 
HETATM   20  C   UNL     1     -11.690   3.833 -31.229  1.00  0.00     0.030 A 
BRANCH  18  21
HETATM   21  C   UNL     1     -15.454   3.936 -31.932  1.00  0.00     0.147 C 
HETATM   22  C   UNL     1     -16.316   2.712 -32.202  1.00  0.00     0.044 C 
BRANCH  21  23
HETATM   23  O   UNL     1     -15.831   4.974 -32.836  1.00  0.00    -0.391 OA
HETATM   24  H   UNL     1     -15.722   5.816 -32.362  1.00  0.00     0.210 HD
ENDBRANCH  21  23
ENDBRANCH  18  21
ENDBRANCH  12  15
ENDBRANCH   1  11
BRANCH   4  25
HETATM   25  C   UNL     1      -3.428   0.565 -31.338  1.00  0.00     0.409 C 
HETATM   26  F   UNL     1      -4.005   0.192 -30.175  1.00  0.00    -0.169 F 
HETATM   27  F   UNL     1      -2.378  -0.283 -31.532  1.00  0.00    -0.169 F 
HETATM   28  F   UNL     1      -2.888   1.790 -31.180  1.00  0.00    -0.169 F 
ENDBRANCH   4  25
BRANCH   6  29
HETATM   29  C   UNL     1      -5.822  -2.600 -34.380  1.00  0.00     0.075 A 
HETATM   30  O   UNL     1      -4.720  -3.403 -34.265  1.00  0.00    -0.325 OA
HETATM   31  C   UNL     1      -5.091  -4.651 -34.648  1.00  0.00     0.142 A 
HETATM   32  C   UNL     1      -6.415  -4.669 -35.014  1.00  0.00     0.027 A 
HETATM   33  C   UNL     1      -6.890  -3.347 -34.838  1.00  0.00     0.037 A 
ENDBRANCH   6  29
TORSDOF 6
ENDMDL
MODEL 6
REMARK VINA RESULT:      -8.5      4.411      8.245
REMARK  6 active torsions:
REMARK  status: ('A' for Active; 'I' for Inactive)
REMARK    1  A    between atoms: C_2  and  O_3 
REMARK    2  A    between atoms: C_2  and  C_4 
REMARK    3  A    between atoms: C_7  and  N_8 
REMARK       I    between atoms: N_8  and  C_9 
REMARK    4  A    between atoms: C_9  and  C_10 
REMARK    5  A    between atoms: C_13  and  C_14 
REMARK    6  A    between atoms: C_19  and  C_20 
ROOT
HETATM    1  C   UNL     1      -7.364   3.616 -33.133  1.00  0.00     0.096 A 
HETATM    2  C   UNL     1      -7.640   2.261 -33.096  1.00  0.00     0.138 A 
HETATM    3  N   UNL     1      -9.003   2.162 -32.930  1.00  0.00    -0.240 N 
HETATM    4  C   UNL     1      -9.725   0.908 -32.846  1.00  0.00     0.221 C 
HETATM    5  C   UNL     1      -8.905  -0.210 -33.513  1.00  0.00     0.068 C 
HETATM    6  C   UNL     1      -7.457  -0.195 -33.006  1.00  0.00     0.143 C 
HETATM    7  N   UNL     1      -6.880   1.142 -33.218  1.00  0.00    -0.363 N 
HETATM    8  N   UNL     1      -9.621   3.343 -32.802  1.00  0.00    -0.181 NA
HETATM    9  C   UNL     1      -8.634   4.226 -32.972  1.00  0.00     0.160 A 
HETATM   10  H   UNL     1      -6.023   1.125 -33.775  1.00  0.00     0.162 HD
ENDROOT
BRANCH   1  11
HETATM   11  C   UNL     1      -6.107   4.335 -33.261  1.00  0.00     0.261 C 
HETATM   12  N   UNL     1      -5.204   4.080 -32.244  1.00  0.00    -0.323 N 
HETATM   13  H   UNL     1      -5.523   3.436 -31.529  1.00  0.00     0.169 HD
HETATM   14  O   UNL     1      -5.947   5.127 -34.181  1.00  0.00    -0.267 OA
BRANCH  12  15
HETATM   15  C   UNL     1      -3.967   4.719 -32.016  1.00  0.00     0.035 A 
HETATM   16  C   UNL     1      -3.797   5.805 -31.155  1.00  0.00     0.030 A 
HETATM   17  C   UNL     1      -2.526   6.346 -30.927  1.00  0.00     0.012 A 
HETATM   18  C   UNL     1      -1.398   5.816 -31.561  1.00  0.00    -0.030 A 
HETATM   19  C   UNL     1      -1.574   4.748 -32.451  1.00  0.00     0.012 A 
HETATM   20  C   UNL     1      -2.845   4.206 -32.676  1.00  0.00     0.030 A 
BRANCH  18  21
HETATM   21  C   UNL     1      -0.024   6.380 -31.268  1.00  0.00     0.147 C 
HETATM   22  C   UNL     1       1.002   5.310 -30.932  1.00  0.00     0.044 C 
BRANCH  21  23
HETATM   23  O   UNL     1      -0.104   7.299 -30.178  1.00  0.00    -0.391 OA
HETATM   24  H   UNL     1       0.102   8.180 -30.534  1.00  0.00     0.210 HD
ENDBRANCH  21  23
ENDBRANCH  18  21
ENDBRANCH  12  15
ENDBRANCH   1  11
BRANCH   4  25
HETATM   25  C   UNL     1     -11.098   0.976 -33.481  1.00  0.00     0.409 C 
HETATM   26  F   UNL     1     -11.849   1.986 -32.990  1.00  0.00    -0.169 F 
HETATM   27  F   UNL     1     -10.960   1.218 -34.816  1.00  0.00    -0.169 F 
HETATM   28  F   UNL     1     -11.798  -0.171 -33.385  1.00  0.00    -0.169 F 
ENDBRANCH   4  25
BRANCH   6  29
HETATM   29  C   UNL     1      -6.648  -1.299 -33.628  1.00  0.00     0.075 A 
HETATM   30  O   UNL     1      -5.310  -1.304 -33.343  1.00  0.00    -0.325 OA
HETATM   31  C   UNL     1      -4.770  -2.378 -33.971  1.00  0.00     0.142 A 
HETATM   32  C   UNL     1      -5.736  -3.069 -34.662  1.00  0.00     0.027 A 
HETATM   33  C   UNL     1      -6.950  -2.377 -34.439  1.00  0.00     0.037 A 
ENDBRANCH   6  29
TORSDOF 6
ENDMDL
MODEL 7
REMARK VINA RESULT:      -8.4      2.311      2.783
REMARK  6 active torsions:
REMARK  status: ('A' for Active; 'I' for Inactive)
REMARK    1  A    between atoms: C_2  and  O_3 
REMARK    2  A    between atoms: C_2  and  C_4 
REMARK    3  A    between atoms: C_7  and  N_8 
REMARK       I    between atoms: N_8  and  C_9 
REMARK    4  A    between atoms: C_9  and  C_10 
REMARK    5  A    between atoms: C_13  and  C_14 
REMARK    6  A    between atoms: C_19  and  C_20 
ROOT
HETATM    1  C   UNL     1      -7.166   2.036 -33.451  1.00  0.00     0.096 A 
HETATM    2  C   UNL     1      -6.314   0.949 -33.532  1.00  0.00     0.138 A 
HETATM    3  N   UNL     1      -5.226   1.269 -32.751  1.00  0.00    -0.240 N 
HETATM    4  C   UNL     1      -4.086   0.397 -32.548  1.00  0.00     0.221 C 
HETATM    5  C   UNL     1      -4.490  -1.062 -32.818  1.00  0.00     0.068 C 
HETATM    6  C   UNL     1      -5.235  -1.177 -34.155  1.00  0.00     0.143 C 
HETATM    7  N   UNL     1      -6.382  -0.256 -34.155  1.00  0.00    -0.363 N 
HETATM    8  N   UNL     1      -5.283   2.495 -32.218  1.00  0.00    -0.181 NA
HETATM    9  C   UNL     1      -6.480   2.943 -32.604  1.00  0.00     0.160 A 
HETATM   10  H   UNL     1      -7.273  -0.725 -34.335  1.00  0.00     0.162 HD
ENDROOT
BRANCH   1  11
HETATM   11  C   UNL     1      -8.451   2.296 -34.079  1.00  0.00     0.261 C 
HETATM   12  N   UNL     1      -8.753   3.638 -34.216  1.00  0.00    -0.323 N 
HETATM   13  H   UNL     1      -8.056   4.280 -33.856  1.00  0.00     0.169 HD
HETATM   14  O   UNL     1      -9.181   1.361 -34.385  1.00  0.00    -0.267 OA
BRANCH  12  15
HETATM   15  C   UNL     1      -9.968   4.203 -34.656  1.00  0.00     0.035 A 
HETATM   16  C   UNL     1     -11.154   3.482 -34.808  1.00  0.00     0.030 A 
HETATM   17  C   UNL     1     -12.340   4.124 -35.186  1.00  0.00     0.012 A 
HETATM   18  C   UNL     1     -12.363   5.501 -35.428  1.00  0.00    -0.030 A 
HETATM   19  C   UNL     1     -11.164   6.219 -35.308  1.00  0.00     0.012 A 
HETATM   20  C   UNL     1      -9.981   5.576 -34.926  1.00  0.00     0.030 A 
BRANCH  18  21
HETATM   21  C   UNL     1     -13.662   6.190 -35.789  1.00  0.00     0.147 C 
HETATM   22  C   UNL     1     -13.460   7.588 -36.351  1.00  0.00     0.044 C 
BRANCH  21  23
HETATM   23  O   UNL     1     -14.499   6.273 -34.636  1.00  0.00    -0.391 OA
HETATM   24  H   UNL     1     -13.911   6.333 -33.863  1.00  0.00     0.210 HD
ENDBRANCH  21  23
ENDBRANCH  18  21
ENDBRANCH  12  15
ENDBRANCH   1  11
BRANCH   4  25
HETATM   25  C   UNL     1      -3.502   0.509 -31.155  1.00  0.00     0.409 C 
HETATM   26  F   UNL     1      -4.415   0.278 -30.187  1.00  0.00    -0.169 F 
HETATM   27  F   UNL     1      -2.534  -0.438 -30.999  1.00  0.00    -0.169 F 
HETATM   28  F   UNL     1      -2.902   1.691 -30.911  1.00  0.00    -0.169 F 
ENDBRANCH   4  25
BRANCH   6  29
HETATM   29  C   UNL     1      -5.614  -2.602 -34.450  1.00  0.00     0.075 A 
HETATM   30  O   UNL     1      -4.619  -3.532 -34.320  1.00  0.00    -0.325 OA
HETATM   31  C   UNL     1      -5.162  -4.743 -34.603  1.00  0.00     0.142 A 
HETATM   32  C   UNL     1      -6.493  -4.613 -34.917  1.00  0.00     0.027 A 
HETATM   33  C   UNL     1      -6.788  -3.232 -34.816  1.00  0.00     0.037 A 
ENDBRANCH   6  29
TORSDOF 6
ENDMDL
MODEL 8
REMARK VINA RESULT:      -8.3      4.275      7.540
REMARK  6 active torsions:
REMARK  status: ('A' for Active; 'I' for Inactive)
REMARK    1  A    between atoms: C_2  and  O_3 
REMARK    2  A    between atoms: C_2  and  C_4 
REMARK    3  A    between atoms: C_7  and  N_8 
REMARK       I    between atoms: N_8  and  C_9 
REMARK    4  A    between atoms: C_9  and  C_10 
REMARK    5  A    between atoms: C_13  and  C_14 
REMARK    6  A    between atoms: C_19  and  C_20 
ROOT
HETATM    1  C   UNL     1      -7.314   3.065 -31.184  1.00  0.00     0.096 A 
HETATM    2  C   UNL     1      -6.519   4.111 -31.617  1.00  0.00     0.138 A 
HETATM    3  N   UNL     1      -6.847   5.184 -30.820  1.00  0.00    -0.240 N 
HETATM    4  C   UNL     1      -6.239   6.496 -30.929  1.00  0.00     0.221 C 
HETATM    5  C   UNL     1      -4.862   6.377 -31.604  1.00  0.00     0.068 C 
HETATM    6  C   UNL     1      -4.959   5.536 -32.885  1.00  0.00     0.143 C 
HETATM    7  N   UNL     1      -5.555   4.230 -32.566  1.00  0.00    -0.363 N 
HETATM    8  N   UNL     1      -7.827   4.930 -29.945  1.00  0.00    -0.181 NA
HETATM    9  C   UNL     1      -8.079   3.633 -30.133  1.00  0.00     0.160 A 
HETATM   10  H   UNL     1      -4.964   3.442 -32.842  1.00  0.00     0.162 HD
ENDROOT
BRANCH   1  11
HETATM   11  C   UNL     1      -7.438   1.696 -31.656  1.00  0.00     0.261 C 
HETATM   12  N   UNL     1      -6.288   1.191 -32.236  1.00  0.00    -0.323 N 
HETATM   13  H   UNL     1      -5.503   1.831 -32.275  1.00  0.00     0.169 HD
HETATM   14  O   UNL     1      -8.513   1.115 -31.569  1.00  0.00    -0.267 OA
BRANCH  12  15
HETATM   15  C   UNL     1      -6.135  -0.042 -32.902  1.00  0.00     0.035 A 
HETATM   16  C   UNL     1      -7.129  -0.637 -33.682  1.00  0.00     0.030 A 
HETATM   17  C   UNL     1      -6.881  -1.832 -34.368  1.00  0.00     0.012 A 
HETATM   18  C   UNL     1      -5.635  -2.462 -34.285  1.00  0.00    -0.030 A 
HETATM   19  C   UNL     1      -4.649  -1.881 -33.475  1.00  0.00     0.012 A 
HETATM   20  C   UNL     1      -4.897  -0.685 -32.792  1.00  0.00     0.030 A 
BRANCH  18  21
HETATM   21  C   UNL     1      -5.367  -3.727 -35.071  1.00  0.00     0.147 C 
HETATM   22  C   UNL     1      -6.630  -4.512 -35.388  1.00  0.00     0.044 C 
BRANCH  21  23
HETATM   23  O   UNL     1      -4.474  -4.567 -34.339  1.00  0.00    -0.391 OA
HETATM   24  H   UNL     1      -4.114  -5.215 -34.970  1.00  0.00     0.210 HD
ENDBRANCH  21  23
ENDBRANCH  18  21
ENDBRANCH  12  15
ENDBRANCH   1  11
BRANCH   4  25
HETATM   25  C   UNL     1      -6.087   7.186 -29.589  1.00  0.00     0.409 C 
HETATM   26  F   UNL     1      -5.583   6.371 -28.637  1.00  0.00    -0.169 F 
HETATM   27  F   UNL     1      -5.202   8.216 -29.716  1.00  0.00    -0.169 F 
HETATM   28  F   UNL     1      -7.228   7.737 -29.129  1.00  0.00    -0.169 F 
ENDBRANCH   4  25
BRANCH   6  29
HETATM   29  C   UNL     1      -3.627   5.433 -33.573  1.00  0.00     0.075 A 
HETATM   30  O   UNL     1      -2.523   5.486 -32.767  1.00  0.00    -0.325 OA
HETATM   31  C   UNL     1      -1.435   5.354 -33.567  1.00  0.00     0.142 A 
HETATM   32  C   UNL     1      -1.815   5.220 -34.880  1.00  0.00     0.027 A 
HETATM   33  C   UNL     1      -3.230   5.267 -34.887  1.00  0.00     0.037 A 
ENDBRANCH   6  29
TORSDOF 6
ENDMDL
MODEL 9
REMARK VINA RESULT:      -8.1      4.833      8.192
REMARK  6 active torsions:
REMARK  status: ('A' for Active; 'I' for Inactive)
REMARK    1  A    between atoms: C_2  and  O_3 
REMARK    2  A    between atoms: C_2  and  C_4 
REMARK    3  A    between atoms: C_7  and  N_8 
REMARK       I    between atoms: N_8  and  C_9 
REMARK    4  A    between atoms: C_9  and  C_10 
REMARK    5  A    between atoms: C_13  and  C_14 
REMARK    6  A    between atoms: C_19  and  C_20 
ROOT
HETATM    1  C   UNL     1      -6.006   3.478 -31.857  1.00  0.00     0.096 A 
HETATM    2  C   UNL     1      -5.106   4.527 -31.885  1.00  0.00     0.138 A 
HETATM    3  N   UNL     1      -5.866   5.673 -31.809  1.00  0.00    -0.240 N 
HETATM    4  C   UNL     1      -5.318   7.015 -31.801  1.00  0.00     0.221 C 
HETATM    5  C   UNL     1      -3.856   6.977 -31.323  1.00  0.00     0.068 C 
HETATM    6  C   UNL     1      -3.068   5.899 -32.079  1.00  0.00     0.143 C 
HETATM    7  N   UNL     1      -3.751   4.604 -31.934  1.00  0.00    -0.363 N 
HETATM    8  N   UNL     1      -7.185   5.448 -31.790  1.00  0.00    -0.181 NA
HETATM    9  C   UNL     1      -7.270   4.116 -31.772  1.00  0.00     0.160 A 
HETATM   10  H   UNL     1      -3.151   3.877 -31.538  1.00  0.00     0.162 HD
ENDROOT
BRANCH   1  11
HETATM   11  C   UNL     1      -5.805   2.040 -31.934  1.00  0.00     0.261 C 
HETATM   12  N   UNL     1      -5.783   1.540 -33.223  1.00  0.00    -0.323 N 
HETATM   13  H   UNL     1      -5.919   2.224 -33.958  1.00  0.00     0.169 HD
HETATM   14  O   UNL     1      -5.728   1.378 -30.906  1.00  0.00    -0.267 OA
BRANCH  12  15
HETATM   15  C   UNL     1      -5.742   0.186 -33.617  1.00  0.00     0.035 A 
HETATM   16  C   UNL     1      -6.820  -0.494 -34.188  1.00  0.00     0.030 A 
HETATM   17  C   UNL     1      -6.685  -1.820 -34.616  1.00  0.00     0.012 A 
HETATM   18  C   UNL     1      -5.470  -2.498 -34.477  1.00  0.00    -0.030 A 
HETATM   19  C   UNL     1      -4.398  -1.825 -33.873  1.00  0.00     0.012 A 
HETATM   20  C   UNL     1      -4.533  -0.499 -33.448  1.00  0.00     0.030 A 
BRANCH  18  21
HETATM   21  C   UNL     1      -5.325  -3.915 -34.988  1.00  0.00     0.147 C 
HETATM   22  C   UNL     1      -6.658  -4.582 -35.284  1.00  0.00     0.044 C 
BRANCH  21  23
HETATM   23  O   UNL     1      -4.619  -4.702 -34.028  1.00  0.00    -0.391 OA
HETATM   24  H   UNL     1      -3.941  -5.202 -34.516  1.00  0.00     0.210 HD
ENDBRANCH  21  23
ENDBRANCH  18  21
ENDBRANCH  12  15
ENDBRANCH   1  11
BRANCH   4  25
HETATM   25  C   UNL     1      -6.110   7.968 -30.930  1.00  0.00     0.409 C 
HETATM   26  F   UNL     1      -7.290   8.322 -31.485  1.00  0.00    -0.169 F 
HETATM   27  F   UNL     1      -6.413   7.349 -29.753  1.00  0.00    -0.169 F 
HETATM   28  F   UNL     1      -5.435   9.085 -30.595  1.00  0.00    -0.169 F 
ENDBRANCH   4  25
BRANCH   6  29
HETATM   29  C   UNL     1      -1.629   5.867 -31.644  1.00  0.00     0.075 A 
HETATM   30  O   UNL     1      -0.921   7.026 -31.811  1.00  0.00    -0.325 OA
HETATM   31  C   UNL     1       0.332   6.801 -31.343  1.00  0.00     0.142 A 
HETATM   32  C   UNL     1       0.450   5.513 -30.877  1.00  0.00     0.027 A 
HETATM   33  C   UNL     1      -0.817   4.909 -31.068  1.00  0.00     0.037 A 
ENDBRANCH   6  29
TORSDOF 6
ENDMDL
MODEL 10
REMARK VINA RESULT:      -8.1      3.551      7.759
REMARK  6 active torsions:
REMARK  status: ('A' for Active; 'I' for Inactive)
REMARK    1  A    between atoms: C_2  and  O_3 
REMARK    2  A    between atoms: C_2  and  C_4 
REMARK    3  A    between atoms: C_7  and  N_8 
REMARK       I    between atoms: N_8  and  C_9 
REMARK    4  A    between atoms: C_9  and  C_10 
REMARK    5  A    between atoms: C_13  and  C_14 
REMARK    6  A    between atoms: C_19  and  C_20 
ROOT
HETATM    1  C   UNL     1      -7.396   2.160 -30.760  1.00  0.00     0.096 A 
HETATM    2  C   UNL     1      -8.607   2.719 -31.124  1.00  0.00     0.138 A 
HETATM    3  N   UNL     1      -8.698   3.901 -30.424  1.00  0.00    -0.240 N 
HETATM    4  C   UNL     1      -9.818   4.818 -30.514  1.00  0.00     0.221 C 
HETATM    5  C   UNL     1     -10.559   4.604 -31.845  1.00  0.00     0.068 C 
HETATM    6  C   UNL     1     -10.849   3.114 -32.069  1.00  0.00     0.143 C 
HETATM    7  N   UNL     1      -9.592   2.355 -31.986  1.00  0.00    -0.363 N 
HETATM    8  N   UNL     1      -7.669   4.122 -29.596  1.00  0.00    -0.181 NA
HETATM    9  C   UNL     1      -6.857   3.090 -29.834  1.00  0.00     0.160 A 
HETATM   10  H   UNL     1      -9.402   1.801 -32.824  1.00  0.00     0.162 HD
ENDROOT
BRANCH   1  11
HETATM   11  C   UNL     1      -6.763   0.909 -31.145  1.00  0.00     0.261 C 
HETATM   12  N   UNL     1      -6.681   0.714 -32.512  1.00  0.00    -0.323 N 
HETATM   13  H   UNL     1      -7.077   1.453 -33.082  1.00  0.00     0.169 HD
HETATM   14  O   UNL     1      -6.408   0.114 -30.284  1.00  0.00    -0.267 OA
BRANCH  12  15
HETATM   15  C   UNL     1      -6.249  -0.446 -33.188  1.00  0.00     0.035 A 
HETATM   16  C   UNL     1      -4.926  -0.892 -33.206  1.00  0.00     0.030 A 
HETATM   17  C   UNL     1      -4.583  -2.091 -33.843  1.00  0.00     0.012 A 
HETATM   18  C   UNL     1      -5.555  -2.866 -34.482  1.00  0.00    -0.030 A 
HETATM   19  C   UNL     1      -6.877  -2.401 -34.492  1.00  0.00     0.012 A 
HETATM   20  C   UNL     1      -7.220  -1.205 -33.852  1.00  0.00     0.030 A 
BRANCH  18  21
HETATM   21  C   UNL     1      -5.177  -4.183 -35.125  1.00  0.00     0.147 C 
HETATM   22  C   UNL     1      -6.366  -4.920 -35.721  1.00  0.00     0.044 C 
BRANCH  21  23
HETATM   23  O   UNL     1      -4.549  -5.027 -34.160  1.00  0.00    -0.391 OA
HETATM   24  H   UNL     1      -4.204  -5.800 -34.641  1.00  0.00     0.210 HD
ENDBRANCH  21  23
ENDBRANCH  18  21
ENDBRANCH  12  15
ENDBRANCH   1  11
BRANCH   4  25
HETATM   25  C   UNL     1      -9.400   6.269 -30.397  1.00  0.00     0.409 C 
HETATM   26  F   UNL     1     -10.331   7.120 -30.880  1.00  0.00    -0.169 F 
HETATM   27  F   UNL     1      -9.244   6.583 -29.079  1.00  0.00    -0.169 F 
HETATM   28  F   UNL     1      -8.217   6.543 -30.982  1.00  0.00    -0.169 F 
ENDBRANCH   4  25
BRANCH   6  29
HETATM   29  C   UNL     1     -11.599   2.889 -33.352  1.00  0.00     0.075 A 
HETATM   30  O   UNL     1     -12.243   1.688 -33.474  1.00  0.00    -0.325 OA
HETATM   31  C   UNL     1     -12.871   1.690 -34.677  1.00  0.00     0.142 A 
HETATM   32  C   UNL     1     -12.642   2.872 -35.339  1.00  0.00     0.027 A 
HETATM   33  C   UNL     1     -11.823   3.650 -34.484  1.00  0.00     0.037 A 
ENDBRANCH   6  29
TORSDOF 6
ENDMDL
