MODEL 1
REMARK VINA RESULT:      -8.3      0.000      0.000
REMARK  10 active torsions:
REMARK  status: ('A' for Active; 'I' for Inactive)
REMARK    1  A    between atoms: C_3  and  C_4 
REMARK    2  A    between atoms: C_4  and  C_5 
REMARK       I    between atoms: C_5  and  N_6 
REMARK    3  A    between atoms: N_6  and  C_7 
REMARK    4  A    between atoms: C_7  and  C_8 
REMARK    5  A    between atoms: C_8  and  O_9 
REMARK    6  A    between atoms: C_15  and  N_16 
REMARK       I    between atoms: N_16  and  C_17 
REMARK    7  A    between atoms: C_17  and  C_18 
REMARK    8  A    between atoms: C_26  and  C_27 
REMARK    9  A    between atoms: C_27  and  O_28 
REMARK   10  A    between atoms: C_30  and  O_31 
ROOT
HETATM    1  C   UNL     1      -5.018   0.693 -29.738  1.00  0.00     0.016 C 
HETATM    2  C   UNL     1      -5.114   1.514 -31.073  1.00  0.00    -0.030 C 
HETATM    3  C   UNL     1      -6.061   0.623 -32.031  1.00  0.00     0.056 C 
HETATM    4  C   UNL     1      -7.504   1.075 -31.944  1.00  0.00     0.056 A 
HETATM    5  C   UNL     1      -7.972   2.066 -31.108  1.00  0.00     0.012 A 
HETATM    6  S   UNL     1      -9.658   2.248 -31.277  1.00  0.00    -0.055 SA
HETATM    7  C   UNL     1      -9.630   1.066 -32.507  1.00  0.00     0.173 A 
HETATM    8  N   UNL     1      -8.469   0.522 -32.767  1.00  0.00    -0.227 NA
HETATM    9  C   UNL     1      -7.154   2.883 -30.186  1.00  0.00     0.055 C 
HETATM   10  C   UNL     1      -5.686   2.954 -30.679  1.00  0.00     0.012 C 
HETATM   11  C   UNL     1      -5.390   4.121 -31.709  1.00  0.00     0.008 C 
HETATM   12  C   UNL     1      -5.743   5.492 -31.063  1.00  0.00     0.020 C 
HETATM   13  C   UNL     1      -3.869   4.133 -32.035  1.00  0.00     0.128 C 
HETATM   14  C   UNL     1      -3.373   2.784 -32.546  1.00  0.00     0.033 C 
HETATM   15  C   UNL     1      -3.644   1.651 -31.555  1.00  0.00     0.013 C 
ENDROOT
BRANCH   3  16
HETATM   16  C   UNL     1      -5.636   0.424 -33.501  1.00  0.00     0.114 C 
BRANCH  16  17
HETATM   17  C   UNL     1      -5.125  -0.980 -33.789  1.00  0.00     0.218 C 
HETATM   18  N   UNL     1      -5.854  -1.702 -34.693  1.00  0.00    -0.359 N 
HETATM   19  H   UNL     1      -6.737  -1.328 -35.051  1.00  0.00     0.162 HD
HETATM   20  O   UNL     1      -4.097  -1.403 -33.262  1.00  0.00    -0.274 OA
BRANCH  18  21
HETATM   21  C   UNL     1      -5.410  -2.987 -35.202  1.00  0.00     0.148 C 
BRANCH  21  22
HETATM   22  C   UNL     1      -6.393  -4.133 -34.946  1.00  0.00     0.186 C 
BRANCH  22  23
HETATM   23  O   UNL     1      -5.678  -5.342 -34.665  1.00  0.00    -0.394 OA
HETATM   24  C   UNL     1      -4.411  -5.066 -34.082  1.00  0.00     0.201 C 
ENDBRANCH  22  23
ENDBRANCH  21  22
ENDBRANCH  18  21
ENDBRANCH  16  17
ENDBRANCH   3  16
BRANCH  11  25
HETATM   25  C   UNL     1      -6.209   4.017 -33.018  1.00  0.00     0.176 C 
BRANCH  25  26
HETATM   26  O   UNL     1      -5.789   5.003 -33.958  1.00  0.00    -0.400 OA
HETATM   27  H   UNL     1      -4.835   5.143 -33.817  1.00  0.00     0.209 HD
ENDBRANCH  25  26
ENDBRANCH  11  25
BRANCH   7  28
HETATM   28  N   UNL     1     -10.844   0.847 -33.092  1.00  0.00    -0.305 N 
HETATM   29  C   UNL     1     -11.292   1.584 -34.166  1.00  0.00     0.227 C 
HETATM   30  O   UNL     1     -10.668   2.504 -34.698  1.00  0.00    -0.273 OA
HETATM   31  H   UNL     1     -11.427   0.144 -32.666  1.00  0.00     0.171 HD
BRANCH  29  32
HETATM   32  C   UNL     1     -12.713   1.147 -34.631  1.00  0.00     0.078 C 
HETATM   33  C   UNL     1     -13.357  -0.060 -33.893  1.00  0.00     0.014 C 
HETATM   34  C   UNL     1     -14.712   0.656 -34.040  1.00  0.00     0.002 C 
HETATM   35  C   UNL     1     -13.924   1.979 -34.126  1.00  0.00     0.014 C 
ENDBRANCH  29  32
ENDBRANCH   7  28
BRANCH  13  36
HETATM   36  O   UNL     1      -3.106   4.452 -30.866  1.00  0.00    -0.395 OA
HETATM   37  H   UNL     1      -3.664   4.247 -30.095  1.00  0.00     0.210 HD
ENDBRANCH  13  36
TORSDOF 10
ENDMDL
MODEL 2
REMARK VINA RESULT:      -8.2      3.079      7.196
REMARK  10 active torsions:
REMARK  status: ('A' for Active; 'I' for Inactive)
REMARK    1  A    between atoms: C_3  and  C_4 
REMARK    2  A    between atoms: C_4  and  C_5 
REMARK       I    between atoms: C_5  and  N_6 
REMARK    3  A    between atoms: N_6  and  C_7 
REMARK    4  A    between atoms: C_7  and  C_8 
REMARK    5  A    between atoms: C_8  and  O_9 
REMARK    6  A    between atoms: C_15  and  N_16 
REMARK       I    between atoms: N_16  and  C_17 
REMARK    7  A    between atoms: C_17  and  C_18 
REMARK    8  A    between atoms: C_26  and  C_27 
REMARK    9  A    between atoms: C_27  and  O_28 
REMARK   10  A    between atoms: C_30  and  O_31 
ROOT
HETATM    1  C   UNL     1      -6.749   1.211 -35.050  1.00  0.00     0.016 C 
HETATM    2  C   UNL     1      -6.793   1.049 -33.488  1.00  0.00    -0.030 C 
HETATM    3  C   UNL     1      -5.243   0.938 -33.048  1.00  0.00     0.056 C 
HETATM    4  C   UNL     1      -4.694   2.290 -32.641  1.00  0.00     0.056 A 
HETATM    5  C   UNL     1      -5.391   3.477 -32.703  1.00  0.00     0.012 A 
HETATM    6  S   UNL     1      -4.411   4.777 -32.197  1.00  0.00    -0.055 SA
HETATM    7  C   UNL     1      -3.168   3.661 -31.848  1.00  0.00     0.173 A 
HETATM    8  N   UNL     1      -3.417   2.406 -32.120  1.00  0.00    -0.227 NA
HETATM    9  C   UNL     1      -6.796   3.638 -33.135  1.00  0.00     0.055 C 
HETATM   10  C   UNL     1      -7.584   2.318 -32.925  1.00  0.00     0.012 C 
HETATM   11  C   UNL     1      -8.221   2.153 -31.483  1.00  0.00     0.008 C 
HETATM   12  C   UNL     1      -9.189   3.337 -31.198  1.00  0.00     0.020 C 
HETATM   13  C   UNL     1      -9.060   0.842 -31.451  1.00  0.00     0.128 C 
HETATM   14  C   UNL     1      -8.244  -0.381 -31.857  1.00  0.00     0.033 C 
HETATM   15  C   UNL     1      -7.632  -0.236 -33.251  1.00  0.00     0.013 C 
ENDROOT
BRANCH   3  16
HETATM   16  C   UNL     1      -4.850  -0.145 -32.022  1.00  0.00     0.114 C 
BRANCH  16  17
HETATM   17  C   UNL     1      -4.152  -1.340 -32.656  1.00  0.00     0.218 C 
HETATM   18  N   UNL     1      -4.857  -1.992 -33.629  1.00  0.00    -0.359 N 
HETATM   19  H   UNL     1      -5.829  -1.729 -33.818  1.00  0.00     0.162 HD
HETATM   20  O   UNL     1      -3.009  -1.657 -32.327  1.00  0.00    -0.274 OA
BRANCH  18  21
HETATM   21  C   UNL     1      -4.272  -3.040 -34.445  1.00  0.00     0.148 C 
BRANCH  21  22
HETATM   22  C   UNL     1      -4.383  -4.440 -33.835  1.00  0.00     0.186 C 
BRANCH  22  23
HETATM   23  O   UNL     1      -5.184  -5.281 -34.675  1.00  0.00    -0.394 OA
HETATM   24  C   UNL     1      -6.229  -4.544 -35.294  1.00  0.00     0.201 C 
ENDBRANCH  22  23
ENDBRANCH  21  22
ENDBRANCH  18  21
ENDBRANCH  16  17
ENDBRANCH   3  16
BRANCH  11  25
HETATM   25  C   UNL     1      -7.178   2.139 -30.341  1.00  0.00     0.176 C 
BRANCH  25  26
HETATM   26  O   UNL     1      -7.551   3.043 -29.303  1.00  0.00    -0.400 OA
HETATM   27  H   UNL     1      -6.745   3.236 -28.791  1.00  0.00     0.209 HD
ENDBRANCH  25  26
ENDBRANCH  11  25
BRANCH   7  28
HETATM   28  N   UNL     1      -2.055   4.228 -31.299  1.00  0.00    -0.305 N 
HETATM   29  C   UNL     1      -1.138   4.935 -32.047  1.00  0.00     0.227 C 
HETATM   30  O   UNL     1      -1.214   5.119 -33.263  1.00  0.00    -0.273 OA
HETATM   31  H   UNL     1      -1.906   4.065 -30.316  1.00  0.00     0.171 HD
BRANCH  29  32
HETATM   32  C   UNL     1       0.048   5.461 -31.184  1.00  0.00     0.078 C 
HETATM   33  C   UNL     1       0.336   6.987 -31.237  1.00  0.00     0.014 C 
HETATM   34  C   UNL     1       0.706   6.902 -29.744  1.00  0.00     0.002 C 
HETATM   35  C   UNL     1      -0.197   5.656 -29.663  1.00  0.00     0.014 C 
ENDBRANCH  29  32
ENDBRANCH   7  28
BRANCH  13  36
HETATM   36  O   UNL     1     -10.169   0.932 -32.352  1.00  0.00    -0.395 OA
HETATM   37  H   UNL     1     -10.971   1.032 -31.809  1.00  0.00     0.210 HD
ENDBRANCH  13  36
TORSDOF 10
ENDMDL
MODEL 3
REMARK VINA RESULT:      -8.0      2.977      7.770
REMARK  10 active torsions:
REMARK  status: ('A' for Active; 'I' for Inactive)
REMARK    1  A    between atoms: C_3  and  C_4 
REMARK    2  A    between atoms: C_4  and  C_5 
REMARK       I    between atoms: C_5  and  N_6 
REMARK    3  A    between atoms: N_6  and  C_7 
REMARK    4  A    between atoms: C_7  and  C_8 
REMARK    5  A    between atoms: C_8  and  O_9 
REMARK    6  A    between atoms: C_15  and  N_16 
REMARK       I    between atoms: N_16  and  C_17 
REMARK    7  A    between atoms: C_17  and  C_18 
REMARK    8  A    between atoms: C_26  and  C_27 
REMARK    9  A    between atoms: C_27  and  O_28 
REMARK   10  A    between atoms: C_30  and  O_31 
ROOT
HETATM    1  C   UNL     1     -10.639   5.024 -34.548  1.00  0.00     0.016 C 
HETATM    2  C   UNL     1     -10.559   4.032 -33.333  1.00  0.00    -0.030 C 
HETATM    3  C   UNL     1     -10.599   2.564 -34.003  1.00  0.00     0.056 C 
HETATM    4  C   UNL     1      -9.201   2.022 -34.213  1.00  0.00     0.056 A 
HETATM    5  C   UNL     1      -8.038   2.710 -33.941  1.00  0.00     0.012 A 
HETATM    6  S   UNL     1      -6.675   1.773 -34.353  1.00  0.00    -0.055 SA
HETATM    7  C   UNL     1      -7.722   0.494 -34.776  1.00  0.00     0.173 A 
HETATM    8  N   UNL     1      -9.005   0.731 -34.671  1.00  0.00    -0.227 NA
HETATM    9  C   UNL     1      -7.947   4.069 -33.365  1.00  0.00     0.055 C 
HETATM   10  C   UNL     1      -9.219   4.396 -32.540  1.00  0.00     0.012 C 
HETATM   11  C   UNL     1      -9.163   3.931 -31.026  1.00  0.00     0.008 C 
HETATM   12  C   UNL     1      -7.949   4.599 -30.317  1.00  0.00     0.020 C 
HETATM   13  C   UNL     1     -10.454   4.412 -30.303  1.00  0.00     0.128 C 
HETATM   14  C   UNL     1     -11.723   3.933 -30.999  1.00  0.00     0.033 C 
HETATM   15  C   UNL     1     -11.793   4.384 -32.458  1.00  0.00     0.013 C 
ENDROOT
BRANCH   3  16
HETATM   16  C   UNL     1     -11.512   1.494 -33.367  1.00  0.00     0.114 C 
BRANCH  16  17
HETATM   17  C   UNL     1     -12.934   1.527 -33.908  1.00  0.00     0.218 C 
HETATM   18  N   UNL     1     -13.924   1.317 -32.988  1.00  0.00    -0.359 N 
HETATM   19  H   UNL     1     -13.680   1.055 -32.028  1.00  0.00     0.162 HD
HETATM   20  O   UNL     1     -13.159   1.769 -35.093  1.00  0.00    -0.274 OA
BRANCH  18  21
HETATM   21  C   UNL     1     -15.330   1.482 -33.305  1.00  0.00     0.148 C 
BRANCH  21  22
HETATM   22  C   UNL     1     -16.119   2.271 -32.256  1.00  0.00     0.186 C 
BRANCH  22  23
HETATM   23  O   UNL     1     -17.518   2.230 -32.558  1.00  0.00    -0.394 OA
HETATM   24  C   UNL     1     -18.166   3.430 -32.160  1.00  0.00     0.201 C 
ENDBRANCH  22  23
ENDBRANCH  21  22
ENDBRANCH  18  21
ENDBRANCH  16  17
ENDBRANCH   3  16
BRANCH  11  25
HETATM   25  C   UNL     1      -8.999   2.402 -30.851  1.00  0.00     0.176 C 
BRANCH  25  26
HETATM   26  O   UNL     1      -7.689   2.082 -30.390  1.00  0.00    -0.400 OA
HETATM   27  H   UNL     1      -7.795   1.492 -29.621  1.00  0.00     0.209 HD
ENDBRANCH  25  26
ENDBRANCH  11  25
BRANCH   7  28
HETATM   28  N   UNL     1      -7.076  -0.646 -35.158  1.00  0.00    -0.305 N 
HETATM   29  C   UNL     1      -6.565  -1.548 -34.251  1.00  0.00     0.227 C 
HETATM   30  O   UNL     1      -6.624  -1.423 -33.026  1.00  0.00    -0.273 OA
HETATM   31  H   UNL     1      -6.945  -0.777 -36.149  1.00  0.00     0.171 HD
BRANCH  29  32
HETATM   32  C   UNL     1      -5.861  -2.751 -34.945  1.00  0.00     0.078 C 
HETATM   33  C   UNL     1      -4.666  -3.400 -34.193  1.00  0.00     0.014 C 
HETATM   34  C   UNL     1      -5.142  -4.758 -34.742  1.00  0.00     0.002 C 
HETATM   35  C   UNL     1      -6.550  -4.141 -34.853  1.00  0.00     0.014 C 
ENDBRANCH  29  32
ENDBRANCH   7  28
BRANCH  13  36
HETATM   36  O   UNL     1     -10.505   5.842 -30.262  1.00  0.00    -0.395 OA
HETATM   37  H   UNL     1      -9.822   6.135 -29.633  1.00  0.00     0.210 HD
ENDBRANCH  13  36
TORSDOF 10
ENDMDL
MODEL 4
REMARK VINA RESULT:      -7.9      2.946      6.429
REMARK  10 active torsions:
REMARK  status: ('A' for Active; 'I' for Inactive)
REMARK    1  A    between atoms: C_3  and  C_4 
REMARK    2  A    between atoms: C_4  and  C_5 
REMARK       I    between atoms: C_5  and  N_6 
REMARK    3  A    between atoms: N_6  and  C_7 
REMARK    4  A    between atoms: C_7  and  C_8 
REMARK    5  A    between atoms: C_8  and  O_9 
REMARK    6  A    between atoms: C_15  and  N_16 
REMARK       I    between atoms: N_16  and  C_17 
REMARK    7  A    between atoms: C_17  and  C_18 
REMARK    8  A    between atoms: C_26  and  C_27 
REMARK    9  A    between atoms: C_27  and  O_28 
REMARK   10  A    between atoms: C_30  and  O_31 
ROOT
HETATM    1  C   UNL     1      -5.191   4.889 -30.209  1.00  0.00     0.016 C 
HETATM    2  C   UNL     1      -6.277   4.699 -31.328  1.00  0.00    -0.030 C 
HETATM    3  C   UNL     1      -5.525   3.863 -32.486  1.00  0.00     0.056 C 
HETATM    4  C   UNL     1      -5.779   2.377 -32.338  1.00  0.00     0.056 A 
HETATM    5  C   UNL     1      -6.496   1.797 -31.314  1.00  0.00     0.012 A 
HETATM    6  S   UNL     1      -6.520   0.101 -31.483  1.00  0.00    -0.055 SA
HETATM    7  C   UNL     1      -5.658   0.267 -32.946  1.00  0.00     0.173 A 
HETATM    8  N   UNL     1      -5.322   1.484 -33.291  1.00  0.00    -0.227 NA
HETATM    9  C   UNL     1      -7.170   2.514 -30.210  1.00  0.00     0.055 C 
HETATM   10  C   UNL     1      -7.516   3.965 -30.636  1.00  0.00     0.012 C 
HETATM   11  C   UNL     1      -8.912   4.123 -31.368  1.00  0.00     0.008 C 
HETATM   12  C   UNL     1     -10.053   3.613 -30.441  1.00  0.00     0.020 C 
HETATM   13  C   UNL     1      -9.169   5.633 -31.643  1.00  0.00     0.128 C 
HETATM   14  C   UNL     1      -8.036   6.282 -32.430  1.00  0.00     0.033 C 
HETATM   15  C   UNL     1      -6.685   6.144 -31.727  1.00  0.00     0.013 C 
ENDROOT
BRANCH   3  16
HETATM   16  C   UNL     1      -5.713   4.309 -33.951  1.00  0.00     0.114 C 
BRANCH  16  17
HETATM   17  C   UNL     1      -4.492   5.016 -34.521  1.00  0.00     0.218 C 
HETATM   18  N   UNL     1      -3.720   5.689 -33.614  1.00  0.00    -0.359 N 
HETATM   19  H   UNL     1      -4.033   5.777 -32.643  1.00  0.00     0.162 HD
HETATM   20  O   UNL     1      -4.212   4.939 -35.716  1.00  0.00    -0.274 OA
BRANCH  18  21
HETATM   21  C   UNL     1      -2.437   6.271 -33.965  1.00  0.00     0.148 C 
BRANCH  21  22
HETATM   22  C   UNL     1      -1.232   5.504 -33.413  1.00  0.00     0.186 C 
BRANCH  22  23
HETATM   23  O   UNL     1      -1.643   4.645 -32.343  1.00  0.00    -0.394 OA
HETATM   24  C   UNL     1      -1.097   5.072 -31.102  1.00  0.00     0.201 C 
ENDBRANCH  22  23
ENDBRANCH  21  22
ENDBRANCH  18  21
ENDBRANCH  16  17
ENDBRANCH   3  16
BRANCH  11  25
HETATM   25  C   UNL     1      -9.015   3.323 -32.689  1.00  0.00     0.176 C 
BRANCH  25  26
HETATM   26  O   UNL     1      -9.877   2.198 -32.534  1.00  0.00    -0.400 OA
HETATM   27  H   UNL     1      -9.579   1.522 -33.170  1.00  0.00     0.209 HD
ENDBRANCH  25  26
ENDBRANCH  11  25
BRANCH   7  28
HETATM   28  N   UNL     1      -5.441  -0.913 -33.597  1.00  0.00    -0.305 N 
HETATM   29  C   UNL     1      -6.289  -1.386 -34.574  1.00  0.00     0.227 C 
HETATM   30  O   UNL     1      -7.315  -0.817 -34.952  1.00  0.00    -0.273 OA
HETATM   31  H   UNL     1      -4.647  -1.454 -33.293  1.00  0.00     0.171 HD
BRANCH  29  32
HETATM   32  C   UNL     1      -5.826  -2.760 -35.144  1.00  0.00     0.078 C 
HETATM   33  C   UNL     1      -4.735  -3.524 -34.344  1.00  0.00     0.014 C 
HETATM   34  C   UNL     1      -5.455  -4.829 -34.734  1.00  0.00     0.002 C 
HETATM   35  C   UNL     1      -6.739  -3.991 -34.889  1.00  0.00     0.014 C 
ENDBRANCH  29  32
ENDBRANCH   7  28
BRANCH  13  36
HETATM   36  O   UNL     1      -9.299   6.353 -30.412  1.00  0.00    -0.395 OA
HETATM   37  H   UNL     1      -8.519   6.930 -30.334  1.00  0.00     0.210 HD
ENDBRANCH  13  36
TORSDOF 10
ENDMDL
MODEL 5
REMARK VINA RESULT:      -7.5      3.059      6.695
REMARK  10 active torsions:
REMARK  status: ('A' for Active; 'I' for Inactive)
REMARK    1  A    between atoms: C_3  and  C_4 
REMARK    2  A    between atoms: C_4  and  C_5 
REMARK       I    between atoms: C_5  and  N_6 
REMARK    3  A    between atoms: N_6  and  C_7 
REMARK    4  A    between atoms: C_7  and  C_8 
REMARK    5  A    between atoms: C_8  and  O_9 
REMARK    6  A    between atoms: C_15  and  N_16 
REMARK       I    between atoms: N_16  and  C_17 
REMARK    7  A    between atoms: C_17  and  C_18 
REMARK    8  A    between atoms: C_26  and  C_27 
REMARK    9  A    between atoms: C_27  and  O_28 
REMARK   10  A    between atoms: C_30  and  O_31 
ROOT
HETATM    1  C   UNL     1      -5.612   4.501 -29.405  1.00  0.00     0.016 C 
HETATM    2  C   UNL     1      -6.037   4.658 -30.908  1.00  0.00    -0.030 C 
HETATM    3  C   UNL     1      -5.074   3.640 -31.711  1.00  0.00     0.056 C 
HETATM    4  C   UNL     1      -5.750   2.302 -31.922  1.00  0.00     0.056 A 
HETATM    5  C   UNL     1      -6.993   1.959 -31.435  1.00  0.00     0.012 A 
HETATM    6  S   UNL     1      -7.381   0.352 -31.850  1.00  0.00    -0.055 SA
HETATM    7  C   UNL     1      -5.915   0.259 -32.720  1.00  0.00     0.173 A 
HETATM    8  N   UNL     1      -5.148   1.318 -32.686  1.00  0.00    -0.227 NA
HETATM    9  C   UNL     1      -7.897   2.840 -30.662  1.00  0.00     0.055 C 
HETATM   10  C   UNL     1      -7.600   4.330 -30.973  1.00  0.00     0.012 C 
HETATM   11  C   UNL     1      -8.378   4.910 -32.226  1.00  0.00     0.008 C 
HETATM   12  C   UNL     1      -9.912   4.765 -32.005  1.00  0.00     0.020 C 
HETATM   13  C   UNL     1      -8.063   6.429 -32.354  1.00  0.00     0.128 C 
HETATM   14  C   UNL     1      -6.566   6.708 -32.434  1.00  0.00     0.033 C 
HETATM   15  C   UNL     1      -5.807   6.161 -31.225  1.00  0.00     0.013 C 
ENDROOT
BRANCH   3  16
HETATM   16  C   UNL     1      -4.414   4.133 -33.016  1.00  0.00     0.114 C 
BRANCH  16  17
HETATM   17  C   UNL     1      -2.932   4.438 -32.856  1.00  0.00     0.218 C 
HETATM   18  N   UNL     1      -2.463   5.497 -33.583  1.00  0.00    -0.359 N 
HETATM   19  H   UNL     1      -3.075   5.964 -34.258  1.00  0.00     0.162 HD
HETATM   20  O   UNL     1      -2.228   3.787 -32.085  1.00  0.00    -0.274 OA
BRANCH  18  21
HETATM   21  C   UNL     1      -1.120   6.021 -33.416  1.00  0.00     0.148 C 
BRANCH  21  22
HETATM   22  C   UNL     1      -1.014   7.154 -32.390  1.00  0.00     0.186 C 
BRANCH  22  23
HETATM   23  O   UNL     1      -1.893   8.226 -32.748  1.00  0.00    -0.394 OA
HETATM   24  C   UNL     1      -2.688   8.632 -31.642  1.00  0.00     0.201 C 
ENDBRANCH  22  23
ENDBRANCH  21  22
ENDBRANCH  18  21
ENDBRANCH  16  17
ENDBRANCH   3  16
BRANCH  11  25
HETATM   25  C   UNL     1      -8.045   4.189 -33.553  1.00  0.00     0.176 C 
BRANCH  25  26
HETATM   26  O   UNL     1      -9.122   3.348 -33.958  1.00  0.00    -0.400 OA
HETATM   27  H   UNL     1      -9.794   3.387 -33.253  1.00  0.00     0.209 HD
ENDBRANCH  25  26
ENDBRANCH  11  25
BRANCH   7  28
HETATM   28  N   UNL     1      -5.734  -0.926 -33.372  1.00  0.00    -0.305 N 
HETATM   29  C   UNL     1      -6.180  -1.140 -34.658  1.00  0.00     0.227 C 
HETATM   30  O   UNL     1      -6.785  -0.310 -35.340  1.00  0.00    -0.273 OA
HETATM   31  H   UNL     1      -5.295  -1.666 -32.846  1.00  0.00     0.171 HD
BRANCH  29  32
HETATM   32  C   UNL     1      -5.863  -2.580 -35.162  1.00  0.00     0.078 C 
HETATM   33  C   UNL     1      -4.748  -3.361 -34.413  1.00  0.00     0.014 C 
HETATM   34  C   UNL     1      -5.585  -4.635 -34.632  1.00  0.00     0.002 C 
HETATM   35  C   UNL     1      -6.823  -3.722 -34.730  1.00  0.00     0.014 C 
ENDBRANCH  29  32
ENDBRANCH   7  28
BRANCH  13  36
HETATM   36  O   UNL     1      -8.571   7.146 -31.224  1.00  0.00    -0.395 OA
HETATM   37  H   UNL     1      -7.802   7.477 -30.726  1.00  0.00     0.210 HD
ENDBRANCH  13  36
TORSDOF 10
ENDMDL
MODEL 6
REMARK VINA RESULT:      -7.5      2.480      6.773
REMARK  10 active torsions:
REMARK  status: ('A' for Active; 'I' for Inactive)
REMARK    1  A    between atoms: C_3  and  C_4 
REMARK    2  A    between atoms: C_4  and  C_5 
REMARK       I    between atoms: C_5  and  N_6 
REMARK    3  A    between atoms: N_6  and  C_7 
REMARK    4  A    between atoms: C_7  and  C_8 
REMARK    5  A    between atoms: C_8  and  O_9 
REMARK    6  A    between atoms: C_15  and  N_16 
REMARK       I    between atoms: N_16  and  C_17 
REMARK    7  A    between atoms: C_17  and  C_18 
REMARK    8  A    between atoms: C_26  and  C_27 
REMARK    9  A    between atoms: C_27  and  O_28 
REMARK   10  A    between atoms: C_30  and  O_31 
ROOT
HETATM    1  C   UNL     1      -7.476   4.749 -30.311  1.00  0.00     0.016 C 
HETATM    2  C   UNL     1      -7.939   4.527 -31.795  1.00  0.00    -0.030 C 
HETATM    3  C   UNL     1      -6.687   3.796 -32.506  1.00  0.00     0.056 C 
HETATM    4  C   UNL     1      -6.856   2.291 -32.493  1.00  0.00     0.056 A 
HETATM    5  C   UNL     1      -7.899   1.618 -31.894  1.00  0.00     0.012 A 
HETATM    6  S   UNL     1      -7.705  -0.067 -32.064  1.00  0.00    -0.055 SA
HETATM    7  C   UNL     1      -6.304   0.222 -32.995  1.00  0.00     0.173 A 
HETATM    8  N   UNL     1      -5.954   1.473 -33.149  1.00  0.00    -0.227 NA
HETATM    9  C   UNL     1      -9.047   2.238 -31.197  1.00  0.00     0.055 C 
HETATM   10  C   UNL     1      -9.291   3.676 -31.725  1.00  0.00     0.012 C 
HETATM   11  C   UNL     1     -10.230   3.763 -32.998  1.00  0.00     0.008 C 
HETATM   12  C   UNL     1     -11.615   3.133 -32.672  1.00  0.00     0.020 C 
HETATM   13  C   UNL     1     -10.464   5.260 -33.350  1.00  0.00     0.128 C 
HETATM   14  C   UNL     1      -9.159   6.022 -33.553  1.00  0.00     0.033 C 
HETATM   15  C   UNL     1      -8.249   5.954 -32.326  1.00  0.00     0.013 C 
ENDROOT
BRANCH   3  16
HETATM   16  C   UNL     1      -6.249   4.287 -33.901  1.00  0.00     0.114 C 
BRANCH  16  17
HETATM   17  C   UNL     1      -4.784   4.694 -33.956  1.00  0.00     0.218 C 
HETATM   18  N   UNL     1      -3.947   4.015 -33.113  1.00  0.00    -0.359 N 
HETATM   19  H   UNL     1      -4.335   3.357 -32.431  1.00  0.00     0.162 HD
HETATM   20  O   UNL     1      -4.391   5.552 -34.745  1.00  0.00    -0.274 OA
BRANCH  18  21
HETATM   21  C   UNL     1      -2.504   4.163 -33.162  1.00  0.00     0.148 C 
BRANCH  21  22
HETATM   22  C   UNL     1      -1.931   5.057 -32.059  1.00  0.00     0.186 C 
BRANCH  22  23
HETATM   23  O   UNL     1      -1.889   6.419 -32.500  1.00  0.00    -0.394 OA
HETATM   24  C   UNL     1      -1.166   6.543 -33.717  1.00  0.00     0.201 C 
ENDBRANCH  22  23
ENDBRANCH  21  22
ENDBRANCH  18  21
ENDBRANCH  16  17
ENDBRANCH   3  16
BRANCH  11  25
HETATM   25  C   UNL     1      -9.674   3.012 -34.232  1.00  0.00     0.176 C 
BRANCH  25  26
HETATM   26  O   UNL     1     -10.576   3.109 -35.332  1.00  0.00    -0.400 OA
HETATM   27  H   UNL     1     -10.166   3.705 -35.985  1.00  0.00     0.209 HD
ENDBRANCH  25  26
ENDBRANCH  11  25
BRANCH   7  28
HETATM   28  N   UNL     1      -5.726  -0.911 -33.489  1.00  0.00    -0.305 N 
HETATM   29  C   UNL     1      -6.173  -1.533 -34.634  1.00  0.00     0.227 C 
HETATM   30  O   UNL     1      -7.127  -1.150 -35.315  1.00  0.00    -0.273 OA
HETATM   31  H   UNL     1      -4.975  -1.306 -32.945  1.00  0.00     0.171 HD
BRANCH  29  32
HETATM   32  C   UNL     1      -5.354  -2.814 -34.971  1.00  0.00     0.078 C 
HETATM   33  C   UNL     1      -4.367  -3.326 -33.885  1.00  0.00     0.014 C 
HETATM   34  C   UNL     1      -4.733  -4.757 -34.320  1.00  0.00     0.002 C 
HETATM   35  C   UNL     1      -6.071  -4.185 -34.830  1.00  0.00     0.014 C 
ENDBRANCH  29  32
ENDBRANCH   7  28
BRANCH  13  36
HETATM   36  O   UNL     1     -11.183   5.918 -32.300  1.00  0.00    -0.395 OA
HETATM   37  H   UNL     1     -11.074   6.875 -32.435  1.00  0.00     0.210 HD
ENDBRANCH  13  36
TORSDOF 10
ENDMDL
MODEL 7
REMARK VINA RESULT:      -7.1      2.405      6.559
REMARK  10 active torsions:
REMARK  status: ('A' for Active; 'I' for Inactive)
REMARK    1  A    between atoms: C_3  and  C_4 
REMARK    2  A    between atoms: C_4  and  C_5 
REMARK       I    between atoms: C_5  and  N_6 
REMARK    3  A    between atoms: N_6  and  C_7 
REMARK    4  A    between atoms: C_7  and  C_8 
REMARK    5  A    between atoms: C_8  and  O_9 
REMARK    6  A    between atoms: C_15  and  N_16 
REMARK       I    between atoms: N_16  and  C_17 
REMARK    7  A    between atoms: C_17  and  C_18 
REMARK    8  A    between atoms: C_26  and  C_27 
REMARK    9  A    between atoms: C_27  and  O_28 
REMARK   10  A    between atoms: C_30  and  O_31 
ROOT
HETATM    1  C   UNL     1      -7.990   5.401 -33.888  1.00  0.00     0.016 C 
HETATM    2  C   UNL     1      -8.300   4.691 -32.521  1.00  0.00    -0.030 C 
HETATM    3  C   UNL     1      -8.782   3.206 -32.935  1.00  0.00     0.056 C 
HETATM    4  C   UNL     1      -7.627   2.227 -32.894  1.00  0.00     0.056 A 
HETATM    5  C   UNL     1      -6.319   2.559 -32.614  1.00  0.00     0.012 A 
HETATM    6  S   UNL     1      -5.316   1.185 -32.708  1.00  0.00    -0.055 SA
HETATM    7  C   UNL     1      -6.699   0.237 -33.023  1.00  0.00     0.173 A 
HETATM    8  N   UNL     1      -7.838   0.876 -33.104  1.00  0.00    -0.227 NA
HETATM    9  C   UNL     1      -5.821   3.908 -32.268  1.00  0.00     0.055 C 
HETATM   10  C   UNL     1      -6.958   4.768 -31.657  1.00  0.00     0.012 C 
HETATM   11  C   UNL     1      -7.134   4.613 -30.090  1.00  0.00     0.008 C 
HETATM   12  C   UNL     1      -5.807   4.997 -29.372  1.00  0.00     0.020 C 
HETATM   13  C   UNL     1      -8.233   5.603 -29.607  1.00  0.00     0.128 C 
HETATM   14  C   UNL     1      -9.552   5.415 -30.349  1.00  0.00     0.033 C 
HETATM   15  C   UNL     1      -9.396   5.572 -31.862  1.00  0.00     0.013 C 
ENDROOT
BRANCH   3  16
HETATM   16  C   UNL     1     -10.024   2.618 -32.235  1.00  0.00     0.114 C 
BRANCH  16  17
HETATM   17  C   UNL     1     -11.270   2.648 -33.108  1.00  0.00     0.218 C 
HETATM   18  N   UNL     1     -11.295   1.749 -34.138  1.00  0.00    -0.359 N 
HETATM   19  H   UNL     1     -10.466   1.183 -34.340  1.00  0.00     0.162 HD
HETATM   20  O   UNL     1     -12.203   3.412 -32.860  1.00  0.00    -0.274 OA
BRANCH  18  21
HETATM   21  C   UNL     1     -12.474   1.534 -34.956  1.00  0.00     0.148 C 
BRANCH  21  22
HETATM   22  C   UNL     1     -13.422   0.461 -34.414  1.00  0.00     0.186 C 
BRANCH  22  23
HETATM   23  O   UNL     1     -14.784   0.864 -34.605  1.00  0.00    -0.394 OA
HETATM   24  C   UNL     1     -15.321   1.437 -33.421  1.00  0.00     0.201 C 
ENDBRANCH  22  23
ENDBRANCH  21  22
ENDBRANCH  18  21
ENDBRANCH  16  17
ENDBRANCH   3  16
BRANCH  11  25
HETATM   25  C   UNL     1      -7.486   3.175 -29.643  1.00  0.00     0.176 C 
BRANCH  25  26
HETATM   26  O   UNL     1      -6.312   2.456 -29.274  1.00  0.00    -0.400 OA
HETATM   27  H   UNL     1      -6.428   2.176 -28.348  1.00  0.00     0.209 HD
ENDBRANCH  25  26
ENDBRANCH  11  25
BRANCH   7  28
HETATM   28  N   UNL     1      -6.440  -1.099 -33.134  1.00  0.00    -0.305 N 
HETATM   29  C   UNL     1      -6.675  -1.805 -34.293  1.00  0.00     0.227 C 
HETATM   30  O   UNL     1      -7.141  -1.324 -35.328  1.00  0.00    -0.273 OA
HETATM   31  H   UNL     1      -6.110  -1.562 -32.302  1.00  0.00     0.171 HD
BRANCH  29  32
HETATM   32  C   UNL     1      -6.313  -3.313 -34.150  1.00  0.00     0.078 C 
HETATM   33  C   UNL     1      -6.749  -4.256 -35.306  1.00  0.00     0.014 C 
HETATM   34  C   UNL     1      -5.441  -5.035 -35.076  1.00  0.00     0.002 C 
HETATM   35  C   UNL     1      -4.856  -3.740 -34.479  1.00  0.00     0.014 C 
ENDBRANCH  29  32
ENDBRANCH   7  28
BRANCH  13  36
HETATM   36  O   UNL     1      -7.818   6.957 -29.813  1.00  0.00    -0.395 OA
HETATM   37  H   UNL     1      -6.857   6.989 -29.659  1.00  0.00     0.210 HD
ENDBRANCH  13  36
TORSDOF 10
ENDMDL
MODEL 8
REMARK VINA RESULT:      -6.9      2.873      7.508
REMARK  10 active torsions:
REMARK  status: ('A' for Active; 'I' for Inactive)
REMARK    1  A    between atoms: C_3  and  C_4 
REMARK    2  A    between atoms: C_4  and  C_5 
REMARK       I    between atoms: C_5  and  N_6 
REMARK    3  A    between atoms: N_6  and  C_7 
REMARK    4  A    between atoms: C_7  and  C_8 
REMARK    5  A    between atoms: C_8  and  O_9 
REMARK    6  A    between atoms: C_15  and  N_16 
REMARK       I    between atoms: N_16  and  C_17 
REMARK    7  A    between atoms: C_17  and  C_18 
REMARK    8  A    between atoms: C_26  and  C_27 
REMARK    9  A    between atoms: C_27  and  O_28 
REMARK   10  A    between atoms: C_30  and  O_31 
ROOT
HETATM    1  C   UNL     1     -12.363   3.516 -35.887  1.00  0.00     0.016 C 
HETATM    2  C   UNL     1     -12.314   3.231 -34.344  1.00  0.00    -0.030 C 
HETATM    3  C   UNL     1     -10.826   2.659 -34.084  1.00  0.00     0.056 C 
HETATM    4  C   UNL     1      -9.884   3.765 -33.655  1.00  0.00     0.056 A 
HETATM    5  C   UNL     1     -10.221   5.098 -33.565  1.00  0.00     0.012 A 
HETATM    6  S   UNL     1      -8.874   6.028 -33.090  1.00  0.00    -0.055 SA
HETATM    7  C   UNL     1      -7.970   4.587 -32.951  1.00  0.00     0.173 A 
HETATM    8  N   UNL     1      -8.586   3.478 -33.272  1.00  0.00    -0.227 NA
HETATM    9  C   UNL     1     -11.556   5.677 -33.830  1.00  0.00     0.055 C 
HETATM   10  C   UNL     1     -12.662   4.611 -33.617  1.00  0.00     0.012 C 
HETATM   11  C   UNL     1     -13.191   4.496 -32.128  1.00  0.00     0.008 C 
HETATM   12  C   UNL     1     -13.756   5.869 -31.664  1.00  0.00     0.020 C 
HETATM   13  C   UNL     1     -14.359   3.468 -32.087  1.00  0.00     0.128 C 
HETATM   14  C   UNL     1     -13.960   2.111 -32.656  1.00  0.00     0.033 C 
HETATM   15  C   UNL     1     -13.457   2.209 -34.097  1.00  0.00     0.013 C 
ENDROOT
BRANCH   3  16
HETATM   16  C   UNL     1     -10.666   1.420 -33.179  1.00  0.00     0.114 C 
BRANCH  16  17
HETATM   17  C   UNL     1      -9.524   0.511 -33.608  1.00  0.00     0.218 C 
HETATM   18  N   UNL     1      -8.952   0.807 -34.816  1.00  0.00    -0.359 N 
HETATM   19  H   UNL     1      -9.362   1.534 -35.409  1.00  0.00     0.162 HD
HETATM   20  O   UNL     1      -9.128  -0.400 -32.883  1.00  0.00    -0.274 OA
BRANCH  18  21
HETATM   21  C   UNL     1      -7.750   0.147 -35.290  1.00  0.00     0.148 C 
BRANCH  21  22
HETATM   22  C   UNL     1      -6.479   0.548 -34.536  1.00  0.00     0.186 C 
BRANCH  22  23
HETATM   23  O   UNL     1      -5.714  -0.617 -34.206  1.00  0.00    -0.394 OA
HETATM   24  C   UNL     1      -6.363  -1.801 -34.649  1.00  0.00     0.201 C 
ENDBRANCH  22  23
ENDBRANCH  21  22
ENDBRANCH  18  21
ENDBRANCH  16  17
ENDBRANCH   3  16
BRANCH  11  25
HETATM   25  C   UNL     1     -12.098   4.092 -31.110  1.00  0.00     0.176 C 
BRANCH  25  26
HETATM   26  O   UNL     1     -12.672   3.798 -29.839  1.00  0.00    -0.400 OA
HETATM   27  H   UNL     1     -12.577   2.839 -29.699  1.00  0.00     0.209 HD
ENDBRANCH  25  26
ENDBRANCH  11  25
BRANCH   7  28
HETATM   28  N   UNL     1      -6.698   4.774 -32.493  1.00  0.00    -0.305 N 
HETATM   29  C   UNL     1      -5.608   4.829 -33.334  1.00  0.00     0.227 C 
HETATM   30  O   UNL     1      -5.658   4.706 -34.559  1.00  0.00    -0.273 OA
HETATM   31  H   UNL     1      -6.584   4.825 -31.492  1.00  0.00     0.171 HD
BRANCH  29  32
HETATM   32  C   UNL     1      -4.272   5.031 -32.558  1.00  0.00     0.078 C 
HETATM   33  C   UNL     1      -3.827   3.886 -31.607  1.00  0.00     0.014 C 
HETATM   34  C   UNL     1      -2.376   4.195 -32.020  1.00  0.00     0.002 C 
HETATM   35  C   UNL     1      -2.947   4.779 -33.328  1.00  0.00     0.014 C 
ENDBRANCH  29  32
ENDBRANCH   7  28
BRANCH  13  36
HETATM   36  O   UNL     1     -15.473   3.941 -32.853  1.00  0.00    -0.395 OA
HETATM   37  H   UNL     1     -15.254   3.803 -33.791  1.00  0.00     0.210 HD
ENDBRANCH  13  36
TORSDOF 10
ENDMDL
MODEL 9
REMARK VINA RESULT:      -6.9      2.679      7.472
REMARK  10 active torsions:
REMARK  status: ('A' for Active; 'I' for Inactive)
REMARK    1  A    between atoms: C_3  and  C_4 
REMARK    2  A    between atoms: C_4  and  C_5 
REMARK       I    between atoms: C_5  and  N_6 
REMARK    3  A    between atoms: N_6  and  C_7 
REMARK    4  A    between atoms: C_7  and  C_8 
REMARK    5  A    between atoms: C_8  and  O_9 
REMARK    6  A    between atoms: C_15  and  N_16 
REMARK       I    between atoms: N_16  and  C_17 
REMARK    7  A    between atoms: C_17  and  C_18 
REMARK    8  A    between atoms: C_26  and  C_27 
REMARK    9  A    between atoms: C_27  and  O_28 
REMARK   10  A    between atoms: C_30  and  O_31 
ROOT
HETATM    1  C   UNL     1     -11.915   3.364 -36.195  1.00  0.00     0.016 C 
HETATM    2  C   UNL     1     -11.828   2.980 -34.675  1.00  0.00    -0.030 C 
HETATM    3  C   UNL     1     -10.315   2.450 -34.476  1.00  0.00     0.056 C 
HETATM    4  C   UNL     1      -9.409   3.561 -33.988  1.00  0.00     0.056 A 
HETATM    5  C   UNL     1      -9.794   4.871 -33.804  1.00  0.00     0.012 A 
HETATM    6  S   UNL     1      -8.475   5.819 -33.287  1.00  0.00    -0.055 SA
HETATM    7  C   UNL     1      -7.515   4.409 -33.258  1.00  0.00     0.173 A 
HETATM    8  N   UNL     1      -8.094   3.300 -33.644  1.00  0.00    -0.227 NA
HETATM    9  C   UNL     1     -11.154   5.415 -34.010  1.00  0.00     0.055 C 
HETATM   10  C   UNL     1     -12.216   4.295 -33.853  1.00  0.00     0.012 C 
HETATM   11  C   UNL     1     -12.714   4.060 -32.368  1.00  0.00     0.008 C 
HETATM   12  C   UNL     1     -13.323   5.377 -31.804  1.00  0.00     0.020 C 
HETATM   13  C   UNL     1     -13.841   2.988 -32.378  1.00  0.00     0.128 C 
HETATM   14  C   UNL     1     -13.402   1.687 -33.042  1.00  0.00     0.033 C 
HETATM   15  C   UNL     1     -12.928   1.900 -34.481  1.00  0.00     0.013 C 
ENDROOT
BRANCH   3  16
HETATM   16  C   UNL     1     -10.093   1.161 -33.658  1.00  0.00     0.114 C 
BRANCH  16  17
HETATM   17  C   UNL     1      -8.738   0.518 -33.915  1.00  0.00     0.218 C 
HETATM   18  N   UNL     1      -7.943   0.351 -32.815  1.00  0.00    -0.359 N 
HETATM   19  H   UNL     1      -8.231   0.741 -31.913  1.00  0.00     0.162 HD
HETATM   20  O   UNL     1      -8.416   0.142 -35.041  1.00  0.00    -0.274 OA
BRANCH  18  21
HETATM   21  C   UNL     1      -6.698  -0.394 -32.860  1.00  0.00     0.148 C 
BRANCH  21  22
HETATM   22  C   UNL     1      -5.464   0.468 -33.142  1.00  0.00     0.186 C 
BRANCH  22  23
HETATM   23  O   UNL     1      -5.428   1.585 -32.245  1.00  0.00    -0.394 OA
HETATM   24  C   UNL     1      -4.946   1.201 -30.965  1.00  0.00     0.201 C 
ENDBRANCH  22  23
ENDBRANCH  21  22
ENDBRANCH  18  21
ENDBRANCH  16  17
ENDBRANCH   3  16
BRANCH  11  25
HETATM   25  C   UNL     1     -11.589   3.633 -31.395  1.00  0.00     0.176 C 
BRANCH  25  26
HETATM   26  O   UNL     1     -12.027   3.727 -30.041  1.00  0.00    -0.400 OA
HETATM   27  H   UNL     1     -12.591   4.519 -29.979  1.00  0.00     0.209 HD
ENDBRANCH  25  26
ENDBRANCH  11  25
BRANCH   7  28
HETATM   28  N   UNL     1      -6.243   4.614 -32.807  1.00  0.00    -0.305 N 
HETATM   29  C   UNL     1      -5.174   4.785 -33.659  1.00  0.00     0.227 C 
HETATM   30  O   UNL     1      -5.243   4.761 -34.889  1.00  0.00    -0.273 OA
HETATM   31  H   UNL     1      -6.111   4.588 -31.808  1.00  0.00     0.171 HD
BRANCH  29  32
HETATM   32  C   UNL     1      -3.833   4.983 -32.891  1.00  0.00     0.078 C 
HETATM   33  C   UNL     1      -3.858   4.750 -31.355  1.00  0.00     0.014 C 
HETATM   34  C   UNL     1      -2.441   4.160 -31.488  1.00  0.00     0.002 C 
HETATM   35  C   UNL     1      -2.790   3.834 -32.953  1.00  0.00     0.014 C 
ENDBRANCH  29  32
ENDBRANCH   7  28
BRANCH  13  36
HETATM   36  O   UNL     1     -14.986   3.466 -33.094  1.00  0.00    -0.395 OA
HETATM   37  H   UNL     1     -15.605   2.720 -33.175  1.00  0.00     0.210 HD
ENDBRANCH  13  36
TORSDOF 10
ENDMDL
MODEL 10
REMARK VINA RESULT:      -6.8      2.693      7.628
REMARK  10 active torsions:
REMARK  status: ('A' for Active; 'I' for Inactive)
REMARK    1  A    between atoms: C_3  and  C_4 
REMARK    2  A    between atoms: C_4  and  C_5 
REMARK       I    between atoms: C_5  and  N_6 
REMARK    3  A    between atoms: N_6  and  C_7 
REMARK    4  A    between atoms: C_7  and  C_8 
REMARK    5  A    between atoms: C_8  and  O_9 
REMARK    6  A    between atoms: C_15  and  N_16 
REMARK       I    between atoms: N_16  and  C_17 
REMARK    7  A    between atoms: C_17  and  C_18 
REMARK    8  A    between atoms: C_26  and  C_27 
REMARK    9  A    between atoms: C_27  and  O_28 
REMARK   10  A    between atoms: C_30  and  O_31 
ROOT
HETATM    1  C   UNL     1      -9.554   0.404 -31.991  1.00  0.00     0.016 C 
HETATM    2  C   UNL     1      -8.288   0.729 -32.862  1.00  0.00    -0.030 C 
HETATM    3  C   UNL     1      -8.160   2.338 -32.808  1.00  0.00     0.056 C 
HETATM    4  C   UNL     1      -7.207   2.773 -31.713  1.00  0.00     0.056 A 
HETATM    5  C   UNL     1      -6.583   1.922 -30.827  1.00  0.00     0.012 A 
HETATM    6  S   UNL     1      -5.626   2.801 -29.723  1.00  0.00    -0.055 SA
HETATM    7  C   UNL     1      -6.037   4.232 -30.556  1.00  0.00     0.173 A 
HETATM    8  N   UNL     1      -6.863   4.104 -31.563  1.00  0.00    -0.227 NA
HETATM    9  C   UNL     1      -6.697   0.448 -30.809  1.00  0.00     0.055 C 
HETATM   10  C   UNL     1      -7.073  -0.085 -32.217  1.00  0.00     0.012 C 
HETATM   11  C   UNL     1      -5.838  -0.358 -33.171  1.00  0.00     0.008 C 
HETATM   12  C   UNL     1      -4.883  -1.393 -32.509  1.00  0.00     0.020 C 
HETATM   13  C   UNL     1      -6.357  -0.980 -34.500  1.00  0.00     0.128 C 
HETATM   14  C   UNL     1      -7.416  -0.114 -35.173  1.00  0.00     0.033 C 
HETATM   15  C   UNL     1      -8.617   0.149 -34.265  1.00  0.00     0.013 C 
ENDROOT
BRANCH   3  16
HETATM   16  C   UNL     1      -7.868   3.094 -34.121  1.00  0.00     0.114 C 
BRANCH  16  17
HETATM   17  C   UNL     1      -9.039   3.941 -34.594  1.00  0.00     0.218 C 
HETATM   18  N   UNL     1     -10.158   3.249 -34.971  1.00  0.00    -0.359 N 
HETATM   19  H   UNL     1     -10.133   2.226 -35.017  1.00  0.00     0.162 HD
HETATM   20  O   UNL     1      -8.979   5.170 -34.591  1.00  0.00    -0.274 OA
BRANCH  18  21
HETATM   21  C   UNL     1     -11.412   3.908 -35.285  1.00  0.00     0.148 C 
BRANCH  21  22
HETATM   22  C   UNL     1     -12.646   3.209 -34.708  1.00  0.00     0.186 C 
BRANCH  22  23
HETATM   23  O   UNL     1     -12.933   2.020 -35.453  1.00  0.00    -0.394 OA
HETATM   24  C   UNL     1     -13.239   0.933 -34.589  1.00  0.00     0.201 C 
ENDBRANCH  22  23
ENDBRANCH  21  22
ENDBRANCH  18  21
ENDBRANCH  16  17
ENDBRANCH   3  16
BRANCH  11  25
HETATM   25  C   UNL     1      -4.995   0.903 -33.473  1.00  0.00     0.176 C 
BRANCH  25  26
HETATM   26  O   UNL     1      -3.784   0.896 -32.721  1.00  0.00    -0.400 OA
HETATM   27  H   UNL     1      -3.452   1.812 -32.707  1.00  0.00     0.209 HD
ENDBRANCH  25  26
ENDBRANCH  11  25
BRANCH   7  28
HETATM   28  N   UNL     1      -5.424   5.350 -30.071  1.00  0.00    -0.305 N 
HETATM   29  C   UNL     1      -4.221   5.808 -30.562  1.00  0.00     0.227 C 
HETATM   30  O   UNL     1      -3.577   5.267 -31.463  1.00  0.00    -0.273 OA
HETATM   31  H   UNL     1      -5.873   5.807 -29.293  1.00  0.00     0.171 HD
BRANCH  29  32
HETATM   32  C   UNL     1      -3.730   7.089 -29.824  1.00  0.00     0.078 C 
HETATM   33  C   UNL     1      -2.209   7.187 -29.517  1.00  0.00     0.014 C 
HETATM   34  C   UNL     1      -2.319   8.699 -29.791  1.00  0.00     0.002 C 
HETATM   35  C   UNL     1      -3.547   8.381 -30.667  1.00  0.00     0.014 C 
ENDBRANCH  29  32
ENDBRANCH   7  28
BRANCH  13  36
HETATM   36  O   UNL     1      -6.946  -2.263 -34.260  1.00  0.00    -0.395 OA
HETATM   37  H   UNL     1      -7.577  -2.428 -34.982  1.00  0.00     0.210 HD
ENDBRANCH  13  36
TORSDOF 10
ENDMDL
