MODEL 1
REMARK VINA RESULT:      -9.5      0.000      0.000
REMARK  8 active torsions:
REMARK  status: ('A' for Active; 'I' for Inactive)
REMARK    1  A    between atoms: C_7  and  C_8 
REMARK       I    between atoms: C_8  and  N_9 
REMARK    2  A    between atoms: N_9  and  N_10 
REMARK    3  A    between atoms: N_10  and  C_11 
REMARK    4  A    between atoms: C_11  and  N_12 
REMARK    5  A    between atoms: N_12  and  C_13 
REMARK    6  A    between atoms: N_15  and  C_16 
REMARK    7  A    between atoms: C_16  and  C_17 
REMARK    8  A    between atoms: C_29  and  C_30 
ROOT
HETATM    1  C   UNL     1      -5.976   3.628 -32.867  1.00  0.00     0.290 C 
HETATM    2  N   UNL     1      -7.037   3.882 -32.021  1.00  0.00    -0.262 N 
HETATM    3  O   UNL     1      -6.036   2.948 -33.887  1.00  0.00    -0.264 OA
HETATM    4  H   UNL     1      -6.899   4.569 -31.280  1.00  0.00     0.190 HD
ENDROOT
BRANCH   2   5
HETATM    5  N   UNL     1      -8.341   3.562 -32.391  1.00  0.00    -0.273 N 
HETATM    6  H   UNL     1      -8.583   3.616 -33.385  1.00  0.00     0.189 HD
BRANCH   5   7
HETATM    7  C   UNL     1      -9.185   2.882 -31.551  1.00  0.00     0.192 C 
HETATM    8  S   UNL     1     -10.221   3.607 -30.446  1.00  0.00    -0.039 SA
BRANCH   7   9
HETATM    9  N   UNL     1      -9.165   1.516 -31.611  1.00  0.00    -0.315 N 
HETATM   10  H   UNL     1      -9.933   1.047 -31.151  1.00  0.00     0.170 HD
BRANCH   9  11
HETATM   11  C   UNL     1      -8.171   0.714 -32.133  1.00  0.00     0.151 A 
HETATM   12  N   UNL     1      -8.040   0.427 -33.432  1.00  0.00    -0.154 NA
HETATM   13  N   UNL     1      -6.929  -0.336 -33.495  1.00  0.00    -0.275 N 
HETATM   14  C   UNL     1      -6.364  -0.561 -32.273  1.00  0.00     0.116 A 
HETATM   15  C   UNL     1      -7.155   0.105 -31.366  1.00  0.00     0.071 A 
BRANCH  13  16
HETATM   16  C   UNL     1      -6.491  -0.882 -34.773  1.00  0.00     0.192 C 
BRANCH  16  17
HETATM   17  C   UNL     1      -5.980  -2.287 -34.629  1.00  0.00     0.000 A 
HETATM   18  C   UNL     1      -4.645  -2.521 -34.294  1.00  0.00     0.124 A 
HETATM   19  F   UNL     1      -3.821  -1.485 -34.086  1.00  0.00    -0.205 F 
HETATM   20  C   UNL     1      -4.146  -3.814 -34.165  1.00  0.00     0.043 A 
HETATM   21  C   UNL     1      -4.990  -4.903 -34.376  1.00  0.00     0.003 A 
HETATM   22  C   UNL     1      -6.326  -4.690 -34.721  1.00  0.00     0.001 A 
HETATM   23  C   UNL     1      -6.819  -3.389 -34.853  1.00  0.00     0.012 A 
ENDBRANCH  16  17
ENDBRANCH  13  16
ENDBRANCH   9  11
ENDBRANCH   7   9
ENDBRANCH   5   7
ENDBRANCH   2   5
BRANCH   1  24
HETATM   24  C   UNL     1      -4.740   4.281 -32.405  1.00  0.00     0.150 A 
HETATM   25  N   UNL     1      -3.593   4.207 -33.120  1.00  0.00    -0.165 NA
HETATM   26  N   UNL     1      -2.723   4.923 -32.389  1.00  0.00    -0.240 N 
HETATM   27  C   UNL     1      -3.220   5.361 -31.195  1.00  0.00     0.123 A 
HETATM   28  C   UNL     1      -1.353   5.131 -32.818  1.00  0.00     0.221 C 
HETATM   29  N   UNL     1      -2.432   5.974 -30.286  1.00  0.00    -0.371 N 
HETATM   30  C   UNL     1      -4.548   5.014 -31.199  1.00  0.00     0.089 A 
HETATM   31  C   UNL     1      -1.032   6.283 -30.570  1.00  0.00     0.081 C 
HETATM   32  H   UNL     1      -2.843   6.436 -29.476  1.00  0.00     0.161 HD
HETATM   33  C   UNL     1      -0.236   6.239 -29.267  1.00  0.00     0.032 C 
HETATM   34  C   UNL     1      -0.454   5.275 -31.580  1.00  0.00     0.061 C 
BRANCH  28  35
HETATM   35  C   UNL     1      -1.281   6.331 -33.735  1.00  0.00     0.409 C 
HETATM   36  F   UNL     1      -2.444   7.017 -33.787  1.00  0.00    -0.169 F 
HETATM   37  F   UNL     1      -0.307   7.205 -33.404  1.00  0.00    -0.169 F 
HETATM   38  F   UNL     1      -1.019   5.924 -35.005  1.00  0.00    -0.169 F 
ENDBRANCH  28  35
ENDBRANCH   1  24
TORSDOF 8
ENDMDL
MODEL 2
REMARK VINA RESULT:      -9.3      1.614      1.960
REMARK  8 active torsions:
REMARK  status: ('A' for Active; 'I' for Inactive)
REMARK    1  A    between atoms: C_7  and  C_8 
REMARK       I    between atoms: C_8  and  N_9 
REMARK    2  A    between atoms: N_9  and  N_10 
REMARK    3  A    between atoms: N_10  and  C_11 
REMARK    4  A    between atoms: C_11  and  N_12 
REMARK    5  A    between atoms: N_12  and  C_13 
REMARK    6  A    between atoms: N_15  and  C_16 
REMARK    7  A    between atoms: C_16  and  C_17 
REMARK    8  A    between atoms: C_29  and  C_30 
ROOT
HETATM    1  C   UNL     1      -6.539   4.856 -31.560  1.00  0.00     0.290 C 
HETATM    2  N   UNL     1      -6.671   3.487 -31.440  1.00  0.00    -0.262 N 
HETATM    3  O   UNL     1      -7.470   5.656 -31.560  1.00  0.00    -0.264 OA
HETATM    4  H   UNL     1      -5.821   2.938 -31.319  1.00  0.00     0.190 HD
ENDROOT
BRANCH   2   5
HETATM    5  N   UNL     1      -7.887   2.914 -31.075  1.00  0.00    -0.273 N 
HETATM    6  H   UNL     1      -8.640   3.541 -30.774  1.00  0.00     0.189 HD
BRANCH   5   7
HETATM    7  C   UNL     1      -8.208   1.624 -31.409  1.00  0.00     0.192 C 
HETATM    8  S   UNL     1      -9.465   1.188 -32.433  1.00  0.00    -0.039 SA
BRANCH   7   9
HETATM    9  N   UNL     1      -7.456   0.626 -30.855  1.00  0.00    -0.315 N 
HETATM   10  H   UNL     1      -7.823   0.223 -30.005  1.00  0.00     0.170 HD
BRANCH   9  11
HETATM   11  C   UNL     1      -6.214   0.186 -31.265  1.00  0.00     0.151 A 
HETATM   12  N   UNL     1      -5.930  -0.214 -32.508  1.00  0.00    -0.154 NA
HETATM   13  N   UNL     1      -4.614  -0.510 -32.471  1.00  0.00    -0.275 N 
HETATM   14  C   UNL     1      -4.059  -0.331 -31.237  1.00  0.00     0.116 A 
HETATM   15  C   UNL     1      -5.078   0.114 -30.428  1.00  0.00     0.071 A 
BRANCH  13  16
HETATM   16  C   UNL     1      -3.949  -1.030 -33.660  1.00  0.00     0.192 C 
BRANCH  16  17
HETATM   17  C   UNL     1      -4.329  -2.459 -33.926  1.00  0.00     0.000 A 
HETATM   18  C   UNL     1      -5.412  -2.758 -34.754  1.00  0.00     0.124 A 
HETATM   19  F   UNL     1      -6.107  -1.763 -35.324  1.00  0.00    -0.205 F 
HETATM   20  C   UNL     1      -5.789  -4.073 -35.008  1.00  0.00     0.043 A 
HETATM   21  C   UNL     1      -5.077  -5.119 -34.424  1.00  0.00     0.003 A 
HETATM   22  C   UNL     1      -3.996  -4.841 -33.585  1.00  0.00     0.001 A 
HETATM   23  C   UNL     1      -3.625  -3.518 -33.332  1.00  0.00     0.012 A 
ENDBRANCH  16  17
ENDBRANCH  13  16
ENDBRANCH   9  11
ENDBRANCH   7   9
ENDBRANCH   5   7
ENDBRANCH   2   5
BRANCH   1  24
HETATM   24  C   UNL     1      -5.129   5.261 -31.686  1.00  0.00     0.150 A 
HETATM   25  N   UNL     1      -4.286   4.629 -32.536  1.00  0.00    -0.165 NA
HETATM   26  N   UNL     1      -3.126   5.284 -32.370  1.00  0.00    -0.240 N 
HETATM   27  C   UNL     1      -3.152   6.230 -31.385  1.00  0.00     0.123 A 
HETATM   28  C   UNL     1      -1.939   4.943 -33.130  1.00  0.00     0.221 C 
HETATM   29  N   UNL     1      -2.031   6.878 -31.001  1.00  0.00    -0.371 N 
HETATM   30  C   UNL     1      -4.455   6.285 -30.960  1.00  0.00     0.089 A 
HETATM   31  C   UNL     1      -0.754   6.670 -31.682  1.00  0.00     0.081 C 
HETATM   32  H   UNL     1      -2.089   7.687 -30.385  1.00  0.00     0.161 HD
HETATM   33  C   UNL     1       0.383   6.864 -30.681  1.00  0.00     0.032 C 
HETATM   34  C   UNL     1      -0.693   5.255 -32.287  1.00  0.00     0.061 C 
BRANCH  28  35
HETATM   35  C   UNL     1      -1.949   5.679 -34.452  1.00  0.00     0.409 C 
HETATM   36  F   UNL     1      -2.560   6.882 -34.373  1.00  0.00    -0.169 F 
HETATM   37  F   UNL     1      -0.717   5.880 -34.967  1.00  0.00    -0.169 F 
HETATM   38  F   UNL     1      -2.640   4.958 -35.374  1.00  0.00    -0.169 F 
ENDBRANCH  28  35
ENDBRANCH   1  24
TORSDOF 8
ENDMDL
MODEL 3
REMARK VINA RESULT:      -9.2      1.962      2.663
REMARK  8 active torsions:
REMARK  status: ('A' for Active; 'I' for Inactive)
REMARK    1  A    between atoms: C_7  and  C_8 
REMARK       I    between atoms: C_8  and  N_9 
REMARK    2  A    between atoms: N_9  and  N_10 
REMARK    3  A    between atoms: N_10  and  C_11 
REMARK    4  A    between atoms: C_11  and  N_12 
REMARK    5  A    between atoms: N_12  and  C_13 
REMARK    6  A    between atoms: N_15  and  C_16 
REMARK    7  A    between atoms: C_16  and  C_17 
REMARK    8  A    between atoms: C_29  and  C_30 
ROOT
HETATM    1  C   UNL     1      -5.786   2.849 -30.137  1.00  0.00     0.290 C 
HETATM    2  N   UNL     1      -6.907   3.646 -30.008  1.00  0.00    -0.262 N 
HETATM    3  O   UNL     1      -5.688   1.700 -29.716  1.00  0.00    -0.264 OA
HETATM    4  H   UNL     1      -6.919   4.532 -30.513  1.00  0.00     0.190 HD
ENDROOT
BRANCH   2   5
HETATM    5  N   UNL     1      -8.119   3.114 -29.576  1.00  0.00    -0.273 N 
HETATM    6  H   UNL     1      -8.225   2.917 -28.575  1.00  0.00     0.189 HD
BRANCH   5   7
HETATM    7  C   UNL     1      -9.246   3.157 -30.355  1.00  0.00     0.192 C 
HETATM    8  S   UNL     1     -10.136   4.545 -30.670  1.00  0.00    -0.039 SA
BRANCH   7   9
HETATM    9  N   UNL     1      -9.679   1.980 -30.898  1.00  0.00    -0.315 N 
HETATM   10  H   UNL     1     -10.475   1.554 -30.444  1.00  0.00     0.170 HD
BRANCH   9  11
HETATM   11  C   UNL     1      -9.092   1.262 -31.920  1.00  0.00     0.151 A 
HETATM   12  N   UNL     1      -7.887   1.530 -32.432  1.00  0.00    -0.154 NA
HETATM   13  N   UNL     1      -7.697   0.569 -33.360  1.00  0.00    -0.275 N 
HETATM   14  C   UNL     1      -8.754  -0.287 -33.469  1.00  0.00     0.116 A 
HETATM   15  C   UNL     1      -9.682   0.143 -32.549  1.00  0.00     0.071 A 
BRANCH  13  16
HETATM   16  C   UNL     1      -6.484   0.565 -34.168  1.00  0.00     0.192 C 
BRANCH  16  17
HETATM   17  C   UNL     1      -5.794  -0.769 -34.126  1.00  0.00     0.000 A 
HETATM   18  C   UNL     1      -4.756  -0.997 -33.220  1.00  0.00     0.124 A 
HETATM   19  F   UNL     1      -4.386  -0.025 -32.375  1.00  0.00    -0.205 F 
HETATM   20  C   UNL     1      -4.095  -2.221 -33.168  1.00  0.00     0.043 A 
HETATM   21  C   UNL     1      -4.469  -3.243 -34.039  1.00  0.00     0.003 A 
HETATM   22  C   UNL     1      -5.497  -3.031 -34.958  1.00  0.00     0.001 A 
HETATM   23  C   UNL     1      -6.154  -1.799 -35.007  1.00  0.00     0.012 A 
ENDBRANCH  16  17
ENDBRANCH  13  16
ENDBRANCH   9  11
ENDBRANCH   7   9
ENDBRANCH   5   7
ENDBRANCH   2   5
BRANCH   1  24
HETATM   24  C   UNL     1      -4.703   3.540 -30.854  1.00  0.00     0.150 A 
HETATM   25  N   UNL     1      -4.427   4.846 -30.629  1.00  0.00    -0.165 NA
HETATM   26  N   UNL     1      -3.392   5.093 -31.447  1.00  0.00    -0.240 N 
HETATM   27  C   UNL     1      -3.058   4.047 -32.260  1.00  0.00     0.123 A 
HETATM   28  C   UNL     1      -2.751   6.392 -31.500  1.00  0.00     0.221 C 
HETATM   29  N   UNL     1      -2.132   4.180 -33.235  1.00  0.00    -0.371 N 
HETATM   30  C   UNL     1      -3.850   3.001 -31.860  1.00  0.00     0.089 A 
HETATM   31  C   UNL     1      -1.374   5.418 -33.408  1.00  0.00     0.081 C 
HETATM   32  H   UNL     1      -1.779   3.359 -33.724  1.00  0.00     0.161 HD
HETATM   33  C   UNL     1      -1.024   5.587 -34.885  1.00  0.00     0.032 C 
HETATM   34  C   UNL     1      -2.195   6.624 -32.914  1.00  0.00     0.061 C 
BRANCH  28  35
HETATM   35  C   UNL     1      -1.684   6.480 -30.432  1.00  0.00     0.409 C 
HETATM   36  F   UNL     1      -2.195   6.733 -29.206  1.00  0.00    -0.169 F 
HETATM   37  F   UNL     1      -0.924   5.368 -30.336  1.00  0.00    -0.169 F 
HETATM   38  F   UNL     1      -0.836   7.505 -30.712  1.00  0.00    -0.169 F 
ENDBRANCH  28  35
ENDBRANCH   1  24
TORSDOF 8
ENDMDL
MODEL 4
REMARK VINA RESULT:      -9.2      3.781      5.498
REMARK  8 active torsions:
REMARK  status: ('A' for Active; 'I' for Inactive)
REMARK    1  A    between atoms: C_7  and  C_8 
REMARK       I    between atoms: C_8  and  N_9 
REMARK    2  A    between atoms: N_9  and  N_10 
REMARK    3  A    between atoms: N_10  and  C_11 
REMARK    4  A    between atoms: C_11  and  N_12 
REMARK    5  A    between atoms: N_12  and  C_13 
REMARK    6  A    between atoms: N_15  and  C_16 
REMARK    7  A    between atoms: C_16  and  C_17 
REMARK    8  A    between atoms: C_29  and  C_30 
ROOT
HETATM    1  C   UNL     1      -0.789   5.320 -30.781  1.00  0.00     0.290 C 
HETATM    2  N   UNL     1      -2.075   4.895 -31.046  1.00  0.00    -0.262 N 
HETATM    3  O   UNL     1       0.229   4.811 -31.242  1.00  0.00    -0.264 OA
HETATM    4  H   UNL     1      -2.844   5.477 -30.713  1.00  0.00     0.190 HD
ENDROOT
BRANCH   2   5
HETATM    5  N   UNL     1      -2.332   3.973 -32.058  1.00  0.00    -0.273 N 
HETATM    6  H   UNL     1      -2.334   2.979 -31.810  1.00  0.00     0.189 HD
BRANCH   5   7
HETATM    7  C   UNL     1      -2.891   4.348 -33.252  1.00  0.00     0.192 C 
HETATM    8  S   UNL     1      -2.060   5.106 -34.498  1.00  0.00    -0.039 SA
BRANCH   7   9
HETATM    9  N   UNL     1      -4.223   4.097 -33.429  1.00  0.00    -0.315 N 
HETATM   10  H   UNL     1      -4.704   4.716 -34.067  1.00  0.00     0.170 HD
BRANCH   9  11
HETATM   11  C   UNL     1      -4.998   3.172 -32.760  1.00  0.00     0.151 A 
HETATM   12  N   UNL     1      -4.642   1.900 -32.556  1.00  0.00    -0.154 NA
HETATM   13  N   UNL     1      -5.658   1.381 -31.835  1.00  0.00    -0.275 N 
HETATM   14  C   UNL     1      -6.658   2.278 -31.595  1.00  0.00     0.116 A 
HETATM   15  C   UNL     1      -6.260   3.452 -32.191  1.00  0.00     0.071 A 
BRANCH  13  16
HETATM   16  C   UNL     1      -5.639  -0.026 -31.456  1.00  0.00     0.192 C 
BRANCH  16  17
HETATM   17  C   UNL     1      -5.633  -0.924 -32.661  1.00  0.00     0.000 A 
HETATM   18  C   UNL     1      -6.798  -1.110 -33.407  1.00  0.00     0.124 A 
HETATM   19  F   UNL     1      -7.922  -0.471 -33.054  1.00  0.00    -0.205 F 
HETATM   20  C   UNL     1      -6.821  -1.944 -34.521  1.00  0.00     0.043 A 
HETATM   21  C   UNL     1      -5.660  -2.615 -34.903  1.00  0.00     0.003 A 
HETATM   22  C   UNL     1      -4.487  -2.450 -34.164  1.00  0.00     0.001 A 
HETATM   23  C   UNL     1      -4.473  -1.614 -33.045  1.00  0.00     0.012 A 
ENDBRANCH  16  17
ENDBRANCH  13  16
ENDBRANCH   9  11
ENDBRANCH   7   9
ENDBRANCH   5   7
ENDBRANCH   2   5
BRANCH   1  24
HETATM   24  C   UNL     1      -0.771   6.478 -29.872  1.00  0.00     0.150 A 
HETATM   25  N   UNL     1      -0.272   6.383 -28.617  1.00  0.00    -0.165 NA
HETATM   26  N   UNL     1      -0.421   7.623 -28.127  1.00  0.00    -0.240 N 
HETATM   27  C   UNL     1      -1.084   8.480 -28.959  1.00  0.00     0.123 A 
HETATM   28  C   UNL     1       0.022   7.977 -26.792  1.00  0.00     0.221 C 
HETATM   29  N   UNL     1      -1.436   9.720 -28.559  1.00  0.00    -0.371 N 
HETATM   30  C   UNL     1      -1.272   7.786 -30.128  1.00  0.00     0.089 A 
HETATM   31  C   UNL     1      -1.045  10.243 -27.251  1.00  0.00     0.081 C 
HETATM   32  H   UNL     1      -1.783  10.400 -29.234  1.00  0.00     0.161 HD
HETATM   33  C   UNL     1      -2.112  11.223 -26.765  1.00  0.00     0.032 C 
HETATM   34  C   UNL     1      -0.879   9.093 -26.241  1.00  0.00     0.061 C 
BRANCH  28  35
HETATM   35  C   UNL     1       1.482   8.368 -26.825  1.00  0.00     0.409 C 
HETATM   36  F   UNL     1       2.292   7.396 -26.352  1.00  0.00    -0.169 F 
HETATM   37  F   UNL     1       1.923   8.703 -28.057  1.00  0.00    -0.169 F 
HETATM   38  F   UNL     1       1.685   9.455 -26.035  1.00  0.00    -0.169 F 
ENDBRANCH  28  35
ENDBRANCH   1  24
TORSDOF 8
ENDMDL
MODEL 5
REMARK VINA RESULT:      -9.1      1.906      2.280
REMARK  8 active torsions:
REMARK  status: ('A' for Active; 'I' for Inactive)
REMARK    1  A    between atoms: C_7  and  C_8 
REMARK       I    between atoms: C_8  and  N_9 
REMARK    2  A    between atoms: N_9  and  N_10 
REMARK    3  A    between atoms: N_10  and  C_11 
REMARK    4  A    between atoms: C_11  and  N_12 
REMARK    5  A    between atoms: N_12  and  C_13 
REMARK    6  A    between atoms: N_15  and  C_16 
REMARK    7  A    between atoms: C_16  and  C_17 
REMARK    8  A    between atoms: C_29  and  C_30 
ROOT
HETATM    1  C   UNL     1      -8.390   4.999 -33.832  1.00  0.00     0.290 C 
HETATM    2  N   UNL     1      -8.964   4.076 -32.980  1.00  0.00    -0.262 N 
HETATM    3  O   UNL     1      -8.955   5.516 -34.793  1.00  0.00    -0.264 OA
HETATM    4  H   UNL     1      -8.444   3.819 -32.141  1.00  0.00     0.190 HD
ENDROOT
BRANCH   2   5
HETATM    5  N   UNL     1     -10.333   3.822 -33.015  1.00  0.00    -0.273 N 
HETATM    6  H   UNL     1     -10.968   4.626 -33.017  1.00  0.00     0.189 HD
BRANCH   5   7
HETATM    7  C   UNL     1     -10.832   2.596 -33.370  1.00  0.00     0.192 C 
HETATM    8  S   UNL     1     -11.960   2.340 -34.587  1.00  0.00    -0.039 SA
BRANCH   7   9
HETATM    9  N   UNL     1     -10.386   1.509 -32.670  1.00  0.00    -0.315 N 
HETATM   10  H   UNL     1     -11.056   1.091 -32.040  1.00  0.00     0.170 HD
BRANCH   9  11
HETATM   11  C   UNL     1      -9.108   0.992 -32.650  1.00  0.00     0.151 A 
HETATM   12  N   UNL     1      -8.327   0.873 -33.728  1.00  0.00    -0.154 NA
HETATM   13  N   UNL     1      -7.169   0.371 -33.248  1.00  0.00    -0.275 N 
HETATM   14  C   UNL     1      -7.200   0.147 -31.902  1.00  0.00     0.116 A 
HETATM   15  C   UNL     1      -8.451   0.535 -31.485  1.00  0.00     0.071 A 
BRANCH  13  16
HETATM   16  C   UNL     1      -6.075   0.062 -34.160  1.00  0.00     0.192 C 
BRANCH  16  17
HETATM   17  C   UNL     1      -5.873  -1.419 -34.301  1.00  0.00     0.000 A 
HETATM   18  C   UNL     1      -4.623  -1.988 -34.047  1.00  0.00     0.124 A 
HETATM   19  F   UNL     1      -3.604  -1.207 -33.661  1.00  0.00    -0.205 F 
HETATM   20  C   UNL     1      -4.408  -3.356 -34.181  1.00  0.00     0.043 A 
HETATM   21  C   UNL     1      -5.457  -4.183 -34.580  1.00  0.00     0.003 A 
HETATM   22  C   UNL     1      -6.712  -3.632 -34.848  1.00  0.00     0.001 A 
HETATM   23  C   UNL     1      -6.920  -2.257 -34.715  1.00  0.00     0.012 A 
ENDBRANCH  16  17
ENDBRANCH  13  16
ENDBRANCH   9  11
ENDBRANCH   7   9
ENDBRANCH   5   7
ENDBRANCH   2   5
BRANCH   1  24
HETATM   24  C   UNL     1      -7.003   5.308 -33.451  1.00  0.00     0.150 A 
HETATM   25  N   UNL     1      -5.965   4.562 -33.898  1.00  0.00    -0.165 NA
HETATM   26  N   UNL     1      -4.894   5.158 -33.351  1.00  0.00    -0.240 N 
HETATM   27  C   UNL     1      -5.196   6.179 -32.494  1.00  0.00     0.123 A 
HETATM   28  C   UNL     1      -3.545   4.688 -33.602  1.00  0.00     0.221 C 
HETATM   29  N   UNL     1      -4.240   6.786 -31.759  1.00  0.00    -0.371 N 
HETATM   30  C   UNL     1      -6.555   6.344 -32.582  1.00  0.00     0.089 A 
HETATM   31  C   UNL     1      -2.826   6.450 -31.910  1.00  0.00     0.081 C 
HETATM   32  H   UNL     1      -4.450   7.644 -31.250  1.00  0.00     0.161 HD
HETATM   33  C   UNL     1      -2.117   6.655 -30.572  1.00  0.00     0.032 C 
HETATM   34  C   UNL     1      -2.669   4.991 -32.377  1.00  0.00     0.061 C 
BRANCH  28  35
HETATM   35  C   UNL     1      -3.013   5.317 -34.871  1.00  0.00     0.409 C 
HETATM   36  F   UNL     1      -1.841   4.776 -35.268  1.00  0.00    -0.169 F 
HETATM   37  F   UNL     1      -3.871   5.242 -35.911  1.00  0.00    -0.169 F 
HETATM   38  F   UNL     1      -2.774   6.639 -34.663  1.00  0.00    -0.169 F 
ENDBRANCH  28  35
ENDBRANCH   1  24
TORSDOF 8
ENDMDL
MODEL 6
REMARK VINA RESULT:      -9.1      3.332      4.652
REMARK  8 active torsions:
REMARK  status: ('A' for Active; 'I' for Inactive)
REMARK    1  A    between atoms: C_7  and  C_8 
REMARK       I    between atoms: C_8  and  N_9 
REMARK    2  A    between atoms: N_9  and  N_10 
REMARK    3  A    between atoms: N_10  and  C_11 
REMARK    4  A    between atoms: C_11  and  N_12 
REMARK    5  A    between atoms: N_12  and  C_13 
REMARK    6  A    between atoms: N_15  and  C_16 
REMARK    7  A    between atoms: C_16  and  C_17 
REMARK    8  A    between atoms: C_29  and  C_30 
ROOT
HETATM    1  C   UNL     1      -1.499   5.276 -31.293  1.00  0.00     0.290 C 
HETATM    2  N   UNL     1      -2.327   4.193 -31.074  1.00  0.00    -0.262 N 
HETATM    3  O   UNL     1      -1.194   5.716 -32.398  1.00  0.00    -0.264 OA
HETATM    4  H   UNL     1      -2.616   4.004 -30.114  1.00  0.00     0.190 HD
ENDROOT
BRANCH   2   5
HETATM    5  N   UNL     1      -3.076   3.641 -32.111  1.00  0.00    -0.273 N 
HETATM    6  H   UNL     1      -2.574   3.119 -32.837  1.00  0.00     0.189 HD
BRANCH   5   7
HETATM    7  C   UNL     1      -4.435   3.489 -32.020  1.00  0.00     0.192 C 
HETATM    8  S   UNL     1      -5.559   4.619 -32.548  1.00  0.00    -0.039 SA
BRANCH   7   9
HETATM    9  N   UNL     1      -4.902   2.340 -31.445  1.00  0.00    -0.315 N 
HETATM   10  H   UNL     1      -4.615   2.182 -30.489  1.00  0.00     0.170 HD
BRANCH   9  11
HETATM   11  C   UNL     1      -5.625   1.333 -32.050  1.00  0.00     0.151 A 
HETATM   12  N   UNL     1      -5.413   0.900 -33.297  1.00  0.00    -0.154 NA
HETATM   13  N   UNL     1      -6.300  -0.105 -33.456  1.00  0.00    -0.275 N 
HETATM   14  C   UNL     1      -7.084  -0.307 -32.357  1.00  0.00     0.116 A 
HETATM   15  C   UNL     1      -6.672   0.619 -31.427  1.00  0.00     0.071 A 
BRANCH  13  16
HETATM   16  C   UNL     1      -6.392  -0.802 -34.733  1.00  0.00     0.192 C 
BRANCH  16  17
HETATM   17  C   UNL     1      -5.930  -2.227 -34.621  1.00  0.00     0.000 A 
HETATM   18  C   UNL     1      -4.606  -2.514 -34.284  1.00  0.00     0.124 A 
HETATM   19  F   UNL     1      -3.748  -1.512 -34.046  1.00  0.00    -0.205 F 
HETATM   20  C   UNL     1      -4.152  -3.826 -34.184  1.00  0.00     0.043 A 
HETATM   21  C   UNL     1      -5.031  -4.880 -34.427  1.00  0.00     0.003 A 
HETATM   22  C   UNL     1      -6.356  -4.613 -34.774  1.00  0.00     0.001 A 
HETATM   23  C   UNL     1      -6.804  -3.294 -34.876  1.00  0.00     0.012 A 
ENDBRANCH  16  17
ENDBRANCH  13  16
ENDBRANCH   9  11
ENDBRANCH   7   9
ENDBRANCH   5   7
ENDBRANCH   2   5
BRANCH   1  24
HETATM   24  C   UNL     1      -1.019   5.862 -30.032  1.00  0.00     0.150 A 
HETATM   25  N   UNL     1      -1.815   6.649 -29.270  1.00  0.00    -0.165 NA
HETATM   26  N   UNL     1      -1.033   6.966 -28.226  1.00  0.00    -0.240 N 
HETATM   27  C   UNL     1       0.251   6.513 -28.328  1.00  0.00     0.123 A 
HETATM   28  C   UNL     1      -1.514   7.788 -27.132  1.00  0.00     0.221 C 
HETATM   29  N   UNL     1       1.196   6.865 -27.429  1.00  0.00    -0.371 N 
HETATM   30  C   UNL     1       0.280   5.739 -29.461  1.00  0.00     0.089 A 
HETATM   31  C   UNL     1       0.872   7.669 -26.252  1.00  0.00     0.081 C 
HETATM   32  H   UNL     1       2.101   6.397 -27.424  1.00  0.00     0.161 HD
HETATM   33  C   UNL     1       2.088   8.512 -25.873  1.00  0.00     0.032 C 
HETATM   34  C   UNL     1      -0.337   8.578 -26.539  1.00  0.00     0.061 C 
BRANCH  28  35
HETATM   35  C   UNL     1      -2.210   6.920 -26.108  1.00  0.00     0.409 C 
HETATM   36  F   UNL     1      -1.600   5.727 -25.936  1.00  0.00    -0.169 F 
HETATM   37  F   UNL     1      -2.320   7.501 -24.894  1.00  0.00    -0.169 F 
HETATM   38  F   UNL     1      -3.476   6.647 -26.521  1.00  0.00    -0.169 F 
ENDBRANCH  28  35
ENDBRANCH   1  24
TORSDOF 8
ENDMDL
MODEL 7
REMARK VINA RESULT:      -8.9      4.949      7.074
REMARK  8 active torsions:
REMARK  status: ('A' for Active; 'I' for Inactive)
REMARK    1  A    between atoms: C_7  and  C_8 
REMARK       I    between atoms: C_8  and  N_9 
REMARK    2  A    between atoms: N_9  and  N_10 
REMARK    3  A    between atoms: N_10  and  C_11 
REMARK    4  A    between atoms: C_11  and  N_12 
REMARK    5  A    between atoms: N_12  and  C_13 
REMARK    6  A    between atoms: N_15  and  C_16 
REMARK    7  A    between atoms: C_16  and  C_17 
REMARK    8  A    between atoms: C_29  and  C_30 
ROOT
HETATM    1  C   UNL     1      -4.355   7.077 -26.484  1.00  0.00     0.290 C 
HETATM    2  N   UNL     1      -4.544   5.942 -27.247  1.00  0.00    -0.262 N 
HETATM    3  O   UNL     1      -5.246   7.690 -25.902  1.00  0.00    -0.264 OA
HETATM    4  H   UNL     1      -3.714   5.445 -27.571  1.00  0.00     0.190 HD
ENDROOT
BRANCH   2   5
HETATM    5  N   UNL     1      -5.759   5.261 -27.231  1.00  0.00    -0.273 N 
HETATM    6  H   UNL     1      -6.044   4.813 -26.354  1.00  0.00     0.189 HD
BRANCH   5   7
HETATM    7  C   UNL     1      -6.703   5.444 -28.207  1.00  0.00     0.192 C 
HETATM    8  S   UNL     1      -7.735   6.765 -28.301  1.00  0.00    -0.039 SA
BRANCH   7   9
HETATM    9  N   UNL     1      -6.819   4.471 -29.160  1.00  0.00    -0.315 N 
HETATM   10  H   UNL     1      -7.567   3.807 -29.019  1.00  0.00     0.170 HD
BRANCH   9  11
HETATM   11  C   UNL     1      -5.972   4.234 -30.223  1.00  0.00     0.151 A 
HETATM   12  N   UNL     1      -4.656   4.033 -30.106  1.00  0.00    -0.154 NA
HETATM   13  N   UNL     1      -4.240   3.800 -31.369  1.00  0.00    -0.275 N 
HETATM   14  C   UNL     1      -5.248   3.870 -32.286  1.00  0.00     0.116 A 
HETATM   15  C   UNL     1      -6.387   4.158 -31.571  1.00  0.00     0.071 A 
BRANCH  13  16
HETATM   16  C   UNL     1      -2.826   3.577 -31.642  1.00  0.00     0.192 C 
BRANCH  16  17
HETATM   17  C   UNL     1      -2.209   4.744 -32.359  1.00  0.00     0.000 A 
HETATM   18  C   UNL     1      -1.865   5.902 -31.658  1.00  0.00     0.124 A 
HETATM   19  F   UNL     1      -2.074   5.963 -30.335  1.00  0.00    -0.205 F 
HETATM   20  C   UNL     1      -1.302   6.999 -32.301  1.00  0.00     0.043 A 
HETATM   21  C   UNL     1      -1.077   6.951 -33.676  1.00  0.00     0.003 A 
HETATM   22  C   UNL     1      -1.422   5.807 -34.397  1.00  0.00     0.001 A 
HETATM   23  C   UNL     1      -1.991   4.710 -33.745  1.00  0.00     0.012 A 
ENDBRANCH  16  17
ENDBRANCH  13  16
ENDBRANCH   9  11
ENDBRANCH   7   9
ENDBRANCH   5   7
ENDBRANCH   2   5
BRANCH   1  24
HETATM   24  C   UNL     1      -2.939   7.477 -26.438  1.00  0.00     0.150 A 
HETATM   25  N   UNL     1      -1.989   6.792 -27.118  1.00  0.00    -0.165 NA
HETATM   26  N   UNL     1      -0.860   7.460 -26.836  1.00  0.00    -0.240 N 
HETATM   27  C   UNL     1      -1.017   8.471 -25.931  1.00  0.00     0.123 A 
HETATM   28  C   UNL     1       0.419   7.072 -27.398  1.00  0.00     0.221 C 
HETATM   29  N   UNL     1       0.043   9.147 -25.438  1.00  0.00    -0.371 N 
HETATM   30  C   UNL     1      -2.367   8.549 -25.697  1.00  0.00     0.089 A 
HETATM   31  C   UNL     1       1.402   8.897 -25.918  1.00  0.00     0.081 C 
HETATM   32  H   UNL     1      -0.096   9.996 -24.893  1.00  0.00     0.161 HD
HETATM   33  C   UNL     1       2.389   9.163 -24.783  1.00  0.00     0.032 C 
HETATM   34  C   UNL     1       1.537   7.444 -26.412  1.00  0.00     0.061 C 
BRANCH  28  35
HETATM   35  C   UNL     1       0.598   7.717 -28.755  1.00  0.00     0.409 C 
HETATM   36  F   UNL     1      -0.467   8.463 -29.121  1.00  0.00    -0.169 F 
HETATM   37  F   UNL     1       1.694   8.501 -28.839  1.00  0.00    -0.169 F 
HETATM   38  F   UNL     1       0.738   6.755 -29.705  1.00  0.00    -0.169 F 
ENDBRANCH  28  35
ENDBRANCH   1  24
TORSDOF 8
ENDMDL
MODEL 8
REMARK VINA RESULT:      -8.8      2.213      2.951
REMARK  8 active torsions:
REMARK  status: ('A' for Active; 'I' for Inactive)
REMARK    1  A    between atoms: C_7  and  C_8 
REMARK       I    between atoms: C_8  and  N_9 
REMARK    2  A    between atoms: N_9  and  N_10 
REMARK    3  A    between atoms: N_10  and  C_11 
REMARK    4  A    between atoms: C_11  and  N_12 
REMARK    5  A    between atoms: N_12  and  C_13 
REMARK    6  A    between atoms: N_15  and  C_16 
REMARK    7  A    between atoms: C_16  and  C_17 
REMARK    8  A    between atoms: C_29  and  C_30 
ROOT
HETATM    1  C   UNL     1      -3.847   5.534 -33.308  1.00  0.00     0.290 C 
HETATM    2  N   UNL     1      -4.598   4.502 -32.781  1.00  0.00    -0.262 N 
HETATM    3  O   UNL     1      -3.711   5.765 -34.506  1.00  0.00    -0.264 OA
HETATM    4  H   UNL     1      -4.745   4.491 -31.772  1.00  0.00     0.190 HD
ENDROOT
BRANCH   2   5
HETATM    5  N   UNL     1      -5.461   3.761 -33.584  1.00  0.00    -0.273 N 
HETATM    6  H   UNL     1      -5.050   3.058 -34.207  1.00  0.00     0.189 HD
BRANCH   5   7
HETATM    7  C   UNL     1      -6.809   3.705 -33.339  1.00  0.00     0.192 C 
HETATM    8  S   UNL     1      -7.870   4.990 -33.543  1.00  0.00    -0.039 SA
BRANCH   7   9
HETATM    9  N   UNL     1      -7.316   2.521 -32.882  1.00  0.00    -0.315 N 
HETATM   10  H   UNL     1      -8.289   2.537 -32.611  1.00  0.00     0.170 HD
BRANCH   9  11
HETATM   11  C   UNL     1      -6.628   1.347 -32.653  1.00  0.00     0.151 A 
HETATM   12  N   UNL     1      -5.702   0.845 -33.476  1.00  0.00    -0.154 NA
HETATM   13  N   UNL     1      -5.266  -0.268 -32.848  1.00  0.00    -0.275 N 
HETATM   14  C   UNL     1      -5.903  -0.499 -31.664  1.00  0.00     0.116 A 
HETATM   15  C   UNL     1      -6.800   0.532 -31.512  1.00  0.00     0.071 A 
BRANCH  13  16
HETATM   16  C   UNL     1      -4.265  -1.117 -33.481  1.00  0.00     0.192 C 
BRANCH  16  17
HETATM   17  C   UNL     1      -4.861  -2.405 -33.974  1.00  0.00     0.000 A 
HETATM   18  C   UNL     1      -4.209  -3.618 -33.743  1.00  0.00     0.124 A 
HETATM   19  F   UNL     1      -3.052  -3.631 -33.066  1.00  0.00    -0.205 F 
HETATM   20  C   UNL     1      -4.736  -4.823 -34.198  1.00  0.00     0.043 A 
HETATM   21  C   UNL     1      -5.939  -4.826 -34.902  1.00  0.00     0.003 A 
HETATM   22  C   UNL     1      -6.601  -3.623 -35.151  1.00  0.00     0.001 A 
HETATM   23  C   UNL     1      -6.064  -2.417 -34.695  1.00  0.00     0.012 A 
ENDBRANCH  16  17
ENDBRANCH  13  16
ENDBRANCH   9  11
ENDBRANCH   7   9
ENDBRANCH   5   7
ENDBRANCH   2   5
BRANCH   1  24
HETATM   24  C   UNL     1      -3.219   6.348 -32.254  1.00  0.00     0.150 A 
HETATM   25  N   UNL     1      -2.388   5.798 -31.338  1.00  0.00    -0.165 NA
HETATM   26  N   UNL     1      -2.025   6.844 -30.579  1.00  0.00    -0.240 N 
HETATM   27  C   UNL     1      -2.658   8.012 -30.893  1.00  0.00     0.123 A 
HETATM   28  C   UNL     1      -1.095   6.701 -29.475  1.00  0.00     0.221 C 
HETATM   29  N   UNL     1      -2.507   9.120 -30.136  1.00  0.00    -0.371 N 
HETATM   30  C   UNL     1      -3.397   7.741 -32.017  1.00  0.00     0.089 A 
HETATM   31  C   UNL     1      -1.587   9.154 -29.000  1.00  0.00     0.081 C 
HETATM   32  H   UNL     1      -2.852  10.021 -30.467  1.00  0.00     0.161 HD
HETATM   33  C   UNL     1      -2.127  10.120 -27.948  1.00  0.00     0.032 C 
HETATM   34  C   UNL     1      -1.427   7.746 -28.398  1.00  0.00     0.061 C 
BRANCH  28  35
HETATM   35  C   UNL     1       0.324   6.817 -29.983  1.00  0.00     0.409 C 
HETATM   36  F   UNL     1       0.389   7.313 -31.238  1.00  0.00    -0.169 F 
HETATM   37  F   UNL     1       1.117   7.581 -29.201  1.00  0.00    -0.169 F 
HETATM   38  F   UNL     1       0.898   5.585 -30.028  1.00  0.00    -0.169 F 
ENDBRANCH  28  35
ENDBRANCH   1  24
TORSDOF 8
ENDMDL
MODEL 9
REMARK VINA RESULT:      -8.8      2.787      9.252
REMARK  8 active torsions:
REMARK  status: ('A' for Active; 'I' for Inactive)
REMARK    1  A    between atoms: C_7  and  C_8 
REMARK       I    between atoms: C_8  and  N_9 
REMARK    2  A    between atoms: N_9  and  N_10 
REMARK    3  A    between atoms: N_10  and  C_11 
REMARK    4  A    between atoms: C_11  and  N_12 
REMARK    5  A    between atoms: N_12  and  C_13 
REMARK    6  A    between atoms: N_15  and  C_16 
REMARK    7  A    between atoms: C_16  and  C_17 
REMARK    8  A    between atoms: C_29  and  C_30 
ROOT
HETATM    1  C   UNL     1      -5.442   3.620 -30.281  1.00  0.00     0.290 C 
HETATM    2  N   UNL     1      -5.971   4.158 -29.124  1.00  0.00    -0.262 N 
HETATM    3  O   UNL     1      -4.306   3.829 -30.698  1.00  0.00    -0.264 OA
HETATM    4  H   UNL     1      -6.875   3.808 -28.809  1.00  0.00     0.190 HD
ENDROOT
BRANCH   2   5
HETATM    5  N   UNL     1      -5.159   4.816 -28.203  1.00  0.00    -0.273 N 
HETATM    6  H   UNL     1      -4.173   4.540 -28.151  1.00  0.00     0.189 HD
BRANCH   5   7
HETATM    7  C   UNL     1      -5.536   6.000 -27.624  1.00  0.00     0.192 C 
HETATM    8  S   UNL     1      -6.850   6.925 -28.111  1.00  0.00    -0.039 SA
BRANCH   7   9
HETATM    9  N   UNL     1      -4.775   6.462 -26.587  1.00  0.00    -0.315 N 
HETATM   10  H   UNL     1      -5.239   6.510 -25.690  1.00  0.00     0.170 HD
BRANCH   9  11
HETATM   11  C   UNL     1      -3.491   6.965 -26.648  1.00  0.00     0.151 A 
HETATM   12  N   UNL     1      -2.882   7.336 -27.777  1.00  0.00    -0.154 NA
HETATM   13  N   UNL     1      -1.681   7.800 -27.372  1.00  0.00    -0.275 N 
HETATM   14  C   UNL     1      -1.501   7.714 -26.022  1.00  0.00     0.116 A 
HETATM   15  C   UNL     1      -2.660   7.167 -25.523  1.00  0.00     0.071 A 
BRANCH  13  16
HETATM   16  C   UNL     1      -0.708   8.262 -28.354  1.00  0.00     0.192 C 
BRANCH  16  17
HETATM   17  C   UNL     1      -0.199   7.132 -29.203  1.00  0.00     0.000 A 
HETATM   18  C   UNL     1      -0.436   7.121 -30.579  1.00  0.00     0.124 A 
HETATM   19  F   UNL     1      -1.109   8.133 -31.144  1.00  0.00    -0.205 F 
HETATM   20  C   UNL     1       0.017   6.081 -31.385  1.00  0.00     0.043 A 
HETATM   21  C   UNL     1       0.720   5.022 -30.813  1.00  0.00     0.003 A 
HETATM   22  C   UNL     1       0.959   5.009 -29.437  1.00  0.00     0.001 A 
HETATM   23  C   UNL     1       0.498   6.055 -28.634  1.00  0.00     0.012 A 
ENDBRANCH  16  17
ENDBRANCH  13  16
ENDBRANCH   9  11
ENDBRANCH   7   9
ENDBRANCH   5   7
ENDBRANCH   2   5
BRANCH   1  24
HETATM   24  C   UNL     1      -6.407   2.747 -30.969  1.00  0.00     0.150 A 
HETATM   25  N   UNL     1      -6.117   2.178 -32.163  1.00  0.00    -0.165 NA
HETATM   26  N   UNL     1      -7.219   1.465 -32.444  1.00  0.00    -0.240 N 
HETATM   27  C   UNL     1      -8.238   1.630 -31.549  1.00  0.00     0.123 A 
HETATM   28  C   UNL     1      -7.323   0.658 -33.644  1.00  0.00     0.221 C 
HETATM   29  N   UNL     1      -9.458   1.093 -31.764  1.00  0.00    -0.371 N 
HETATM   30  C   UNL     1      -7.723   2.410 -30.544  1.00  0.00     0.089 A 
HETATM   31  C   UNL     1      -9.725   0.230 -32.914  1.00  0.00     0.081 C 
HETATM   32  H   UNL     1     -10.156   1.086 -31.021  1.00  0.00     0.161 HD
HETATM   33  C   UNL     1     -11.185   0.391 -33.331  1.00  0.00     0.032 C 
HETATM   34  C   UNL     1      -8.793   0.595 -34.085  1.00  0.00     0.061 C 
BRANCH  28  35
HETATM   35  C   UNL     1      -6.729  -0.710 -33.393  1.00  0.00     0.409 C 
HETATM   36  F   UNL     1      -7.514  -1.710 -33.851  1.00  0.00    -0.169 F 
HETATM   37  F   UNL     1      -5.502  -0.874 -33.934  1.00  0.00    -0.169 F 
HETATM   38  F   UNL     1      -6.592  -0.913 -32.056  1.00  0.00    -0.169 F 
ENDBRANCH  28  35
ENDBRANCH   1  24
TORSDOF 8
ENDMDL
MODEL 10
REMARK VINA RESULT:      -8.8      2.338      8.827
REMARK  8 active torsions:
REMARK  status: ('A' for Active; 'I' for Inactive)
REMARK    1  A    between atoms: C_7  and  C_8 
REMARK       I    between atoms: C_8  and  N_9 
REMARK    2  A    between atoms: N_9  and  N_10 
REMARK    3  A    between atoms: N_10  and  C_11 
REMARK    4  A    between atoms: C_11  and  N_12 
REMARK    5  A    between atoms: N_12  and  C_13 
REMARK    6  A    between atoms: N_15  and  C_16 
REMARK    7  A    between atoms: C_16  and  C_17 
REMARK    8  A    between atoms: C_29  and  C_30 
ROOT
HETATM    1  C   UNL     1      -7.617   2.207 -33.488  1.00  0.00     0.290 C 
HETATM    2  N   UNL     1      -6.584   3.119 -33.402  1.00  0.00    -0.262 N 
HETATM    3  O   UNL     1      -8.811   2.487 -33.423  1.00  0.00    -0.264 OA
HETATM    4  H   UNL     1      -5.641   2.787 -33.604  1.00  0.00     0.190 HD
ENDROOT
BRANCH   2   5
HETATM    5  N   UNL     1      -6.830   4.489 -33.458  1.00  0.00    -0.273 N 
HETATM    6  H   UNL     1      -7.759   4.795 -33.765  1.00  0.00     0.189 HD
BRANCH   5   7
HETATM    7  C   UNL     1      -6.022   5.395 -32.824  1.00  0.00     0.192 C 
HETATM    8  S   UNL     1      -6.240   5.930 -31.247  1.00  0.00    -0.039 SA
BRANCH   7   9
HETATM    9  N   UNL     1      -4.973   5.907 -33.535  1.00  0.00    -0.315 N 
HETATM   10  H   UNL     1      -5.217   6.385 -34.392  1.00  0.00     0.170 HD
BRANCH   9  11
HETATM   11  C   UNL     1      -3.627   5.754 -33.273  1.00  0.00     0.151 A 
HETATM   12  N   UNL     1      -2.840   6.722 -32.793  1.00  0.00    -0.154 NA
HETATM   13  N   UNL     1      -1.635   6.131 -32.649  1.00  0.00    -0.275 N 
HETATM   14  C   UNL     1      -1.628   4.825 -33.045  1.00  0.00     0.116 A 
HETATM   15  C   UNL     1      -2.910   4.553 -33.463  1.00  0.00     0.071 A 
BRANCH  13  16
HETATM   16  C   UNL     1      -0.494   6.906 -32.179  1.00  0.00     0.192 C 
BRANCH  16  17
HETATM   17  C   UNL     1      -0.263   6.716 -30.707  1.00  0.00     0.000 A 
HETATM   18  C   UNL     1       0.532   5.665 -30.247  1.00  0.00     0.124 A 
HETATM   19  F   UNL     1       1.104   4.831 -31.128  1.00  0.00    -0.205 F 
HETATM   20  C   UNL     1       0.753   5.463 -28.888  1.00  0.00     0.043 A 
HETATM   21  C   UNL     1       0.167   6.322 -27.960  1.00  0.00     0.003 A 
HETATM   22  C   UNL     1      -0.640   7.373 -28.399  1.00  0.00     0.001 A 
HETATM   23  C   UNL     1      -0.860   7.568 -29.765  1.00  0.00     0.012 A 
ENDBRANCH  16  17
ENDBRANCH  13  16
ENDBRANCH   9  11
ENDBRANCH   7   9
ENDBRANCH   5   7
ENDBRANCH   2   5
BRANCH   1  24
HETATM   24  C   UNL     1      -7.121   0.834 -33.679  1.00  0.00     0.150 A 
HETATM   25  N   UNL     1      -5.799   0.571 -33.798  1.00  0.00    -0.165 NA
HETATM   26  N   UNL     1      -5.757  -0.763 -33.941  1.00  0.00    -0.240 N 
HETATM   27  C   UNL     1      -6.984  -1.357 -34.027  1.00  0.00     0.123 A 
HETATM   28  C   UNL     1      -4.503  -1.479 -34.071  1.00  0.00     0.221 C 
HETATM   29  N   UNL     1      -7.112  -2.671 -34.311  1.00  0.00    -0.371 N 
HETATM   30  C   UNL     1      -7.894  -0.356 -33.799  1.00  0.00     0.089 A 
HETATM   31  C   UNL     1      -5.947  -3.543 -34.448  1.00  0.00     0.081 C 
HETATM   32  H   UNL     1      -8.015  -3.133 -34.213  1.00  0.00     0.161 HD
HETATM   33  C   UNL     1      -6.269  -4.655 -35.444  1.00  0.00     0.032 C 
HETATM   34  C   UNL     1      -4.726  -2.736 -34.927  1.00  0.00     0.061 C 
BRANCH  28  35
HETATM   35  C   UNL     1      -3.951  -1.797 -32.699  1.00  0.00     0.409 C 
HETATM   36  F   UNL     1      -2.843  -1.083 -32.405  1.00  0.00    -0.169 F 
HETATM   37  F   UNL     1      -4.840  -1.600 -31.702  1.00  0.00    -0.169 F 
HETATM   38  F   UNL     1      -3.590  -3.106 -32.642  1.00  0.00    -0.169 F 
ENDBRANCH  28  35
ENDBRANCH   1  24
TORSDOF 8
ENDMDL
