MODEL 1
REMARK VINA RESULT:      -8.7      0.000      0.000
REMARK  5 active torsions:
REMARK  status: ('A' for Active; 'I' for Inactive)
REMARK    1  A    between atoms: C_8  and  N_9 
REMARK    2  A    between atoms: N_9  and  C_10 
REMARK    3  A    between atoms: C_10  and  C_11 
REMARK       I    between atoms: C_11  and  N_12 
REMARK    4  A    between atoms: N_12  and  N_13 
REMARK    5  A    between atoms: C_14  and  C_15 
ROOT
HETATM    1  C   UNL     1      -9.148   2.651 -34.231  1.00  0.00     0.250 C 
HETATM    2  N   UNL     1      -9.055   1.338 -34.695  1.00  0.00    -0.246 N 
HETATM    3  O   UNL     1      -8.222   3.295 -33.742  1.00  0.00    -0.270 OA
HETATM    4  H   UNL     1      -9.776   0.996 -35.324  1.00  0.00     0.192 HD
ENDROOT
BRANCH   2   5
HETATM    5  N   UNL     1      -7.896   0.602 -34.773  1.00  0.00    -0.184 NA
HETATM    6  C   UNL     1      -7.526  -0.087 -33.740  1.00  0.00     0.152 C 
BRANCH   6   7
HETATM    7  C   UNL     1      -6.283  -0.833 -33.794  1.00  0.00     0.011 A 
HETATM    8  C   UNL     1      -6.117  -2.205 -34.172  1.00  0.00     0.004 A 
HETATM    9  C   UNL     1      -4.755  -2.502 -34.082  1.00  0.00     0.043 A 
HETATM   10  C   UNL     1      -6.999  -3.228 -34.583  1.00  0.00     0.014 A 
HETATM   11  C   UNL     1      -4.232  -3.765 -34.384  1.00  0.00     0.030 A 
HETATM   12  N   UNL     1      -4.118  -1.358 -33.662  1.00  0.00    -0.364 N 
HETATM   13  C   UNL     1      -5.128  -4.759 -34.789  1.00  0.00     0.002 A 
HETATM   14  C   UNL     1      -6.491  -4.497 -34.887  1.00  0.00     0.001 A 
HETATM   15  H   UNL     1      -3.124  -1.281 -33.504  1.00  0.00     0.165 HD
HETATM   16  C   UNL     1      -5.025  -0.348 -33.486  1.00  0.00     0.102 A 
ENDBRANCH   6   7
ENDBRANCH   2   5
BRANCH   1  17
HETATM   17  C   UNL     1     -10.558   3.242 -34.399  1.00  0.00     0.197 C 
BRANCH  17  18
HETATM   18  N   UNL     1     -11.351   3.050 -33.170  1.00  0.00    -0.284 NA
HETATM   19  H   UNL     1     -11.493   3.934 -32.684  1.00  0.00     0.128 HD
BRANCH  18  20
HETATM   20  C   UNL     1     -12.572   2.383 -33.401  1.00  0.00     0.016 A 
HETATM   21  C   UNL     1     -13.750   2.732 -32.702  1.00  0.00    -0.019 A 
HETATM   22  C   UNL     1     -13.782   3.922 -31.777  1.00  0.00     0.052 C 
HETATM   23  C   UNL     1     -14.904   1.946 -32.893  1.00  0.00     0.041 A 
HETATM   24 CL   UNL     1     -16.377   2.272 -32.046  1.00  0.00    -0.084 Cl
HETATM   25  C   UNL     1     -14.901   0.862 -33.774  1.00  0.00     0.024 A 
HETATM   26  C   UNL     1     -13.744   0.535 -34.471  1.00  0.00     0.003 A 
HETATM   27  C   UNL     1     -12.585   1.286 -34.278  1.00  0.00     0.024 A 
ENDBRANCH  18  20
ENDBRANCH  17  18
ENDBRANCH   1  17
TORSDOF 5
ENDMDL
MODEL 2
REMARK VINA RESULT:      -8.3      3.051      8.515
REMARK  5 active torsions:
REMARK  status: ('A' for Active; 'I' for Inactive)
REMARK    1  A    between atoms: C_8  and  N_9 
REMARK    2  A    between atoms: N_9  and  C_10 
REMARK    3  A    between atoms: C_10  and  C_11 
REMARK       I    between atoms: C_11  and  N_12 
REMARK    4  A    between atoms: N_12  and  N_13 
REMARK    5  A    between atoms: C_14  and  C_15 
ROOT
HETATM    1  C   UNL     1      -6.231   0.534 -31.595  1.00  0.00     0.250 C 
HETATM    2  N   UNL     1      -7.395   0.029 -32.175  1.00  0.00    -0.246 N 
HETATM    3  O   UNL     1      -6.107   1.665 -31.128  1.00  0.00    -0.270 OA
HETATM    4  H   UNL     1      -7.490  -0.977 -32.272  1.00  0.00     0.192 HD
ENDROOT
BRANCH   2   5
HETATM    5  N   UNL     1      -8.608   0.677 -32.220  1.00  0.00    -0.184 NA
HETATM    6  C   UNL     1      -9.057   1.076 -33.368  1.00  0.00     0.152 C 
BRANCH   6   7
HETATM    7  C   UNL     1     -10.314   1.799 -33.425  1.00  0.00     0.011 A 
HETATM    8  C   UNL     1     -11.630   1.235 -33.497  1.00  0.00     0.004 A 
HETATM    9  C   UNL     1     -12.537   2.297 -33.530  1.00  0.00     0.043 A 
HETATM   10  C   UNL     1     -12.138  -0.081 -33.539  1.00  0.00     0.014 A 
HETATM   11  C   UNL     1     -13.923   2.109 -33.600  1.00  0.00     0.030 A 
HETATM   12  N   UNL     1     -11.803   3.459 -33.484  1.00  0.00    -0.364 N 
HETATM   13  C   UNL     1     -14.399   0.796 -33.639  1.00  0.00     0.002 A 
HETATM   14  C   UNL     1     -13.521  -0.285 -33.609  1.00  0.00     0.001 A 
HETATM   15  H   UNL     1     -12.200   4.388 -33.500  1.00  0.00     0.165 HD
HETATM   16  C   UNL     1     -10.467   3.173 -33.420  1.00  0.00     0.102 A 
ENDBRANCH   6   7
ENDBRANCH   2   5
BRANCH   1  17
HETATM   17  C   UNL     1      -5.082  -0.487 -31.584  1.00  0.00     0.197 C 
BRANCH  17  18
HETATM   18  N   UNL     1      -4.515  -0.645 -32.937  1.00  0.00    -0.284 NA
HETATM   19  H   UNL     1      -3.610  -0.186 -33.012  1.00  0.00     0.128 HD
BRANCH  18  20
HETATM   20  C   UNL     1      -4.449  -1.992 -33.353  1.00  0.00     0.016 A 
HETATM   21  C   UNL     1      -5.368  -2.525 -34.285  1.00  0.00    -0.019 A 
HETATM   22  C   UNL     1      -6.375  -1.641 -34.976  1.00  0.00     0.052 C 
HETATM   23  C   UNL     1      -5.319  -3.905 -34.564  1.00  0.00     0.041 A 
HETATM   24 CL   UNL     1      -6.434  -4.652 -35.657  1.00  0.00    -0.084 Cl
HETATM   25  C   UNL     1      -4.369  -4.730 -33.959  1.00  0.00     0.024 A 
HETATM   26  C   UNL     1      -3.456  -4.197 -33.056  1.00  0.00     0.003 A 
HETATM   27  C   UNL     1      -3.504  -2.838 -32.749  1.00  0.00     0.024 A 
ENDBRANCH  18  20
ENDBRANCH  17  18
ENDBRANCH   1  17
TORSDOF 5
ENDMDL
MODEL 3
REMARK VINA RESULT:      -8.2      8.002     10.281
REMARK  5 active torsions:
REMARK  status: ('A' for Active; 'I' for Inactive)
REMARK    1  A    between atoms: C_8  and  N_9 
REMARK    2  A    between atoms: N_9  and  C_10 
REMARK    3  A    between atoms: C_10  and  C_11 
REMARK       I    between atoms: C_11  and  N_12 
REMARK    4  A    between atoms: N_12  and  N_13 
REMARK    5  A    between atoms: C_14  and  C_15 
ROOT
HETATM    1  C   UNL     1      -2.055   4.829 -31.360  1.00  0.00     0.250 C 
HETATM    2  N   UNL     1      -3.013   3.832 -31.172  1.00  0.00    -0.246 N 
HETATM    3  O   UNL     1      -0.948   4.658 -31.869  1.00  0.00    -0.270 OA
HETATM    4  H   UNL     1      -3.976   4.113 -31.009  1.00  0.00     0.192 HD
ENDROOT
BRANCH   2   5
HETATM    5  N   UNL     1      -2.913   2.536 -31.620  1.00  0.00    -0.184 NA
HETATM    6  C   UNL     1      -3.968   1.784 -31.592  1.00  0.00     0.152 C 
BRANCH   6   7
HETATM    7  C   UNL     1      -3.865   0.402 -32.020  1.00  0.00     0.011 A 
HETATM    8  C   UNL     1      -4.699  -0.270 -32.973  1.00  0.00     0.004 A 
HETATM    9  C   UNL     1      -4.238  -1.584 -33.077  1.00  0.00     0.043 A 
HETATM   10  C   UNL     1      -5.807   0.116 -33.758  1.00  0.00     0.014 A 
HETATM   11  C   UNL     1      -4.826  -2.529 -33.928  1.00  0.00     0.030 A 
HETATM   12  N   UNL     1      -3.170  -1.708 -32.220  1.00  0.00    -0.364 N 
HETATM   13  C   UNL     1      -5.920  -2.120 -34.695  1.00  0.00     0.002 A 
HETATM   14  C   UNL     1      -6.406  -0.818 -34.613  1.00  0.00     0.001 A 
HETATM   15  H   UNL     1      -2.641  -2.558 -32.084  1.00  0.00     0.165 HD
HETATM   16  C   UNL     1      -2.936  -0.522 -31.580  1.00  0.00     0.102 A 
ENDBRANCH   6   7
ENDBRANCH   2   5
BRANCH   1  17
HETATM   17  C   UNL     1      -2.523   6.206 -30.863  1.00  0.00     0.197 C 
BRANCH  17  18
HETATM   18  N   UNL     1      -2.460   6.276 -29.390  1.00  0.00    -0.284 NA
HETATM   19  H   UNL     1      -2.053   5.428 -29.000  1.00  0.00     0.128 HD
BRANCH  18  20
HETATM   20  C   UNL     1      -1.801   7.431 -28.921  1.00  0.00     0.016 A 
HETATM   21  C   UNL     1      -0.439   7.405 -28.546  1.00  0.00    -0.019 A 
HETATM   22  C   UNL     1       0.403   6.173 -28.758  1.00  0.00     0.052 C 
HETATM   23  C   UNL     1       0.124   8.563 -27.973  1.00  0.00     0.041 A 
HETATM   24 CL   UNL     1       1.771   8.608 -27.443  1.00  0.00    -0.084 Cl
HETATM   25  C   UNL     1      -0.633   9.725 -27.803  1.00  0.00     0.024 A 
HETATM   26  C   UNL     1      -1.968   9.749 -28.190  1.00  0.00     0.003 A 
HETATM   27  C   UNL     1      -2.549   8.606 -28.737  1.00  0.00     0.024 A 
ENDBRANCH  18  20
ENDBRANCH  17  18
ENDBRANCH   1  17
TORSDOF 5
ENDMDL
MODEL 4
REMARK VINA RESULT:      -8.1      5.490      8.825
REMARK  5 active torsions:
REMARK  status: ('A' for Active; 'I' for Inactive)
REMARK    1  A    between atoms: C_8  and  N_9 
REMARK    2  A    between atoms: N_9  and  C_10 
REMARK    3  A    between atoms: C_10  and  C_11 
REMARK       I    between atoms: C_11  and  N_12 
REMARK    4  A    between atoms: N_12  and  N_13 
REMARK    5  A    between atoms: C_14  and  C_15 
ROOT
HETATM    1  C   UNL     1      -6.882   0.796 -32.472  1.00  0.00     0.250 C 
HETATM    2  N   UNL     1      -5.935   1.516 -33.202  1.00  0.00    -0.246 N 
HETATM    3  O   UNL     1      -7.367   1.151 -31.399  1.00  0.00    -0.270 OA
HETATM    4  H   UNL     1      -5.807   1.289 -34.184  1.00  0.00     0.192 HD
ENDROOT
BRANCH   2   5
HETATM    5  N   UNL     1      -5.479   2.775 -32.890  1.00  0.00    -0.184 NA
HETATM    6  C   UNL     1      -4.264   2.907 -32.458  1.00  0.00     0.152 C 
BRANCH   6   7
HETATM    7  C   UNL     1      -3.785   4.225 -32.084  1.00  0.00     0.011 A 
HETATM    8  C   UNL     1      -2.824   5.024 -32.786  1.00  0.00     0.004 A 
HETATM    9  C   UNL     1      -2.668   6.213 -32.071  1.00  0.00     0.043 A 
HETATM   10  C   UNL     1      -2.069   4.848 -33.966  1.00  0.00     0.014 A 
HETATM   11  C   UNL     1      -1.799   7.234 -32.476  1.00  0.00     0.030 A 
HETATM   12  N   UNL     1      -3.496   6.139 -30.975  1.00  0.00    -0.364 N 
HETATM   13  C   UNL     1      -1.064   7.034 -33.648  1.00  0.00     0.002 A 
HETATM   14  C   UNL     1      -1.196   5.859 -34.384  1.00  0.00     0.001 A 
HETATM   15  H   UNL     1      -3.584   6.861 -30.275  1.00  0.00     0.165 HD
HETATM   16  C   UNL     1      -4.172   4.950 -30.973  1.00  0.00     0.102 A 
ENDBRANCH   6   7
ENDBRANCH   2   5
BRANCH   1  17
HETATM   17  C   UNL     1      -7.282  -0.522 -33.155  1.00  0.00     0.197 C 
BRANCH  17  18
HETATM   18  N   UNL     1      -6.355  -0.839 -34.258  1.00  0.00    -0.284 NA
HETATM   19  H   UNL     1      -5.511  -0.271 -34.202  1.00  0.00     0.128 HD
BRANCH  18  20
HETATM   20  C   UNL     1      -6.051  -2.213 -34.346  1.00  0.00     0.016 A 
HETATM   21  C   UNL     1      -4.820  -2.730 -33.883  1.00  0.00    -0.019 A 
HETATM   22  C   UNL     1      -3.834  -1.854 -33.153  1.00  0.00     0.052 C 
HETATM   23  C   UNL     1      -4.533  -4.091 -34.110  1.00  0.00     0.041 A 
HETATM   24 CL   UNL     1      -3.032  -4.799 -33.619  1.00  0.00    -0.084 Cl
HETATM   25  C   UNL     1      -5.452  -4.924 -34.753  1.00  0.00     0.024 A 
HETATM   26  C   UNL     1      -6.668  -4.413 -35.191  1.00  0.00     0.003 A 
HETATM   27  C   UNL     1      -6.960  -3.064 -34.996  1.00  0.00     0.024 A 
ENDBRANCH  18  20
ENDBRANCH  17  18
ENDBRANCH   1  17
TORSDOF 5
ENDMDL
MODEL 5
REMARK VINA RESULT:      -8.1      8.404     10.920
REMARK  5 active torsions:
REMARK  status: ('A' for Active; 'I' for Inactive)
REMARK    1  A    between atoms: C_8  and  N_9 
REMARK    2  A    between atoms: N_9  and  C_10 
REMARK    3  A    between atoms: C_10  and  C_11 
REMARK       I    between atoms: C_11  and  N_12 
REMARK    4  A    between atoms: N_12  and  N_13 
REMARK    5  A    between atoms: C_14  and  C_15 
ROOT
HETATM    1  C   UNL     1      -1.179   5.127 -31.017  1.00  0.00     0.250 C 
HETATM    2  N   UNL     1      -2.372   4.405 -30.957  1.00  0.00    -0.246 N 
HETATM    3  O   UNL     1      -0.136   4.725 -31.530  1.00  0.00    -0.270 OA
HETATM    4  H   UNL     1      -3.233   4.911 -30.773  1.00  0.00     0.192 HD
ENDROOT
BRANCH   2   5
HETATM    5  N   UNL     1      -2.596   3.186 -31.551  1.00  0.00    -0.184 NA
HETATM    6  C   UNL     1      -3.612   2.481 -31.162  1.00  0.00     0.152 C 
BRANCH   6   7
HETATM    7  C   UNL     1      -3.834   1.173 -31.750  1.00  0.00     0.011 A 
HETATM    8  C   UNL     1      -4.818   0.826 -32.732  1.00  0.00     0.004 A 
HETATM    9  C   UNL     1      -4.669  -0.536 -33.007  1.00  0.00     0.043 A 
HETATM   10  C   UNL     1      -5.825   1.541 -33.414  1.00  0.00     0.014 A 
HETATM   11  C   UNL     1      -5.473  -1.215 -33.931  1.00  0.00     0.030 A 
HETATM   12  N   UNL     1      -3.640  -0.998 -32.222  1.00  0.00    -0.364 N 
HETATM   13  C   UNL     1      -6.462  -0.482 -34.593  1.00  0.00     0.002 A 
HETATM   14  C   UNL     1      -6.638   0.876 -34.340  1.00  0.00     0.001 A 
HETATM   15  H   UNL     1      -3.314  -1.954 -32.209  1.00  0.00     0.165 HD
HETATM   16  C   UNL     1      -3.130   0.019 -31.463  1.00  0.00     0.102 A 
ENDBRANCH   6   7
ENDBRANCH   2   5
BRANCH   1  17
HETATM   17  C   UNL     1      -1.291   6.516 -30.368  1.00  0.00     0.197 C 
BRANCH  17  18
HETATM   18  N   UNL     1      -1.483   6.395 -28.910  1.00  0.00    -0.284 NA
HETATM   19  H   UNL     1      -1.421   5.423 -28.612  1.00  0.00     0.128 HD
BRANCH  18  20
HETATM   20  C   UNL     1      -0.614   7.222 -28.169  1.00  0.00     0.016 A 
HETATM   21  C   UNL     1      -0.987   7.751 -26.913  1.00  0.00    -0.019 A 
HETATM   22  C   UNL     1      -2.280   7.345 -26.251  1.00  0.00     0.052 C 
HETATM   23  C   UNL     1      -0.120   8.666 -26.283  1.00  0.00     0.041 A 
HETATM   24 CL   UNL     1      -0.517   9.399 -24.766  1.00  0.00    -0.084 Cl
HETATM   25  C   UNL     1       1.097   9.024 -26.867  1.00  0.00     0.024 A 
HETATM   26  C   UNL     1       1.467   8.487 -28.094  1.00  0.00     0.003 A 
HETATM   27  C   UNL     1       0.611   7.599 -28.744  1.00  0.00     0.024 A 
ENDBRANCH  18  20
ENDBRANCH  17  18
ENDBRANCH   1  17
TORSDOF 5
ENDMDL
MODEL 6
REMARK VINA RESULT:      -7.9      3.191      8.741
REMARK  5 active torsions:
REMARK  status: ('A' for Active; 'I' for Inactive)
REMARK    1  A    between atoms: C_8  and  N_9 
REMARK    2  A    between atoms: N_9  and  C_10 
REMARK    3  A    between atoms: C_10  and  C_11 
REMARK       I    between atoms: C_11  and  N_12 
REMARK    4  A    between atoms: N_12  and  N_13 
REMARK    5  A    between atoms: C_14  and  C_15 
ROOT
HETATM    1  C   UNL     1      -6.441   0.538 -32.267  1.00  0.00     0.250 C 
HETATM    2  N   UNL     1      -7.707  -0.049 -32.241  1.00  0.00    -0.246 N 
HETATM    3  O   UNL     1      -6.212   1.712 -32.551  1.00  0.00    -0.270 OA
HETATM    4  H   UNL     1      -7.824  -0.922 -31.735  1.00  0.00     0.192 HD
ENDROOT
BRANCH   2   5
HETATM    5  N   UNL     1      -8.896   0.616 -32.422  1.00  0.00    -0.184 NA
HETATM    6  C   UNL     1      -9.523   0.474 -33.548  1.00  0.00     0.152 C 
BRANCH   6   7
HETATM    7  C   UNL     1     -10.757   1.205 -33.769  1.00  0.00     0.011 A 
HETATM    8  C   UNL     1     -10.888   2.560 -34.215  1.00  0.00     0.004 A 
HETATM    9  C   UNL     1     -12.254   2.844 -34.288  1.00  0.00     0.043 A 
HETATM   10  C   UNL     1      -9.973   3.577 -34.563  1.00  0.00     0.014 A 
HETATM   11  C   UNL     1     -12.749   4.090 -34.694  1.00  0.00     0.030 A 
HETATM   12  N   UNL     1     -12.926   1.710 -33.898  1.00  0.00    -0.364 N 
HETATM   13  C   UNL     1     -11.820   5.078 -35.034  1.00  0.00     0.002 A 
HETATM   14  C   UNL     1     -10.452   4.828 -34.970  1.00  0.00     0.001 A 
HETATM   15  H   UNL     1     -13.931   1.628 -33.849  1.00  0.00     0.165 HD
HETATM   16  C   UNL     1     -12.038   0.718 -33.585  1.00  0.00     0.102 A 
ENDBRANCH   6   7
ENDBRANCH   2   5
BRANCH   1  17
HETATM   17  C   UNL     1      -5.321  -0.447 -31.892  1.00  0.00     0.197 C 
BRANCH  17  18
HETATM   18  N   UNL     1      -4.444  -0.702 -33.051  1.00  0.00    -0.284 NA
HETATM   19  H   UNL     1      -3.509  -0.331 -32.891  1.00  0.00     0.128 HD
BRANCH  18  20
HETATM   20  C   UNL     1      -4.405  -2.062 -33.424  1.00  0.00     0.016 A 
HETATM   21  C   UNL     1      -5.328  -2.603 -34.348  1.00  0.00    -0.019 A 
HETATM   22  C   UNL     1      -6.309  -1.718 -35.075  1.00  0.00     0.052 C 
HETATM   23  C   UNL     1      -5.309  -3.991 -34.584  1.00  0.00     0.041 A 
HETATM   24 CL   UNL     1      -6.432  -4.747 -35.664  1.00  0.00    -0.084 Cl
HETATM   25  C   UNL     1      -4.383  -4.819 -33.945  1.00  0.00     0.024 A 
HETATM   26  C   UNL     1      -3.467  -4.279 -33.050  1.00  0.00     0.003 A 
HETATM   27  C   UNL     1      -3.485  -2.910 -32.786  1.00  0.00     0.024 A 
ENDBRANCH  18  20
ENDBRANCH  17  18
ENDBRANCH   1  17
TORSDOF 5
ENDMDL
MODEL 7
REMARK VINA RESULT:      -7.6      5.661      7.719
REMARK  5 active torsions:
REMARK  status: ('A' for Active; 'I' for Inactive)
REMARK    1  A    between atoms: C_8  and  N_9 
REMARK    2  A    between atoms: N_9  and  C_10 
REMARK    3  A    between atoms: C_10  and  C_11 
REMARK       I    between atoms: C_11  and  N_12 
REMARK    4  A    between atoms: N_12  and  N_13 
REMARK    5  A    between atoms: C_14  and  C_15 
ROOT
HETATM    1  C   UNL     1      -7.944   3.285 -30.578  1.00  0.00     0.250 C 
HETATM    2  N   UNL     1      -7.329   3.934 -31.650  1.00  0.00    -0.246 N 
HETATM    3  O   UNL     1      -7.478   3.197 -29.444  1.00  0.00    -0.270 OA
HETATM    4  H   UNL     1      -7.899   4.194 -32.449  1.00  0.00     0.192 HD
ENDROOT
BRANCH   2   5
HETATM    5  N   UNL     1      -6.164   4.661 -31.577  1.00  0.00    -0.184 NA
HETATM    6  C   UNL     1      -5.935   5.562 -32.481  1.00  0.00     0.152 C 
BRANCH   6   7
HETATM    7  C   UNL     1      -4.690   6.306 -32.441  1.00  0.00     0.011 A 
HETATM    8  C   UNL     1      -3.515   6.062 -33.224  1.00  0.00     0.004 A 
HETATM    9  C   UNL     1      -2.565   7.019 -32.859  1.00  0.00     0.043 A 
HETATM   10  C   UNL     1      -3.167   5.116 -34.212  1.00  0.00     0.014 A 
HETATM   11  C   UNL     1      -1.288   7.078 -33.432  1.00  0.00     0.030 A 
HETATM   12  N   UNL     1      -3.137   7.809 -31.889  1.00  0.00    -0.364 N 
HETATM   13  C   UNL     1      -0.971   6.129 -34.408  1.00  0.00     0.002 A 
HETATM   14  C   UNL     1      -1.894   5.161 -34.794  1.00  0.00     0.001 A 
HETATM   15  H   UNL     1      -2.674   8.583 -31.435  1.00  0.00     0.165 HD
HETATM   16  C   UNL     1      -4.413   7.391 -31.631  1.00  0.00     0.102 A 
ENDBRANCH   6   7
ENDBRANCH   2   5
BRANCH   1  17
HETATM   17  C   UNL     1      -9.304   2.676 -30.954  1.00  0.00     0.197 C 
BRANCH  17  18
HETATM   18  N   UNL     1      -9.225   1.203 -30.980  1.00  0.00    -0.284 NA
HETATM   19  H   UNL     1     -10.140   0.784 -30.826  1.00  0.00     0.128 HD
BRANCH  18  20
HETATM   20  C   UNL     1      -8.616   0.704 -32.151  1.00  0.00     0.016 A 
HETATM   21  C   UNL     1      -7.338   0.102 -32.122  1.00  0.00    -0.019 A 
HETATM   22  C   UNL     1      -6.629  -0.154 -30.816  1.00  0.00     0.052 C 
HETATM   23  C   UNL     1      -6.739  -0.265 -33.343  1.00  0.00     0.041 A 
HETATM   24 CL   UNL     1      -5.158  -0.966 -33.406  1.00  0.00    -0.084 Cl
HETATM   25  C   UNL     1      -7.399  -0.068 -34.558  1.00  0.00     0.024 A 
HETATM   26  C   UNL     1      -8.663   0.509 -34.579  1.00  0.00     0.003 A 
HETATM   27  C   UNL     1      -9.262   0.900 -33.383  1.00  0.00     0.024 A 
ENDBRANCH  18  20
ENDBRANCH  17  18
ENDBRANCH   1  17
TORSDOF 5
ENDMDL
MODEL 8
REMARK VINA RESULT:      -7.6      1.182      2.118
REMARK  5 active torsions:
REMARK  status: ('A' for Active; 'I' for Inactive)
REMARK    1  A    between atoms: C_8  and  N_9 
REMARK    2  A    between atoms: N_9  and  C_10 
REMARK    3  A    between atoms: C_10  and  C_11 
REMARK       I    between atoms: C_11  and  N_12 
REMARK    4  A    between atoms: N_12  and  N_13 
REMARK    5  A    between atoms: C_14  and  C_15 
ROOT
HETATM    1  C   UNL     1      -9.378   2.414 -33.587  1.00  0.00     0.250 C 
HETATM    2  N   UNL     1      -9.433   1.069 -33.218  1.00  0.00    -0.246 N 
HETATM    3  O   UNL     1      -8.344   3.054 -33.772  1.00  0.00    -0.270 OA
HETATM    4  H   UNL     1     -10.302   0.564 -33.361  1.00  0.00     0.192 HD
ENDROOT
BRANCH   2   5
HETATM    5  N   UNL     1      -8.350   0.229 -33.106  1.00  0.00    -0.184 NA
HETATM    6  C   UNL     1      -7.820  -0.249 -34.188  1.00  0.00     0.152 C 
BRANCH   6   7
HETATM    7  C   UNL     1      -6.704  -1.171 -34.083  1.00  0.00     0.011 A 
HETATM    8  C   UNL     1      -5.570  -1.056 -33.214  1.00  0.00     0.004 A 
HETATM    9  C   UNL     1      -4.752  -2.164 -33.448  1.00  0.00     0.043 A 
HETATM   10  C   UNL     1      -5.159  -0.111 -32.250  1.00  0.00     0.014 A 
HETATM   11  C   UNL     1      -3.548  -2.375 -32.764  1.00  0.00     0.030 A 
HETATM   12  N   UNL     1      -5.361  -2.920 -34.421  1.00  0.00    -0.364 N 
HETATM   13  C   UNL     1      -3.166  -1.424 -31.813  1.00  0.00     0.002 A 
HETATM   14  C   UNL     1      -3.958  -0.308 -31.558  1.00  0.00     0.001 A 
HETATM   15  H   UNL     1      -4.988  -3.781 -34.794  1.00  0.00     0.165 HD
HETATM   16  C   UNL     1      -6.534  -2.334 -34.811  1.00  0.00     0.102 A 
ENDBRANCH   6   7
ENDBRANCH   2   5
BRANCH   1  17
HETATM   17  C   UNL     1     -10.771   3.041 -33.754  1.00  0.00     0.197 C 
BRANCH  17  18
HETATM   18  N   UNL     1     -11.647   2.670 -32.627  1.00  0.00    -0.284 NA
HETATM   19  H   UNL     1     -11.738   3.438 -31.965  1.00  0.00     0.128 HD
BRANCH  18  20
HETATM   20  C   UNL     1     -12.907   2.192 -33.042  1.00  0.00     0.016 A 
HETATM   21  C   UNL     1     -14.103   2.626 -32.427  1.00  0.00    -0.019 A 
HETATM   22  C   UNL     1     -14.092   3.720 -31.390  1.00  0.00     0.052 C 
HETATM   23  C   UNL     1     -15.316   2.019 -32.810  1.00  0.00     0.041 A 
HETATM   24 CL   UNL     1     -16.823   2.455 -32.077  1.00  0.00    -0.084 Cl
HETATM   25  C   UNL     1     -15.348   1.030 -33.795  1.00  0.00     0.024 A 
HETATM   26  C   UNL     1     -14.170   0.620 -34.409  1.00  0.00     0.003 A 
HETATM   27  C   UNL     1     -12.958   1.192 -34.027  1.00  0.00     0.024 A 
ENDBRANCH  18  20
ENDBRANCH  17  18
ENDBRANCH   1  17
TORSDOF 5
ENDMDL
MODEL 9
REMARK VINA RESULT:      -7.5      6.837      9.324
REMARK  5 active torsions:
REMARK  status: ('A' for Active; 'I' for Inactive)
REMARK    1  A    between atoms: C_8  and  N_9 
REMARK    2  A    between atoms: N_9  and  C_10 
REMARK    3  A    between atoms: C_10  and  C_11 
REMARK       I    between atoms: C_11  and  N_12 
REMARK    4  A    between atoms: N_12  and  N_13 
REMARK    5  A    between atoms: C_14  and  C_15 
ROOT
HETATM    1  C   UNL     1      -5.055   5.666 -32.163  1.00  0.00     0.250 C 
HETATM    2  N   UNL     1      -5.219   4.404 -31.591  1.00  0.00    -0.246 N 
HETATM    3  O   UNL     1      -5.478   6.002 -33.268  1.00  0.00    -0.270 OA
HETATM    4  H   UNL     1      -5.087   4.307 -30.588  1.00  0.00     0.192 HD
ENDROOT
BRANCH   2   5
HETATM    5  N   UNL     1      -5.965   3.379 -32.124  1.00  0.00    -0.184 NA
HETATM    6  C   UNL     1      -5.417   2.606 -33.008  1.00  0.00     0.152 C 
BRANCH   6   7
HETATM    7  C   UNL     1      -6.207   1.548 -33.610  1.00  0.00     0.011 A 
HETATM    8  C   UNL     1      -5.828   0.175 -33.773  1.00  0.00     0.004 A 
HETATM    9  C   UNL     1      -6.892  -0.480 -34.397  1.00  0.00     0.043 A 
HETATM   10  C   UNL     1      -4.677  -0.575 -33.449  1.00  0.00     0.014 A 
HETATM   11  C   UNL     1      -6.864  -1.845 -34.710  1.00  0.00     0.030 A 
HETATM   12  N   UNL     1      -7.877   0.456 -34.609  1.00  0.00    -0.364 N 
HETATM   13  C   UNL     1      -5.713  -2.564 -34.377  1.00  0.00     0.002 A 
HETATM   14  C   UNL     1      -4.634  -1.940 -33.756  1.00  0.00     0.001 A 
HETATM   15  H   UNL     1      -8.764   0.264 -35.052  1.00  0.00     0.165 HD
HETATM   16  C   UNL     1      -7.477   1.678 -34.140  1.00  0.00     0.102 A 
ENDBRANCH   6   7
ENDBRANCH   2   5
BRANCH   1  17
HETATM   17  C   UNL     1      -4.277   6.633 -31.255  1.00  0.00     0.197 C 
BRANCH  17  18
HETATM   18  N   UNL     1      -3.434   5.887 -30.302  1.00  0.00    -0.284 NA
HETATM   19  H   UNL     1      -3.627   4.888 -30.346  1.00  0.00     0.128 HD
BRANCH  18  20
HETATM   20  C   UNL     1      -2.058   6.157 -30.454  1.00  0.00     0.016 A 
HETATM   21  C   UNL     1      -1.322   6.836 -29.457  1.00  0.00    -0.019 A 
HETATM   22  C   UNL     1      -1.947   7.183 -28.130  1.00  0.00     0.052 C 
HETATM   23  C   UNL     1       0.018   7.179 -29.726  1.00  0.00     0.041 A 
HETATM   24 CL   UNL     1       0.981   8.051 -28.582  1.00  0.00    -0.084 Cl
HETATM   25  C   UNL     1       0.622   6.834 -30.937  1.00  0.00     0.024 A 
HETATM   26  C   UNL     1      -0.102   6.150 -31.907  1.00  0.00     0.003 A 
HETATM   27  C   UNL     1      -1.436   5.823 -31.669  1.00  0.00     0.024 A 
ENDBRANCH  18  20
ENDBRANCH  17  18
ENDBRANCH   1  17
TORSDOF 5
ENDMDL
MODEL 10
REMARK VINA RESULT:      -7.5      8.044     10.574
REMARK  5 active torsions:
REMARK  status: ('A' for Active; 'I' for Inactive)
REMARK    1  A    between atoms: C_8  and  N_9 
REMARK    2  A    between atoms: N_9  and  C_10 
REMARK    3  A    between atoms: C_10  and  C_11 
REMARK       I    between atoms: C_11  and  N_12 
REMARK    4  A    between atoms: N_12  and  N_13 
REMARK    5  A    between atoms: C_14  and  C_15 
ROOT
HETATM    1  C   UNL     1      -1.772   5.292 -31.589  1.00  0.00     0.250 C 
HETATM    2  N   UNL     1      -2.440   4.125 -31.218  1.00  0.00    -0.246 N 
HETATM    3  O   UNL     1      -1.992   5.937 -32.613  1.00  0.00    -0.270 OA
HETATM    4  H   UNL     1      -2.390   3.828 -30.247  1.00  0.00     0.192 HD
ENDROOT
BRANCH   2   5
HETATM    5  N   UNL     1      -3.513   3.577 -31.880  1.00  0.00    -0.184 NA
HETATM    6  C   UNL     1      -3.659   2.289 -31.869  1.00  0.00     0.152 C 
BRANCH   6   7
HETATM    7  C   UNL     1      -4.762   1.695 -32.601  1.00  0.00     0.011 A 
HETATM    8  C   UNL     1      -4.838   0.358 -33.112  1.00  0.00     0.004 A 
HETATM    9  C   UNL     1      -6.077   0.222 -33.742  1.00  0.00     0.043 A 
HETATM   10  C   UNL     1      -3.967  -0.753 -33.100  1.00  0.00     0.014 A 
HETATM   11  C   UNL     1      -6.489  -0.968 -34.357  1.00  0.00     0.030 A 
HETATM   12  N   UNL     1      -6.727   1.427 -33.624  1.00  0.00    -0.364 N 
HETATM   13  C   UNL     1      -5.607  -2.052 -34.329  1.00  0.00     0.002 A 
HETATM   14  C   UNL     1      -4.364  -1.948 -33.710  1.00  0.00     0.001 A 
HETATM   15  H   UNL     1      -7.646   1.621 -33.994  1.00  0.00     0.165 HD
HETATM   16  C   UNL     1      -5.948   2.320 -32.940  1.00  0.00     0.102 A 
ENDBRANCH   6   7
ENDBRANCH   2   5
BRANCH   1  17
HETATM   17  C   UNL     1      -0.705   5.717 -30.567  1.00  0.00     0.197 C 
BRANCH  17  18
HETATM   18  N   UNL     1      -1.325   6.025 -29.265  1.00  0.00    -0.284 NA
HETATM   19  H   UNL     1      -1.426   5.185 -28.699  1.00  0.00     0.128 HD
BRANCH  18  20
HETATM   20  C   UNL     1      -0.653   7.047 -28.563  1.00  0.00     0.016 A 
HETATM   21  C   UNL     1      -1.235   8.320 -28.371  1.00  0.00    -0.019 A 
HETATM   22  C   UNL     1      -2.656   8.598 -28.794  1.00  0.00     0.052 C 
HETATM   23  C   UNL     1      -0.462   9.330 -27.766  1.00  0.00     0.041 A 
HETATM   24 CL   UNL     1      -1.076  10.932 -27.533  1.00  0.00    -0.084 Cl
HETATM   25  C   UNL     1       0.843   9.079 -27.336  1.00  0.00     0.024 A 
HETATM   26  C   UNL     1       1.404   7.819 -27.511  1.00  0.00     0.003 A 
HETATM   27  C   UNL     1       0.662   6.814 -28.129  1.00  0.00     0.024 A 
ENDBRANCH  18  20
ENDBRANCH  17  18
ENDBRANCH   1  17
TORSDOF 5
ENDMDL
