MODEL 1
REMARK VINA RESULT:      -9.8      0.000      0.000
REMARK  7 active torsions:
REMARK  status: ('A' for Active; 'I' for Inactive)
REMARK    1  A    between atoms: C_3  and  N_4 
REMARK       I    between atoms: N_4  and  C_5 
REMARK       I    between atoms: C_5  and  N_6 
REMARK       I    between atoms: N_6  and  C_7 
REMARK    2  A    between atoms: C_7  and  C_8 
REMARK    3  A    between atoms: C_8  and  S_9 
REMARK    4  A    between atoms: S_9  and  C_10 
REMARK    5  A    between atoms: N_11  and  C_12 
REMARK    6  A    between atoms: C_19  and  C_20 
REMARK    7  A    between atoms: C_20  and  N_21 
ROOT
HETATM    1  C   UNL     1      -5.290   4.529 -30.710  1.00  0.00     0.196 A 
HETATM    2  N   UNL     1      -4.197   5.347 -30.931  1.00  0.00    -0.274 N 
HETATM    3  C   UNL     1      -4.160   6.160 -29.806  1.00  0.00     0.161 A 
HETATM    4  N   UNL     1      -5.129   5.825 -28.976  1.00  0.00    -0.132 NA
HETATM    5  N   UNL     1      -5.829   4.796 -29.541  1.00  0.00    -0.122 NA
ENDROOT
BRANCH   1   6
HETATM    6  S   UNL     1      -5.757   3.218 -31.738  1.00  0.00    -0.080 SA
BRANCH   6   7
HETATM    7  C   UNL     1      -5.082   1.794 -30.830  1.00  0.00     0.185 C 
BRANCH   7   8
HETATM    8  C   UNL     1      -3.698   1.392 -31.335  1.00  0.00     0.235 C 
HETATM    9  N   UNL     1      -3.583   0.242 -32.092  1.00  0.00    -0.278 N 
HETATM   10  C   UNL     1      -4.537  -0.730 -32.356  1.00  0.00     0.327 C 
HETATM   11  H   UNL     1      -2.642   0.070 -32.407  1.00  0.00     0.173 HD
HETATM   12  N   UNL     1      -4.076  -1.657 -33.266  1.00  0.00    -0.306 N 
HETATM   13  O   UNL     1      -5.646  -0.728 -31.839  1.00  0.00    -0.247 OA
HETATM   14  H   UNL     1      -3.085  -1.679 -33.476  1.00  0.00     0.171 HD
HETATM   15  O   UNL     1      -2.665   2.025 -31.091  1.00  0.00    -0.272 OA
BRANCH  12  16
HETATM   16  C   UNL     1      -4.819  -2.676 -33.905  1.00  0.00     0.075 A 
HETATM   17  C   UNL     1      -6.024  -2.471 -34.580  1.00  0.00     0.033 A 
HETATM   18  C   UNL     1      -6.665  -3.543 -35.214  1.00  0.00     0.002 A 
HETATM   19  C   UNL     1      -6.113  -4.825 -35.176  1.00  0.00     0.003 A 
HETATM   20  C   UNL     1      -4.912  -5.040 -34.505  1.00  0.00     0.044 A 
HETATM   21  C   UNL     1      -4.278  -3.969 -33.883  1.00  0.00     0.143 A 
HETATM   22  F   UNL     1      -3.115  -4.181 -33.245  1.00  0.00    -0.204 F 
ENDBRANCH  12  16
ENDBRANCH   7   8
ENDBRANCH   6   7
ENDBRANCH   1   6
BRANCH   2  23
HETATM   23  C   UNL     1      -3.323   5.399 -32.045  1.00  0.00     0.043 A 
HETATM   24  C   UNL     1      -1.984   5.003 -31.912  1.00  0.00     0.033 A 
HETATM   25  C   UNL     1      -1.136   5.044 -33.021  1.00  0.00     0.044 A 
HETATM   26  C   UNL     1      -1.622   5.486 -34.245  1.00  0.00     0.116 A 
HETATM   27  F   UNL     1      -0.806   5.526 -35.305  1.00  0.00    -0.206 F 
HETATM   28  C   UNL     1      -2.945   5.893 -34.385  1.00  0.00     0.044 A 
HETATM   29  C   UNL     1      -3.802   5.852 -33.284  1.00  0.00     0.033 A 
ENDBRANCH   2  23
BRANCH   3  30
HETATM   30  C   UNL     1      -3.310   7.366 -29.633  1.00  0.00     0.315 C 
BRANCH  30  31
HETATM   31  N   UNL     1      -1.946   7.012 -29.050  1.00  0.00    -0.064 N 
HETATM   32  H   UNL     1      -1.833   6.005 -29.258  1.00  0.00     0.280 HD
HETATM   33  C   UNL     1      -0.824   7.723 -29.770  1.00  0.00     0.235 C 
HETATM   34  C   UNL     1       0.516   7.240 -29.234  1.00  0.00     0.028 C 
HETATM   35  C   UNL     1       0.610   7.412 -27.722  1.00  0.00     0.003 C 
HETATM   36  C   UNL     1      -0.554   6.722 -27.022  1.00  0.00     0.028 C 
HETATM   37  C   UNL     1      -1.897   7.195 -27.558  1.00  0.00     0.235 C 
ENDBRANCH  30  31
ENDBRANCH   3  30
TORSDOF 7
ENDMDL
MODEL 2
REMARK VINA RESULT:      -9.2      5.180      8.086
REMARK  7 active torsions:
REMARK  status: ('A' for Active; 'I' for Inactive)
REMARK    1  A    between atoms: C_3  and  N_4 
REMARK       I    between atoms: N_4  and  C_5 
REMARK       I    between atoms: C_5  and  N_6 
REMARK       I    between atoms: N_6  and  C_7 
REMARK    2  A    between atoms: C_7  and  C_8 
REMARK    3  A    between atoms: C_8  and  S_9 
REMARK    4  A    between atoms: S_9  and  C_10 
REMARK    5  A    between atoms: N_11  and  C_12 
REMARK    6  A    between atoms: C_19  and  C_20 
REMARK    7  A    between atoms: C_20  and  N_21 
ROOT
HETATM    1  C   UNL     1      -8.187   1.958 -31.319  1.00  0.00     0.196 A 
HETATM    2  N   UNL     1      -9.192   2.668 -31.951  1.00  0.00    -0.274 N 
HETATM    3  C   UNL     1      -9.846   1.708 -32.711  1.00  0.00     0.161 A 
HETATM    4  N   UNL     1      -9.293   0.527 -32.517  1.00  0.00    -0.132 NA
HETATM    5  N   UNL     1      -8.260   0.685 -31.637  1.00  0.00    -0.122 NA
ENDROOT
BRANCH   1   6
HETATM    6  S   UNL     1      -7.113   2.622 -30.136  1.00  0.00    -0.080 SA
BRANCH   6   7
HETATM    7  C   UNL     1      -5.611   1.640 -30.426  1.00  0.00     0.185 C 
BRANCH   7   8
HETATM    8  C   UNL     1      -4.908   2.031 -31.724  1.00  0.00     0.235 C 
HETATM    9  N   UNL     1      -4.718   1.059 -32.688  1.00  0.00    -0.278 N 
HETATM   10  C   UNL     1      -4.939  -0.309 -32.606  1.00  0.00     0.327 C 
HETATM   11  H   UNL     1      -4.276   1.411 -33.521  1.00  0.00     0.173 HD
HETATM   12  N   UNL     1      -4.757  -0.924 -33.826  1.00  0.00    -0.306 N 
HETATM   13  O   UNL     1      -5.266  -0.866 -31.567  1.00  0.00    -0.247 OA
HETATM   14  H   UNL     1      -4.297  -0.408 -34.566  1.00  0.00     0.171 HD
HETATM   15  O   UNL     1      -4.479   3.165 -31.961  1.00  0.00    -0.272 OA
BRANCH  12  16
HETATM   16  C   UNL     1      -5.064  -2.262 -34.167  1.00  0.00     0.075 A 
HETATM   17  C   UNL     1      -4.189  -3.337 -34.013  1.00  0.00     0.033 A 
HETATM   18  C   UNL     1      -4.603  -4.633 -34.346  1.00  0.00     0.002 A 
HETATM   19  C   UNL     1      -5.889  -4.864 -34.837  1.00  0.00     0.003 A 
HETATM   20  C   UNL     1      -6.770  -3.798 -34.994  1.00  0.00     0.044 A 
HETATM   21  C   UNL     1      -6.353  -2.514 -34.656  1.00  0.00     0.143 A 
HETATM   22  F   UNL     1      -7.211  -1.491 -34.801  1.00  0.00    -0.204 F 
ENDBRANCH  12  16
ENDBRANCH   7   8
ENDBRANCH   6   7
ENDBRANCH   1   6
BRANCH   2  23
HETATM   23  C   UNL     1      -9.491   4.052 -31.889  1.00  0.00     0.043 A 
HETATM   24  C   UNL     1     -10.415   4.535 -30.951  1.00  0.00     0.033 A 
HETATM   25  C   UNL     1     -10.690   5.902 -30.890  1.00  0.00     0.044 A 
HETATM   26  C   UNL     1     -10.055   6.773 -31.766  1.00  0.00     0.116 A 
HETATM   27  F   UNL     1     -10.323   8.083 -31.707  1.00  0.00    -0.206 F 
HETATM   28  C   UNL     1      -9.147   6.304 -32.709  1.00  0.00     0.044 A 
HETATM   29  C   UNL     1      -8.862   4.939 -32.775  1.00  0.00     0.033 A 
ENDBRANCH   2  23
BRANCH   3  30
HETATM   30  C   UNL     1     -10.871   1.975 -33.754  1.00  0.00     0.315 C 
BRANCH  30  31
HETATM   31  N   UNL     1     -12.272   1.621 -33.265  1.00  0.00    -0.064 N 
HETATM   32  H   UNL     1     -12.116   1.160 -32.352  1.00  0.00     0.280 HD
HETATM   33  C   UNL     1     -13.097   2.855 -32.981  1.00  0.00     0.235 C 
HETATM   34  C   UNL     1     -14.435   2.450 -32.381  1.00  0.00     0.028 C 
HETATM   35  C   UNL     1     -15.175   1.463 -33.276  1.00  0.00     0.003 C 
HETATM   36  C   UNL     1     -14.308   0.247 -33.581  1.00  0.00     0.028 C 
HETATM   37  C   UNL     1     -12.965   0.647 -34.176  1.00  0.00     0.235 C 
ENDBRANCH  30  31
ENDBRANCH   3  30
TORSDOF 7
ENDMDL
MODEL 3
REMARK VINA RESULT:      -9.1      3.884      6.861
REMARK  7 active torsions:
REMARK  status: ('A' for Active; 'I' for Inactive)
REMARK    1  A    between atoms: C_3  and  N_4 
REMARK       I    between atoms: N_4  and  C_5 
REMARK       I    between atoms: C_5  and  N_6 
REMARK       I    between atoms: N_6  and  C_7 
REMARK    2  A    between atoms: C_7  and  C_8 
REMARK    3  A    between atoms: C_8  and  S_9 
REMARK    4  A    between atoms: S_9  and  C_10 
REMARK    5  A    between atoms: N_11  and  C_12 
REMARK    6  A    between atoms: C_19  and  C_20 
REMARK    7  A    between atoms: C_20  and  N_21 
ROOT
HETATM    1  C   UNL     1      -5.231   4.745 -30.469  1.00  0.00     0.196 A 
HETATM    2  N   UNL     1      -4.596   3.996 -31.443  1.00  0.00    -0.274 N 
HETATM    3  C   UNL     1      -5.046   2.704 -31.212  1.00  0.00     0.161 A 
HETATM    4  N   UNL     1      -5.900   2.697 -30.207  1.00  0.00    -0.132 NA
HETATM    5  N   UNL     1      -6.021   3.980 -29.751  1.00  0.00    -0.122 NA
ENDROOT
BRANCH   1   6
HETATM    6  S   UNL     1      -5.140   6.468 -30.343  1.00  0.00    -0.080 SA
BRANCH   6   7
HETATM    7  C   UNL     1      -6.391   6.982 -31.560  1.00  0.00     0.185 C 
BRANCH   7   8
HETATM    8  C   UNL     1      -7.774   7.138 -30.933  1.00  0.00     0.235 C 
HETATM    9  N   UNL     1      -8.679   6.103 -31.072  1.00  0.00    -0.278 N 
HETATM   10  C   UNL     1      -8.585   4.957 -31.847  1.00  0.00     0.327 C 
HETATM   11  H   UNL     1      -9.553   6.279 -30.603  1.00  0.00     0.173 HD
HETATM   12  N   UNL     1      -9.638   4.099 -31.612  1.00  0.00    -0.306 N 
HETATM   13  O   UNL     1      -7.661   4.757 -32.624  1.00  0.00    -0.247 OA
HETATM   14  H   UNL     1     -10.443   4.447 -31.105  1.00  0.00     0.171 HD
HETATM   15  O   UNL     1      -8.143   8.146 -30.322  1.00  0.00    -0.272 OA
BRANCH  12  16
HETATM   16  C   UNL     1      -9.784   2.772 -32.077  1.00  0.00     0.075 A 
HETATM   17  C   UNL     1      -9.111   1.670 -31.549  1.00  0.00     0.033 A 
HETATM   18  C   UNL     1      -9.355   0.387 -32.056  1.00  0.00     0.002 A 
HETATM   19  C   UNL     1     -10.266   0.196 -33.096  1.00  0.00     0.003 A 
HETATM   20  C   UNL     1     -10.943   1.289 -33.631  1.00  0.00     0.044 A 
HETATM   21  C   UNL     1     -10.700   2.559 -33.117  1.00  0.00     0.143 A 
HETATM   22  F   UNL     1     -11.363   3.608 -33.631  1.00  0.00    -0.204 F 
ENDBRANCH  12  16
ENDBRANCH   7   8
ENDBRANCH   6   7
ENDBRANCH   1   6
BRANCH   2  23
HETATM   23  C   UNL     1      -3.671   4.409 -32.435  1.00  0.00     0.043 A 
HETATM   24  C   UNL     1      -2.300   4.460 -32.145  1.00  0.00     0.033 A 
HETATM   25  C   UNL     1      -1.397   4.854 -33.134  1.00  0.00     0.044 A 
HETATM   26  C   UNL     1      -1.864   5.202 -34.396  1.00  0.00     0.116 A 
HETATM   27  F   UNL     1      -0.997   5.581 -35.341  1.00  0.00    -0.206 F 
HETATM   28  C   UNL     1      -3.223   5.167 -34.690  1.00  0.00     0.044 A 
HETATM   29  C   UNL     1      -4.134   4.770 -33.709  1.00  0.00     0.033 A 
ENDBRANCH   2  23
BRANCH   3  30
HETATM   30  C   UNL     1      -4.504   1.470 -31.839  1.00  0.00     0.315 C 
BRANCH  30  31
HETATM   31  N   UNL     1      -5.564   0.753 -32.669  1.00  0.00    -0.064 N 
HETATM   32  H   UNL     1      -6.396   0.727 -32.056  1.00  0.00     0.280 HD
HETATM   33  C   UNL     1      -5.961   1.555 -33.887  1.00  0.00     0.235 C 
HETATM   34  C   UNL     1      -7.104   0.858 -34.610  1.00  0.00     0.028 C 
HETATM   35  C   UNL     1      -6.748  -0.581 -34.966  1.00  0.00     0.003 C 
HETATM   36  C   UNL     1      -6.312  -1.357 -33.729  1.00  0.00     0.028 C 
HETATM   37  C   UNL     1      -5.173  -0.661 -32.998  1.00  0.00     0.235 C 
ENDBRANCH  30  31
ENDBRANCH   3  30
TORSDOF 7
ENDMDL
MODEL 4
REMARK VINA RESULT:      -9.1      2.414      3.336
REMARK  7 active torsions:
REMARK  status: ('A' for Active; 'I' for Inactive)
REMARK    1  A    between atoms: C_3  and  N_4 
REMARK       I    between atoms: N_4  and  C_5 
REMARK       I    between atoms: C_5  and  N_6 
REMARK       I    between atoms: N_6  and  C_7 
REMARK    2  A    between atoms: C_7  and  C_8 
REMARK    3  A    between atoms: C_8  and  S_9 
REMARK    4  A    between atoms: S_9  and  C_10 
REMARK    5  A    between atoms: N_11  and  C_12 
REMARK    6  A    between atoms: C_19  and  C_20 
REMARK    7  A    between atoms: C_20  and  N_21 
ROOT
HETATM    1  C   UNL     1      -4.946   3.349 -30.628  1.00  0.00     0.196 A 
HETATM    2  N   UNL     1      -4.355   4.545 -30.995  1.00  0.00    -0.274 N 
HETATM    3  C   UNL     1      -3.115   4.163 -31.487  1.00  0.00     0.161 A 
HETATM    4  N   UNL     1      -2.998   2.850 -31.444  1.00  0.00    -0.132 NA
HETATM    5  N   UNL     1      -4.151   2.343 -30.914  1.00  0.00    -0.122 NA
ENDROOT
BRANCH   1   6
HETATM    6  S   UNL     1      -6.570   3.195 -30.052  1.00  0.00    -0.080 SA
BRANCH   6   7
HETATM    7  C   UNL     1      -7.189   1.837 -31.093  1.00  0.00     0.185 C 
BRANCH   7   8
HETATM    8  C   UNL     1      -7.086   2.159 -32.582  1.00  0.00     0.235 C 
HETATM    9  N   UNL     1      -6.705   1.152 -33.448  1.00  0.00    -0.278 N 
HETATM   10  C   UNL     1      -6.237  -0.121 -33.156  1.00  0.00     0.327 C 
HETATM   11  H   UNL     1      -6.693   1.445 -34.411  1.00  0.00     0.173 HD
HETATM   12  N   UNL     1      -6.090  -0.879 -34.298  1.00  0.00    -0.306 N 
HETATM   13  O   UNL     1      -6.005  -0.496 -32.015  1.00  0.00    -0.247 OA
HETATM   14  H   UNL     1      -6.118  -0.413 -35.197  1.00  0.00     0.171 HD
HETATM   15  O   UNL     1      -7.306   3.277 -33.061  1.00  0.00    -0.272 OA
BRANCH  12  16
HETATM   16  C   UNL     1      -5.811  -2.263 -34.379  1.00  0.00     0.075 A 
HETATM   17  C   UNL     1      -6.740  -3.236 -34.751  1.00  0.00     0.033 A 
HETATM   18  C   UNL     1      -6.353  -4.580 -34.838  1.00  0.00     0.002 A 
HETATM   19  C   UNL     1      -5.042  -4.962 -34.550  1.00  0.00     0.003 A 
HETATM   20  C   UNL     1      -4.108  -3.998 -34.178  1.00  0.00     0.044 A 
HETATM   21  C   UNL     1      -4.498  -2.665 -34.100  1.00  0.00     0.143 A 
HETATM   22  F   UNL     1      -3.590  -1.740 -33.749  1.00  0.00    -0.204 F 
ENDBRANCH  12  16
ENDBRANCH   7   8
ENDBRANCH   6   7
ENDBRANCH   1   6
BRANCH   2  23
HETATM   23  C   UNL     1      -4.853   5.867 -30.878  1.00  0.00     0.043 A 
HETATM   24  C   UNL     1      -5.471   6.489 -31.972  1.00  0.00     0.033 A 
HETATM   25  C   UNL     1      -5.970   7.786 -31.840  1.00  0.00     0.044 A 
HETATM   26  C   UNL     1      -5.842   8.455 -30.629  1.00  0.00     0.116 A 
HETATM   27  F   UNL     1      -6.319   9.699 -30.507  1.00  0.00    -0.206 F 
HETATM   28  C   UNL     1      -5.219   7.852 -29.541  1.00  0.00     0.044 A 
HETATM   29  C   UNL     1      -4.720   6.554 -29.662  1.00  0.00     0.033 A 
ENDBRANCH   2  23
BRANCH   3  30
HETATM   30  C   UNL     1      -1.991   5.078 -31.815  1.00  0.00     0.315 C 
BRANCH  30  31
HETATM   31  N   UNL     1      -1.377   5.684 -30.557  1.00  0.00    -0.064 N 
HETATM   32  H   UNL     1      -2.011   5.387 -29.795  1.00  0.00     0.280 HD
HETATM   33  C   UNL     1      -0.027   5.081 -30.243  1.00  0.00     0.235 C 
HETATM   34  C   UNL     1       0.482   5.626 -28.917  1.00  0.00     0.028 C 
HETATM   35  C   UNL     1       0.524   7.149 -28.916  1.00  0.00     0.003 C 
HETATM   36  C   UNL     1      -0.837   7.732 -29.274  1.00  0.00     0.028 C 
HETATM   37  C   UNL     1      -1.355   7.186 -30.596  1.00  0.00     0.235 C 
ENDBRANCH  30  31
ENDBRANCH   3  30
TORSDOF 7
ENDMDL
MODEL 5
REMARK VINA RESULT:      -9.0      5.356      7.331
REMARK  7 active torsions:
REMARK  status: ('A' for Active; 'I' for Inactive)
REMARK    1  A    between atoms: C_3  and  N_4 
REMARK       I    between atoms: N_4  and  C_5 
REMARK       I    between atoms: C_5  and  N_6 
REMARK       I    between atoms: N_6  and  C_7 
REMARK    2  A    between atoms: C_7  and  C_8 
REMARK    3  A    between atoms: C_8  and  S_9 
REMARK    4  A    between atoms: S_9  and  C_10 
REMARK    5  A    between atoms: N_11  and  C_12 
REMARK    6  A    between atoms: C_19  and  C_20 
REMARK    7  A    between atoms: C_20  and  N_21 
ROOT
HETATM    1  C   UNL     1      -6.550   1.862 -31.991  1.00  0.00     0.196 A 
HETATM    2  N   UNL     1      -5.247   1.492 -32.267  1.00  0.00    -0.274 N 
HETATM    3  C   UNL     1      -4.580   2.703 -32.394  1.00  0.00     0.161 A 
HETATM    4  N   UNL     1      -5.414   3.701 -32.179  1.00  0.00    -0.132 NA
HETATM    5  N   UNL     1      -6.645   3.171 -31.917  1.00  0.00    -0.122 NA
ENDROOT
BRANCH   1   6
HETATM    6  S   UNL     1      -7.824   0.755 -31.612  1.00  0.00    -0.080 SA
BRANCH   6   7
HETATM    7  C   UNL     1      -8.150   0.014 -33.241  1.00  0.00     0.185 C 
BRANCH   7   8
HETATM    8  C   UNL     1      -8.363   1.070 -34.323  1.00  0.00     0.235 C 
HETATM    9  N   UNL     1      -9.633   1.583 -34.500  1.00  0.00    -0.278 N 
HETATM   10  C   UNL     1     -10.830   1.170 -33.931  1.00  0.00     0.327 C 
HETATM   11  H   UNL     1      -9.676   2.294 -35.211  1.00  0.00     0.173 HD
HETATM   12  N   UNL     1     -11.864   2.023 -34.254  1.00  0.00    -0.306 N 
HETATM   13  O   UNL     1     -10.919   0.175 -33.225  1.00  0.00    -0.247 OA
HETATM   14  H   UNL     1     -11.724   2.694 -35.000  1.00  0.00     0.171 HD
HETATM   15  O   UNL     1      -7.468   1.484 -35.067  1.00  0.00    -0.272 OA
BRANCH  12  16
HETATM   16  C   UNL     1     -13.172   2.026 -33.719  1.00  0.00     0.075 A 
HETATM   17  C   UNL     1     -14.227   1.251 -34.202  1.00  0.00     0.033 A 
HETATM   18  C   UNL     1     -15.479   1.298 -33.576  1.00  0.00     0.002 A 
HETATM   19  C   UNL     1     -15.689   2.121 -32.469  1.00  0.00     0.003 A 
HETATM   20  C   UNL     1     -14.643   2.900 -31.979  1.00  0.00     0.044 A 
HETATM   21  C   UNL     1     -13.401   2.842 -32.602  1.00  0.00     0.143 A 
HETATM   22  F   UNL     1     -12.394   3.589 -32.119  1.00  0.00    -0.204 F 
ENDBRANCH  12  16
ENDBRANCH   7   8
ENDBRANCH   6   7
ENDBRANCH   1   6
BRANCH   2  23
HETATM   23  C   UNL     1      -4.694   0.197 -32.426  1.00  0.00     0.043 A 
HETATM   24  C   UNL     1      -3.916  -0.369 -31.406  1.00  0.00     0.033 A 
HETATM   25  C   UNL     1      -3.389  -1.652 -31.568  1.00  0.00     0.044 A 
HETATM   26  C   UNL     1      -3.631  -2.354 -32.741  1.00  0.00     0.116 A 
HETATM   27  F   UNL     1      -3.122  -3.583 -32.894  1.00  0.00    -0.206 F 
HETATM   28  C   UNL     1      -4.391  -1.798 -33.764  1.00  0.00     0.044 A 
HETATM   29  C   UNL     1      -4.926  -0.517 -33.611  1.00  0.00     0.033 A 
ENDBRANCH   2  23
BRANCH   3  30
HETATM   30  C   UNL     1      -3.196   2.883 -32.906  1.00  0.00     0.315 C 
BRANCH  30  31
HETATM   31  N   UNL     1      -2.787   4.353 -32.907  1.00  0.00    -0.064 N 
HETATM   32  H   UNL     1      -3.671   4.864 -32.742  1.00  0.00     0.280 HD
HETATM   33  C   UNL     1      -1.881   4.685 -31.744  1.00  0.00     0.235 C 
HETATM   34  C   UNL     1      -1.606   6.181 -31.721  1.00  0.00     0.028 C 
HETATM   35  C   UNL     1      -1.032   6.667 -33.047  1.00  0.00     0.003 C 
HETATM   36  C   UNL     1      -1.943   6.284 -34.207  1.00  0.00     0.028 C 
HETATM   37  C   UNL     1      -2.228   4.790 -34.232  1.00  0.00     0.235 C 
ENDBRANCH  30  31
ENDBRANCH   3  30
TORSDOF 7
ENDMDL
MODEL 6
REMARK VINA RESULT:      -9.0      3.599      9.194
REMARK  7 active torsions:
REMARK  status: ('A' for Active; 'I' for Inactive)
REMARK    1  A    between atoms: C_3  and  N_4 
REMARK       I    between atoms: N_4  and  C_5 
REMARK       I    between atoms: C_5  and  N_6 
REMARK       I    between atoms: N_6  and  C_7 
REMARK    2  A    between atoms: C_7  and  C_8 
REMARK    3  A    between atoms: C_8  and  S_9 
REMARK    4  A    between atoms: S_9  and  C_10 
REMARK    5  A    between atoms: N_11  and  C_12 
REMARK    6  A    between atoms: C_19  and  C_20 
REMARK    7  A    between atoms: C_20  and  N_21 
ROOT
HETATM    1  C   UNL     1      -6.789   2.424 -31.124  1.00  0.00     0.196 A 
HETATM    2  N   UNL     1      -7.166   1.696 -32.237  1.00  0.00    -0.274 N 
HETATM    3  C   UNL     1      -5.966   1.205 -32.733  1.00  0.00     0.161 A 
HETATM    4  N   UNL     1      -4.969   1.584 -31.957  1.00  0.00    -0.132 NA
HETATM    5  N   UNL     1      -5.489   2.340 -30.944  1.00  0.00    -0.122 NA
ENDROOT
BRANCH   1   6
HETATM    6  S   UNL     1      -7.892   3.176 -30.024  1.00  0.00    -0.080 SA
BRANCH   6   7
HETATM    7  C   UNL     1      -7.298   4.895 -30.040  1.00  0.00     0.185 C 
BRANCH   7   8
HETATM    8  C   UNL     1      -7.161   5.443 -31.459  1.00  0.00     0.235 C 
HETATM    9  N   UNL     1      -5.914   5.856 -31.887  1.00  0.00    -0.278 N 
HETATM   10  C   UNL     1      -4.742   5.997 -31.157  1.00  0.00     0.327 C 
HETATM   11  H   UNL     1      -5.910   6.174 -32.842  1.00  0.00     0.173 HD
HETATM   12  N   UNL     1      -3.673   6.305 -31.972  1.00  0.00    -0.306 N 
HETATM   13  O   UNL     1      -4.695   5.849 -29.944  1.00  0.00    -0.247 OA
HETATM   14  H   UNL     1      -3.858   6.599 -32.924  1.00  0.00     0.171 HD
HETATM   15  O   UNL     1      -8.106   5.560 -32.246  1.00  0.00    -0.272 OA
BRANCH  12  16
HETATM   16  C   UNL     1      -2.306   6.346 -31.615  1.00  0.00     0.075 A 
HETATM   17  C   UNL     1      -1.699   7.398 -30.930  1.00  0.00     0.033 A 
HETATM   18  C   UNL     1      -0.342   7.326 -30.589  1.00  0.00     0.002 A 
HETATM   19  C   UNL     1       0.418   6.207 -30.933  1.00  0.00     0.003 A 
HETATM   20  C   UNL     1      -0.178   5.151 -31.618  1.00  0.00     0.044 A 
HETATM   21  C   UNL     1      -1.527   5.228 -31.947  1.00  0.00     0.143 A 
HETATM   22  F   UNL     1      -2.099   4.202 -32.600  1.00  0.00    -0.204 F 
ENDBRANCH  12  16
ENDBRANCH   7   8
ENDBRANCH   6   7
ENDBRANCH   1   6
BRANCH   2  23
HETATM   23  C   UNL     1      -8.456   1.505 -32.792  1.00  0.00     0.043 A 
HETATM   24  C   UNL     1      -9.201   0.362 -32.470  1.00  0.00     0.033 A 
HETATM   25  C   UNL     1     -10.477   0.191 -33.012  1.00  0.00     0.044 A 
HETATM   26  C   UNL     1     -10.995   1.151 -33.872  1.00  0.00     0.116 A 
HETATM   27  F   UNL     1     -12.217   0.984 -34.391  1.00  0.00    -0.206 F 
HETATM   28  C   UNL     1     -10.260   2.283 -34.207  1.00  0.00     0.044 A 
HETATM   29  C   UNL     1      -8.985   2.464 -33.669  1.00  0.00     0.033 A 
ENDBRANCH   2  23
BRANCH   3  30
HETATM   30  C   UNL     1      -5.777   0.537 -34.047  1.00  0.00     0.315 C 
BRANCH  30  31
HETATM   31  N   UNL     1      -5.765  -0.982 -33.906  1.00  0.00    -0.064 N 
HETATM   32  H   UNL     1      -6.088  -1.152 -32.938  1.00  0.00     0.280 HD
HETATM   33  C   UNL     1      -6.779  -1.639 -34.813  1.00  0.00     0.235 C 
HETATM   34  C   UNL     1      -6.813  -3.136 -34.544  1.00  0.00     0.028 C 
HETATM   35  C   UNL     1      -5.432  -3.763 -34.686  1.00  0.00     0.003 C 
HETATM   36  C   UNL     1      -4.419  -3.058 -33.793  1.00  0.00     0.028 C 
HETATM   37  C   UNL     1      -4.384  -1.559 -34.052  1.00  0.00     0.235 C 
ENDBRANCH  30  31
ENDBRANCH   3  30
TORSDOF 7
ENDMDL
MODEL 7
REMARK VINA RESULT:      -8.9      3.916      9.601
REMARK  7 active torsions:
REMARK  status: ('A' for Active; 'I' for Inactive)
REMARK    1  A    between atoms: C_3  and  N_4 
REMARK       I    between atoms: N_4  and  C_5 
REMARK       I    between atoms: C_5  and  N_6 
REMARK       I    between atoms: N_6  and  C_7 
REMARK    2  A    between atoms: C_7  and  C_8 
REMARK    3  A    between atoms: C_8  and  S_9 
REMARK    4  A    between atoms: S_9  and  C_10 
REMARK    5  A    between atoms: N_11  and  C_12 
REMARK    6  A    between atoms: C_19  and  C_20 
REMARK    7  A    between atoms: C_20  and  N_21 
ROOT
HETATM    1  C   UNL     1      -7.229   2.718 -30.434  1.00  0.00     0.196 A 
HETATM    2  N   UNL     1      -7.532   1.746 -31.369  1.00  0.00    -0.274 N 
HETATM    3  C   UNL     1      -8.912   1.828 -31.496  1.00  0.00     0.161 A 
HETATM    4  N   UNL     1      -9.378   2.791 -30.724  1.00  0.00    -0.132 NA
HETATM    5  N   UNL     1      -8.320   3.353 -30.068  1.00  0.00    -0.122 NA
ENDROOT
BRANCH   1   6
HETATM    6  S   UNL     1      -5.623   3.158 -29.962  1.00  0.00    -0.080 SA
BRANCH   6   7
HETATM    7  C   UNL     1      -4.982   3.877 -31.505  1.00  0.00     0.185 C 
BRANCH   7   8
HETATM    8  C   UNL     1      -3.613   3.313 -31.878  1.00  0.00     0.235 C 
HETATM    9  N   UNL     1      -2.485   3.969 -31.423  1.00  0.00    -0.278 N 
HETATM   10  C   UNL     1      -2.387   5.193 -30.777  1.00  0.00     0.327 C 
HETATM   11  H   UNL     1      -1.629   3.511 -31.690  1.00  0.00     0.173 HD
HETATM   12  N   UNL     1      -1.096   5.442 -30.362  1.00  0.00    -0.306 N 
HETATM   13  O   UNL     1      -3.348   5.929 -30.603  1.00  0.00    -0.247 OA
HETATM   14  H   UNL     1      -0.348   4.866 -30.729  1.00  0.00     0.171 HD
HETATM   15  O   UNL     1      -3.450   2.311 -32.583  1.00  0.00    -0.272 OA
BRANCH  12  16
HETATM   16  C   UNL     1      -0.652   6.491 -29.524  1.00  0.00     0.075 A 
HETATM   17  C   UNL     1      -1.254   7.747 -29.442  1.00  0.00     0.033 A 
HETATM   18  C   UNL     1      -0.759   8.707 -28.550  1.00  0.00     0.002 A 
HETATM   19  C   UNL     1       0.340   8.423 -27.739  1.00  0.00     0.003 A 
HETATM   20  C   UNL     1       0.948   7.173 -27.812  1.00  0.00     0.044 A 
HETATM   21  C   UNL     1       0.447   6.223 -28.696  1.00  0.00     0.143 A 
HETATM   22  F   UNL     1       1.033   5.015 -28.756  1.00  0.00    -0.204 F 
ENDBRANCH  12  16
ENDBRANCH   7   8
ENDBRANCH   6   7
ENDBRANCH   1   6
BRANCH   2  23
HETATM   23  C   UNL     1      -6.670   0.838 -32.034  1.00  0.00     0.043 A 
HETATM   24  C   UNL     1      -6.557   0.866 -33.432  1.00  0.00     0.033 A 
HETATM   25  C   UNL     1      -5.694  -0.023 -34.074  1.00  0.00     0.044 A 
HETATM   26  C   UNL     1      -4.961  -0.936 -33.326  1.00  0.00     0.116 A 
HETATM   27  F   UNL     1      -4.136  -1.789 -33.945  1.00  0.00    -0.206 F 
HETATM   28  C   UNL     1      -5.075  -0.980 -31.941  1.00  0.00     0.044 A 
HETATM   29  C   UNL     1      -5.932  -0.093 -31.288  1.00  0.00     0.033 A 
ENDBRANCH   2  23
BRANCH   3  30
HETATM   30  C   UNL     1      -9.778   0.856 -32.213  1.00  0.00     0.315 C 
BRANCH  30  31
HETATM   31  N   UNL     1     -10.824   1.564 -33.068  1.00  0.00    -0.064 N 
HETATM   32  H   UNL     1     -11.268   2.239 -32.422  1.00  0.00     0.280 HD
HETATM   33  C   UNL     1     -10.190   2.385 -34.167  1.00  0.00     0.235 C 
HETATM   34  C   UNL     1     -11.264   3.165 -34.909  1.00  0.00     0.028 C 
HETATM   35  C   UNL     1     -12.358   2.248 -35.442  1.00  0.00     0.003 C 
HETATM   36  C   UNL     1     -12.953   1.403 -34.322  1.00  0.00     0.028 C 
HETATM   37  C   UNL     1     -11.882   0.624 -33.572  1.00  0.00     0.235 C 
ENDBRANCH  30  31
ENDBRANCH   3  30
TORSDOF 7
ENDMDL
MODEL 8
REMARK VINA RESULT:      -8.9      3.867      9.694
REMARK  7 active torsions:
REMARK  status: ('A' for Active; 'I' for Inactive)
REMARK    1  A    between atoms: C_3  and  N_4 
REMARK       I    between atoms: N_4  and  C_5 
REMARK       I    between atoms: C_5  and  N_6 
REMARK       I    between atoms: N_6  and  C_7 
REMARK    2  A    between atoms: C_7  and  C_8 
REMARK    3  A    between atoms: C_8  and  S_9 
REMARK    4  A    between atoms: S_9  and  C_10 
REMARK    5  A    between atoms: N_11  and  C_12 
REMARK    6  A    between atoms: C_19  and  C_20 
REMARK    7  A    between atoms: C_20  and  N_21 
ROOT
HETATM    1  C   UNL     1      -6.544   4.041 -33.042  1.00  0.00     0.196 A 
HETATM    2  N   UNL     1      -7.224   2.841 -32.944  1.00  0.00    -0.274 N 
HETATM    3  C   UNL     1      -8.288   3.132 -32.101  1.00  0.00     0.161 A 
HETATM    4  N   UNL     1      -8.256   4.406 -31.759  1.00  0.00    -0.132 NA
HETATM    5  N   UNL     1      -7.168   4.974 -32.358  1.00  0.00    -0.122 NA
ENDROOT
BRANCH   1   6
HETATM    6  S   UNL     1      -5.180   4.314 -34.070  1.00  0.00    -0.080 SA
BRANCH   6   7
HETATM    7  C   UNL     1      -3.986   5.026 -32.897  1.00  0.00     0.185 C 
BRANCH   7   8
HETATM    8  C   UNL     1      -3.129   3.956 -32.225  1.00  0.00     0.235 C 
HETATM    9  N   UNL     1      -2.226   4.349 -31.256  1.00  0.00    -0.278 N 
HETATM   10  C   UNL     1      -1.847   5.631 -30.882  1.00  0.00     0.327 C 
HETATM   11  H   UNL     1      -1.727   3.577 -30.846  1.00  0.00     0.173 HD
HETATM   12  N   UNL     1      -1.018   5.612 -29.781  1.00  0.00    -0.306 N 
HETATM   13  O   UNL     1      -2.230   6.633 -31.471  1.00  0.00    -0.247 OA
HETATM   14  H   UNL     1      -0.607   4.730 -29.499  1.00  0.00     0.171 HD
HETATM   15  O   UNL     1      -3.181   2.754 -32.509  1.00  0.00    -0.272 OA
BRANCH  12  16
HETATM   16  C   UNL     1      -0.582   6.718 -29.016  1.00  0.00     0.075 A 
HETATM   17  C   UNL     1       0.720   7.220 -29.023  1.00  0.00     0.033 A 
HETATM   18  C   UNL     1       1.042   8.347 -28.256  1.00  0.00     0.002 A 
HETATM   19  C   UNL     1       0.072   8.977 -27.475  1.00  0.00     0.003 A 
HETATM   20  C   UNL     1      -1.231   8.483 -27.461  1.00  0.00     0.044 A 
HETATM   21  C   UNL     1      -1.544   7.367 -28.230  1.00  0.00     0.143 A 
HETATM   22  F   UNL     1      -2.804   6.902 -28.220  1.00  0.00    -0.204 F 
ENDBRANCH  12  16
ENDBRANCH   7   8
ENDBRANCH   6   7
ENDBRANCH   1   6
BRANCH   2  23
HETATM   23  C   UNL     1      -6.917   1.584 -33.521  1.00  0.00     0.043 A 
HETATM   24  C   UNL     1      -6.032   0.707 -32.878  1.00  0.00     0.033 A 
HETATM   25  C   UNL     1      -5.749  -0.535 -33.449  1.00  0.00     0.044 A 
HETATM   26  C   UNL     1      -6.339  -0.889 -34.656  1.00  0.00     0.116 A 
HETATM   27  F   UNL     1      -6.064  -2.079 -35.203  1.00  0.00    -0.206 F 
HETATM   28  C   UNL     1      -7.209  -0.022 -35.309  1.00  0.00     0.044 A 
HETATM   29  C   UNL     1      -7.501   1.220 -34.744  1.00  0.00     0.033 A 
ENDBRANCH   2  23
BRANCH   3  30
HETATM   30  C   UNL     1      -9.209   2.139 -31.490  1.00  0.00     0.315 C 
BRANCH  30  31
HETATM   31  N   UNL     1     -10.471   1.957 -32.327  1.00  0.00    -0.064 N 
HETATM   32  H   UNL     1     -11.244   2.026 -31.642  1.00  0.00     0.280 HD
HETATM   33  C   UNL     1     -10.668   3.094 -33.303  1.00  0.00     0.235 C 
HETATM   34  C   UNL     1     -11.998   2.929 -34.021  1.00  0.00     0.028 C 
HETATM   35  C   UNL     1     -12.104   1.569 -34.702  1.00  0.00     0.003 C 
HETATM   36  C   UNL     1     -11.862   0.442 -33.706  1.00  0.00     0.028 C 
HETATM   37  C   UNL     1     -10.535   0.605 -32.979  1.00  0.00     0.235 C 
ENDBRANCH  30  31
ENDBRANCH   3  30
TORSDOF 7
ENDMDL
MODEL 9
REMARK VINA RESULT:      -8.9      2.161      2.897
REMARK  7 active torsions:
REMARK  status: ('A' for Active; 'I' for Inactive)
REMARK    1  A    between atoms: C_3  and  N_4 
REMARK       I    between atoms: N_4  and  C_5 
REMARK       I    between atoms: C_5  and  N_6 
REMARK       I    between atoms: N_6  and  C_7 
REMARK    2  A    between atoms: C_7  and  C_8 
REMARK    3  A    between atoms: C_8  and  S_9 
REMARK    4  A    between atoms: S_9  and  C_10 
REMARK    5  A    between atoms: N_11  and  C_12 
REMARK    6  A    between atoms: C_19  and  C_20 
REMARK    7  A    between atoms: C_20  and  N_21 
ROOT
HETATM    1  C   UNL     1      -4.392   6.540 -29.991  1.00  0.00     0.196 A 
HETATM    2  N   UNL     1      -3.098   6.740 -30.437  1.00  0.00    -0.274 N 
HETATM    3  C   UNL     1      -2.476   7.375 -29.371  1.00  0.00     0.161 A 
HETATM    4  N   UNL     1      -3.323   7.507 -28.369  1.00  0.00    -0.132 NA
HETATM    5  N   UNL     1      -4.520   6.974 -28.757  1.00  0.00    -0.122 NA
ENDROOT
BRANCH   1   6
HETATM    6  S   UNL     1      -5.606   5.672 -30.865  1.00  0.00    -0.080 SA
BRANCH   6   7
HETATM    7  C   UNL     1      -5.338   3.977 -30.262  1.00  0.00     0.185 C 
BRANCH   7   8
HETATM    8  C   UNL     1      -6.651   3.253 -29.974  1.00  0.00     0.235 C 
HETATM    9  N   UNL     1      -6.904   2.064 -30.631  1.00  0.00    -0.278 N 
HETATM   10  C   UNL     1      -6.196   1.468 -31.665  1.00  0.00     0.327 C 
HETATM   11  H   UNL     1      -7.776   1.642 -30.358  1.00  0.00     0.173 HD
HETATM   12  N   UNL     1      -6.690   0.215 -31.959  1.00  0.00    -0.306 N 
HETATM   13  O   UNL     1      -5.248   2.010 -32.216  1.00  0.00    -0.247 OA
HETATM   14  H   UNL     1      -7.592  -0.051 -31.584  1.00  0.00     0.171 HD
HETATM   15  O   UNL     1      -7.516   3.677 -29.200  1.00  0.00    -0.272 OA
BRANCH  12  16
HETATM   16  C   UNL     1      -6.120  -0.751 -32.819  1.00  0.00     0.075 A 
HETATM   17  C   UNL     1      -4.801  -1.200 -32.740  1.00  0.00     0.033 A 
HETATM   18  C   UNL     1      -4.342  -2.192 -33.617  1.00  0.00     0.002 A 
HETATM   19  C   UNL     1      -5.192  -2.738 -34.579  1.00  0.00     0.003 A 
HETATM   20  C   UNL     1      -6.510  -2.296 -34.667  1.00  0.00     0.044 A 
HETATM   21  C   UNL     1      -6.960  -1.316 -33.789  1.00  0.00     0.143 A 
HETATM   22  F   UNL     1      -8.235  -0.901 -33.872  1.00  0.00    -0.204 F 
ENDBRANCH  12  16
ENDBRANCH   7   8
ENDBRANCH   6   7
ENDBRANCH   1   6
BRANCH   2  23
HETATM   23  C   UNL     1      -2.519   6.421 -31.691  1.00  0.00     0.043 A 
HETATM   24  C   UNL     1      -2.427   7.395 -32.695  1.00  0.00     0.033 A 
HETATM   25  C   UNL     1      -1.841   7.072 -33.921  1.00  0.00     0.044 A 
HETATM   26  C   UNL     1      -1.363   5.786 -34.140  1.00  0.00     0.116 A 
HETATM   27  F   UNL     1      -0.804   5.479 -35.316  1.00  0.00    -0.206 F 
HETATM   28  C   UNL     1      -1.461   4.809 -33.155  1.00  0.00     0.044 A 
HETATM   29  C   UNL     1      -2.042   5.123 -31.924  1.00  0.00     0.033 A 
ENDBRANCH   2  23
BRANCH   3  30
HETATM   30  C   UNL     1      -1.133   8.011 -29.402  1.00  0.00     0.315 C 
BRANCH  30  31
HETATM   31  N   UNL     1      -0.498   8.045 -28.016  1.00  0.00    -0.064 N 
HETATM   32  H   UNL     1      -1.046   7.361 -27.466  1.00  0.00     0.280 HD
HETATM   33  C   UNL     1       0.923   7.530 -28.036  1.00  0.00     0.235 C 
HETATM   34  C   UNL     1       1.465   7.467 -26.616  1.00  0.00     0.028 C 
HETATM   35  C   UNL     1       1.358   8.815 -25.914  1.00  0.00     0.003 C 
HETATM   36  C   UNL     1      -0.075   9.332 -25.942  1.00  0.00     0.028 C 
HETATM   37  C   UNL     1      -0.626   9.391 -27.360  1.00  0.00     0.235 C 
ENDBRANCH  30  31
ENDBRANCH   3  30
TORSDOF 7
ENDMDL
MODEL 10
REMARK VINA RESULT:      -8.8      4.085      9.583
REMARK  7 active torsions:
REMARK  status: ('A' for Active; 'I' for Inactive)
REMARK    1  A    between atoms: C_3  and  N_4 
REMARK       I    between atoms: N_4  and  C_5 
REMARK       I    between atoms: C_5  and  N_6 
REMARK       I    between atoms: N_6  and  C_7 
REMARK    2  A    between atoms: C_7  and  C_8 
REMARK    3  A    between atoms: C_8  and  S_9 
REMARK    4  A    between atoms: S_9  and  C_10 
REMARK    5  A    between atoms: N_11  and  C_12 
REMARK    6  A    between atoms: C_19  and  C_20 
REMARK    7  A    between atoms: C_20  and  N_21 
ROOT
HETATM    1  C   UNL     1      -6.464   3.413 -32.231  1.00  0.00     0.196 A 
HETATM    2  N   UNL     1      -7.317   2.376 -32.562  1.00  0.00    -0.274 N 
HETATM    3  C   UNL     1      -8.530   2.755 -32.004  1.00  0.00     0.161 A 
HETATM    4  N   UNL     1      -8.409   3.933 -31.422  1.00  0.00    -0.132 NA
HETATM    5  N   UNL     1      -7.116   4.346 -31.574  1.00  0.00    -0.122 NA
ENDROOT
BRANCH   1   6
HETATM    6  S   UNL     1      -4.825   3.544 -32.770  1.00  0.00    -0.080 SA
BRANCH   6   7
HETATM    7  C   UNL     1      -4.760   5.285 -33.294  1.00  0.00     0.185 C 
BRANCH   7   8
HETATM    8  C   UNL     1      -3.513   5.592 -34.119  1.00  0.00     0.235 C 
HETATM    9  N   UNL     1      -2.364   5.981 -33.457  1.00  0.00    -0.278 N 
HETATM   10  C   UNL     1      -2.193   6.295 -32.116  1.00  0.00     0.327 C 
HETATM   11  H   UNL     1      -1.585   6.133 -34.075  1.00  0.00     0.173 HD
HETATM   12  N   UNL     1      -0.865   6.507 -31.813  1.00  0.00    -0.306 N 
HETATM   13  O   UNL     1      -3.124   6.355 -31.325  1.00  0.00    -0.247 OA
HETATM   14  H   UNL     1      -0.207   6.628 -32.574  1.00  0.00     0.171 HD
HETATM   15  O   UNL     1      -3.472   5.532 -35.353  1.00  0.00    -0.272 OA
BRANCH  12  16
HETATM   16  C   UNL     1      -0.292   6.668 -30.530  1.00  0.00     0.075 A 
HETATM   17  C   UNL     1      -0.157   7.891 -29.872  1.00  0.00     0.033 A 
HETATM   18  C   UNL     1       0.390   7.939 -28.584  1.00  0.00     0.002 A 
HETATM   19  C   UNL     1       0.810   6.771 -27.946  1.00  0.00     0.003 A 
HETATM   20  C   UNL     1       0.680   5.545 -28.594  1.00  0.00     0.044 A 
HETATM   21  C   UNL     1       0.130   5.505 -29.871  1.00  0.00     0.143 A 
HETATM   22  F   UNL     1      -0.001   4.318 -30.487  1.00  0.00    -0.204 F 
ENDBRANCH  12  16
ENDBRANCH   7   8
ENDBRANCH   6   7
ENDBRANCH   1   6
BRANCH   2  23
HETATM   23  C   UNL     1      -7.045   1.178 -33.269  1.00  0.00     0.043 A 
HETATM   24  C   UNL     1      -6.445   0.092 -32.615  1.00  0.00     0.033 A 
HETATM   25  C   UNL     1      -6.196  -1.088 -33.319  1.00  0.00     0.044 A 
HETATM   26  C   UNL     1      -6.534  -1.174 -34.664  1.00  0.00     0.116 A 
HETATM   27  F   UNL     1      -6.292  -2.305 -35.336  1.00  0.00    -0.206 F 
HETATM   28  C   UNL     1      -7.118  -0.098 -35.325  1.00  0.00     0.044 A 
HETATM   29  C   UNL     1      -7.375   1.084 -34.629  1.00  0.00     0.033 A 
ENDBRANCH   2  23
BRANCH   3  30
HETATM   30  C   UNL     1      -9.735   1.895 -31.877  1.00  0.00     0.315 C 
BRANCH  30  31
HETATM   31  N   UNL     1     -10.708   2.122 -33.029  1.00  0.00    -0.064 N 
HETATM   32  H   UNL     1     -10.108   2.430 -33.814  1.00  0.00     0.280 HD
HETATM   33  C   UNL     1     -11.360   0.834 -33.477  1.00  0.00     0.235 C 
HETATM   34  C   UNL     1     -12.221   1.094 -34.703  1.00  0.00     0.028 C 
HETATM   35  C   UNL     1     -13.246   2.192 -34.446  1.00  0.00     0.003 C 
HETATM   36  C   UNL     1     -12.569   3.466 -33.958  1.00  0.00     0.028 C 
HETATM   37  C   UNL     1     -11.700   3.211 -32.735  1.00  0.00     0.235 C 
ENDBRANCH  30  31
ENDBRANCH   3  30
TORSDOF 7
ENDMDL
