MODEL 1
REMARK VINA RESULT:      -7.9      0.000      0.000
REMARK  3 active torsions:
REMARK  status: ('A' for Active; 'I' for Inactive)
REMARK    1  A    between atoms: C_9  and  C_10 
REMARK    2  A    between atoms: C_16  and  C_17 
REMARK       I    between atoms: C_17  and  N_18 
REMARK    3  A    between atoms: N_18  and  C_19 
ROOT
HETATM    1  C   UNL     1      -3.513   1.972 -32.281  1.00  0.00     0.070 C 
HETATM    2  C   UNL     1      -4.918   2.359 -31.893  1.00  0.00     0.037 C 
HETATM    3  N   UNL     1      -5.109   3.704 -31.591  1.00  0.00    -0.191 N 
HETATM    4  C   UNL     1      -6.236   4.174 -31.017  1.00  0.00     0.735 A 
HETATM    5  N   UNL     1      -7.296   3.330 -30.837  1.00  0.00    -0.092 N 
HETATM    6  N   UNL     1      -8.291   3.963 -30.197  1.00  0.00     0.012 NA
HETATM    7  N   UNL     1      -7.842   5.202 -30.028  1.00  0.00     0.033 NA
HETATM    8  N   UNL     1      -6.563   5.346 -30.533  1.00  0.00     0.030 NA
HETATM    9  C   UNL     1      -7.321   1.928 -31.245  1.00  0.00     0.199 C 
HETATM   10  C   UNL     1      -5.950   1.489 -31.760  1.00  0.00     0.062 C 
HETATM   11  H   UNL     1      -4.295   4.315 -31.625  1.00  0.00     0.184 HD
ENDROOT
BRANCH  10  12
HETATM   12  C   UNL     1      -5.838   0.025 -31.991  1.00  0.00     0.256 C 
HETATM   13  N   UNL     1      -5.810  -0.322 -33.322  1.00  0.00    -0.322 N 
HETATM   14  H   UNL     1      -5.893   0.422 -34.004  1.00  0.00     0.169 HD
HETATM   15  O   UNL     1      -5.842  -0.727 -31.025  1.00  0.00    -0.267 OA
BRANCH  13  16
HETATM   16  C   UNL     1      -5.680  -1.627 -33.844  1.00  0.00     0.052 A 
HETATM   17  C   UNL     1      -4.484  -2.328 -33.966  1.00  0.00     0.145 A 
HETATM   18  N   UNL     1      -4.384  -3.578 -34.487  1.00  0.00    -0.271 NA
HETATM   19  C   UNL     1      -5.525  -4.159 -34.908  1.00  0.00     0.116 A 
HETATM   20  C   UNL     1      -6.765  -3.549 -34.832  1.00  0.00     0.021 A 
HETATM   21  C   UNL     1      -6.840  -2.266 -34.290  1.00  0.00     0.032 A 
ENDBRANCH  13  16
ENDBRANCH  10  12
BRANCH   9  22
HETATM   22  C   UNL     1      -8.413   1.682 -32.273  1.00  0.00    -0.011 A 
HETATM   23  C   UNL     1      -8.559   2.474 -33.410  1.00  0.00     0.125 A 
HETATM   24  N   UNL     1      -9.480   2.255 -34.375  1.00  0.00    -0.272 NA
HETATM   25  C   UNL     1     -10.316   1.209 -34.196  1.00  0.00     0.116 A 
HETATM   26  C   UNL     1     -10.257   0.359 -33.106  1.00  0.00     0.020 A 
HETATM   27  C   UNL     1      -9.288   0.596 -32.136  1.00  0.00     0.012 A 
ENDBRANCH   9  22
TORSDOF 3
ENDMDL
MODEL 2
REMARK VINA RESULT:      -7.7      1.736      3.942
REMARK  3 active torsions:
REMARK  status: ('A' for Active; 'I' for Inactive)
REMARK    1  A    between atoms: C_9  and  C_10 
REMARK    2  A    between atoms: C_16  and  C_17 
REMARK       I    between atoms: C_17  and  N_18 
REMARK    3  A    between atoms: N_18  and  C_19 
ROOT
HETATM    1  C   UNL     1     -10.504   0.119 -33.085  1.00  0.00     0.070 C 
HETATM    2  C   UNL     1      -9.666   1.365 -33.215  1.00  0.00     0.037 C 
HETATM    3  N   UNL     1     -10.367   2.534 -33.498  1.00  0.00    -0.191 N 
HETATM    4  C   UNL     1      -9.760   3.683 -33.863  1.00  0.00     0.735 A 
HETATM    5  N   UNL     1      -8.396   3.758 -33.831  1.00  0.00    -0.092 N 
HETATM    6  N   UNL     1      -7.984   4.950 -34.287  1.00  0.00     0.012 NA
HETATM    7  N   UNL     1      -9.107   5.609 -34.557  1.00  0.00     0.033 NA
HETATM    8  N   UNL     1     -10.220   4.830 -34.297  1.00  0.00     0.030 NA
HETATM    9  C   UNL     1      -7.514   2.675 -33.403  1.00  0.00     0.199 C 
HETATM   10  C   UNL     1      -8.312   1.398 -33.142  1.00  0.00     0.062 C 
HETATM   11  H   UNL     1     -11.374   2.461 -33.625  1.00  0.00     0.184 HD
ENDROOT
BRANCH  10  12
HETATM   12  C   UNL     1      -7.464   0.199 -32.912  1.00  0.00     0.256 C 
HETATM   13  N   UNL     1      -7.102  -0.450 -34.070  1.00  0.00    -0.322 N 
HETATM   14  H   UNL     1      -7.456  -0.084 -34.945  1.00  0.00     0.169 HD
HETATM   15  O   UNL     1      -7.216  -0.137 -31.761  1.00  0.00    -0.267 OA
BRANCH  13  16
HETATM   16  C   UNL     1      -6.280  -1.594 -34.167  1.00  0.00     0.052 A 
HETATM   17  C   UNL     1      -4.929  -1.643 -33.835  1.00  0.00     0.145 A 
HETATM   18  N   UNL     1      -4.156  -2.754 -33.951  1.00  0.00    -0.271 NA
HETATM   19  C   UNL     1      -4.753  -3.868 -34.421  1.00  0.00     0.116 A 
HETATM   20  C   UNL     1      -6.089  -3.926 -34.779  1.00  0.00     0.021 A 
HETATM   21  C   UNL     1      -6.860  -2.772 -34.646  1.00  0.00     0.032 A 
ENDBRANCH  13  16
ENDBRANCH  10  12
BRANCH   9  22
HETATM   22  C   UNL     1      -6.700   3.088 -32.188  1.00  0.00    -0.011 A 
HETATM   23  C   UNL     1      -5.314   3.233 -32.233  1.00  0.00     0.125 A 
HETATM   24  N   UNL     1      -4.561   3.652 -31.192  1.00  0.00    -0.272 NA
HETATM   25  C   UNL     1      -5.208   3.924 -30.039  1.00  0.00     0.116 A 
HETATM   26  C   UNL     1      -6.579   3.817 -29.886  1.00  0.00     0.020 A 
HETATM   27  C   UNL     1      -7.333   3.400 -30.979  1.00  0.00     0.012 A 
ENDBRANCH   9  22
TORSDOF 3
ENDMDL
MODEL 3
REMARK VINA RESULT:      -7.6      8.005     11.164
REMARK  3 active torsions:
REMARK  status: ('A' for Active; 'I' for Inactive)
REMARK    1  A    between atoms: C_9  and  C_10 
REMARK    2  A    between atoms: C_16  and  C_17 
REMARK       I    between atoms: C_17  and  N_18 
REMARK    3  A    between atoms: N_18  and  C_19 
ROOT
HETATM    1  C   UNL     1       0.875   4.765 -29.572  1.00  0.00     0.070 C 
HETATM    2  C   UNL     1      -0.006   5.757 -30.290  1.00  0.00     0.037 C 
HETATM    3  N   UNL     1      -0.260   5.476 -31.629  1.00  0.00    -0.191 N 
HETATM    4  C   UNL     1      -0.837   6.362 -32.468  1.00  0.00     0.735 A 
HETATM    5  N   UNL     1      -1.318   7.539 -31.968  1.00  0.00    -0.092 N 
HETATM    6  N   UNL     1      -1.792   8.307 -32.961  1.00  0.00     0.012 NA
HETATM    7  N   UNL     1      -1.632   7.571 -34.056  1.00  0.00     0.033 NA
HETATM    8  N   UNL     1      -1.037   6.357 -33.762  1.00  0.00     0.030 NA
HETATM    9  C   UNL     1      -1.279   7.922 -30.559  1.00  0.00     0.199 C 
HETATM   10  C   UNL     1      -0.491   6.899 -29.742  1.00  0.00     0.062 C 
HETATM   11  H   UNL     1       0.183   4.652 -32.030  1.00  0.00     0.184 HD
ENDROOT
BRANCH  10  12
HETATM   12  C   UNL     1      -0.224   7.327 -28.344  1.00  0.00     0.256 C 
HETATM   13  N   UNL     1       0.779   8.263 -28.236  1.00  0.00    -0.322 N 
HETATM   14  H   UNL     1       1.251   8.546 -29.086  1.00  0.00     0.169 HD
HETATM   15  O   UNL     1      -0.846   6.795 -27.434  1.00  0.00    -0.267 OA
BRANCH  13  16
HETATM   16  C   UNL     1       1.230   8.874 -27.046  1.00  0.00     0.052 A 
HETATM   17  C   UNL     1       0.951  10.182 -26.659  1.00  0.00     0.145 A 
HETATM   18  N   UNL     1       1.410  10.751 -25.515  1.00  0.00    -0.271 NA
HETATM   19  C   UNL     1       2.183   9.987 -24.718  1.00  0.00     0.116 A 
HETATM   20  C   UNL     1       2.520   8.676 -25.010  1.00  0.00     0.021 A 
HETATM   21  C   UNL     1       2.033   8.115 -26.190  1.00  0.00     0.032 A 
ENDBRANCH  13  16
ENDBRANCH  10  12
BRANCH   9  22
HETATM   22  C   UNL     1      -2.683   8.119 -30.012  1.00  0.00    -0.011 A 
HETATM   23  C   UNL     1      -3.591   7.069 -29.892  1.00  0.00     0.125 A 
HETATM   24  N   UNL     1      -4.827   7.191 -29.360  1.00  0.00    -0.272 NA
HETATM   25  C   UNL     1      -5.193   8.421 -28.941  1.00  0.00     0.116 A 
HETATM   26  C   UNL     1      -4.370   9.532 -29.012  1.00  0.00     0.020 A 
HETATM   27  C   UNL     1      -3.096   9.375 -29.548  1.00  0.00     0.012 A 
ENDBRANCH   9  22
TORSDOF 3
ENDMDL
MODEL 4
REMARK VINA RESULT:      -7.5      2.417      3.892
REMARK  3 active torsions:
REMARK  status: ('A' for Active; 'I' for Inactive)
REMARK    1  A    between atoms: C_9  and  C_10 
REMARK    2  A    between atoms: C_16  and  C_17 
REMARK       I    between atoms: C_17  and  N_18 
REMARK    3  A    between atoms: N_18  and  C_19 
ROOT
HETATM    1  C   UNL     1      -5.672   0.948 -29.770  1.00  0.00     0.070 C 
HETATM    2  C   UNL     1      -5.590   2.342 -30.338  1.00  0.00     0.037 C 
HETATM    3  N   UNL     1      -5.447   3.364 -29.403  1.00  0.00    -0.191 N 
HETATM    4  C   UNL     1      -5.581   4.670 -29.717  1.00  0.00     0.735 A 
HETATM    5  N   UNL     1      -5.733   5.029 -31.026  1.00  0.00    -0.092 N 
HETATM    6  N   UNL     1      -5.913   6.355 -31.127  1.00  0.00     0.012 NA
HETATM    7  N   UNL     1      -5.829   6.797 -29.877  1.00  0.00     0.033 NA
HETATM    8  N   UNL     1      -5.622   5.757 -28.989  1.00  0.00     0.030 NA
HETATM    9  C   UNL     1      -5.742   4.096 -32.150  1.00  0.00     0.199 C 
HETATM   10  C   UNL     1      -5.713   2.651 -31.653  1.00  0.00     0.062 C 
HETATM   11  H   UNL     1      -5.437   3.105 -28.419  1.00  0.00     0.184 HD
ENDROOT
BRANCH  10  12
HETATM   12  C   UNL     1      -5.937   1.645 -32.724  1.00  0.00     0.256 C 
HETATM   13  N   UNL     1      -5.311   0.442 -32.490  1.00  0.00    -0.322 N 
HETATM   14  H   UNL     1      -4.749   0.359 -31.652  1.00  0.00     0.169 HD
HETATM   15  O   UNL     1      -6.579   1.970 -33.715  1.00  0.00    -0.267 OA
BRANCH  13  16
HETATM   16  C   UNL     1      -5.367  -0.705 -33.311  1.00  0.00     0.052 A 
HETATM   17  C   UNL     1      -4.266  -1.443 -33.737  1.00  0.00     0.145 A 
HETATM   18  N   UNL     1      -4.346  -2.535 -34.540  1.00  0.00    -0.271 NA
HETATM   19  C   UNL     1      -5.577  -2.911 -34.941  1.00  0.00     0.116 A 
HETATM   20  C   UNL     1      -6.735  -2.247 -34.576  1.00  0.00     0.021 A 
HETATM   21  C   UNL     1      -6.624  -1.131 -33.747  1.00  0.00     0.032 A 
ENDBRANCH  13  16
ENDBRANCH  10  12
BRANCH   9  22
HETATM   22  C   UNL     1      -4.596   4.386 -33.105  1.00  0.00    -0.011 A 
HETATM   23  C   UNL     1      -4.793   4.997 -34.342  1.00  0.00     0.125 A 
HETATM   24  N   UNL     1      -3.796   5.323 -35.195  1.00  0.00    -0.272 NA
HETATM   25  C   UNL     1      -2.539   5.010 -34.814  1.00  0.00     0.116 A 
HETATM   26  C   UNL     1      -2.232   4.405 -33.608  1.00  0.00     0.020 A 
HETATM   27  C   UNL     1      -3.275   4.096 -32.741  1.00  0.00     0.012 A 
ENDBRANCH   9  22
TORSDOF 3
ENDMDL
MODEL 5
REMARK VINA RESULT:      -7.4      2.442      5.563
REMARK  3 active torsions:
REMARK  status: ('A' for Active; 'I' for Inactive)
REMARK    1  A    between atoms: C_9  and  C_10 
REMARK    2  A    between atoms: C_16  and  C_17 
REMARK       I    between atoms: C_17  and  N_18 
REMARK    3  A    between atoms: N_18  and  C_19 
ROOT
HETATM    1  C   UNL     1      -8.145   4.501 -30.034  1.00  0.00     0.070 C 
HETATM    2  C   UNL     1      -7.427   4.231 -31.332  1.00  0.00     0.037 C 
HETATM    3  N   UNL     1      -6.268   4.973 -31.544  1.00  0.00    -0.191 N 
HETATM    4  C   UNL     1      -5.634   5.019 -32.734  1.00  0.00     0.735 A 
HETATM    5  N   UNL     1      -6.057   4.208 -33.748  1.00  0.00    -0.092 N 
HETATM    6  N   UNL     1      -5.347   4.445 -34.861  1.00  0.00     0.012 NA
HETATM    7  N   UNL     1      -4.467   5.374 -34.502  1.00  0.00     0.033 NA
HETATM    8  N   UNL     1      -4.636   5.741 -33.179  1.00  0.00     0.030 NA
HETATM    9  C   UNL     1      -7.156   3.251 -33.645  1.00  0.00     0.199 C 
HETATM   10  C   UNL     1      -7.868   3.389 -32.299  1.00  0.00     0.062 C 
HETATM   11  H   UNL     1      -6.009   5.654 -30.833  1.00  0.00     0.184 HD
ENDROOT
BRANCH  10  12
HETATM   12  C   UNL     1      -9.126   2.601 -32.205  1.00  0.00     0.256 C 
HETATM   13  N   UNL     1     -10.131   3.069 -33.021  1.00  0.00    -0.322 N 
HETATM   14  H   UNL     1      -9.942   3.896 -33.573  1.00  0.00     0.169 HD
HETATM   15  O   UNL     1      -9.187   1.680 -31.401  1.00  0.00    -0.267 OA
BRANCH  13  16
HETATM   16  C   UNL     1     -11.419   2.510 -33.166  1.00  0.00     0.052 A 
HETATM   17  C   UNL     1     -12.609   3.123 -32.783  1.00  0.00     0.145 A 
HETATM   18  N   UNL     1     -13.835   2.558 -32.920  1.00  0.00    -0.271 NA
HETATM   19  C   UNL     1     -13.883   1.324 -33.462  1.00  0.00     0.116 A 
HETATM   20  C   UNL     1     -12.761   0.628 -33.875  1.00  0.00     0.021 A 
HETATM   21  C   UNL     1     -11.514   1.233 -33.726  1.00  0.00     0.032 A 
ENDBRANCH  13  16
ENDBRANCH  10  12
BRANCH   9  22
HETATM   22  C   UNL     1      -6.664   1.833 -33.879  1.00  0.00    -0.011 A 
HETATM   23  C   UNL     1      -5.668   1.250 -33.097  1.00  0.00     0.125 A 
HETATM   24  N   UNL     1      -5.243  -0.025 -33.237  1.00  0.00    -0.272 NA
HETATM   25  C   UNL     1      -5.817  -0.758 -34.214  1.00  0.00     0.116 A 
HETATM   26  C   UNL     1      -6.815  -0.280 -35.045  1.00  0.00     0.020 A 
HETATM   27  C   UNL     1      -7.247   1.031 -34.869  1.00  0.00     0.012 A 
ENDBRANCH   9  22
TORSDOF 3
ENDMDL
MODEL 6
REMARK VINA RESULT:      -7.2     15.238     18.288
REMARK  3 active torsions:
REMARK  status: ('A' for Active; 'I' for Inactive)
REMARK    1  A    between atoms: C_9  and  C_10 
REMARK    2  A    between atoms: C_16  and  C_17 
REMARK       I    between atoms: C_17  and  N_18 
REMARK    3  A    between atoms: N_18  and  C_19 
ROOT
HETATM    1  C   UNL     1      -1.628 -14.518 -35.675  1.00  0.00     0.070 C 
HETATM    2  C   UNL     1      -0.945 -14.703 -37.007  1.00  0.00     0.037 C 
HETATM    3  N   UNL     1       0.229 -15.450 -36.981  1.00  0.00    -0.191 N 
HETATM    4  C   UNL     1       1.075 -15.524 -38.030  1.00  0.00     0.735 A 
HETATM    5  N   UNL     1       0.714 -14.956 -39.220  1.00  0.00    -0.092 N 
HETATM    6  N   UNL     1       1.707 -15.079 -40.114  1.00  0.00     0.012 NA
HETATM    7  N   UNL     1       2.651 -15.758 -39.471  1.00  0.00     0.033 NA
HETATM    8  N   UNL     1       2.270 -16.041 -38.172  1.00  0.00     0.030 NA
HETATM    9  C   UNL     1      -0.554 -14.274 -39.465  1.00  0.00     0.199 C 
HETATM   10  C   UNL     1      -1.359 -14.147 -38.172  1.00  0.00     0.062 C 
HETATM   11  H   UNL     1       0.554 -15.787 -36.077  1.00  0.00     0.184 HD
ENDROOT
BRANCH  10  12
HETATM   12  C   UNL     1      -2.559 -13.278 -38.298  1.00  0.00     0.256 C 
HETATM   13  N   UNL     1      -3.719 -13.975 -38.547  1.00  0.00    -0.322 N 
HETATM   14  H   UNL     1      -3.652 -14.980 -38.648  1.00  0.00     0.169 HD
HETATM   15  O   UNL     1      -2.418 -12.064 -38.235  1.00  0.00    -0.267 OA
BRANCH  13  16
HETATM   16  C   UNL     1      -5.012 -13.426 -38.685  1.00  0.00     0.052 A 
HETATM   17  C   UNL     1      -5.991 -13.416 -37.695  1.00  0.00     0.145 A 
HETATM   18  N   UNL     1      -7.234 -12.894 -37.857  1.00  0.00    -0.271 NA
HETATM   19  C   UNL     1      -7.519 -12.357 -39.060  1.00  0.00     0.116 A 
HETATM   20  C   UNL     1      -6.619 -12.315 -40.111  1.00  0.00     0.021 A 
HETATM   21  C   UNL     1      -5.348 -12.856 -39.916  1.00  0.00     0.032 A 
ENDBRANCH  13  16
ENDBRANCH  10  12
BRANCH   9  22
HETATM   22  C   UNL     1      -1.346 -14.979 -40.555  1.00  0.00    -0.011 A 
HETATM   23  C   UNL     1      -1.426 -16.368 -40.638  1.00  0.00     0.125 A 
HETATM   24  N   UNL     1      -2.164 -17.031 -41.556  1.00  0.00    -0.272 NA
HETATM   25  C   UNL     1      -2.843 -16.284 -42.452  1.00  0.00     0.116 A 
HETATM   26  C   UNL     1      -2.835 -14.900 -42.458  1.00  0.00     0.020 A 
HETATM   27  C   UNL     1      -2.081 -14.241 -41.491  1.00  0.00     0.012 A 
ENDBRANCH   9  22
TORSDOF 3
ENDMDL
MODEL 7
REMARK VINA RESULT:      -7.2      2.785      6.157
REMARK  3 active torsions:
REMARK  status: ('A' for Active; 'I' for Inactive)
REMARK    1  A    between atoms: C_9  and  C_10 
REMARK    2  A    between atoms: C_16  and  C_17 
REMARK       I    between atoms: C_17  and  N_18 
REMARK    3  A    between atoms: N_18  and  C_19 
ROOT
HETATM    1  C   UNL     1      -2.991   0.361 -31.221  1.00  0.00     0.070 C 
HETATM    2  C   UNL     1      -4.217   0.505 -32.088  1.00  0.00     0.037 C 
HETATM    3  N   UNL     1      -4.808  -0.687 -32.496  1.00  0.00    -0.191 N 
HETATM    4  C   UNL     1      -5.767  -0.743 -33.444  1.00  0.00     0.735 A 
HETATM    5  N   UNL     1      -6.283   0.420 -33.941  1.00  0.00    -0.092 N 
HETATM    6  N   UNL     1      -7.170   0.157 -34.912  1.00  0.00     0.012 NA
HETATM    7  N   UNL     1      -7.216  -1.170 -34.971  1.00  0.00     0.033 NA
HETATM    8  N   UNL     1      -6.346  -1.743 -34.061  1.00  0.00     0.030 NA
HETATM    9  C   UNL     1      -5.890   1.757 -33.506  1.00  0.00     0.199 C 
HETATM   10  C   UNL     1      -4.715   1.686 -32.531  1.00  0.00     0.062 C 
HETATM   11  H   UNL     1      -4.363  -1.556 -32.210  1.00  0.00     0.184 HD
ENDROOT
BRANCH  10  12
HETATM   12  C   UNL     1      -4.121   3.011 -32.211  1.00  0.00     0.256 C 
HETATM   13  N   UNL     1      -3.238   3.463 -33.164  1.00  0.00    -0.322 N 
HETATM   14  H   UNL     1      -3.054   2.861 -33.958  1.00  0.00     0.169 HD
HETATM   15  O   UNL     1      -4.404   3.543 -31.146  1.00  0.00    -0.267 OA
BRANCH  13  16
HETATM   16  C   UNL     1      -2.546   4.693 -33.148  1.00  0.00     0.052 A 
HETATM   17  C   UNL     1      -2.825   5.782 -33.969  1.00  0.00     0.145 A 
HETATM   18  N   UNL     1      -2.134   6.951 -33.944  1.00  0.00    -0.271 NA
HETATM   19  C   UNL     1      -1.117   7.041 -33.064  1.00  0.00     0.116 A 
HETATM   20  C   UNL     1      -0.757   6.018 -32.204  1.00  0.00     0.021 A 
HETATM   21  C   UNL     1      -1.486   4.830 -32.248  1.00  0.00     0.032 A 
ENDBRANCH  13  16
ENDBRANCH  10  12
BRANCH   9  22
HETATM   22  C   UNL     1      -7.073   2.502 -32.909  1.00  0.00    -0.011 A 
HETATM   23  C   UNL     1      -7.600   3.655 -33.491  1.00  0.00     0.125 A 
HETATM   24  N   UNL     1      -8.683   4.313 -33.024  1.00  0.00    -0.272 NA
HETATM   25  C   UNL     1      -9.266   3.819 -31.911  1.00  0.00     0.116 A 
HETATM   26  C   UNL     1      -8.827   2.682 -31.256  1.00  0.00     0.020 A 
HETATM   27  C   UNL     1      -7.720   2.013 -31.768  1.00  0.00     0.012 A 
ENDBRANCH   9  22
TORSDOF 3
ENDMDL
MODEL 8
REMARK VINA RESULT:      -7.1      1.641      1.845
REMARK  3 active torsions:
REMARK  status: ('A' for Active; 'I' for Inactive)
REMARK    1  A    between atoms: C_9  and  C_10 
REMARK    2  A    between atoms: C_16  and  C_17 
REMARK       I    between atoms: C_17  and  N_18 
REMARK    3  A    between atoms: N_18  and  C_19 
ROOT
HETATM    1  C   UNL     1      -3.220   2.599 -32.155  1.00  0.00     0.070 C 
HETATM    2  C   UNL     1      -4.590   3.024 -31.691  1.00  0.00     0.037 C 
HETATM    3  N   UNL     1      -4.612   3.976 -30.675  1.00  0.00    -0.191 N 
HETATM    4  C   UNL     1      -5.733   4.299 -29.996  1.00  0.00     0.735 A 
HETATM    5  N   UNL     1      -6.930   3.776 -30.397  1.00  0.00    -0.092 N 
HETATM    6  N   UNL     1      -7.909   4.161 -29.564  1.00  0.00     0.012 NA
HETATM    7  N   UNL     1      -7.303   4.951 -28.683  1.00  0.00     0.033 NA
HETATM    8  N   UNL     1      -5.947   5.044 -28.941  1.00  0.00     0.030 NA
HETATM    9  C   UNL     1      -7.109   2.889 -31.544  1.00  0.00     0.199 C 
HETATM   10  C   UNL     1      -5.757   2.501 -32.143  1.00  0.00     0.062 C 
HETATM   11  H   UNL     1      -3.718   4.290 -30.304  1.00  0.00     0.184 HD
ENDROOT
BRANCH  10  12
HETATM   12  C   UNL     1      -5.844   1.434 -33.174  1.00  0.00     0.256 C 
HETATM   13  N   UNL     1      -5.554   0.177 -32.693  1.00  0.00    -0.322 N 
HETATM   14  H   UNL     1      -5.288   0.096 -31.720  1.00  0.00     0.169 HD
HETATM   15  O   UNL     1      -6.095   1.749 -34.330  1.00  0.00    -0.267 OA
BRANCH  13  16
HETATM   16  C   UNL     1      -5.584  -1.028 -33.427  1.00  0.00     0.052 A 
HETATM   17  C   UNL     1      -4.466  -1.762 -33.813  1.00  0.00     0.145 A 
HETATM   18  N   UNL     1      -4.521  -2.912 -34.532  1.00  0.00    -0.271 NA
HETATM   19  C   UNL     1      -5.744  -3.353 -34.888  1.00  0.00     0.116 A 
HETATM   20  C   UNL     1      -6.918  -2.699 -34.557  1.00  0.00     0.021 A 
HETATM   21  C   UNL     1      -6.833  -1.522 -33.814  1.00  0.00     0.032 A 
ENDBRANCH  13  16
ENDBRANCH  10  12
BRANCH   9  22
HETATM   22  C   UNL     1      -8.023   3.521 -32.580  1.00  0.00    -0.011 A 
HETATM   23  C   UNL     1      -7.688   4.693 -33.256  1.00  0.00     0.125 A 
HETATM   24  N   UNL     1      -8.446   5.255 -34.223  1.00  0.00    -0.272 NA
HETATM   25  C   UNL     1      -9.608   4.637 -34.526  1.00  0.00     0.116 A 
HETATM   26  C   UNL     1     -10.036   3.469 -33.919  1.00  0.00     0.020 A 
HETATM   27  C   UNL     1      -9.227   2.901 -32.939  1.00  0.00     0.012 A 
ENDBRANCH   9  22
TORSDOF 3
ENDMDL
MODEL 9
REMARK VINA RESULT:      -7.1      2.365      5.361
REMARK  3 active torsions:
REMARK  status: ('A' for Active; 'I' for Inactive)
REMARK    1  A    between atoms: C_9  and  C_10 
REMARK    2  A    between atoms: C_16  and  C_17 
REMARK       I    between atoms: C_17  and  N_18 
REMARK    3  A    between atoms: N_18  and  C_19 
ROOT
HETATM    1  C   UNL     1      -6.395   4.691 -29.338  1.00  0.00     0.070 C 
HETATM    2  C   UNL     1      -5.412   4.202 -30.372  1.00  0.00     0.037 C 
HETATM    3  N   UNL     1      -4.199   4.883 -30.417  1.00  0.00    -0.191 N 
HETATM    4  C   UNL     1      -3.305   4.725 -31.416  1.00  0.00     0.735 A 
HETATM    5  N   UNL     1      -3.525   3.764 -32.362  1.00  0.00    -0.092 N 
HETATM    6  N   UNL     1      -2.566   3.806 -33.298  1.00  0.00     0.012 NA
HETATM    7  N   UNL     1      -1.745   4.770 -32.892  1.00  0.00     0.033 NA
HETATM    8  N   UNL     1      -2.196   5.350 -31.720  1.00  0.00     0.030 NA
HETATM    9  C   UNL     1      -4.666   2.853 -32.373  1.00  0.00     0.199 C 
HETATM   10  C   UNL     1      -5.661   3.218 -31.272  1.00  0.00     0.062 C 
HETATM   11  H   UNL     1      -4.075   5.668 -29.780  1.00  0.00     0.184 HD
ENDROOT
BRANCH  10  12
HETATM   12  C   UNL     1      -6.946   2.475 -31.355  1.00  0.00     0.256 C 
HETATM   13  N   UNL     1      -7.695   2.792 -32.465  1.00  0.00    -0.322 N 
HETATM   14  H   UNL     1      -7.332   3.500 -33.090  1.00  0.00     0.169 HD
HETATM   15  O   UNL     1      -7.251   1.719 -30.442  1.00  0.00    -0.267 OA
BRANCH  13  16
HETATM   16  C   UNL     1      -8.938   2.229 -32.824  1.00  0.00     0.052 A 
HETATM   17  C   UNL     1     -10.072   2.949 -33.190  1.00  0.00     0.145 A 
HETATM   18  N   UNL     1     -11.261   2.383 -33.518  1.00  0.00    -0.271 NA
HETATM   19  C   UNL     1     -11.329   1.038 -33.479  1.00  0.00     0.116 A 
HETATM   20  C   UNL     1     -10.263   0.228 -33.129  1.00  0.00     0.021 A 
HETATM   21  C   UNL     1      -9.051   0.836 -32.801  1.00  0.00     0.032 A 
ENDBRANCH  13  16
ENDBRANCH  10  12
BRANCH   9  22
HETATM   22  C   UNL     1      -4.207   1.408 -32.260  1.00  0.00    -0.011 A 
HETATM   23  C   UNL     1      -3.287   0.991 -31.299  1.00  0.00     0.125 A 
HETATM   24  N   UNL     1      -2.896  -0.292 -31.130  1.00  0.00    -0.272 NA
HETATM   25  C   UNL     1      -3.427  -1.209 -31.967  1.00  0.00     0.116 A 
HETATM   26  C   UNL     1      -4.349  -0.903 -32.953  1.00  0.00     0.020 A 
HETATM   27  C   UNL     1      -4.748   0.422 -33.095  1.00  0.00     0.012 A 
ENDBRANCH   9  22
TORSDOF 3
ENDMDL
MODEL 10
REMARK VINA RESULT:      -7.1      1.945      2.259
REMARK  3 active torsions:
REMARK  status: ('A' for Active; 'I' for Inactive)
REMARK    1  A    between atoms: C_9  and  C_10 
REMARK    2  A    between atoms: C_16  and  C_17 
REMARK       I    between atoms: C_17  and  N_18 
REMARK    3  A    between atoms: N_18  and  C_19 
ROOT
HETATM    1  C   UNL     1      -5.389   3.752 -34.166  1.00  0.00     0.070 C 
HETATM    2  C   UNL     1      -6.672   3.576 -33.392  1.00  0.00     0.037 C 
HETATM    3  N   UNL     1      -7.036   4.648 -32.582  1.00  0.00    -0.191 N 
HETATM    4  C   UNL     1      -8.022   4.572 -31.664  1.00  0.00     0.735 A 
HETATM    5  N   UNL     1      -8.792   3.445 -31.603  1.00  0.00    -0.092 N 
HETATM    6  N   UNL     1      -9.668   3.534 -30.592  1.00  0.00     0.012 NA
HETATM    7  N   UNL     1      -9.450   4.736 -30.068  1.00  0.00     0.033 NA
HETATM    8  N   UNL     1      -8.426   5.392 -30.727  1.00  0.00     0.030 NA
HETATM    9  C   UNL     1      -8.649   2.291 -32.488  1.00  0.00     0.199 C 
HETATM   10  C   UNL     1      -7.424   2.448 -33.389  1.00  0.00     0.062 C 
HETATM   11  H   UNL     1      -6.407   5.448 -32.548  1.00  0.00     0.184 HD
ENDROOT
BRANCH  10  12
HETATM   12  C   UNL     1      -7.090   1.224 -34.162  1.00  0.00     0.256 C 
HETATM   13  N   UNL     1      -6.567   0.211 -33.392  1.00  0.00    -0.322 N 
HETATM   14  H   UNL     1      -6.434   0.391 -32.405  1.00  0.00     0.169 HD
HETATM   15  O   UNL     1      -7.241   1.233 -35.377  1.00  0.00    -0.267 OA
BRANCH  13  16
HETATM   16  C   UNL     1      -6.187  -1.072 -33.841  1.00  0.00     0.052 A 
HETATM   17  C   UNL     1      -7.061  -2.065 -34.274  1.00  0.00     0.145 A 
HETATM   18  N   UNL     1      -6.670  -3.297 -34.688  1.00  0.00    -0.271 NA
HETATM   19  C   UNL     1      -5.348  -3.557 -34.670  1.00  0.00     0.116 A 
HETATM   20  C   UNL     1      -4.395  -2.641 -34.259  1.00  0.00     0.021 A 
HETATM   21  C   UNL     1      -4.824  -1.382 -33.842  1.00  0.00     0.032 A 
ENDBRANCH  13  16
ENDBRANCH  10  12
BRANCH   9  22
HETATM   22  C   UNL     1      -9.917   2.067 -33.295  1.00  0.00    -0.011 A 
HETATM   23  C   UNL     1     -10.352   2.966 -34.267  1.00  0.00     0.125 A 
HETATM   24  N   UNL     1     -11.441   2.777 -35.044  1.00  0.00    -0.272 NA
HETATM   25  C   UNL     1     -12.151   1.647 -34.837  1.00  0.00     0.116 A 
HETATM   26  C   UNL     1     -11.808   0.687 -33.901  1.00  0.00     0.020 A 
HETATM   27  C   UNL     1     -10.671   0.899 -33.126  1.00  0.00     0.012 A 
ENDBRANCH   9  22
TORSDOF 3
ENDMDL
