MODEL 1
REMARK VINA RESULT:      -8.1      0.000      0.000
REMARK  5 active torsions:
REMARK  status: ('A' for Active; 'I' for Inactive)
REMARK    1  A    between atoms: C_3  and  O_4 
REMARK    2  A    between atoms: O_4  and  C_5 
REMARK    3  A    between atoms: C_5  and  C_6 
REMARK       I    between atoms: C_6  and  N_7 
REMARK    4  A    between atoms: N_7  and  C_8 
REMARK    5  A    between atoms: C_14  and  C_15 
ROOT
HETATM    1  C   UNL     1      -4.499  -2.585 -33.857  1.00  0.00     0.137 A 
HETATM    2  N   UNL     1      -3.989  -3.835 -34.101  1.00  0.00    -0.262 N 
HETATM    3  H   UNL     1      -3.060  -4.167 -33.849  1.00  0.00     0.191 HD
HETATM    4  N   UNL     1      -4.838  -4.656 -34.743  1.00  0.00    -0.177 NA
HETATM    5  C   UNL     1      -5.940  -3.912 -34.905  1.00  0.00     0.065 A 
HETATM    6  C   UNL     1      -7.133  -4.498 -35.567  1.00  0.00     0.073 C 
HETATM    7  C   UNL     1      -5.780  -2.601 -34.372  1.00  0.00     0.046 A 
ENDROOT
BRANCH   1   8
HETATM    8  N   UNL     1      -3.791  -1.579 -33.218  1.00  0.00    -0.309 N 
HETATM    9  C   UNL     1      -3.085  -1.816 -32.043  1.00  0.00     0.247 C 
HETATM   10  O   UNL     1      -2.989  -2.925 -31.520  1.00  0.00    -0.271 OA
HETATM   11  H   UNL     1      -3.820  -0.652 -33.626  1.00  0.00     0.170 HD
BRANCH   9  12
HETATM   12  C   UNL     1      -2.443  -0.552 -31.467  1.00  0.00     0.278 C 
BRANCH  12  13
HETATM   13  O   UNL     1      -3.415   0.181 -30.735  1.00  0.00    -0.342 OA
BRANCH  13  14
HETATM   14  C   UNL     1      -4.071   1.189 -31.388  1.00  0.00     0.075 A 
HETATM   15  C   UNL     1      -5.475   1.149 -31.314  1.00  0.00    -0.029 A 
HETATM   16  C   UNL     1      -6.175   0.053 -30.557  1.00  0.00     0.051 C 
HETATM   17  C   UNL     1      -6.228   2.153 -31.939  1.00  0.00     0.009 A 
HETATM   18  C   UNL     1      -5.595   3.184 -32.633  1.00  0.00     0.001 A 
HETATM   19  C   UNL     1      -4.206   3.224 -32.699  1.00  0.00     0.003 A 
HETATM   20  C   UNL     1      -3.444   2.232 -32.076  1.00  0.00     0.037 A 
ENDBRANCH  13  14
ENDBRANCH  12  13
ENDBRANCH   9  12
ENDBRANCH   1   8
BRANCH   7  21
HETATM   21  C   UNL     1      -6.706  -1.487 -34.343  1.00  0.00    -0.020 A 
HETATM   22  C   UNL     1      -6.566  -0.419 -35.240  1.00  0.00     0.014 A 
HETATM   23  C   UNL     1      -7.455   0.658 -35.196  1.00  0.00     0.020 A 
HETATM   24  C   UNL     1      -8.480   0.671 -34.251  1.00  0.00     0.011 A 
HETATM   25 BR   UNL     1      -9.678   2.131 -34.187  1.00  0.00    -0.051 Br
HETATM   26  C   UNL     1      -8.625  -0.383 -33.351  1.00  0.00     0.020 A 
HETATM   27  C   UNL     1      -7.738  -1.461 -33.396  1.00  0.00     0.014 A 
ENDBRANCH   7  21
TORSDOF 5
ENDMDL
MODEL 2
REMARK VINA RESULT:      -7.9      2.133      5.566
REMARK  5 active torsions:
REMARK  status: ('A' for Active; 'I' for Inactive)
REMARK    1  A    between atoms: C_3  and  O_4 
REMARK    2  A    between atoms: O_4  and  C_5 
REMARK    3  A    between atoms: C_5  and  C_6 
REMARK       I    between atoms: C_6  and  N_7 
REMARK    4  A    between atoms: N_7  and  C_8 
REMARK    5  A    between atoms: C_14  and  C_15 
ROOT
HETATM    1  C   UNL     1      -4.168   2.176 -32.124  1.00  0.00     0.137 A 
HETATM    2  N   UNL     1      -3.186   3.025 -31.678  1.00  0.00    -0.262 N 
HETATM    3  H   UNL     1      -2.192   2.814 -31.611  1.00  0.00     0.191 HD
HETATM    4  N   UNL     1      -3.638   4.232 -31.299  1.00  0.00    -0.177 NA
HETATM    5  C   UNL     1      -4.957   4.165 -31.523  1.00  0.00     0.065 A 
HETATM    6  C   UNL     1      -5.814   5.344 -31.243  1.00  0.00     0.073 C 
HETATM    7  C   UNL     1      -5.345   2.894 -32.036  1.00  0.00     0.046 A 
ENDROOT
BRANCH   1   8
HETATM    8  N   UNL     1      -3.925   0.880 -32.552  1.00  0.00    -0.309 N 
HETATM    9  C   UNL     1      -3.722  -0.160 -31.651  1.00  0.00     0.247 C 
HETATM   10  O   UNL     1      -3.795  -0.026 -30.430  1.00  0.00    -0.271 OA
HETATM   11  H   UNL     1      -3.879   0.716 -33.550  1.00  0.00     0.170 HD
BRANCH   9  12
HETATM   12  C   UNL     1      -3.393  -1.488 -32.336  1.00  0.00     0.278 C 
BRANCH  12  13
HETATM   13  O   UNL     1      -3.920  -1.483 -33.655  1.00  0.00    -0.342 OA
BRANCH  13  14
HETATM   14  C   UNL     1      -4.663  -2.563 -34.044  1.00  0.00     0.075 A 
HETATM   15  C   UNL     1      -5.984  -2.284 -34.437  1.00  0.00    -0.029 A 
HETATM   16  C   UNL     1      -6.510  -0.874 -34.418  1.00  0.00     0.051 C 
HETATM   17  C   UNL     1      -6.812  -3.331 -34.868  1.00  0.00     0.009 A 
HETATM   18  C   UNL     1      -6.336  -4.640 -34.905  1.00  0.00     0.001 A 
HETATM   19  C   UNL     1      -5.027  -4.913 -34.521  1.00  0.00     0.003 A 
HETATM   20  C   UNL     1      -4.189  -3.878 -34.095  1.00  0.00     0.037 A 
ENDBRANCH  13  14
ENDBRANCH  12  13
ENDBRANCH   9  12
ENDBRANCH   1   8
BRANCH   7  21
HETATM   21  C   UNL     1      -6.655   2.396 -32.402  1.00  0.00    -0.020 A 
HETATM   22  C   UNL     1      -7.253   2.782 -33.609  1.00  0.00     0.014 A 
HETATM   23  C   UNL     1      -8.523   2.308 -33.949  1.00  0.00     0.020 A 
HETATM   24  C   UNL     1      -9.198   1.453 -33.079  1.00  0.00     0.011 A 
HETATM   25 BR   UNL     1     -10.918   0.818 -33.535  1.00  0.00    -0.051 Br
HETATM   26  C   UNL     1      -8.615   1.067 -31.873  1.00  0.00     0.020 A 
HETATM   27  C   UNL     1      -7.345   1.539 -31.535  1.00  0.00     0.014 A 
ENDBRANCH   7  21
TORSDOF 5
ENDMDL
MODEL 3
REMARK VINA RESULT:      -7.8      2.400      3.572
REMARK  5 active torsions:
REMARK  status: ('A' for Active; 'I' for Inactive)
REMARK    1  A    between atoms: C_3  and  O_4 
REMARK    2  A    between atoms: O_4  and  C_5 
REMARK    3  A    between atoms: C_5  and  C_6 
REMARK       I    between atoms: C_6  and  N_7 
REMARK    4  A    between atoms: N_7  and  C_8 
REMARK    5  A    between atoms: C_14  and  C_15 
ROOT
HETATM    1  C   UNL     1      -4.774  -0.098 -33.257  1.00  0.00     0.137 A 
HETATM    2  N   UNL     1      -3.765  -1.007 -33.454  1.00  0.00    -0.262 N 
HETATM    3  H   UNL     1      -2.778  -0.864 -33.251  1.00  0.00     0.191 HD
HETATM    4  N   UNL     1      -4.177  -2.176 -33.973  1.00  0.00    -0.177 NA
HETATM    5  C   UNL     1      -5.501  -2.021 -34.101  1.00  0.00     0.065 A 
HETATM    6  C   UNL     1      -6.326  -3.136 -34.630  1.00  0.00     0.073 C 
HETATM    7  C   UNL     1      -5.929  -0.731 -33.672  1.00  0.00     0.046 A 
ENDROOT
BRANCH   1   8
HETATM    8  N   UNL     1      -4.572   1.174 -32.744  1.00  0.00    -0.309 N 
HETATM    9  C   UNL     1      -3.626   1.419 -31.754  1.00  0.00     0.247 C 
HETATM   10  O   UNL     1      -2.871   0.556 -31.306  1.00  0.00    -0.271 OA
HETATM   11  H   UNL     1      -5.153   1.922 -33.100  1.00  0.00     0.170 HD
BRANCH   9  12
HETATM   12  C   UNL     1      -3.624   2.873 -31.278  1.00  0.00     0.278 C 
BRANCH  12  13
HETATM   13  O   UNL     1      -2.306   3.397 -31.363  1.00  0.00    -0.342 OA
BRANCH  13  14
HETATM   14  C   UNL     1      -2.074   4.380 -32.285  1.00  0.00     0.075 A 
HETATM   15  C   UNL     1      -1.131   5.354 -31.912  1.00  0.00    -0.029 A 
HETATM   16  C   UNL     1      -0.442   5.286 -30.576  1.00  0.00     0.051 C 
HETATM   17  C   UNL     1      -0.818   6.390 -32.805  1.00  0.00     0.009 A 
HETATM   18  C   UNL     1      -1.437   6.460 -34.052  1.00  0.00     0.001 A 
HETATM   19  C   UNL     1      -2.365   5.490 -34.421  1.00  0.00     0.003 A 
HETATM   20  C   UNL     1      -2.681   4.450 -33.543  1.00  0.00     0.037 A 
ENDBRANCH  13  14
ENDBRANCH  12  13
ENDBRANCH   9  12
ENDBRANCH   1   8
BRANCH   7  21
HETATM   21  C   UNL     1      -7.255  -0.149 -33.649  1.00  0.00    -0.020 A 
HETATM   22  C   UNL     1      -7.828   0.368 -34.819  1.00  0.00     0.014 A 
HETATM   23  C   UNL     1      -9.103   0.940 -34.785  1.00  0.00     0.020 A 
HETATM   24  C   UNL     1      -9.802   1.001 -33.580  1.00  0.00     0.011 A 
HETATM   25 BR   UNL     1     -11.522   1.782 -33.532  1.00  0.00    -0.051 Br
HETATM   26  C   UNL     1      -9.239   0.496 -32.409  1.00  0.00     0.020 A 
HETATM   27  C   UNL     1      -7.966  -0.079 -32.444  1.00  0.00     0.014 A 
ENDBRANCH   7  21
TORSDOF 5
ENDMDL
MODEL 4
REMARK VINA RESULT:      -7.7      1.594      2.606
REMARK  5 active torsions:
REMARK  status: ('A' for Active; 'I' for Inactive)
REMARK    1  A    between atoms: C_3  and  O_4 
REMARK    2  A    between atoms: O_4  and  C_5 
REMARK    3  A    between atoms: C_5  and  C_6 
REMARK       I    between atoms: C_6  and  N_7 
REMARK    4  A    between atoms: N_7  and  C_8 
REMARK    5  A    between atoms: C_14  and  C_15 
ROOT
HETATM    1  C   UNL     1      -4.698  -0.882 -33.502  1.00  0.00     0.137 A 
HETATM    2  N   UNL     1      -3.858  -1.941 -33.738  1.00  0.00    -0.262 N 
HETATM    3  H   UNL     1      -2.856  -1.966 -33.561  1.00  0.00     0.191 HD
HETATM    4  N   UNL     1      -4.469  -3.018 -34.260  1.00  0.00    -0.177 NA
HETATM    5  C   UNL     1      -5.752  -2.645 -34.350  1.00  0.00     0.065 A 
HETATM    6  C   UNL     1      -6.763  -3.600 -34.871  1.00  0.00     0.073 C 
HETATM    7  C   UNL     1      -5.952  -1.311 -33.893  1.00  0.00     0.046 A 
ENDROOT
BRANCH   1   8
HETATM    8  N   UNL     1      -4.277   0.329 -32.978  1.00  0.00    -0.309 N 
HETATM    9  C   UNL     1      -3.655   0.411 -31.737  1.00  0.00     0.247 C 
HETATM   10  O   UNL     1      -3.384  -0.571 -31.046  1.00  0.00    -0.271 OA
HETATM   11  H   UNL     1      -4.456   1.164 -33.522  1.00  0.00     0.170 HD
BRANCH   9  12
HETATM   12  C   UNL     1      -3.345   1.850 -31.317  1.00  0.00     0.278 C 
BRANCH  12  13
HETATM   13  O   UNL     1      -4.311   2.725 -31.880  1.00  0.00    -0.342 OA
BRANCH  13  14
HETATM   14  C   UNL     1      -3.888   3.604 -32.839  1.00  0.00     0.075 A 
HETATM   15  C   UNL     1      -4.871   4.035 -33.747  1.00  0.00    -0.029 A 
HETATM   16  C   UNL     1      -6.288   3.540 -33.638  1.00  0.00     0.051 C 
HETATM   17  C   UNL     1      -4.529   4.951 -34.753  1.00  0.00     0.009 A 
HETATM   18  C   UNL     1      -3.224   5.429 -34.859  1.00  0.00     0.001 A 
HETATM   19  C   UNL     1      -2.254   5.005 -33.956  1.00  0.00     0.003 A 
HETATM   20  C   UNL     1      -2.584   4.098 -32.945  1.00  0.00     0.037 A 
ENDBRANCH  13  14
ENDBRANCH  12  13
ENDBRANCH   9  12
ENDBRANCH   1   8
BRANCH   7  21
HETATM   21  C   UNL     1      -7.163  -0.519 -33.826  1.00  0.00    -0.020 A 
HETATM   22  C   UNL     1      -7.838  -0.350 -32.610  1.00  0.00     0.014 A 
HETATM   23  C   UNL     1      -9.013   0.404 -32.556  1.00  0.00     0.020 A 
HETATM   24  C   UNL     1      -9.517   0.984 -33.720  1.00  0.00     0.011 A 
HETATM   25 BR   UNL     1     -11.111   1.997 -33.649  1.00  0.00    -0.051 Br
HETATM   26  C   UNL     1      -8.858   0.816 -34.936  1.00  0.00     0.020 A 
HETATM   27  C   UNL     1      -7.681   0.065 -34.989  1.00  0.00     0.014 A 
ENDBRANCH   7  21
TORSDOF 5
ENDMDL
MODEL 5
REMARK VINA RESULT:      -7.6      1.449      2.401
REMARK  5 active torsions:
REMARK  status: ('A' for Active; 'I' for Inactive)
REMARK    1  A    between atoms: C_3  and  O_4 
REMARK    2  A    between atoms: O_4  and  C_5 
REMARK    3  A    between atoms: C_5  and  C_6 
REMARK       I    between atoms: C_6  and  N_7 
REMARK    4  A    between atoms: N_7  and  C_8 
REMARK    5  A    between atoms: C_14  and  C_15 
ROOT
HETATM    1  C   UNL     1      -4.562  -1.080 -33.627  1.00  0.00     0.137 A 
HETATM    2  N   UNL     1      -3.745  -2.160 -33.850  1.00  0.00    -0.262 N 
HETATM    3  H   UNL     1      -2.742  -2.201 -33.684  1.00  0.00     0.191 HD
HETATM    4  N   UNL     1      -4.383  -3.235 -34.343  1.00  0.00    -0.177 NA
HETATM    5  C   UNL     1      -5.660  -2.840 -34.426  1.00  0.00     0.065 A 
HETATM    6  C   UNL     1      -6.694  -3.786 -34.915  1.00  0.00     0.073 C 
HETATM    7  C   UNL     1      -5.828  -1.493 -33.995  1.00  0.00     0.046 A 
ENDROOT
BRANCH   1   8
HETATM    8  N   UNL     1      -4.112   0.134 -33.134  1.00  0.00    -0.309 N 
HETATM    9  C   UNL     1      -3.815   0.309 -31.787  1.00  0.00     0.247 C 
HETATM   10  O   UNL     1      -3.874  -0.595 -30.954  1.00  0.00    -0.271 OA
HETATM   11  H   UNL     1      -4.024   0.903 -33.787  1.00  0.00     0.170 HD
BRANCH   9  12
HETATM   12  C   UNL     1      -3.411   1.746 -31.446  1.00  0.00     0.278 C 
BRANCH  12  13
HETATM   13  O   UNL     1      -4.234   2.652 -32.167  1.00  0.00    -0.342 OA
BRANCH  13  14
HETATM   14  C   UNL     1      -5.447   2.975 -31.624  1.00  0.00     0.075 A 
HETATM   15  C   UNL     1      -6.462   3.290 -32.545  1.00  0.00    -0.029 A 
HETATM   16  C   UNL     1      -6.192   3.263 -34.025  1.00  0.00     0.051 C 
HETATM   17  C   UNL     1      -7.743   3.615 -32.077  1.00  0.00     0.009 A 
HETATM   18  C   UNL     1      -8.013   3.632 -30.709  1.00  0.00     0.001 A 
HETATM   19  C   UNL     1      -7.009   3.314 -29.800  1.00  0.00     0.003 A 
HETATM   20  C   UNL     1      -5.729   2.982 -30.255  1.00  0.00     0.037 A 
ENDBRANCH  13  14
ENDBRANCH  12  13
ENDBRANCH   9  12
ENDBRANCH   1   8
BRANCH   7  21
HETATM   21  C   UNL     1      -7.024  -0.677 -33.931  1.00  0.00    -0.020 A 
HETATM   22  C   UNL     1      -7.692  -0.485 -32.714  1.00  0.00     0.014 A 
HETATM   23  C   UNL     1      -8.852   0.293 -32.663  1.00  0.00     0.020 A 
HETATM   24  C   UNL     1      -9.347   0.873 -33.830  1.00  0.00     0.011 A 
HETATM   25 BR   UNL     1     -10.920   1.919 -33.763  1.00  0.00    -0.051 Br
HETATM   26  C   UNL     1      -8.694   0.684 -35.047  1.00  0.00     0.020 A 
HETATM   27  C   UNL     1      -7.533  -0.091 -35.097  1.00  0.00     0.014 A 
ENDBRANCH   7  21
TORSDOF 5
ENDMDL
MODEL 6
REMARK VINA RESULT:      -7.6      2.197      3.425
REMARK  5 active torsions:
REMARK  status: ('A' for Active; 'I' for Inactive)
REMARK    1  A    between atoms: C_3  and  O_4 
REMARK    2  A    between atoms: O_4  and  C_5 
REMARK    3  A    between atoms: C_5  and  C_6 
REMARK       I    between atoms: C_6  and  N_7 
REMARK    4  A    between atoms: N_7  and  C_8 
REMARK    5  A    between atoms: C_14  and  C_15 
ROOT
HETATM    1  C   UNL     1      -4.757  -0.290 -33.308  1.00  0.00     0.137 A 
HETATM    2  N   UNL     1      -3.802  -1.252 -33.526  1.00  0.00    -0.262 N 
HETATM    3  H   UNL     1      -2.806  -1.166 -33.337  1.00  0.00     0.191 HD
HETATM    4  N   UNL     1      -4.285  -2.393 -34.047  1.00  0.00    -0.177 NA
HETATM    5  C   UNL     1      -5.600  -2.164 -34.154  1.00  0.00     0.065 A 
HETATM    6  C   UNL     1      -6.493  -3.228 -34.679  1.00  0.00     0.073 C 
HETATM    7  C   UNL     1      -5.951  -0.857 -33.710  1.00  0.00     0.046 A 
ENDROOT
BRANCH   1   8
HETATM    8  N   UNL     1      -4.477   0.963 -32.789  1.00  0.00    -0.309 N 
HETATM    9  C   UNL     1      -3.526   1.145 -31.791  1.00  0.00     0.247 C 
HETATM   10  O   UNL     1      -2.832   0.235 -31.339  1.00  0.00    -0.271 OA
HETATM   11  H   UNL     1      -5.007   1.749 -33.148  1.00  0.00     0.170 HD
BRANCH   9  12
HETATM   12  C   UNL     1      -3.434   2.595 -31.309  1.00  0.00     0.278 C 
BRANCH  12  13
HETATM   13  O   UNL     1      -3.835   3.467 -32.356  1.00  0.00    -0.342 OA
BRANCH  13  14
HETATM   14  C   UNL     1      -2.941   4.418 -32.765  1.00  0.00     0.075 A 
HETATM   15  C   UNL     1      -3.329   5.177 -33.884  1.00  0.00    -0.029 A 
HETATM   16  C   UNL     1      -4.650   4.929 -34.561  1.00  0.00     0.051 C 
HETATM   17  C   UNL     1      -2.481   6.188 -34.360  1.00  0.00     0.009 A 
HETATM   18  C   UNL     1      -1.260   6.439 -33.736  1.00  0.00     0.001 A 
HETATM   19  C   UNL     1      -0.882   5.691 -32.625  1.00  0.00     0.003 A 
HETATM   20  C   UNL     1      -1.721   4.685 -32.137  1.00  0.00     0.037 A 
ENDBRANCH  13  14
ENDBRANCH  12  13
ENDBRANCH   9  12
ENDBRANCH   1   8
BRANCH   7  21
HETATM   21  C   UNL     1      -7.242  -0.203 -33.663  1.00  0.00    -0.020 A 
HETATM   22  C   UNL     1      -7.938  -0.085 -32.453  1.00  0.00     0.014 A 
HETATM   23  C   UNL     1      -9.190   0.536 -32.418  1.00  0.00     0.020 A 
HETATM   24  C   UNL     1      -9.749   1.032 -33.595  1.00  0.00     0.011 A 
HETATM   25 BR   UNL     1     -11.445   1.865 -33.550  1.00  0.00    -0.051 Br
HETATM   26  C   UNL     1      -9.068   0.915 -34.806  1.00  0.00     0.020 A 
HETATM   27  C   UNL     1      -7.816   0.297 -34.840  1.00  0.00     0.014 A 
ENDBRANCH   7  21
TORSDOF 5
ENDMDL
MODEL 7
REMARK VINA RESULT:      -7.4      1.210      1.985
REMARK  5 active torsions:
REMARK  status: ('A' for Active; 'I' for Inactive)
REMARK    1  A    between atoms: C_3  and  O_4 
REMARK    2  A    between atoms: O_4  and  C_5 
REMARK    3  A    between atoms: C_5  and  C_6 
REMARK       I    between atoms: C_6  and  N_7 
REMARK    4  A    between atoms: N_7  and  C_8 
REMARK    5  A    between atoms: C_14  and  C_15 
ROOT
HETATM    1  C   UNL     1      -4.401  -1.974 -33.802  1.00  0.00     0.137 A 
HETATM    2  N   UNL     1      -3.766  -3.180 -33.965  1.00  0.00    -0.262 N 
HETATM    3  H   UNL     1      -2.789  -3.379 -33.760  1.00  0.00     0.191 HD
HETATM    4  N   UNL     1      -4.555  -4.151 -34.454  1.00  0.00    -0.177 NA
HETATM    5  C   UNL     1      -5.746  -3.555 -34.597  1.00  0.00     0.065 A 
HETATM    6  C   UNL     1      -6.905  -4.334 -35.101  1.00  0.00     0.073 C 
HETATM    7  C   UNL     1      -5.705  -2.185 -34.208  1.00  0.00     0.046 A 
ENDROOT
BRANCH   1   8
HETATM    8  N   UNL     1      -3.773  -0.836 -33.323  1.00  0.00    -0.309 N 
HETATM    9  C   UNL     1      -3.979  -0.379 -32.026  1.00  0.00     0.247 C 
HETATM   10  O   UNL     1      -4.675  -0.969 -31.200  1.00  0.00    -0.271 OA
HETATM   11  H   UNL     1      -3.171  -0.329 -33.960  1.00  0.00     0.170 HD
BRANCH   9  12
HETATM   12  C   UNL     1      -3.252   0.935 -31.732  1.00  0.00     0.278 C 
BRANCH  12  13
HETATM   13  O   UNL     1      -4.200   1.927 -31.361  1.00  0.00    -0.342 OA
BRANCH  13  14
HETATM   14  C   UNL     1      -4.606   2.807 -32.325  1.00  0.00     0.075 A 
HETATM   15  C   UNL     1      -3.803   3.952 -32.481  1.00  0.00    -0.029 A 
HETATM   16  C   UNL     1      -2.585   4.159 -31.623  1.00  0.00     0.051 C 
HETATM   17  C   UNL     1      -4.135   4.900 -33.460  1.00  0.00     0.009 A 
HETATM   18  C   UNL     1      -5.253   4.716 -34.272  1.00  0.00     0.001 A 
HETATM   19  C   UNL     1      -6.042   3.580 -34.120  1.00  0.00     0.003 A 
HETATM   20  C   UNL     1      -5.718   2.624 -33.152  1.00  0.00     0.037 A 
ENDBRANCH  13  14
ENDBRANCH  12  13
ENDBRANCH   9  12
ENDBRANCH   1   8
BRANCH   7  21
HETATM   21  C   UNL     1      -6.750  -1.183 -34.211  1.00  0.00    -0.020 A 
HETATM   22  C   UNL     1      -6.924  -0.336 -35.314  1.00  0.00     0.014 A 
HETATM   23  C   UNL     1      -7.927   0.637 -35.304  1.00  0.00     0.020 A 
HETATM   24  C   UNL     1      -8.752   0.768 -34.187  1.00  0.00     0.011 A 
HETATM   25 BR   UNL     1     -10.102   2.089 -34.170  1.00  0.00    -0.051 Br
HETATM   26  C   UNL     1      -8.584  -0.064 -33.082  1.00  0.00     0.020 A 
HETATM   27  C   UNL     1      -7.583  -1.039 -33.094  1.00  0.00     0.014 A 
ENDBRANCH   7  21
TORSDOF 5
ENDMDL
MODEL 8
REMARK VINA RESULT:      -7.2      3.331      6.760
REMARK  5 active torsions:
REMARK  status: ('A' for Active; 'I' for Inactive)
REMARK    1  A    between atoms: C_3  and  O_4 
REMARK    2  A    between atoms: O_4  and  C_5 
REMARK    3  A    between atoms: C_5  and  C_6 
REMARK       I    between atoms: C_6  and  N_7 
REMARK    4  A    between atoms: N_7  and  C_8 
REMARK    5  A    between atoms: C_14  and  C_15 
ROOT
HETATM    1  C   UNL     1      -6.358   1.968 -31.407  1.00  0.00     0.137 A 
HETATM    2  N   UNL     1      -7.325   1.891 -30.436  1.00  0.00    -0.262 N 
HETATM    3  H   UNL     1      -7.930   1.093 -30.250  1.00  0.00     0.191 HD
HETATM    4  N   UNL     1      -7.445   3.005 -29.695  1.00  0.00    -0.177 NA
HETATM    5  C   UNL     1      -6.513   3.826 -30.196  1.00  0.00     0.065 A 
HETATM    6  C   UNL     1      -6.323   5.174 -29.606  1.00  0.00     0.073 C 
HETATM    7  C   UNL     1      -5.805   3.227 -31.278  1.00  0.00     0.046 A 
ENDROOT
BRANCH   1   8
HETATM    8  N   UNL     1      -6.075   0.939 -32.290  1.00  0.00    -0.309 N 
HETATM    9  C   UNL     1      -7.040   0.429 -33.152  1.00  0.00     0.247 C 
HETATM   10  O   UNL     1      -8.183   0.879 -33.236  1.00  0.00    -0.271 OA
HETATM   11  H   UNL     1      -5.139   0.551 -32.275  1.00  0.00     0.170 HD
BRANCH   9  12
HETATM   12  C   UNL     1      -6.536  -0.754 -33.982  1.00  0.00     0.278 C 
BRANCH  12  13
HETATM   13  O   UNL     1      -5.124  -0.851 -33.858  1.00  0.00    -0.342 OA
BRANCH  13  14
HETATM   14  C   UNL     1      -4.589  -2.095 -33.668  1.00  0.00     0.075 A 
HETATM   15  C   UNL     1      -3.737  -2.228 -32.558  1.00  0.00    -0.029 A 
HETATM   16  C   UNL     1      -3.454  -1.054 -31.660  1.00  0.00     0.051 C 
HETATM   17  C   UNL     1      -3.158  -3.474 -32.276  1.00  0.00     0.009 A 
HETATM   18  C   UNL     1      -3.420  -4.575 -33.090  1.00  0.00     0.001 A 
HETATM   19  C   UNL     1      -4.269  -4.442 -34.185  1.00  0.00     0.003 A 
HETATM   20  C   UNL     1      -4.856  -3.207 -34.472  1.00  0.00     0.037 A 
ENDBRANCH  13  14
ENDBRANCH  12  13
ENDBRANCH   9  12
ENDBRANCH   1   8
BRANCH   7  21
HETATM   21  C   UNL     1      -4.738   3.758 -32.101  1.00  0.00    -0.020 A 
HETATM   22  C   UNL     1      -3.396   3.545 -31.755  1.00  0.00     0.014 A 
HETATM   23  C   UNL     1      -2.373   4.071 -32.547  1.00  0.00     0.020 A 
HETATM   24  C   UNL     1      -2.690   4.817 -33.682  1.00  0.00     0.011 A 
HETATM   25 BR   UNL     1      -1.306   5.536 -34.749  1.00  0.00    -0.051 Br
HETATM   26  C   UNL     1      -4.020   5.041 -34.032  1.00  0.00     0.020 A 
HETATM   27  C   UNL     1      -5.044   4.512 -33.242  1.00  0.00     0.014 A 
ENDBRANCH   7  21
TORSDOF 5
ENDMDL
MODEL 9
REMARK VINA RESULT:      -7.2      4.363      7.251
REMARK  5 active torsions:
REMARK  status: ('A' for Active; 'I' for Inactive)
REMARK    1  A    between atoms: C_3  and  O_4 
REMARK    2  A    between atoms: O_4  and  C_5 
REMARK    3  A    between atoms: C_5  and  C_6 
REMARK       I    between atoms: C_6  and  N_7 
REMARK    4  A    between atoms: N_7  and  C_8 
REMARK    5  A    between atoms: C_14  and  C_15 
ROOT
HETATM    1  C   UNL     1      -6.978   3.428 -32.823  1.00  0.00     0.137 A 
HETATM    2  N   UNL     1      -6.417   4.595 -32.369  1.00  0.00    -0.262 N 
HETATM    3  H   UNL     1      -6.909   5.465 -32.176  1.00  0.00     0.191 HD
HETATM    4  N   UNL     1      -5.087   4.528 -32.187  1.00  0.00    -0.177 NA
HETATM    5  C   UNL     1      -4.782   3.267 -32.522  1.00  0.00     0.065 A 
HETATM    6  C   UNL     1      -3.377   2.799 -32.423  1.00  0.00     0.073 C 
HETATM    7  C   UNL     1      -5.931   2.534 -32.935  1.00  0.00     0.046 A 
ENDROOT
BRANCH   1   8
HETATM    8  N   UNL     1      -8.330   3.279 -33.089  1.00  0.00    -0.309 N 
HETATM    9  C   UNL     1      -9.022   4.187 -33.884  1.00  0.00     0.247 C 
HETATM   10  O   UNL     1      -8.488   5.141 -34.448  1.00  0.00    -0.271 OA
HETATM   11  H   UNL     1      -8.808   2.493 -32.666  1.00  0.00     0.170 HD
BRANCH   9  12
HETATM   12  C   UNL     1     -10.517   3.877 -33.981  1.00  0.00     0.278 C 
BRANCH  12  13
HETATM   13  O   UNL     1     -10.707   2.697 -34.749  1.00  0.00    -0.342 OA
BRANCH  13  14
HETATM   14  C   UNL     1     -11.791   1.918 -34.454  1.00  0.00     0.075 A 
HETATM   15  C   UNL     1     -11.516   0.737 -33.742  1.00  0.00    -0.029 A 
HETATM   16  C   UNL     1     -10.106   0.387 -33.348  1.00  0.00     0.051 C 
HETATM   17  C   UNL     1     -12.571  -0.114 -33.381  1.00  0.00     0.009 A 
HETATM   18  C   UNL     1     -13.885   0.202 -33.726  1.00  0.00     0.001 A 
HETATM   19  C   UNL     1     -14.154   1.375 -34.425  1.00  0.00     0.003 A 
HETATM   20  C   UNL     1     -13.112   2.234 -34.786  1.00  0.00     0.037 A 
ENDBRANCH  13  14
ENDBRANCH  12  13
ENDBRANCH   9  12
ENDBRANCH   1   8
BRANCH   7  21
HETATM   21  C   UNL     1      -6.049   1.161 -33.383  1.00  0.00    -0.020 A 
HETATM   22  C   UNL     1      -6.632   0.863 -34.622  1.00  0.00     0.014 A 
HETATM   23  C   UNL     1      -6.755  -0.464 -35.041  1.00  0.00     0.020 A 
HETATM   24  C   UNL     1      -6.301  -1.494 -34.218  1.00  0.00     0.011 A 
HETATM   25 BR   UNL     1      -6.474  -3.290 -34.781  1.00  0.00    -0.051 Br
HETATM   26  C   UNL     1      -5.725  -1.210 -32.981  1.00  0.00     0.020 A 
HETATM   27  C   UNL     1      -5.600   0.117 -32.564  1.00  0.00     0.014 A 
ENDBRANCH   7  21
TORSDOF 5
ENDMDL
MODEL 10
REMARK VINA RESULT:      -7.1     13.486     14.785
REMARK  5 active torsions:
REMARK  status: ('A' for Active; 'I' for Inactive)
REMARK    1  A    between atoms: C_3  and  O_4 
REMARK    2  A    between atoms: O_4  and  C_5 
REMARK    3  A    between atoms: C_5  and  C_6 
REMARK       I    between atoms: C_6  and  N_7 
REMARK    4  A    between atoms: N_7  and  C_8 
REMARK    5  A    between atoms: C_14  and  C_15 
ROOT
HETATM    1  C   UNL     1      -5.258 -13.388 -35.156  1.00  0.00     0.137 A 
HETATM    2  N   UNL     1      -4.812 -13.324 -33.860  1.00  0.00    -0.262 N 
HETATM    3  H   UNL     1      -3.987 -12.828 -33.530  1.00  0.00     0.191 HD
HETATM    4  N   UNL     1      -5.572 -14.007 -32.987  1.00  0.00    -0.177 NA
HETATM    5  C   UNL     1      -6.551 -14.517 -33.746  1.00  0.00     0.065 A 
HETATM    6  C   UNL     1      -7.622 -15.331 -33.118  1.00  0.00     0.073 C 
HETATM    7  C   UNL     1      -6.399 -14.164 -35.117  1.00  0.00     0.046 A 
ENDROOT
BRANCH   1   8
HETATM    8  N   UNL     1      -4.619 -12.766 -36.218  1.00  0.00    -0.309 N 
HETATM    9  C   UNL     1      -3.696 -13.441 -37.010  1.00  0.00     0.247 C 
HETATM   10  O   UNL     1      -3.421 -14.632 -36.870  1.00  0.00    -0.271 OA
HETATM   11  H   UNL     1      -4.831 -11.791 -36.388  1.00  0.00     0.170 HD
BRANCH   9  12
HETATM   12  C   UNL     1      -3.054 -12.546 -38.072  1.00  0.00     0.278 C 
BRANCH  12  13
HETATM   13  O   UNL     1      -3.198 -13.150 -39.350  1.00  0.00    -0.342 OA
BRANCH  13  14
HETATM   14  C   UNL     1      -4.434 -13.105 -39.935  1.00  0.00     0.075 A 
HETATM   15  C   UNL     1      -4.931 -14.336 -40.400  1.00  0.00    -0.029 A 
HETATM   16  C   UNL     1      -4.127 -15.598 -40.246  1.00  0.00     0.051 C 
HETATM   17  C   UNL     1      -6.199 -14.387 -40.997  1.00  0.00     0.009 A 
HETATM   18  C   UNL     1      -6.963 -13.228 -41.135  1.00  0.00     0.001 A 
HETATM   19  C   UNL     1      -6.470 -12.014 -40.669  1.00  0.00     0.003 A 
HETATM   20  C   UNL     1      -5.211 -11.951 -40.066  1.00  0.00     0.037 A 
ENDBRANCH  13  14
ENDBRANCH  12  13
ENDBRANCH   9  12
ENDBRANCH   1   8
BRANCH   7  21
HETATM   21  C   UNL     1      -7.215 -14.506 -36.264  1.00  0.00    -0.020 A 
HETATM   22  C   UNL     1      -7.288 -15.829 -36.720  1.00  0.00     0.014 A 
HETATM   23  C   UNL     1      -8.068 -16.149 -37.835  1.00  0.00     0.020 A 
HETATM   24  C   UNL     1      -8.769 -15.143 -38.499  1.00  0.00     0.011 A 
HETATM   25 BR   UNL     1      -9.817 -15.573 -40.011  1.00  0.00    -0.051 Br
HETATM   26  C   UNL     1      -8.699 -13.823 -38.059  1.00  0.00     0.020 A 
HETATM   27  C   UNL     1      -7.922 -13.504 -36.942  1.00  0.00     0.014 A 
ENDBRANCH   7  21
TORSDOF 5
ENDMDL
