MODEL 1
REMARK VINA RESULT:      -9.6      0.000      0.000
REMARK  3 active torsions:
REMARK  status: ('A' for Active; 'I' for Inactive)
REMARK    1  A    between atoms: O_2  and  C_3 
REMARK    2  A    between atoms: C_6  and  C_7 
REMARK       I    between atoms: C_7  and  N_8 
REMARK    3  A    between atoms: C_11  and  C_12 
ROOT
HETATM    1  C   UNL     1      -9.346   2.586 -34.179  1.00  0.00     0.274 C 
HETATM    2  N   UNL     1      -8.319   1.631 -34.117  1.00  0.00    -0.343 N 
HETATM    3  C   UNL     1      -6.972   2.176 -33.987  1.00  0.00     0.154 C 
HETATM    4  C   UNL     1      -5.954   1.128 -33.664  1.00  0.00     0.001 C 
HETATM    5  C   UNL     1      -6.196  -0.193 -33.605  1.00  0.00    -0.046 C 
HETATM    6  C   UNL     1      -7.578  -0.726 -33.888  1.00  0.00     0.059 C 
HETATM    7  C   UNL     1      -8.410   0.282 -34.687  1.00  0.00     0.131 C 
HETATM    8  O   UNL     1      -9.101   3.796 -34.122  1.00  0.00    -0.266 OA
ENDROOT
BRANCH   1   9
HETATM    9  C   UNL     1     -10.775   2.196 -34.323  1.00  0.00     0.147 A 
HETATM   10  N   UNL     1     -11.531   2.815 -35.259  1.00  0.00    -0.142 NA
HETATM   11  N   UNL     1     -12.842   2.440 -35.430  1.00  0.00    -0.124 NA
HETATM   12  C   UNL     1     -13.353   1.436 -34.683  1.00  0.00     0.185 A 
HETATM   13  C   UNL     1     -12.602   0.766 -33.739  1.00  0.00     0.062 A 
HETATM   14  C   UNL     1     -11.277   1.153 -33.556  1.00  0.00     0.043 A 
BRANCH  12  15
HETATM   15  O   UNL     1     -14.664   1.032 -34.834  1.00  0.00    -0.338 OA
HETATM   16  C   UNL     1     -15.446   1.222 -33.660  1.00  0.00     0.211 C 
ENDBRANCH  12  15
ENDBRANCH   1   9
BRANCH   5  17
HETATM   17  C   UNL     1      -5.198  -1.175 -33.303  1.00  0.00    -0.002 A 
HETATM   18  C   UNL     1      -5.120  -2.528 -33.767  1.00  0.00     0.003 A 
HETATM   19  C   UNL     1      -3.952  -3.077 -33.235  1.00  0.00     0.043 A 
HETATM   20  C   UNL     1      -5.928  -3.349 -34.585  1.00  0.00     0.014 A 
HETATM   21  C   UNL     1      -3.544  -4.392 -33.492  1.00  0.00     0.030 A 
HETATM   22  N   UNL     1      -3.356  -2.100 -32.470  1.00  0.00    -0.364 N 
HETATM   23  C   UNL     1      -4.358  -5.177 -34.314  1.00  0.00     0.002 A 
HETATM   24  C   UNL     1      -5.536  -4.666 -34.852  1.00  0.00     0.001 A 
HETATM   25  H   UNL     1      -2.489  -2.219 -31.966  1.00  0.00     0.165 HD
HETATM   26  C   UNL     1      -4.101  -0.951 -32.498  1.00  0.00     0.101 A 
ENDBRANCH   5  17
TORSDOF 3
ENDMDL
MODEL 2
REMARK VINA RESULT:      -9.5      4.327      6.798
REMARK  3 active torsions:
REMARK  status: ('A' for Active; 'I' for Inactive)
REMARK    1  A    between atoms: O_2  and  C_3 
REMARK    2  A    between atoms: C_6  and  C_7 
REMARK       I    between atoms: C_7  and  N_8 
REMARK    3  A    between atoms: C_11  and  C_12 
ROOT
HETATM    1  C   UNL     1      -5.428   4.229 -33.644  1.00  0.00     0.274 C 
HETATM    2  N   UNL     1      -5.152   2.897 -33.297  1.00  0.00    -0.343 N 
HETATM    3  C   UNL     1      -6.197   1.938 -33.641  1.00  0.00     0.154 C 
HETATM    4  C   UNL     1      -5.749   0.518 -33.491  1.00  0.00     0.001 C 
HETATM    5  C   UNL     1      -4.563   0.129 -32.992  1.00  0.00    -0.046 C 
HETATM    6  C   UNL     1      -3.567   1.156 -32.515  1.00  0.00     0.059 C 
HETATM    7  C   UNL     1      -4.248   2.495 -32.214  1.00  0.00     0.131 C 
HETATM    8  O   UNL     1      -6.484   4.541 -34.202  1.00  0.00    -0.266 OA
ENDROOT
BRANCH   1   9
HETATM    9  C   UNL     1      -4.470   5.331 -33.353  1.00  0.00     0.147 A 
HETATM   10  N   UNL     1      -3.588   5.702 -34.309  1.00  0.00    -0.142 NA
HETATM   11  N   UNL     1      -2.724   6.743 -34.068  1.00  0.00    -0.124 NA
HETATM   12  C   UNL     1      -2.784   7.404 -32.891  1.00  0.00     0.185 A 
HETATM   13  C   UNL     1      -3.690   7.069 -31.905  1.00  0.00     0.062 A 
HETATM   14  C   UNL     1      -4.558   6.007 -32.142  1.00  0.00     0.043 A 
BRANCH  12  15
HETATM   15  O   UNL     1      -1.934   8.457 -32.620  1.00  0.00    -0.338 OA
HETATM   16  C   UNL     1      -2.061   8.950 -31.291  1.00  0.00     0.211 C 
ENDBRANCH  12  15
ENDBRANCH   1   9
BRANCH   5  17
HETATM   17  C   UNL     1      -4.166  -1.239 -32.852  1.00  0.00    -0.002 A 
HETATM   18  C   UNL     1      -4.622  -2.374 -33.597  1.00  0.00     0.003 A 
HETATM   19  C   UNL     1      -3.919  -3.484 -33.126  1.00  0.00     0.043 A 
HETATM   20  C   UNL     1      -5.571  -2.574 -34.625  1.00  0.00     0.014 A 
HETATM   21  C   UNL     1      -4.101  -4.774 -33.640  1.00  0.00     0.030 A 
HETATM   22  N   UNL     1      -3.081  -3.040 -32.129  1.00  0.00    -0.364 N 
HETATM   23  C   UNL     1      -5.038  -4.939 -34.666  1.00  0.00     0.002 A 
HETATM   24  C   UNL     1      -5.766  -3.857 -35.151  1.00  0.00     0.001 A 
HETATM   25  H   UNL     1      -2.448  -3.631 -31.609  1.00  0.00     0.165 HD
HETATM   26  C   UNL     1      -3.225  -1.690 -31.950  1.00  0.00     0.101 A 
ENDBRANCH   5  17
TORSDOF 3
ENDMDL
MODEL 3
REMARK VINA RESULT:      -9.2      4.840      7.593
REMARK  3 active torsions:
REMARK  status: ('A' for Active; 'I' for Inactive)
REMARK    1  A    between atoms: O_2  and  C_3 
REMARK    2  A    between atoms: C_6  and  C_7 
REMARK       I    between atoms: C_7  and  N_8 
REMARK    3  A    between atoms: C_11  and  C_12 
ROOT
HETATM    1  C   UNL     1      -4.496   3.791 -32.540  1.00  0.00     0.274 C 
HETATM    2  N   UNL     1      -4.435   2.389 -32.505  1.00  0.00    -0.343 N 
HETATM    3  C   UNL     1      -5.692   1.706 -32.787  1.00  0.00     0.154 C 
HETATM    4  C   UNL     1      -5.516   0.234 -32.994  1.00  0.00     0.001 C 
HETATM    5  C   UNL     1      -4.363  -0.437 -32.835  1.00  0.00    -0.046 C 
HETATM    6  C   UNL     1      -3.114   0.291 -32.402  1.00  0.00     0.059 C 
HETATM    7  C   UNL     1      -3.452   1.624 -31.729  1.00  0.00     0.131 C 
HETATM    8  O   UNL     1      -5.551   4.380 -32.796  1.00  0.00    -0.266 OA
ENDROOT
BRANCH   1   9
HETATM    9  C   UNL     1      -3.303   4.637 -32.264  1.00  0.00     0.147 A 
HETATM   10  N   UNL     1      -3.215   5.277 -31.075  1.00  0.00    -0.142 NA
HETATM   11  N   UNL     1      -2.103   6.031 -30.791  1.00  0.00    -0.124 NA
HETATM   12  C   UNL     1      -1.095   6.103 -31.689  1.00  0.00     0.185 A 
HETATM   13  C   UNL     1      -1.141   5.441 -32.899  1.00  0.00     0.062 A 
HETATM   14  C   UNL     1      -2.272   4.686 -33.194  1.00  0.00     0.043 A 
BRANCH  12  15
HETATM   15  O   UNL     1       0.038   6.847 -31.432  1.00  0.00    -0.338 OA
HETATM   16  C   UNL     1       0.276   7.041 -30.042  1.00  0.00     0.211 C 
ENDBRANCH  12  15
ENDBRANCH   1   9
BRANCH   5  17
HETATM   17  C   UNL     1      -4.226  -1.848 -33.031  1.00  0.00    -0.002 A 
HETATM   18  C   UNL     1      -5.011  -2.705 -33.869  1.00  0.00     0.003 A 
HETATM   19  C   UNL     1      -4.475  -3.990 -33.759  1.00  0.00     0.043 A 
HETATM   20  C   UNL     1      -6.131  -2.522 -34.711  1.00  0.00     0.014 A 
HETATM   21  C   UNL     1      -4.988  -5.091 -34.457  1.00  0.00     0.030 A 
HETATM   22  N   UNL     1      -3.418  -3.915 -32.880  1.00  0.00    -0.364 N 
HETATM   23  C   UNL     1      -6.090  -4.876 -35.291  1.00  0.00     0.002 A 
HETATM   24  C   UNL     1      -6.657  -3.611 -35.415  1.00  0.00     0.001 A 
HETATM   25  H   UNL     1      -2.841  -4.699 -32.613  1.00  0.00     0.165 HD
HETATM   26  C   UNL     1      -3.263  -2.631 -32.430  1.00  0.00     0.101 A 
ENDBRANCH   5  17
TORSDOF 3
ENDMDL
MODEL 4
REMARK VINA RESULT:      -8.9      5.135      8.254
REMARK  3 active torsions:
REMARK  status: ('A' for Active; 'I' for Inactive)
REMARK    1  A    between atoms: O_2  and  C_3 
REMARK    2  A    between atoms: C_6  and  C_7 
REMARK       I    between atoms: C_7  and  N_8 
REMARK    3  A    between atoms: C_11  and  C_12 
ROOT
HETATM    1  C   UNL     1      -6.095   0.256 -31.471  1.00  0.00     0.274 C 
HETATM    2  N   UNL     1      -5.627   1.576 -31.572  1.00  0.00    -0.343 N 
HETATM    3  C   UNL     1      -5.884   2.416 -30.408  1.00  0.00     0.154 C 
HETATM    4  C   UNL     1      -5.143   3.715 -30.458  1.00  0.00     0.001 C 
HETATM    5  C   UNL     1      -4.403   4.144 -31.495  1.00  0.00    -0.046 C 
HETATM    6  C   UNL     1      -4.281   3.302 -32.741  1.00  0.00     0.059 C 
HETATM    7  C   UNL     1      -5.423   2.286 -32.839  1.00  0.00     0.131 C 
HETATM    8  O   UNL     1      -6.679  -0.141 -30.458  1.00  0.00    -0.266 OA
ENDROOT
BRANCH   1   9
HETATM    9  C   UNL     1      -5.923  -0.726 -32.576  1.00  0.00     0.147 A 
HETATM   10  N   UNL     1      -4.734  -1.355 -32.714  1.00  0.00    -0.142 NA
HETATM   11  N   UNL     1      -4.572  -2.292 -33.706  1.00  0.00    -0.124 NA
HETATM   12  C   UNL     1      -5.611  -2.597 -34.514  1.00  0.00     0.185 A 
HETATM   13  C   UNL     1      -6.846  -1.993 -34.383  1.00  0.00     0.062 A 
HETATM   14  C   UNL     1      -7.008  -1.036 -33.387  1.00  0.00     0.043 A 
BRANCH  12  15
HETATM   15  O   UNL     1      -5.483  -3.537 -35.516  1.00  0.00    -0.338 OA
HETATM   16  C   UNL     1      -6.441  -4.586 -35.424  1.00  0.00     0.211 C 
ENDBRANCH  12  15
ENDBRANCH   1   9
BRANCH   5  17
HETATM   17  C   UNL     1      -3.713   5.398 -31.519  1.00  0.00    -0.002 A 
HETATM   18  C   UNL     1      -2.305   5.635 -31.402  1.00  0.00     0.003 A 
HETATM   19  C   UNL     1      -2.110   7.013 -31.523  1.00  0.00     0.043 A 
HETATM   20  C   UNL     1      -1.171   4.818 -31.200  1.00  0.00     0.014 A 
HETATM   21  C   UNL     1      -0.843   7.609 -31.469  1.00  0.00     0.030 A 
HETATM   22  N   UNL     1      -3.350   7.585 -31.692  1.00  0.00    -0.364 N 
HETATM   23  C   UNL     1       0.261   6.773 -31.280  1.00  0.00     0.002 A 
HETATM   24  C   UNL     1       0.102   5.397 -31.144  1.00  0.00     0.001 A 
HETATM   25  H   UNL     1      -3.511   8.575 -31.809  1.00  0.00     0.165 HD
HETATM   26  C   UNL     1      -4.325   6.623 -31.685  1.00  0.00     0.101 A 
ENDBRANCH   5  17
TORSDOF 3
ENDMDL
MODEL 5
REMARK VINA RESULT:      -8.9      2.494      8.806
REMARK  3 active torsions:
REMARK  status: ('A' for Active; 'I' for Inactive)
REMARK    1  A    between atoms: O_2  and  C_3 
REMARK    2  A    between atoms: C_6  and  C_7 
REMARK       I    between atoms: C_7  and  N_8 
REMARK    3  A    between atoms: C_11  and  C_12 
ROOT
HETATM    1  C   UNL     1      -6.975   1.305 -34.117  1.00  0.00     0.274 C 
HETATM    2  N   UNL     1      -8.347   1.267 -33.823  1.00  0.00    -0.343 N 
HETATM    3  C   UNL     1      -9.074   2.502 -34.093  1.00  0.00     0.154 C 
HETATM    4  C   UNL     1     -10.558   2.328 -34.013  1.00  0.00     0.001 C 
HETATM    5  C   UNL     1     -11.186   1.203 -33.629  1.00  0.00    -0.046 C 
HETATM    6  C   UNL     1     -10.387  -0.010 -33.221  1.00  0.00     0.059 C 
HETATM    7  C   UNL     1      -8.956   0.371 -32.834  1.00  0.00     0.131 C 
HETATM    8  O   UNL     1      -6.445   2.324 -34.573  1.00  0.00    -0.266 OA
ENDROOT
BRANCH   1   9
HETATM    9  C   UNL     1      -6.088   0.131 -33.889  1.00  0.00     0.147 A 
HETATM   10  N   UNL     1      -5.124   0.213 -32.944  1.00  0.00    -0.142 NA
HETATM   11  N   UNL     1      -4.322  -0.875 -32.696  1.00  0.00    -0.124 NA
HETATM   12  C   UNL     1      -4.525  -2.025 -33.376  1.00  0.00     0.185 A 
HETATM   13  C   UNL     1      -5.519  -2.150 -34.327  1.00  0.00     0.062 A 
HETATM   14  C   UNL     1      -6.324  -1.046 -34.588  1.00  0.00     0.043 A 
BRANCH  12  15
HETATM   15  O   UNL     1      -3.742  -3.137 -33.147  1.00  0.00    -0.338 OA
HETATM   16  C   UNL     1      -3.077  -3.102 -31.888  1.00  0.00     0.211 C 
ENDBRANCH  12  15
ENDBRANCH   1   9
BRANCH   5  17
HETATM   17  C   UNL     1     -12.609   1.069 -33.553  1.00  0.00    -0.002 A 
HETATM   18  C   UNL     1     -13.552   1.969 -32.960  1.00  0.00     0.003 A 
HETATM   19  C   UNL     1     -14.822   1.428 -33.169  1.00  0.00     0.043 A 
HETATM   20  C   UNL     1     -13.456   3.191 -32.258  1.00  0.00     0.014 A 
HETATM   21  C   UNL     1     -15.997   2.053 -32.729  1.00  0.00     0.030 A 
HETATM   22  N   UNL     1     -14.653   0.244 -33.849  1.00  0.00    -0.364 N 
HETATM   23  C   UNL     1     -15.871   3.268 -32.048  1.00  0.00     0.002 A 
HETATM   24  C   UNL     1     -14.619   3.829 -31.811  1.00  0.00     0.001 A 
HETATM   25  H   UNL     1     -15.407  -0.362 -34.137  1.00  0.00     0.165 HD
HETATM   26  C   UNL     1     -13.323   0.013 -34.081  1.00  0.00     0.101 A 
ENDBRANCH   5  17
TORSDOF 3
ENDMDL
MODEL 6
REMARK VINA RESULT:      -8.8      5.436      8.793
REMARK  3 active torsions:
REMARK  status: ('A' for Active; 'I' for Inactive)
REMARK    1  A    between atoms: O_2  and  C_3 
REMARK    2  A    between atoms: C_6  and  C_7 
REMARK       I    between atoms: C_7  and  N_8 
REMARK    3  A    between atoms: C_11  and  C_12 
ROOT
HETATM    1  C   UNL     1      -2.944   5.694 -32.667  1.00  0.00     0.274 C 
HETATM    2  N   UNL     1      -3.931   4.709 -32.826  1.00  0.00    -0.343 N 
HETATM    3  C   UNL     1      -4.836   4.914 -33.951  1.00  0.00     0.154 C 
HETATM    4  C   UNL     1      -5.691   3.717 -34.230  1.00  0.00     0.001 C 
HETATM    5  C   UNL     1      -5.729   2.602 -33.481  1.00  0.00    -0.046 C 
HETATM    6  C   UNL     1      -4.877   2.491 -32.240  1.00  0.00     0.059 C 
HETATM    7  C   UNL     1      -4.446   3.872 -31.737  1.00  0.00     0.131 C 
HETATM    8  O   UNL     1      -2.867   6.655 -33.440  1.00  0.00    -0.266 OA
ENDROOT
BRANCH   1   9
HETATM    9  C   UNL     1      -1.949   5.640 -31.561  1.00  0.00     0.147 A 
HETATM   10  N   UNL     1      -0.937   4.745 -31.635  1.00  0.00    -0.142 NA
HETATM   11  N   UNL     1       0.010   4.708 -30.640  1.00  0.00    -0.124 NA
HETATM   12  C   UNL     1      -0.062   5.586 -29.615  1.00  0.00     0.185 A 
HETATM   13  C   UNL     1      -1.066   6.529 -29.523  1.00  0.00     0.062 A 
HETATM   14  C   UNL     1      -2.033   6.560 -30.523  1.00  0.00     0.043 A 
BRANCH  12  15
HETATM   15  O   UNL     1       0.876   5.579 -28.603  1.00  0.00    -0.338 OA
HETATM   16  C   UNL     1       0.806   6.729 -27.767  1.00  0.00     0.211 C 
ENDBRANCH  12  15
ENDBRANCH   1   9
BRANCH   5  17
HETATM   17  C   UNL     1      -6.565   1.476 -33.767  1.00  0.00    -0.002 A 
HETATM   18  C   UNL     1      -6.181   0.103 -33.911  1.00  0.00     0.003 A 
HETATM   19  C   UNL     1      -7.348  -0.626 -34.147  1.00  0.00     0.043 A 
HETATM   20  C   UNL     1      -4.955  -0.598 -33.871  1.00  0.00     0.014 A 
HETATM   21  C   UNL     1      -7.353  -2.016 -34.326  1.00  0.00     0.030 A 
HETATM   22  N   UNL     1      -8.392   0.270 -34.157  1.00  0.00    -0.364 N 
HETATM   23  C   UNL     1      -6.125  -2.684 -34.268  1.00  0.00     0.002 A 
HETATM   24  C   UNL     1      -4.941  -1.986 -34.048  1.00  0.00     0.001 A 
HETATM   25  H   UNL     1      -9.359   0.018 -34.304  1.00  0.00     0.165 HD
HETATM   26  C   UNL     1      -7.932   1.541 -33.936  1.00  0.00     0.101 A 
ENDBRANCH   5  17
TORSDOF 3
ENDMDL
MODEL 7
REMARK VINA RESULT:      -8.4      2.848      3.490
REMARK  3 active torsions:
REMARK  status: ('A' for Active; 'I' for Inactive)
REMARK    1  A    between atoms: O_2  and  C_3 
REMARK    2  A    between atoms: C_6  and  C_7 
REMARK       I    between atoms: C_7  and  N_8 
REMARK    3  A    between atoms: C_11  and  C_12 
ROOT
HETATM    1  C   UNL     1      -5.680   3.886 -32.653  1.00  0.00     0.274 C 
HETATM    2  N   UNL     1      -5.261   2.559 -32.833  1.00  0.00    -0.343 N 
HETATM    3  C   UNL     1      -3.856   2.305 -32.533  1.00  0.00     0.154 C 
HETATM    4  C   UNL     1      -3.529   0.846 -32.488  1.00  0.00     0.001 C 
HETATM    5  C   UNL     1      -4.381  -0.148 -32.794  1.00  0.00    -0.046 C 
HETATM    6  C   UNL     1      -5.787   0.168 -33.239  1.00  0.00     0.059 C 
HETATM    7  C   UNL     1      -5.900   1.607 -33.750  1.00  0.00     0.131 C 
HETATM    8  O   UNL     1      -4.896   4.758 -32.265  1.00  0.00    -0.266 OA
ENDROOT
BRANCH   1   9
HETATM    9  C   UNL     1      -7.079   4.313 -32.926  1.00  0.00     0.147 A 
HETATM   10  N   UNL     1      -7.362   4.915 -34.104  1.00  0.00    -0.142 NA
HETATM   11  N   UNL     1      -8.656   5.281 -34.386  1.00  0.00    -0.124 NA
HETATM   12  C   UNL     1      -9.638   5.008 -33.498  1.00  0.00     0.185 A 
HETATM   13  C   UNL     1      -9.387   4.371 -32.299  1.00  0.00     0.062 A 
HETATM   14  C   UNL     1      -8.076   4.011 -32.006  1.00  0.00     0.043 A 
BRANCH  12  15
HETATM   15  O   UNL     1     -10.948   5.357 -33.753  1.00  0.00    -0.338 OA
HETATM   16  C   UNL     1     -11.511   4.649 -34.852  1.00  0.00     0.211 C 
ENDBRANCH  12  15
ENDBRANCH   1   9
BRANCH   5  17
HETATM   17  C   UNL     1      -4.037  -1.537 -32.752  1.00  0.00    -0.002 A 
HETATM   18  C   UNL     1      -4.539  -2.598 -33.572  1.00  0.00     0.003 A 
HETATM   19  C   UNL     1      -3.878  -3.765 -33.183  1.00  0.00     0.043 A 
HETATM   20  C   UNL     1      -5.495  -2.689 -34.608  1.00  0.00     0.014 A 
HETATM   21  C   UNL     1      -4.112  -5.008 -33.785  1.00  0.00     0.030 A 
HETATM   22  N   UNL     1      -3.022  -3.425 -32.160  1.00  0.00    -0.364 N 
HETATM   23  C   UNL     1      -5.055  -5.065 -34.815  1.00  0.00     0.002 A 
HETATM   24  C   UNL     1      -5.741  -3.923 -35.220  1.00  0.00     0.001 A 
HETATM   25  H   UNL     1      -2.412  -4.075 -31.686  1.00  0.00     0.165 HD
HETATM   26  C   UNL     1      -3.114  -2.086 -31.887  1.00  0.00     0.101 A 
ENDBRANCH   5  17
TORSDOF 3
ENDMDL
MODEL 8
REMARK VINA RESULT:      -8.4      3.177      8.368
REMARK  3 active torsions:
REMARK  status: ('A' for Active; 'I' for Inactive)
REMARK    1  A    between atoms: O_2  and  C_3 
REMARK    2  A    between atoms: C_6  and  C_7 
REMARK       I    between atoms: C_7  and  N_8 
REMARK    3  A    between atoms: C_11  and  C_12 
ROOT
HETATM    1  C   UNL     1      -4.594   0.811 -32.415  1.00  0.00     0.274 C 
HETATM    2  N   UNL     1      -5.919   1.227 -32.213  1.00  0.00    -0.343 N 
HETATM    3  C   UNL     1      -6.089   2.654 -31.963  1.00  0.00     0.154 C 
HETATM    4  C   UNL     1      -7.522   3.083 -32.016  1.00  0.00     0.001 C 
HETATM    5  C   UNL     1      -8.572   2.256 -32.164  1.00  0.00    -0.046 C 
HETATM    6  C   UNL     1      -8.356   0.767 -32.276  1.00  0.00     0.059 C 
HETATM    7  C   UNL     1      -6.991   0.359 -31.715  1.00  0.00     0.131 C 
HETATM    8  O   UNL     1      -3.656   1.614 -32.380  1.00  0.00    -0.266 OA
ENDROOT
BRANCH   1   9
HETATM    9  C   UNL     1      -4.247  -0.614 -32.671  1.00  0.00     0.147 A 
HETATM   10  N   UNL     1      -3.484  -1.275 -31.770  1.00  0.00    -0.142 NA
HETATM   11  N   UNL     1      -3.188  -2.601 -31.974  1.00  0.00    -0.124 NA
HETATM   12  C   UNL     1      -3.686  -3.239 -33.056  1.00  0.00     0.185 A 
HETATM   13  C   UNL     1      -4.490  -2.602 -33.980  1.00  0.00     0.062 A 
HETATM   14  C   UNL     1      -4.781  -1.256 -33.782  1.00  0.00     0.043 A 
BRANCH  12  15
HETATM   15  O   UNL     1      -3.412  -4.572 -33.287  1.00  0.00    -0.338 OA
HETATM   16  C   UNL     1      -4.400  -5.216 -34.085  1.00  0.00     0.211 C 
ENDBRANCH  12  15
ENDBRANCH   1   9
BRANCH   5  17
HETATM   17  C   UNL     1      -9.934   2.694 -32.201  1.00  0.00    -0.002 A 
HETATM   18  C   UNL     1     -10.932   2.397 -33.185  1.00  0.00     0.003 A 
HETATM   19  C   UNL     1     -12.113   3.016 -32.771  1.00  0.00     0.043 A 
HETATM   20  C   UNL     1     -10.952   1.666 -34.394  1.00  0.00     0.014 A 
HETATM   21  C   UNL     1     -13.311   2.927 -33.492  1.00  0.00     0.030 A 
HETATM   22  N   UNL     1     -11.837   3.671 -31.593  1.00  0.00    -0.364 N 
HETATM   23  C   UNL     1     -13.304   2.187 -34.678  1.00  0.00     0.002 A 
HETATM   24  C   UNL     1     -12.141   1.567 -35.127  1.00  0.00     0.001 A 
HETATM   25  H   UNL     1     -12.512   4.205 -31.064  1.00  0.00     0.165 HD
HETATM   26  C   UNL     1     -10.525   3.490 -31.243  1.00  0.00     0.101 A 
ENDBRANCH   5  17
TORSDOF 3
ENDMDL
MODEL 9
REMARK VINA RESULT:      -8.2      6.892      9.869
REMARK  3 active torsions:
REMARK  status: ('A' for Active; 'I' for Inactive)
REMARK    1  A    between atoms: O_2  and  C_3 
REMARK    2  A    between atoms: C_6  and  C_7 
REMARK       I    between atoms: C_7  and  N_8 
REMARK    3  A    between atoms: C_11  and  C_12 
ROOT
HETATM    1  C   UNL     1      -1.889   7.278 -32.257  1.00  0.00     0.274 C 
HETATM    2  N   UNL     1      -2.818   6.231 -32.354  1.00  0.00    -0.343 N 
HETATM    3  C   UNL     1      -3.380   6.021 -33.683  1.00  0.00     0.154 C 
HETATM    4  C   UNL     1      -4.154   4.745 -33.789  1.00  0.00     0.001 C 
HETATM    5  C   UNL     1      -4.419   3.914 -32.766  1.00  0.00    -0.046 C 
HETATM    6  C   UNL     1      -3.937   4.245 -31.375  1.00  0.00     0.059 C 
HETATM    7  C   UNL     1      -3.627   5.738 -31.234  1.00  0.00     0.131 C 
HETATM    8  O   UNL     1      -1.583   7.958 -33.242  1.00  0.00    -0.266 OA
ENDROOT
BRANCH   1   9
HETATM    9  C   UNL     1      -1.232   7.630 -30.968  1.00  0.00     0.147 A 
HETATM   10  N   UNL     1      -1.816   8.548 -30.165  1.00  0.00    -0.142 NA
HETATM   11  N   UNL     1      -1.242   8.856 -28.955  1.00  0.00    -0.124 NA
HETATM   12  C   UNL     1      -0.116   8.217 -28.567  1.00  0.00     0.185 A 
HETATM   13  C   UNL     1       0.491   7.256 -29.351  1.00  0.00     0.062 A 
HETATM   14  C   UNL     1      -0.083   6.951 -30.581  1.00  0.00     0.043 A 
BRANCH  12  15
HETATM   15  O   UNL     1       0.483   8.498 -27.356  1.00  0.00    -0.338 OA
HETATM   16  C   UNL     1       1.311   7.441 -26.883  1.00  0.00     0.211 C 
ENDBRANCH  12  15
ENDBRANCH   1   9
BRANCH   5  17
HETATM   17  C   UNL     1      -5.171   2.703 -32.895  1.00  0.00    -0.002 A 
HETATM   18  C   UNL     1      -4.718   1.356 -32.713  1.00  0.00     0.003 A 
HETATM   19  C   UNL     1      -5.821   0.523 -32.908  1.00  0.00     0.043 A 
HETATM   20  C   UNL     1      -3.476   0.756 -32.406  1.00  0.00     0.014 A 
HETATM   21  C   UNL     1      -5.749  -0.872 -32.795  1.00  0.00     0.030 A 
HETATM   22  N   UNL     1      -6.893   1.331 -33.208  1.00  0.00    -0.364 N 
HETATM   23  C   UNL     1      -4.509  -1.436 -32.479  1.00  0.00     0.002 A 
HETATM   24  C   UNL     1      -3.386  -0.636 -32.290  1.00  0.00     0.001 A 
HETATM   25  H   UNL     1      -7.827   0.995 -33.395  1.00  0.00     0.165 HD
HETATM   26  C   UNL     1      -6.512   2.647 -33.210  1.00  0.00     0.101 A 
ENDBRANCH   5  17
TORSDOF 3
ENDMDL
MODEL 10
REMARK VINA RESULT:      -8.0      1.802      2.269
REMARK  3 active torsions:
REMARK  status: ('A' for Active; 'I' for Inactive)
REMARK    1  A    between atoms: O_2  and  C_3 
REMARK    2  A    between atoms: C_6  and  C_7 
REMARK       I    between atoms: C_7  and  N_8 
REMARK    3  A    between atoms: C_11  and  C_12 
ROOT
HETATM    1  C   UNL     1      -8.373   3.306 -33.414  1.00  0.00     0.274 C 
HETATM    2  N   UNL     1      -7.770   2.093 -33.783  1.00  0.00    -0.343 N 
HETATM    3  C   UNL     1      -6.311   2.101 -33.784  1.00  0.00     0.154 C 
HETATM    4  C   UNL     1      -5.726   0.731 -33.926  1.00  0.00     0.001 C 
HETATM    5  C   UNL     1      -6.431  -0.393 -34.142  1.00  0.00    -0.046 C 
HETATM    6  C   UNL     1      -7.932  -0.333 -34.277  1.00  0.00     0.059 C 
HETATM    7  C   UNL     1      -8.403   1.080 -34.634  1.00  0.00     0.131 C 
HETATM    8  O   UNL     1      -7.696   4.294 -33.114  1.00  0.00    -0.266 OA
ENDROOT
BRANCH   1   9
HETATM    9  C   UNL     1      -9.852   3.468 -33.374  1.00  0.00     0.147 A 
HETATM   10  N   UNL     1     -10.513   3.742 -34.522  1.00  0.00    -0.142 NA
HETATM   11  N   UNL     1     -11.882   3.857 -34.507  1.00  0.00    -0.124 NA
HETATM   12  C   UNL     1     -12.557   3.665 -33.352  1.00  0.00     0.185 A 
HETATM   13  C   UNL     1     -11.916   3.358 -32.169  1.00  0.00     0.062 A 
HETATM   14  C   UNL     1     -10.528   3.252 -32.179  1.00  0.00     0.043 A 
BRANCH  12  15
HETATM   15  O   UNL     1     -13.932   3.768 -33.304  1.00  0.00    -0.338 OA
HETATM   16  C   UNL     1     -14.478   3.375 -32.050  1.00  0.00     0.211 C 
ENDBRANCH  12  15
ENDBRANCH   1   9
BRANCH   5  17
HETATM   17  C   UNL     1      -5.842  -1.690 -34.284  1.00  0.00    -0.002 A 
HETATM   18  C   UNL     1      -4.803  -2.280 -33.494  1.00  0.00     0.003 A 
HETATM   19  C   UNL     1      -4.596  -3.570 -33.988  1.00  0.00     0.043 A 
HETATM   20  C   UNL     1      -4.009  -1.848 -32.409  1.00  0.00     0.014 A 
HETATM   21  C   UNL     1      -3.652  -4.450 -33.443  1.00  0.00     0.030 A 
HETATM   22  N   UNL     1      -5.465  -3.746 -35.040  1.00  0.00    -0.364 N 
HETATM   23  C   UNL     1      -2.889  -3.998 -32.362  1.00  0.00     0.002 A 
HETATM   24  C   UNL     1      -3.061  -2.714 -31.852  1.00  0.00     0.001 A 
HETATM   25  H   UNL     1      -5.536  -4.593 -35.587  1.00  0.00     0.165 HD
HETATM   26  C   UNL     1      -6.217  -2.618 -35.233  1.00  0.00     0.101 A 
ENDBRANCH   5  17
TORSDOF 3
ENDMDL
