MODEL 1
REMARK VINA RESULT:      -8.9      0.000      0.000
REMARK  8 active torsions:
REMARK  status: ('A' for Active; 'I' for Inactive)
REMARK    1  A    between atoms: C_2  and  O_3 
REMARK    2  A    between atoms: O_3  and  C_4 
REMARK    3  A    between atoms: C_5  and  N_6 
REMARK       I    between atoms: N_6  and  C_7 
REMARK    4  A    between atoms: C_7  and  C_8 
REMARK    5  A    between atoms: C_8  and  C_9 
REMARK    6  A    between atoms: C_9  and  S_10 
REMARK    7  A    between atoms: S_10  and  C_11 
REMARK    8  A    between atoms: N_12  and  C_13 
ROOT
HETATM    1  C   UNL     1      -4.795   5.480 -33.177  1.00  0.00     0.177 A 
HETATM    2  N   UNL     1      -4.588   5.364 -31.783  1.00  0.00    -0.274 N 
HETATM    3  C   UNL     1      -3.334   5.840 -31.247  1.00  0.00     0.124 A 
HETATM    4  N   UNL     1      -3.040   5.823 -29.961  1.00  0.00    -0.384 N 
HETATM    5  H   UNL     1      -2.153   6.171 -29.628  1.00  0.00     0.157 HD
HETATM    6  H   UNL     1      -3.699   5.458 -29.287  1.00  0.00     0.157 HD
HETATM    7  C   UNL     1      -2.402   6.371 -32.191  1.00  0.00     0.081 A 
HETATM    8  C   UNL     1      -2.771   6.425 -33.530  1.00  0.00     0.187 A 
HETATM    9  N   UNL     1      -1.820   6.932 -34.301  1.00  0.00    -0.153 NA
HETATM   10  N   UNL     1      -0.827   7.203 -33.435  1.00  0.00    -0.280 N 
HETATM   11  H   UNL     1       0.029   7.606 -33.806  1.00  0.00     0.189 HD
HETATM   12  C   UNL     1      -1.123   6.873 -32.127  1.00  0.00     0.042 A 
HETATM   13  C   UNL     1      -0.144   7.077 -31.038  1.00  0.00     0.071 C 
HETATM   14  N   UNL     1      -3.977   5.987 -34.051  1.00  0.00    -0.202 NA
ENDROOT
BRANCH   1  15
HETATM   15  S   UNL     1      -6.336   4.890 -33.875  1.00  0.00    -0.091 SA
BRANCH  15  16
HETATM   16  C   UNL     1      -5.871   3.187 -34.356  1.00  0.00     0.091 C 
BRANCH  16  17
HETATM   17  C   UNL     1      -6.900   2.168 -33.883  1.00  0.00     0.113 C 
BRANCH  17  18
HETATM   18  C   UNL     1      -6.746   0.833 -34.588  1.00  0.00     0.223 C 
HETATM   19  N   UNL     1      -6.211  -0.146 -33.780  1.00  0.00    -0.325 N 
HETATM   20  H   UNL     1      -5.993   0.106 -32.820  1.00  0.00     0.169 HD
HETATM   21  O   UNL     1      -7.065   0.712 -35.767  1.00  0.00    -0.273 OA
BRANCH  19  22
HETATM   22  C   UNL     1      -5.955  -1.496 -34.101  1.00  0.00     0.068 A 
HETATM   23  C   UNL     1      -4.655  -1.980 -33.876  1.00  0.00     0.095 A 
HETATM   24  C   UNL     1      -4.328  -3.318 -34.106  1.00  0.00     0.039 A 
HETATM   25  C   UNL     1      -5.296  -4.183 -34.609  1.00  0.00     0.003 A 
HETATM   26  C   UNL     1      -6.581  -3.709 -34.867  1.00  0.00     0.002 A 
HETATM   27  C   UNL     1      -6.912  -2.372 -34.612  1.00  0.00     0.032 A 
BRANCH  23  28
HETATM   28  O   UNL     1      -3.670  -1.148 -33.396  1.00  0.00    -0.349 OA
BRANCH  28  29
HETATM   29  C   UNL     1      -3.385  -1.454 -32.023  1.00  0.00     0.171 C 
HETATM   30  C   UNL     1      -3.344  -0.157 -31.237  1.00  0.00     0.034 C 
ENDBRANCH  28  29
ENDBRANCH  23  28
ENDBRANCH  19  22
ENDBRANCH  17  18
ENDBRANCH  16  17
ENDBRANCH  15  16
ENDBRANCH   1  15
BRANCH   2  31
HETATM   31  C   UNL     1      -5.528   4.695 -30.939  1.00  0.00     0.065 A 
HETATM   32  C   UNL     1      -6.615   5.378 -30.358  1.00  0.00     0.061 A 
HETATM   33 CL   UNL     1      -6.832   7.078 -30.586  1.00  0.00    -0.082 Cl
HETATM   34  C   UNL     1      -7.559   4.693 -29.589  1.00  0.00     0.026 A 
HETATM   35  C   UNL     1      -7.429   3.319 -29.389  1.00  0.00     0.002 A 
HETATM   36  C   UNL     1      -6.359   2.630 -29.957  1.00  0.00     0.002 A 
HETATM   37  C   UNL     1      -5.415   3.310 -30.731  1.00  0.00     0.032 A 
ENDBRANCH   2  31
TORSDOF 8
ENDMDL
MODEL 2
REMARK VINA RESULT:      -8.7      2.946      7.307
REMARK  8 active torsions:
REMARK  status: ('A' for Active; 'I' for Inactive)
REMARK    1  A    between atoms: C_2  and  O_3 
REMARK    2  A    between atoms: O_3  and  C_4 
REMARK    3  A    between atoms: C_5  and  N_6 
REMARK       I    between atoms: N_6  and  C_7 
REMARK    4  A    between atoms: C_7  and  C_8 
REMARK    5  A    between atoms: C_8  and  C_9 
REMARK    6  A    between atoms: C_9  and  S_10 
REMARK    7  A    between atoms: S_10  and  C_11 
REMARK    8  A    between atoms: N_12  and  C_13 
ROOT
HETATM    1  C   UNL     1      -6.426   0.643 -31.552  1.00  0.00     0.177 A 
HETATM    2  N   UNL     1      -7.140   0.139 -32.663  1.00  0.00    -0.274 N 
HETATM    3  C   UNL     1      -6.532  -0.927 -33.425  1.00  0.00     0.124 A 
HETATM    4  N   UNL     1      -7.116  -1.506 -34.458  1.00  0.00    -0.384 N 
HETATM    5  H   UNL     1      -6.658  -2.253 -34.960  1.00  0.00     0.157 HD
HETATM    6  H   UNL     1      -8.033  -1.209 -34.764  1.00  0.00     0.157 HD
HETATM    7  C   UNL     1      -5.243  -1.362 -32.990  1.00  0.00     0.081 A 
HETATM    8  C   UNL     1      -4.686  -0.767 -31.865  1.00  0.00     0.187 A 
HETATM    9  N   UNL     1      -3.490  -1.255 -31.568  1.00  0.00    -0.153 NA
HETATM   10  N   UNL     1      -3.283  -2.176 -32.527  1.00  0.00    -0.280 N 
HETATM   11  H   UNL     1      -2.407  -2.692 -32.508  1.00  0.00     0.189 HD
HETATM   12  C   UNL     1      -4.320  -2.282 -33.432  1.00  0.00     0.042 A 
HETATM   13  C   UNL     1      -4.261  -3.225 -34.569  1.00  0.00     0.071 C 
HETATM   14  N   UNL     1      -5.268   0.243 -31.117  1.00  0.00    -0.202 NA
ENDROOT
BRANCH   1  15
HETATM   15  S   UNL     1      -7.147   1.972 -30.591  1.00  0.00    -0.091 SA
BRANCH  15  16
HETATM   16  C   UNL     1      -5.651   2.709 -29.837  1.00  0.00     0.091 C 
BRANCH  16  17
HETATM   17  C   UNL     1      -5.786   4.217 -29.677  1.00  0.00     0.113 C 
BRANCH  17  18
HETATM   18  C   UNL     1      -5.216   4.970 -30.865  1.00  0.00     0.223 C 
HETATM   19  N   UNL     1      -4.237   4.266 -31.531  1.00  0.00    -0.325 N 
HETATM   20  H   UNL     1      -4.008   3.339 -31.185  1.00  0.00     0.169 HD
HETATM   21  O   UNL     1      -5.618   6.098 -31.137  1.00  0.00    -0.273 OA
BRANCH  19  22
HETATM   22  C   UNL     1      -3.517   4.653 -32.681  1.00  0.00     0.068 A 
HETATM   23  C   UNL     1      -2.114   4.679 -32.590  1.00  0.00     0.095 A 
HETATM   24  C   UNL     1      -1.320   4.989 -33.695  1.00  0.00     0.039 A 
HETATM   25  C   UNL     1      -1.926   5.321 -34.904  1.00  0.00     0.003 A 
HETATM   26  C   UNL     1      -3.317   5.331 -35.001  1.00  0.00     0.002 A 
HETATM   27  C   UNL     1      -4.110   4.997 -33.896  1.00  0.00     0.032 A 
BRANCH  23  28
HETATM   28  O   UNL     1      -1.484   4.372 -31.407  1.00  0.00    -0.349 OA
BRANCH  28  29
HETATM   29  C   UNL     1      -0.858   5.542 -30.857  1.00  0.00     0.171 C 
HETATM   30  C   UNL     1       0.586   5.210 -30.534  1.00  0.00     0.034 C 
ENDBRANCH  28  29
ENDBRANCH  23  28
ENDBRANCH  19  22
ENDBRANCH  17  18
ENDBRANCH  16  17
ENDBRANCH  15  16
ENDBRANCH   1  15
BRANCH   2  31
HETATM   31  C   UNL     1      -8.365   0.733 -33.099  1.00  0.00     0.065 A 
HETATM   32  C   UNL     1      -8.379   1.914 -33.871  1.00  0.00     0.061 A 
HETATM   33 CL   UNL     1      -6.915   2.738 -34.276  1.00  0.00    -0.082 Cl
HETATM   34  C   UNL     1      -9.583   2.443 -34.341  1.00  0.00     0.026 A 
HETATM   35  C   UNL     1     -10.787   1.804 -34.047  1.00  0.00     0.002 A 
HETATM   36  C   UNL     1     -10.789   0.636 -33.285  1.00  0.00     0.002 A 
HETATM   37  C   UNL     1      -9.586   0.100 -32.817  1.00  0.00     0.032 A 
ENDBRANCH   2  31
TORSDOF 8
ENDMDL
MODEL 3
REMARK VINA RESULT:      -8.7      4.044      8.473
REMARK  8 active torsions:
REMARK  status: ('A' for Active; 'I' for Inactive)
REMARK    1  A    between atoms: C_2  and  O_3 
REMARK    2  A    between atoms: O_3  and  C_4 
REMARK    3  A    between atoms: C_5  and  N_6 
REMARK       I    between atoms: N_6  and  C_7 
REMARK    4  A    between atoms: C_7  and  C_8 
REMARK    5  A    between atoms: C_8  and  C_9 
REMARK    6  A    between atoms: C_9  and  S_10 
REMARK    7  A    between atoms: S_10  and  C_11 
REMARK    8  A    between atoms: N_12  and  C_13 
ROOT
HETATM    1  C   UNL     1      -9.057   2.709 -33.856  1.00  0.00     0.177 A 
HETATM    2  N   UNL     1      -9.208   1.401 -33.339  1.00  0.00    -0.274 N 
HETATM    3  C   UNL     1     -10.537   0.838 -33.311  1.00  0.00     0.124 A 
HETATM    4  N   UNL     1     -10.799  -0.384 -32.888  1.00  0.00    -0.384 N 
HETATM    5  H   UNL     1     -11.744  -0.742 -32.891  1.00  0.00     0.157 HD
HETATM    6  H   UNL     1     -10.057  -0.984 -32.554  1.00  0.00     0.157 HD
HETATM    7  C   UNL     1     -11.590   1.674 -33.795  1.00  0.00     0.081 A 
HETATM    8  C   UNL     1     -11.266   2.933 -34.284  1.00  0.00     0.187 A 
HETATM    9  N   UNL     1     -12.329   3.609 -34.699  1.00  0.00    -0.153 NA
HETATM   10  N   UNL     1     -13.347   2.761 -34.465  1.00  0.00    -0.280 N 
HETATM   11  H   UNL     1     -14.285   3.069 -34.705  1.00  0.00     0.189 HD
HETATM   12  C   UNL     1     -12.957   1.561 -33.904  1.00  0.00     0.042 A 
HETATM   13  C   UNL     1     -13.940   0.515 -33.556  1.00  0.00     0.071 C 
HETATM   14  N   UNL     1      -9.993   3.476 -34.332  1.00  0.00    -0.202 NA
ENDROOT
BRANCH   1  15
HETATM   15  S   UNL     1      -7.422   3.440 -33.897  1.00  0.00    -0.091 SA
BRANCH  15  16
HETATM   16  C   UNL     1      -7.448   4.437 -32.363  1.00  0.00     0.091 C 
BRANCH  16  17
HETATM   17  C   UNL     1      -6.213   4.186 -31.507  1.00  0.00     0.113 C 
BRANCH  17  18
HETATM   18  C   UNL     1      -5.145   5.242 -31.725  1.00  0.00     0.223 C 
HETATM   19  N   UNL     1      -3.896   4.840 -31.307  1.00  0.00    -0.325 N 
HETATM   20  H   UNL     1      -3.808   3.904 -30.921  1.00  0.00     0.169 HD
HETATM   21  O   UNL     1      -5.438   6.331 -32.209  1.00  0.00    -0.273 OA
BRANCH  19  22
HETATM   22  C   UNL     1      -2.682   5.556 -31.380  1.00  0.00     0.068 A 
HETATM   23  C   UNL     1      -1.861   5.329 -32.499  1.00  0.00     0.095 A 
HETATM   24  C   UNL     1      -0.673   6.039 -32.684  1.00  0.00     0.039 A 
HETATM   25  C   UNL     1      -0.268   6.960 -31.723  1.00  0.00     0.003 A 
HETATM   26  C   UNL     1      -1.056   7.173 -30.592  1.00  0.00     0.002 A 
HETATM   27  C   UNL     1      -2.259   6.476 -30.421  1.00  0.00     0.032 A 
BRANCH  23  28
HETATM   28  O   UNL     1      -2.224   4.414 -33.459  1.00  0.00    -0.349 OA
BRANCH  28  29
HETATM   29  C   UNL     1      -2.238   5.030 -34.755  1.00  0.00     0.171 C 
HETATM   30  C   UNL     1      -3.680   5.269 -35.161  1.00  0.00     0.034 C 
ENDBRANCH  28  29
ENDBRANCH  23  28
ENDBRANCH  19  22
ENDBRANCH  17  18
ENDBRANCH  16  17
ENDBRANCH  15  16
ENDBRANCH   1  15
BRANCH   2  31
HETATM   31  C   UNL     1      -8.110   0.697 -32.753  1.00  0.00     0.065 A 
HETATM   32  C   UNL     1      -7.256  -0.114 -33.527  1.00  0.00     0.061 A 
HETATM   33 CL   UNL     1      -7.530  -0.349 -35.217  1.00  0.00    -0.082 Cl
HETATM   34  C   UNL     1      -6.151  -0.743 -32.947  1.00  0.00     0.026 A 
HETATM   35  C   UNL     1      -5.887  -0.572 -31.589  1.00  0.00     0.002 A 
HETATM   36  C   UNL     1      -6.723   0.227 -30.810  1.00  0.00     0.002 A 
HETATM   37  C   UNL     1      -7.826   0.862 -31.387  1.00  0.00     0.032 A 
ENDBRANCH   2  31
TORSDOF 8
ENDMDL
MODEL 4
REMARK VINA RESULT:      -8.6      1.417      1.747
REMARK  8 active torsions:
REMARK  status: ('A' for Active; 'I' for Inactive)
REMARK    1  A    between atoms: C_2  and  O_3 
REMARK    2  A    between atoms: O_3  and  C_4 
REMARK    3  A    between atoms: C_5  and  N_6 
REMARK       I    between atoms: N_6  and  C_7 
REMARK    4  A    between atoms: C_7  and  C_8 
REMARK    5  A    between atoms: C_8  and  C_9 
REMARK    6  A    between atoms: C_9  and  S_10 
REMARK    7  A    between atoms: S_10  and  C_11 
REMARK    8  A    between atoms: N_12  and  C_13 
ROOT
HETATM    1  C   UNL     1      -5.235   4.916 -33.562  1.00  0.00     0.177 A 
HETATM    2  N   UNL     1      -5.038   5.508 -32.293  1.00  0.00    -0.274 N 
HETATM    3  C   UNL     1      -3.748   6.097 -32.019  1.00  0.00     0.124 A 
HETATM    4  N   UNL     1      -3.456   6.712 -30.889  1.00  0.00    -0.384 N 
HETATM    5  H   UNL     1      -2.543   7.116 -30.739  1.00  0.00     0.157 HD
HETATM    6  H   UNL     1      -4.144   6.789 -30.151  1.00  0.00     0.157 HD
HETATM    7  C   UNL     1      -2.775   6.006 -33.061  1.00  0.00     0.081 A 
HETATM    8  C   UNL     1      -3.139   5.400 -34.258  1.00  0.00     0.187 A 
HETATM    9  N   UNL     1      -2.149   5.376 -35.138  1.00  0.00    -0.153 NA
HETATM   10  N   UNL     1      -1.136   5.975 -34.486  1.00  0.00    -0.280 N 
HETATM   11  H   UNL     1      -0.249   6.070 -34.973  1.00  0.00     0.189 HD
HETATM   12  C   UNL     1      -1.458   6.376 -33.205  1.00  0.00     0.042 A 
HETATM   13  C   UNL     1      -0.466   7.032 -32.328  1.00  0.00     0.071 C 
HETATM   14  N   UNL     1      -4.378   4.848 -34.537  1.00  0.00    -0.202 NA
ENDROOT
BRANCH   1  15
HETATM   15  S   UNL     1      -6.821   4.168 -33.931  1.00  0.00    -0.091 SA
BRANCH  15  16
HETATM   16  C   UNL     1      -6.390   2.391 -33.873  1.00  0.00     0.091 C 
BRANCH  16  17
HETATM   17  C   UNL     1      -7.208   1.647 -32.825  1.00  0.00     0.113 C 
BRANCH  17  18
HETATM   18  C   UNL     1      -6.792   0.193 -32.704  1.00  0.00     0.223 C 
HETATM   19  N   UNL     1      -6.502  -0.389 -33.918  1.00  0.00    -0.325 N 
HETATM   20  H   UNL     1      -6.577   0.194 -34.747  1.00  0.00     0.169 HD
HETATM   21  O   UNL     1      -6.759  -0.354 -31.605  1.00  0.00    -0.273 OA
BRANCH  19  22
HETATM   22  C   UNL     1      -6.066  -1.707 -34.169  1.00  0.00     0.068 A 
HETATM   23  C   UNL     1      -4.716  -2.004 -33.914  1.00  0.00     0.095 A 
HETATM   24  C   UNL     1      -4.213  -3.296 -34.075  1.00  0.00     0.039 A 
HETATM   25  C   UNL     1      -5.052  -4.306 -34.538  1.00  0.00     0.003 A 
HETATM   26  C   UNL     1      -6.386  -4.019 -34.826  1.00  0.00     0.002 A 
HETATM   27  C   UNL     1      -6.893  -2.727 -34.641  1.00  0.00     0.032 A 
BRANCH  23  28
HETATM   28  O   UNL     1      -3.856  -1.026 -33.471  1.00  0.00    -0.349 OA
BRANCH  28  29
HETATM   29  C   UNL     1      -3.379  -1.341 -32.154  1.00  0.00     0.171 C 
HETATM   30  C   UNL     1      -3.063  -0.045 -31.432  1.00  0.00     0.034 C 
ENDBRANCH  28  29
ENDBRANCH  23  28
ENDBRANCH  19  22
ENDBRANCH  17  18
ENDBRANCH  16  17
ENDBRANCH  15  16
ENDBRANCH   1  15
BRANCH   2  31
HETATM   31  C   UNL     1      -6.031   5.429 -31.267  1.00  0.00     0.065 A 
HETATM   32  C   UNL     1      -6.063   4.357 -30.352  1.00  0.00     0.061 A 
HETATM   33 CL   UNL     1      -4.939   3.049 -30.462  1.00  0.00    -0.082 Cl
HETATM   34  C   UNL     1      -7.001   4.332 -29.317  1.00  0.00     0.026 A 
HETATM   35  C   UNL     1      -7.920   5.373 -29.185  1.00  0.00     0.002 A 
HETATM   36  C   UNL     1      -7.901   6.439 -30.083  1.00  0.00     0.002 A 
HETATM   37  C   UNL     1      -6.961   6.472 -31.116  1.00  0.00     0.032 A 
ENDBRANCH   2  31
TORSDOF 8
ENDMDL
MODEL 5
REMARK VINA RESULT:      -8.4      2.946      7.690
REMARK  8 active torsions:
REMARK  status: ('A' for Active; 'I' for Inactive)
REMARK    1  A    between atoms: C_2  and  O_3 
REMARK    2  A    between atoms: O_3  and  C_4 
REMARK    3  A    between atoms: C_5  and  N_6 
REMARK       I    between atoms: N_6  and  C_7 
REMARK    4  A    between atoms: C_7  and  C_8 
REMARK    5  A    between atoms: C_8  and  C_9 
REMARK    6  A    between atoms: C_9  and  S_10 
REMARK    7  A    between atoms: S_10  and  C_11 
REMARK    8  A    between atoms: N_12  and  C_13 
ROOT
HETATM    1  C   UNL     1      -6.258   1.231 -31.244  1.00  0.00     0.177 A 
HETATM    2  N   UNL     1      -6.904   0.450 -32.229  1.00  0.00    -0.274 N 
HETATM    3  C   UNL     1      -6.200  -0.701 -32.743  1.00  0.00     0.124 A 
HETATM    4  N   UNL     1      -6.712  -1.528 -33.635  1.00  0.00    -0.384 N 
HETATM    5  H   UNL     1      -6.188  -2.325 -33.964  1.00  0.00     0.157 HD
HETATM    6  H   UNL     1      -7.641  -1.376 -34.004  1.00  0.00     0.157 HD
HETATM    7  C   UNL     1      -4.893  -0.932 -32.216  1.00  0.00     0.081 A 
HETATM    8  C   UNL     1      -4.410  -0.072 -31.237  1.00  0.00     0.187 A 
HETATM    9  N   UNL     1      -3.188  -0.391 -30.834  1.00  0.00    -0.153 NA
HETATM   10  N   UNL     1      -2.889  -1.474 -31.575  1.00  0.00    -0.280 N 
HETATM   11  H   UNL     1      -1.978  -1.903 -31.440  1.00  0.00     0.189 HD
HETATM   12  C   UNL     1      -3.892  -1.848 -32.446  1.00  0.00     0.042 A 
HETATM   13  C   UNL     1      -3.734  -3.001 -33.357  1.00  0.00     0.071 C 
HETATM   14  N   UNL     1      -5.084   1.024 -30.724  1.00  0.00    -0.202 NA
ENDROOT
BRANCH   1  15
HETATM   15  S   UNL     1      -7.101   2.671 -30.592  1.00  0.00    -0.091 SA
BRANCH  15  16
HETATM   16  C   UNL     1      -5.697   3.821 -30.357  1.00  0.00     0.091 C 
BRANCH  16  17
HETATM   17  C   UNL     1      -5.998   5.201 -30.926  1.00  0.00     0.113 C 
BRANCH  17  18
HETATM   18  C   UNL     1      -4.733   5.996 -31.195  1.00  0.00     0.223 C 
HETATM   19  N   UNL     1      -3.601   5.397 -30.688  1.00  0.00    -0.325 N 
HETATM   20  H   UNL     1      -3.715   4.506 -30.213  1.00  0.00     0.169 HD
HETATM   21  O   UNL     1      -4.788   7.067 -31.792  1.00  0.00    -0.273 OA
BRANCH  19  22
HETATM   22  C   UNL     1      -2.266   5.845 -30.776  1.00  0.00     0.068 A 
HETATM   23  C   UNL     1      -1.483   5.349 -31.832  1.00  0.00     0.095 A 
HETATM   24  C   UNL     1      -0.172   5.785 -32.032  1.00  0.00     0.039 A 
HETATM   25  C   UNL     1       0.389   6.698 -31.145  1.00  0.00     0.003 A 
HETATM   26  C   UNL     1      -0.365   7.175 -30.073  1.00  0.00     0.002 A 
HETATM   27  C   UNL     1      -1.687   6.753 -29.889  1.00  0.00     0.032 A 
BRANCH  23  28
HETATM   28  O   UNL     1      -2.002   4.433 -32.718  1.00  0.00    -0.349 OA
BRANCH  28  29
HETATM   29  C   UNL     1      -1.873   4.913 -34.064  1.00  0.00     0.171 C 
HETATM   30  C   UNL     1      -3.248   5.310 -34.569  1.00  0.00     0.034 C 
ENDBRANCH  28  29
ENDBRANCH  23  28
ENDBRANCH  19  22
ENDBRANCH  17  18
ENDBRANCH  16  17
ENDBRANCH  15  16
ENDBRANCH   1  15
BRANCH   2  31
HETATM   31  C   UNL     1      -8.160   0.841 -32.791  1.00  0.00     0.065 A 
HETATM   32  C   UNL     1      -8.247   1.851 -33.771  1.00  0.00     0.061 A 
HETATM   33 CL   UNL     1      -6.846   2.714 -34.298  1.00  0.00    -0.082 Cl
HETATM   34  C   UNL     1      -9.475   2.174 -34.354  1.00  0.00     0.026 A 
HETATM   35  C   UNL     1     -10.629   1.496 -33.966  1.00  0.00     0.002 A 
HETATM   36  C   UNL     1     -10.559   0.495 -32.998  1.00  0.00     0.002 A 
HETATM   37  C   UNL     1      -9.332   0.165 -32.416  1.00  0.00     0.032 A 
ENDBRANCH   2  31
TORSDOF 8
ENDMDL
MODEL 6
REMARK VINA RESULT:      -8.4      2.386      5.104
REMARK  8 active torsions:
REMARK  status: ('A' for Active; 'I' for Inactive)
REMARK    1  A    between atoms: C_2  and  O_3 
REMARK    2  A    between atoms: O_3  and  C_4 
REMARK    3  A    between atoms: C_5  and  N_6 
REMARK       I    between atoms: N_6  and  C_7 
REMARK    4  A    between atoms: C_7  and  C_8 
REMARK    5  A    between atoms: C_8  and  C_9 
REMARK    6  A    between atoms: C_9  and  S_10 
REMARK    7  A    between atoms: S_10  and  C_11 
REMARK    8  A    between atoms: N_12  and  C_13 
ROOT
HETATM    1  C   UNL     1      -4.748   3.691 -31.949  1.00  0.00     0.177 A 
HETATM    2  N   UNL     1      -4.933   5.054 -32.276  1.00  0.00    -0.274 N 
HETATM    3  C   UNL     1      -6.280   5.506 -32.537  1.00  0.00     0.124 A 
HETATM    4  N   UNL     1      -6.584   6.760 -32.813  1.00  0.00    -0.384 N 
HETATM    5  H   UNL     1      -7.541   7.035 -32.984  1.00  0.00     0.157 HD
HETATM    6  H   UNL     1      -5.863   7.467 -32.860  1.00  0.00     0.157 HD
HETATM    7  C   UNL     1      -7.307   4.517 -32.459  1.00  0.00     0.081 A 
HETATM    8  C   UNL     1      -6.954   3.219 -32.110  1.00  0.00     0.187 A 
HETATM    9  N   UNL     1      -7.994   2.398 -32.076  1.00  0.00    -0.153 NA
HETATM   10  N   UNL     1      -9.027   3.190 -32.414  1.00  0.00    -0.280 N 
HETATM   11  H   UNL     1      -9.951   2.770 -32.460  1.00  0.00     0.189 HD
HETATM   12  C   UNL     1      -8.667   4.499 -32.668  1.00  0.00     0.042 A 
HETATM   13  C   UNL     1      -9.664   5.510 -33.077  1.00  0.00     0.071 C 
HETATM   14  N   UNL     1      -5.668   2.779 -31.840  1.00  0.00    -0.202 NA
ENDROOT
BRANCH   1  15
HETATM   15  S   UNL     1      -3.089   3.096 -31.628  1.00  0.00    -0.091 SA
BRANCH  15  16
HETATM   16  C   UNL     1      -3.414   1.330 -31.276  1.00  0.00     0.091 C 
BRANCH  16  17
HETATM   17  C   UNL     1      -3.128   0.453 -32.488  1.00  0.00     0.113 C 
BRANCH  17  18
HETATM   18  C   UNL     1      -4.093  -0.715 -32.587  1.00  0.00     0.223 C 
HETATM   19  N   UNL     1      -3.877  -1.502 -33.696  1.00  0.00    -0.325 N 
HETATM   20  H   UNL     1      -3.111  -1.244 -34.312  1.00  0.00     0.169 HD
HETATM   21  O   UNL     1      -4.968  -0.871 -31.740  1.00  0.00    -0.273 OA
BRANCH  19  22
HETATM   22  C   UNL     1      -4.568  -2.670 -34.083  1.00  0.00     0.068 A 
HETATM   23  C   UNL     1      -5.778  -2.507 -34.778  1.00  0.00     0.095 A 
HETATM   24  C   UNL     1      -6.497  -3.606 -35.253  1.00  0.00     0.039 A 
HETATM   25  C   UNL     1      -6.030  -4.892 -34.998  1.00  0.00     0.003 A 
HETATM   26  C   UNL     1      -4.846  -5.070 -34.282  1.00  0.00     0.002 A 
HETATM   27  C   UNL     1      -4.116  -3.965 -33.828  1.00  0.00     0.032 A 
BRANCH  23  28
HETATM   28  O   UNL     1      -6.277  -1.251 -35.031  1.00  0.00    -0.349 OA
BRANCH  28  29
HETATM   29  C   UNL     1      -7.531  -1.066 -34.358  1.00  0.00     0.171 C 
HETATM   30  C   UNL     1      -8.151   0.233 -34.838  1.00  0.00     0.034 C 
ENDBRANCH  28  29
ENDBRANCH  23  28
ENDBRANCH  19  22
ENDBRANCH  17  18
ENDBRANCH  16  17
ENDBRANCH  15  16
ENDBRANCH   1  15
BRANCH   2  31
HETATM   31  C   UNL     1      -3.824   5.938 -32.461  1.00  0.00     0.065 A 
HETATM   32  C   UNL     1      -3.216   6.104 -33.722  1.00  0.00     0.061 A 
HETATM   33 CL   UNL     1      -3.740   5.199 -35.098  1.00  0.00    -0.082 Cl
HETATM   34  C   UNL     1      -2.175   7.020 -33.896  1.00  0.00     0.026 A 
HETATM   35  C   UNL     1      -1.728   7.779 -32.815  1.00  0.00     0.002 A 
HETATM   36  C   UNL     1      -2.320   7.625 -31.562  1.00  0.00     0.002 A 
HETATM   37  C   UNL     1      -3.364   6.714 -31.384  1.00  0.00     0.032 A 
ENDBRANCH   2  31
TORSDOF 8
ENDMDL
MODEL 7
REMARK VINA RESULT:      -8.1      3.043      4.711
REMARK  8 active torsions:
REMARK  status: ('A' for Active; 'I' for Inactive)
REMARK    1  A    between atoms: C_2  and  O_3 
REMARK    2  A    between atoms: O_3  and  C_4 
REMARK    3  A    between atoms: C_5  and  N_6 
REMARK       I    between atoms: N_6  and  C_7 
REMARK    4  A    between atoms: C_7  and  C_8 
REMARK    5  A    between atoms: C_8  and  C_9 
REMARK    6  A    between atoms: C_9  and  S_10 
REMARK    7  A    between atoms: S_10  and  C_11 
REMARK    8  A    between atoms: N_12  and  C_13 
ROOT
HETATM    1  C   UNL     1      -6.539   3.809 -31.688  1.00  0.00     0.177 A 
HETATM    2  N   UNL     1      -7.924   3.705 -31.425  1.00  0.00    -0.274 N 
HETATM    3  C   UNL     1      -8.491   4.598 -30.440  1.00  0.00     0.124 A 
HETATM    4  N   UNL     1      -9.774   4.624 -30.136  1.00  0.00    -0.384 N 
HETATM    5  H   UNL     1     -10.130   5.268 -29.445  1.00  0.00     0.157 HD
HETATM    6  H   UNL     1     -10.424   3.996 -30.590  1.00  0.00     0.157 HD
HETATM    7  C   UNL     1      -7.582   5.498 -29.804  1.00  0.00     0.081 A 
HETATM    8  C   UNL     1      -6.248   5.480 -30.192  1.00  0.00     0.187 A 
HETATM    9  N   UNL     1      -5.510   6.357 -29.526  1.00  0.00    -0.153 NA
HETATM   10  N   UNL     1      -6.394   6.941 -28.697  1.00  0.00    -0.280 N 
HETATM   11  H   UNL     1      -6.050   7.663 -28.070  1.00  0.00     0.189 HD
HETATM   12  C   UNL     1      -7.679   6.451 -28.816  1.00  0.00     0.042 A 
HETATM   13  C   UNL     1      -8.780   6.955 -27.970  1.00  0.00     0.071 C 
HETATM   14  N   UNL     1      -5.698   4.640 -31.148  1.00  0.00    -0.202 NA
ENDROOT
BRANCH   1  15
HETATM   15  S   UNL     1      -5.804   2.711 -32.898  1.00  0.00    -0.091 SA
BRANCH  15  16
HETATM   16  C   UNL     1      -4.178   2.381 -32.125  1.00  0.00     0.091 C 
BRANCH  16  17
HETATM   17  C   UNL     1      -4.299   1.422 -30.948  1.00  0.00     0.113 C 
BRANCH  17  18
HETATM   18  C   UNL     1      -4.746   0.039 -31.383  1.00  0.00     0.223 C 
HETATM   19  N   UNL     1      -3.820  -0.603 -32.176  1.00  0.00    -0.325 N 
HETATM   20  H   UNL     1      -2.953  -0.114 -32.375  1.00  0.00     0.169 HD
HETATM   21  O   UNL     1      -5.843  -0.395 -31.044  1.00  0.00    -0.273 OA
BRANCH  19  22
HETATM   22  C   UNL     1      -3.900  -1.898 -32.733  1.00  0.00     0.068 A 
HETATM   23  C   UNL     1      -4.650  -2.052 -33.911  1.00  0.00     0.095 A 
HETATM   24  C   UNL     1      -4.732  -3.283 -34.564  1.00  0.00     0.039 A 
HETATM   25  C   UNL     1      -4.093  -4.393 -34.018  1.00  0.00     0.003 A 
HETATM   26  C   UNL     1      -3.371  -4.262 -32.832  1.00  0.00     0.002 A 
HETATM   27  C   UNL     1      -3.273  -3.020 -32.192  1.00  0.00     0.032 A 
BRANCH  23  28
HETATM   28  O   UNL     1      -5.307  -0.980 -34.469  1.00  0.00    -0.349 OA
BRANCH  28  29
HETATM   29  C   UNL     1      -6.708  -1.265 -34.596  1.00  0.00     0.171 C 
HETATM   30  C   UNL     1      -7.373  -0.108 -35.319  1.00  0.00     0.034 C 
ENDBRANCH  28  29
ENDBRANCH  23  28
ENDBRANCH  19  22
ENDBRANCH  17  18
ENDBRANCH  16  17
ENDBRANCH  15  16
ENDBRANCH   1  15
BRANCH   2  31
HETATM   31  C   UNL     1      -8.725   2.679 -32.017  1.00  0.00     0.065 A 
HETATM   32  C   UNL     1      -9.451   2.903 -33.205  1.00  0.00     0.061 A 
HETATM   33 CL   UNL     1      -9.460   4.451 -33.973  1.00  0.00    -0.082 Cl
HETATM   34  C   UNL     1     -10.175   1.869 -33.802  1.00  0.00     0.026 A 
HETATM   35  C   UNL     1     -10.187   0.601 -33.222  1.00  0.00     0.002 A 
HETATM   36  C   UNL     1      -9.474   0.365 -32.048  1.00  0.00     0.002 A 
HETATM   37  C   UNL     1      -8.744   1.394 -31.449  1.00  0.00     0.032 A 
ENDBRANCH   2  31
TORSDOF 8
ENDMDL
MODEL 8
REMARK VINA RESULT:      -8.1      4.279      8.492
REMARK  8 active torsions:
REMARK  status: ('A' for Active; 'I' for Inactive)
REMARK    1  A    between atoms: C_2  and  O_3 
REMARK    2  A    between atoms: O_3  and  C_4 
REMARK    3  A    between atoms: C_5  and  N_6 
REMARK       I    between atoms: N_6  and  C_7 
REMARK    4  A    between atoms: C_7  and  C_8 
REMARK    5  A    between atoms: C_8  and  C_9 
REMARK    6  A    between atoms: C_9  and  S_10 
REMARK    7  A    between atoms: S_10  and  C_11 
REMARK    8  A    between atoms: N_12  and  C_13 
ROOT
HETATM    1  C   UNL     1      -9.282   2.795 -33.832  1.00  0.00     0.177 A 
HETATM    2  N   UNL     1      -9.367   1.469 -33.348  1.00  0.00    -0.274 N 
HETATM    3  C   UNL     1     -10.669   0.842 -33.329  1.00  0.00     0.124 A 
HETATM    4  N   UNL     1     -10.870  -0.401 -32.938  1.00  0.00    -0.384 N 
HETATM    5  H   UNL     1     -11.796  -0.803 -32.946  1.00  0.00     0.157 HD
HETATM    6  H   UNL     1     -10.098  -0.974 -32.622  1.00  0.00     0.157 HD
HETATM    7  C   UNL     1     -11.762   1.639 -33.788  1.00  0.00     0.081 A 
HETATM    8  C   UNL     1     -11.502   2.925 -34.245  1.00  0.00     0.187 A 
HETATM    9  N   UNL     1     -12.597   3.559 -34.638  1.00  0.00    -0.153 NA
HETATM   10  N   UNL     1     -13.573   2.658 -34.422  1.00  0.00    -0.280 N 
HETATM   11  H   UNL     1     -14.526   2.927 -34.651  1.00  0.00     0.189 HD
HETATM   12  C   UNL     1     -13.123   1.464 -33.894  1.00  0.00     0.042 A 
HETATM   13  C   UNL     1     -14.053   0.363 -33.569  1.00  0.00     0.071 C 
HETATM   14  N   UNL     1     -10.255   3.529 -34.284  1.00  0.00    -0.202 NA
ENDROOT
BRANCH   1  15
HETATM   15  S   UNL     1      -7.684   3.604 -33.860  1.00  0.00    -0.091 SA
BRANCH  15  16
HETATM   16  C   UNL     1      -8.118   5.254 -33.196  1.00  0.00     0.091 C 
BRANCH  16  17
HETATM   17  C   UNL     1      -7.217   5.646 -32.032  1.00  0.00     0.113 C 
BRANCH  17  18
HETATM   18  C   UNL     1      -5.777   5.222 -32.257  1.00  0.00     0.223 C 
HETATM   19  N   UNL     1      -5.112   6.025 -33.156  1.00  0.00    -0.325 N 
HETATM   20  H   UNL     1      -5.624   6.805 -33.557  1.00  0.00     0.169 HD
HETATM   21  O   UNL     1      -5.322   4.240 -31.678  1.00  0.00    -0.273 OA
BRANCH  19  22
HETATM   22  C   UNL     1      -3.768   5.932 -33.577  1.00  0.00     0.068 A 
HETATM   23  C   UNL     1      -2.798   6.588 -32.800  1.00  0.00     0.095 A 
HETATM   24  C   UNL     1      -1.439   6.499 -33.106  1.00  0.00     0.039 A 
HETATM   25  C   UNL     1      -1.035   5.781 -34.228  1.00  0.00     0.003 A 
HETATM   26  C   UNL     1      -1.989   5.151 -35.027  1.00  0.00     0.002 A 
HETATM   27  C   UNL     1      -3.349   5.224 -34.703  1.00  0.00     0.032 A 
BRANCH  23  28
HETATM   28  O   UNL     1      -3.164   7.320 -31.694  1.00  0.00    -0.349 OA
BRANCH  28  29
HETATM   29  C   UNL     1      -2.443   8.560 -31.656  1.00  0.00     0.171 C 
HETATM   30  C   UNL     1      -2.000   8.818 -30.228  1.00  0.00     0.034 C 
ENDBRANCH  28  29
ENDBRANCH  23  28
ENDBRANCH  19  22
ENDBRANCH  17  18
ENDBRANCH  16  17
ENDBRANCH  15  16
ENDBRANCH   1  15
BRANCH   2  31
HETATM   31  C   UNL     1      -8.235   0.803 -32.784  1.00  0.00     0.065 A 
HETATM   32  C   UNL     1      -7.349   0.050 -33.582  1.00  0.00     0.061 A 
HETATM   33 CL   UNL     1      -7.623  -0.158 -35.276  1.00  0.00    -0.082 Cl
HETATM   34  C   UNL     1      -6.213  -0.539 -33.023  1.00  0.00     0.026 A 
HETATM   35  C   UNL     1      -5.947  -0.388 -31.663  1.00  0.00     0.002 A 
HETATM   36  C   UNL     1      -6.814   0.354 -30.861  1.00  0.00     0.002 A 
HETATM   37  C   UNL     1      -7.949   0.950 -31.417  1.00  0.00     0.032 A 
ENDBRANCH   2  31
TORSDOF 8
ENDMDL
MODEL 9
REMARK VINA RESULT:      -8.1      3.830      5.218
REMARK  8 active torsions:
REMARK  status: ('A' for Active; 'I' for Inactive)
REMARK    1  A    between atoms: C_2  and  O_3 
REMARK    2  A    between atoms: O_3  and  C_4 
REMARK    3  A    between atoms: C_5  and  N_6 
REMARK       I    between atoms: N_6  and  C_7 
REMARK    4  A    between atoms: C_7  and  C_8 
REMARK    5  A    between atoms: C_8  and  C_9 
REMARK    6  A    between atoms: C_9  and  S_10 
REMARK    7  A    between atoms: S_10  and  C_11 
REMARK    8  A    between atoms: N_12  and  C_13 
ROOT
HETATM    1  C   UNL     1      -5.491   3.719 -33.599  1.00  0.00     0.177 A 
HETATM    2  N   UNL     1      -4.787   3.379 -32.421  1.00  0.00    -0.274 N 
HETATM    3  C   UNL     1      -3.521   4.033 -32.182  1.00  0.00     0.124 A 
HETATM    4  N   UNL     1      -2.791   3.828 -31.102  1.00  0.00    -0.384 N 
HETATM    5  H   UNL     1      -1.914   4.311 -30.971  1.00  0.00     0.157 HD
HETATM    6  H   UNL     1      -3.099   3.183 -30.386  1.00  0.00     0.157 HD
HETATM    7  C   UNL     1      -3.086   4.957 -33.180  1.00  0.00     0.081 A 
HETATM    8  C   UNL     1      -3.910   5.188 -34.276  1.00  0.00     0.187 A 
HETATM    9  N   UNL     1      -3.393   6.060 -35.129  1.00  0.00    -0.153 NA
HETATM   10  N   UNL     1      -2.216   6.387 -34.564  1.00  0.00    -0.280 N 
HETATM   11  H   UNL     1      -1.626   7.056 -35.052  1.00  0.00     0.189 HD
HETATM   12  C   UNL     1      -1.969   5.737 -33.371  1.00  0.00     0.042 A 
HETATM   13  C   UNL     1      -0.716   5.952 -32.619  1.00  0.00     0.071 C 
HETATM   14  N   UNL     1      -5.133   4.580 -34.506  1.00  0.00    -0.202 NA
ENDROOT
BRANCH   1  15
HETATM   15  S   UNL     1      -7.060   2.920 -33.930  1.00  0.00    -0.091 SA
BRANCH  15  16
HETATM   16  C   UNL     1      -8.207   4.341 -33.808  1.00  0.00     0.091 C 
BRANCH  16  17
HETATM   17  C   UNL     1      -8.715   4.534 -32.385  1.00  0.00     0.113 C 
BRANCH  17  18
HETATM   18  C   UNL     1      -9.926   3.668 -32.090  1.00  0.00     0.223 C 
HETATM   19  N   UNL     1     -10.707   3.436 -33.201  1.00  0.00    -0.325 N 
HETATM   20  H   UNL     1     -10.402   3.838 -34.082  1.00  0.00     0.169 HD
HETATM   21  O   UNL     1     -10.140   3.267 -30.950  1.00  0.00    -0.273 OA
BRANCH  19  22
HETATM   22  C   UNL     1     -11.884   2.662 -33.291  1.00  0.00     0.068 A 
HETATM   23  C   UNL     1     -11.742   1.301 -33.614  1.00  0.00     0.095 A 
HETATM   24  C   UNL     1     -12.845   0.447 -33.664  1.00  0.00     0.039 A 
HETATM   25  C   UNL     1     -14.118   0.958 -33.430  1.00  0.00     0.003 A 
HETATM   26  C   UNL     1     -14.278   2.313 -33.139  1.00  0.00     0.002 A 
HETATM   27  C   UNL     1     -13.166   3.161 -33.067  1.00  0.00     0.032 A 
BRANCH  23  28
HETATM   28  O   UNL     1     -10.500   0.767 -33.868  1.00  0.00    -0.349 OA
BRANCH  28  29
HETATM   29  C   UNL     1     -10.121  -0.135 -32.817  1.00  0.00     0.171 C 
HETATM   30  C   UNL     1      -8.709   0.204 -32.376  1.00  0.00     0.034 C 
ENDBRANCH  28  29
ENDBRANCH  23  28
ENDBRANCH  19  22
ENDBRANCH  17  18
ENDBRANCH  16  17
ENDBRANCH  15  16
ENDBRANCH   1  15
BRANCH   2  31
HETATM   31  C   UNL     1      -5.242   2.341 -31.549  1.00  0.00     0.065 A 
HETATM   32  C   UNL     1      -4.785   1.014 -31.682  1.00  0.00     0.061 A 
HETATM   33 CL   UNL     1      -3.698   0.560 -32.946  1.00  0.00    -0.082 Cl
HETATM   34  C   UNL     1      -5.192   0.027 -30.780  1.00  0.00     0.026 A 
HETATM   35  C   UNL     1      -6.060   0.352 -29.738  1.00  0.00     0.002 A 
HETATM   36  C   UNL     1      -6.520   1.660 -29.595  1.00  0.00     0.002 A 
HETATM   37  C   UNL     1      -6.112   2.651 -30.491  1.00  0.00     0.032 A 
ENDBRANCH   2  31
TORSDOF 8
ENDMDL
MODEL 10
REMARK VINA RESULT:      -8.0      2.802      5.077
REMARK  8 active torsions:
REMARK  status: ('A' for Active; 'I' for Inactive)
REMARK    1  A    between atoms: C_2  and  O_3 
REMARK    2  A    between atoms: O_3  and  C_4 
REMARK    3  A    between atoms: C_5  and  N_6 
REMARK       I    between atoms: N_6  and  C_7 
REMARK    4  A    between atoms: C_7  and  C_8 
REMARK    5  A    between atoms: C_8  and  C_9 
REMARK    6  A    between atoms: C_9  and  S_10 
REMARK    7  A    between atoms: S_10  and  C_11 
REMARK    8  A    between atoms: N_12  and  C_13 
ROOT
HETATM    1  C   UNL     1      -3.261   6.938 -29.803  1.00  0.00     0.177 A 
HETATM    2  N   UNL     1      -2.023   6.596 -30.395  1.00  0.00    -0.274 N 
HETATM    3  C   UNL     1      -0.843   6.649 -29.563  1.00  0.00     0.124 A 
HETATM    4  N   UNL     1       0.361   6.317 -29.989  1.00  0.00    -0.384 N 
HETATM    5  H   UNL     1       1.159   6.363 -29.373  1.00  0.00     0.157 HD
HETATM    6  H   UNL     1       0.504   6.010 -30.942  1.00  0.00     0.157 HD
HETATM    7  C   UNL     1      -1.039   7.067 -28.211  1.00  0.00     0.081 A 
HETATM    8  C   UNL     1      -2.330   7.354 -27.785  1.00  0.00     0.187 A 
HETATM    9  N   UNL     1      -2.376   7.733 -26.516  1.00  0.00    -0.153 NA
HETATM   10  N   UNL     1      -1.088   7.688 -26.130  1.00  0.00    -0.280 N 
HETATM   11  H   UNL     1      -0.871   7.947 -25.172  1.00  0.00     0.189 HD
HETATM   12  C   UNL     1      -0.220   7.294 -27.129  1.00  0.00     0.042 A 
HETATM   13  C   UNL     1       1.237   7.208 -26.898  1.00  0.00     0.071 C 
HETATM   14  N   UNL     1      -3.470   7.289 -28.569  1.00  0.00    -0.202 NA
ENDROOT
BRANCH   1  15
HETATM   15  S   UNL     1      -4.743   6.890 -30.810  1.00  0.00    -0.091 SA
BRANCH  15  16
HETATM   16  C   UNL     1      -5.490   5.315 -30.254  1.00  0.00     0.091 C 
BRANCH  16  17
HETATM   17  C   UNL     1      -6.105   4.543 -31.415  1.00  0.00     0.113 C 
BRANCH  17  18
HETATM   18  C   UNL     1      -5.844   3.052 -31.309  1.00  0.00     0.223 C 
HETATM   19  N   UNL     1      -5.679   2.445 -32.534  1.00  0.00    -0.325 N 
HETATM   20  H   UNL     1      -5.730   3.034 -33.361  1.00  0.00     0.169 HD
HETATM   21  O   UNL     1      -5.818   2.502 -30.212  1.00  0.00    -0.273 OA
BRANCH  19  22
HETATM   22  C   UNL     1      -5.402   1.087 -32.803  1.00  0.00     0.068 A 
HETATM   23  C   UNL     1      -6.469   0.281 -33.235  1.00  0.00     0.095 A 
HETATM   24  C   UNL     1      -6.274  -1.057 -33.582  1.00  0.00     0.039 A 
HETATM   25  C   UNL     1      -5.007  -1.620 -33.460  1.00  0.00     0.003 A 
HETATM   26  C   UNL     1      -3.945  -0.840 -33.002  1.00  0.00     0.002 A 
HETATM   27  C   UNL     1      -4.140   0.508 -32.677  1.00  0.00     0.032 A 
BRANCH  23  28
HETATM   28  O   UNL     1      -7.737   0.801 -33.351  1.00  0.00    -0.349 OA
BRANCH  28  29
HETATM   29  C   UNL     1      -8.583   0.291 -32.309  1.00  0.00     0.171 C 
HETATM   30  C   UNL     1      -9.967   0.055 -32.882  1.00  0.00     0.034 C 
ENDBRANCH  28  29
ENDBRANCH  23  28
ENDBRANCH  19  22
ENDBRANCH  17  18
ENDBRANCH  16  17
ENDBRANCH  15  16
ENDBRANCH   1  15
BRANCH   2  31
HETATM   31  C   UNL     1      -1.911   6.320 -31.793  1.00  0.00     0.065 A 
HETATM   32  C   UNL     1      -2.095   5.020 -32.306  1.00  0.00     0.061 A 
HETATM   33 CL   UNL     1      -2.402   3.678 -31.261  1.00  0.00    -0.082 Cl
HETATM   34  C   UNL     1      -2.045   4.783 -33.682  1.00  0.00     0.026 A 
HETATM   35  C   UNL     1      -1.811   5.838 -34.562  1.00  0.00     0.002 A 
HETATM   36  C   UNL     1      -1.627   7.130 -34.070  1.00  0.00     0.002 A 
HETATM   37  C   UNL     1      -1.681   7.373 -32.695  1.00  0.00     0.032 A 
ENDBRANCH   2  31
TORSDOF 8
ENDMDL
