MODEL 1
REMARK VINA RESULT:      -7.0      0.000      0.000
REMARK  11 active torsions:
REMARK  status: ('A' for Active; 'I' for Inactive)
REMARK    1  A    between atoms: C_1  and  C_17 
REMARK    2  A    between atoms: C_1  and  S_18 
REMARK    3  A    between atoms: C_2  and  N_23 
REMARK    4  A    between atoms: C_3  and  C_13 
REMARK    5  A    between atoms: C_6  and  S_18 
REMARK    6  A    between atoms: C_6  and  S_19 
REMARK    7  A    between atoms: C_7  and  C_20 
REMARK    8  A    between atoms: C_7  and  C_21 
REMARK    9  A    between atoms: C_9  and  C_24 
REMARK   10  A    between atoms: C_16  and  C_17 
REMARK   11  A    between atoms: S_19  and  C_20 
ROOT
HETATM    1  C           1      -8.471   2.009 -31.390  0.00  0.00     0.092 C 
HETATM    2  C           1      -6.475   0.876 -32.120  0.00  0.00     0.156 C 
HETATM    3  C           1      -7.666   2.992 -32.193  0.00  0.00     0.127 C 
HETATM    4  C           1      -6.232   2.428 -32.090  0.00  0.00     0.136 C 
HETATM    5  C           1      -5.577   2.781 -30.799  0.00  0.00     0.079 C 
HETATM    6  N           1      -5.065   3.152 -29.826  0.00  0.00    -0.196 NA
HETATM    7  C           1      -7.652   4.573 -32.074  0.00  0.00     0.248 C 
HETATM    8  C           1      -5.704   4.403 -33.626  0.00  0.00     0.105 C 
HETATM    9  N           1      -7.835   0.866 -31.388  0.00  0.00    -0.350 N 
HETATM   10  N           1      -6.867   5.204 -33.273  0.00  0.00    -0.040 N 
HETATM   11  C           1      -4.791   5.049 -34.640  0.00  0.00     0.075 C 
HETATM   12  C           1      -5.426   3.167 -33.144  0.00  0.00     0.036 C 
HETATM   13  H           1      -8.210   0.027 -30.926  0.00  0.00     0.163 HD
HETATM   14  H           1      -7.488   5.356 -34.096  0.00  0.00     0.284 HD
HETATM   15  H           1      -6.534   6.148 -32.971  0.00  0.00     0.284 HD
ENDROOT
BRANCH   2  16
HETATM   16  S           1      -5.290  -0.074 -31.111  0.00  0.00    -0.125 SA
BRANCH  16  17
HETATM   17  C           1      -3.750   0.058 -32.067  0.00  0.00     0.077 C 
BRANCH  17  18
HETATM   18  C           1      -2.890  -1.188 -31.799  0.00  0.00     0.010 C 
BRANCH  18  19
HETATM   19  C           1      -3.519  -2.451 -32.409  0.00  0.00    -0.004 C 
HETATM   20  C           1      -2.982  -3.731 -31.753  0.00  0.00     0.005 C 
ENDBRANCH  18  19
ENDBRANCH  17  18
ENDBRANCH  16  17
ENDBRANCH   2  16
BRANCH   2  21
HETATM   21  S           1      -6.700   0.297 -33.836  0.00  0.00    -0.125 SA
BRANCH  21  22
HETATM   22  C           1      -6.835  -1.499 -33.568  0.00  0.00     0.077 C 
BRANCH  22  23
HETATM   23  C           1      -6.404  -2.224 -34.854  0.00  0.00     0.010 C 
BRANCH  23  24
HETATM   24  C           1      -6.777  -3.715 -34.815  0.00  0.00    -0.004 C 
HETATM   25  C           1      -5.535  -4.613 -34.740  0.00  0.00     0.005 C 
ENDBRANCH  23  24
ENDBRANCH  22  23
ENDBRANCH  21  22
ENDBRANCH   2  21
BRANCH   3  26
HETATM   26  C           1      -8.156   2.983 -33.602  0.00  0.00     0.105 C 
HETATM   27  N           1      -9.181   2.904 -34.137  0.00  0.00    -0.151 N 
ENDBRANCH   3  26
BRANCH   1  28
HETATM   28  N           1      -9.611   2.212 -30.878  0.00  0.00    -0.388 N 
HETATM   29  H           1     -10.482   2.148 -31.460  0.00  0.00     0.157 HD
HETATM   30  H           1      -9.705   2.453 -29.860  0.00  0.00     0.157 HD
ENDBRANCH   1  28
BRANCH   7  31
HETATM   31  C           1      -7.189   5.145 -30.743  0.00  0.00    -0.026 A 
HETATM   32  C           1      -7.853   4.826 -29.615  0.00  0.00     0.009 A 
HETATM   33  C           1      -7.487   5.313 -28.419  0.00  0.00     0.001 A 
HETATM   34  C           1      -6.440   6.144 -28.327  0.00  0.00     0.000 A 
HETATM   35  C           1      -5.770   6.483 -29.438  0.00  0.00     0.001 A 
HETATM   36  C           1      -6.145   5.988 -30.629  0.00  0.00     0.009 A 
ENDBRANCH   7  31
TORSDOF 11
ENDMDL
MODEL 2
REMARK VINA RESULT:      -7.0      2.575      5.031
REMARK  11 active torsions:
REMARK  status: ('A' for Active; 'I' for Inactive)
REMARK    1  A    between atoms: C_1  and  C_17 
REMARK    2  A    between atoms: C_1  and  S_18 
REMARK    3  A    between atoms: C_2  and  N_23 
REMARK    4  A    between atoms: C_3  and  C_13 
REMARK    5  A    between atoms: C_6  and  S_18 
REMARK    6  A    between atoms: C_6  and  S_19 
REMARK    7  A    between atoms: C_7  and  C_20 
REMARK    8  A    between atoms: C_7  and  C_21 
REMARK    9  A    between atoms: C_9  and  C_24 
REMARK   10  A    between atoms: C_16  and  C_17 
REMARK   11  A    between atoms: S_19  and  C_20 
ROOT
HETATM    1  C           1      -4.803   3.174 -31.365  0.00  0.00     0.092 C 
HETATM    2  C           1      -6.870   3.573 -32.535  0.00  0.00     0.156 C 
HETATM    3  C           1      -5.078   4.651 -31.299  0.00  0.00     0.127 C 
HETATM    4  C           1      -6.004   4.884 -32.513  0.00  0.00     0.136 C 
HETATM    5  C           1      -5.245   4.973 -33.793  0.00  0.00     0.079 C 
HETATM    6  N           1      -4.617   5.129 -34.756  0.00  0.00    -0.196 NA
HETATM    7  C           1      -4.033   5.835 -31.161  0.00  0.00     0.248 C 
HETATM    8  C           1      -6.017   7.279 -31.620  0.00  0.00     0.105 C 
HETATM    9  N           1      -5.792   2.604 -32.003  0.00  0.00    -0.350 N 
HETATM   10  N           1      -4.772   7.185 -30.871  0.00  0.00    -0.040 N 
HETATM   11  C           1      -6.685   8.631 -31.544  0.00  0.00     0.075 C 
HETATM   12  C           1      -6.592   6.270 -32.318  0.00  0.00     0.036 C 
HETATM   13  H           1      -5.842   1.587 -32.146  0.00  0.00     0.163 HD
HETATM   14  H           1      -4.932   7.319 -29.850  0.00  0.00     0.284 HD
HETATM   15  H           1      -4.145   7.961 -31.181  0.00  0.00     0.284 HD
ENDROOT
BRANCH   2  16
HETATM   16  S           1      -7.335   3.027 -34.211  0.00  0.00    -0.125 SA
BRANCH  16  17
HETATM   17  C           1      -6.486   1.427 -34.363  0.00  0.00     0.077 C 
BRANCH  17  18
HETATM   18  C           1      -7.325   0.501 -35.260  0.00  0.00     0.010 C 
BRANCH  18  19
HETATM   19  C           1      -7.128  -0.978 -34.887  0.00  0.00    -0.004 C 
HETATM   20  C           1      -6.415  -1.137 -33.537  0.00  0.00     0.005 C 
ENDBRANCH  18  19
ENDBRANCH  17  18
ENDBRANCH  16  17
ENDBRANCH   2  16
BRANCH   2  21
HETATM   21  S           1      -8.236   3.690 -31.329  0.00  0.00    -0.125 SA
BRANCH  21  22
HETATM   22  C           1      -9.439   2.545 -32.076  0.00  0.00     0.077 C 
BRANCH  22  23
HETATM   23  C           1      -9.107   1.114 -31.621  0.00  0.00     0.010 C 
BRANCH  23  24
HETATM   24  C           1      -9.794   0.064 -32.509  0.00  0.00    -0.004 C 
HETATM   25  C           1     -10.745   0.709 -33.528  0.00  0.00     0.005 C 
ENDBRANCH  23  24
ENDBRANCH  22  23
ENDBRANCH  21  22
ENDBRANCH   2  21
BRANCH   3  26
HETATM   26  C           1      -5.774   4.956 -30.016  0.00  0.00     0.105 C 
HETATM   27  N           1      -5.679   4.633 -28.907  0.00  0.00    -0.151 N 
ENDBRANCH   3  26
BRANCH   1  28
HETATM   28  N           1      -3.834   2.565 -30.823  0.00  0.00    -0.388 N 
HETATM   29  H           1      -3.901   1.543 -30.597  0.00  0.00     0.157 HD
HETATM   30  H           1      -2.948   3.076 -30.585  0.00  0.00     0.157 HD
ENDBRANCH   1  28
BRANCH   7  31
HETATM   31  C           1      -3.027   5.983 -32.293  0.00  0.00    -0.026 A 
HETATM   32  C           1      -2.260   4.933 -32.641  0.00  0.00     0.009 A 
HETATM   33  C           1      -1.353   5.018 -33.628  0.00  0.00     0.001 A 
HETATM   34  C           1      -1.191   6.172 -34.289  0.00  0.00     0.000 A 
HETATM   35  C           1      -1.938   7.233 -33.952  0.00  0.00     0.001 A 
HETATM   36  C           1      -2.842   7.135 -32.965  0.00  0.00     0.009 A 
ENDBRANCH   7  31
TORSDOF 11
ENDMDL
MODEL 3
REMARK VINA RESULT:      -6.9     16.651     18.749
REMARK  11 active torsions:
REMARK  status: ('A' for Active; 'I' for Inactive)
REMARK    1  A    between atoms: C_1  and  C_17 
REMARK    2  A    between atoms: C_1  and  S_18 
REMARK    3  A    between atoms: C_2  and  N_23 
REMARK    4  A    between atoms: C_3  and  C_13 
REMARK    5  A    between atoms: C_6  and  S_18 
REMARK    6  A    between atoms: C_6  and  S_19 
REMARK    7  A    between atoms: C_7  and  C_20 
REMARK    8  A    between atoms: C_7  and  C_21 
REMARK    9  A    between atoms: C_9  and  C_24 
REMARK   10  A    between atoms: C_16  and  C_17 
REMARK   11  A    between atoms: S_19  and  C_20 
ROOT
HETATM    1  C           1      -4.959 -12.617 -40.064  0.00  0.00     0.092 C 
HETATM    2  C           1      -4.412 -14.915 -40.532  0.00  0.00     0.156 C 
HETATM    3  C           1      -5.530 -13.449 -38.951  0.00  0.00     0.127 C 
HETATM    4  C           1      -5.676 -14.842 -39.601  0.00  0.00     0.136 C 
HETATM    5  C           1      -6.897 -14.945 -40.450  0.00  0.00     0.079 C 
HETATM    6  N           1      -7.902 -15.019 -41.025  0.00  0.00    -0.196 NA
HETATM    7  C           1      -6.784 -13.129 -38.034  0.00  0.00     0.248 C 
HETATM    8  C           1      -6.479 -15.483 -37.260  0.00  0.00     0.105 C 
HETATM    9  N           1      -4.331 -13.415 -40.889  0.00  0.00    -0.350 N 
HETATM   10  N           1      -6.863 -14.142 -36.843  0.00  0.00    -0.040 N 
HETATM   11  C           1      -6.719 -16.549 -36.218  0.00  0.00     0.075 C 
HETATM   12  C           1      -5.924 -15.805 -38.454  0.00  0.00     0.036 C 
HETATM   13  H           1      -3.830 -13.068 -41.717  0.00  0.00     0.163 HD
HETATM   14  H           1      -6.295 -13.819 -36.031  0.00  0.00     0.284 HD
HETATM   15  H           1      -7.857 -14.172 -36.519  0.00  0.00     0.284 HD
ENDROOT
BRANCH   2  16
HETATM   16  S           1      -4.688 -15.843 -42.077  0.00  0.00    -0.125 SA
BRANCH  16  17
HETATM   17  C           1      -4.444 -14.576 -43.357  0.00  0.00     0.077 C 
BRANCH  17  18
HETATM   18  C           1      -4.163 -15.272 -44.699  0.00  0.00     0.010 C 
BRANCH  18  19
HETATM   19  C           1      -2.907 -16.155 -44.625  0.00  0.00    -0.004 C 
HETATM   20  C           1      -2.463 -16.635 -46.014  0.00  0.00     0.005 C 
ENDBRANCH  18  19
ENDBRANCH  17  18
ENDBRANCH  16  17
ENDBRANCH   2  16
BRANCH   2  21
HETATM   21  S           1      -2.937 -15.395 -39.570  0.00  0.00    -0.125 SA
BRANCH  21  22
HETATM   22  C           1      -1.651 -14.435 -40.430  0.00  0.00     0.077 C 
BRANCH  22  23
HETATM   23  C           1      -0.994 -13.476 -39.423  0.00  0.00     0.010 C 
BRANCH  23  24
HETATM   24  C           1      -0.202 -14.239 -38.349  0.00  0.00    -0.004 C 
HETATM   25  C           1       1.252 -14.482 -38.775  0.00  0.00     0.005 C 
ENDBRANCH  23  24
ENDBRANCH  22  23
ENDBRANCH  21  22
ENDBRANCH   2  21
BRANCH   3  26
HETATM   26  C           1      -4.560 -13.475 -37.818  0.00  0.00     0.105 C 
HETATM   27  N           1      -3.860 -12.716 -37.291  0.00  0.00    -0.151 N 
ENDBRANCH   3  26
BRANCH   1  28
HETATM   28  N           1      -4.993 -11.354 -40.152  0.00  0.00    -0.388 N 
HETATM   29  H           1      -4.468 -10.853 -40.910  0.00  0.00     0.157 HD
HETATM   30  H           1      -5.544 -10.785 -39.462  0.00  0.00     0.157 HD
ENDBRANCH   1  28
BRANCH   7  31
HETATM   31  C           1      -8.123 -13.000 -38.745  0.00  0.00    -0.026 A 
HETATM   32  C           1      -8.275 -12.079 -39.716  0.00  0.00     0.009 A 
HETATM   33  C           1      -9.440 -11.923 -40.365  0.00  0.00     0.001 A 
HETATM   34  C           1     -10.490 -12.691 -40.047  0.00  0.00     0.000 A 
HETATM   35  C           1     -10.365 -13.608 -39.077  0.00  0.00     0.001 A 
HETATM   36  C           1      -9.194 -13.756 -38.436  0.00  0.00     0.009 A 
ENDBRANCH   7  31
TORSDOF 11
ENDMDL
MODEL 4
REMARK VINA RESULT:      -6.7      2.482      6.368
REMARK  11 active torsions:
REMARK  status: ('A' for Active; 'I' for Inactive)
REMARK    1  A    between atoms: C_1  and  C_17 
REMARK    2  A    between atoms: C_1  and  S_18 
REMARK    3  A    between atoms: C_2  and  N_23 
REMARK    4  A    between atoms: C_3  and  C_13 
REMARK    5  A    between atoms: C_6  and  S_18 
REMARK    6  A    between atoms: C_6  and  S_19 
REMARK    7  A    between atoms: C_7  and  C_20 
REMARK    8  A    between atoms: C_7  and  C_21 
REMARK    9  A    between atoms: C_9  and  C_24 
REMARK   10  A    between atoms: C_16  and  C_17 
REMARK   11  A    between atoms: S_19  and  C_20 
ROOT
HETATM    1  C           1      -6.986   3.235 -30.541  0.00  0.00     0.092 C 
HETATM    2  C           1      -7.438   4.476 -32.556  0.00  0.00     0.156 C 
HETATM    3  C           1      -5.664   3.526 -31.194  0.00  0.00     0.127 C 
HETATM    4  C           1      -6.051   3.747 -32.673  0.00  0.00     0.136 C 
HETATM    5  C           1      -6.251   2.462 -33.402  0.00  0.00     0.079 C 
HETATM    6  N           1      -6.307   1.446 -33.961  0.00  0.00    -0.196 NA
HETATM    7  C           1      -4.317   2.697 -31.090  0.00  0.00     0.248 C 
HETATM    8  C           1      -3.550   4.224 -32.910  0.00  0.00     0.105 C 
HETATM    9  N           1      -7.927   3.781 -31.266  0.00  0.00    -0.350 N 
HETATM   10  N           1      -3.130   3.500 -31.718  0.00  0.00    -0.040 N 
HETATM   11  C           1      -2.419   4.861 -33.680  0.00  0.00     0.075 C 
HETATM   12  C           1      -4.831   4.373 -33.326  0.00  0.00     0.036 C 
HETATM   13  H           1      -8.920   3.742 -31.001  0.00  0.00     0.163 HD
HETATM   14  H           1      -2.691   4.138 -31.022  0.00  0.00     0.284 HD
HETATM   15  H           1      -2.394   2.811 -31.998  0.00  0.00     0.284 HD
ENDROOT
BRANCH   2  16
HETATM   16  S           1      -8.604   4.059 -33.893  0.00  0.00    -0.125 SA
BRANCH  16  17
HETATM   17  C           1      -9.782   2.947 -33.068  0.00  0.00     0.077 C 
BRANCH  17  18
HETATM   18  C           1     -10.019   1.720 -33.963  0.00  0.00     0.010 C 
BRANCH  18  19
HETATM   19  C           1     -10.060   0.420 -33.142  0.00  0.00    -0.004 C 
HETATM   20  C           1      -9.120   0.481 -31.930  0.00  0.00     0.005 C 
ENDBRANCH  18  19
ENDBRANCH  17  18
ENDBRANCH  16  17
ENDBRANCH   2  16
BRANCH   2  21
HETATM   21  S           1      -7.198   6.257 -32.237  0.00  0.00    -0.125 SA
BRANCH  21  22
HETATM   22  C           1      -8.926   6.830 -32.226  0.00  0.00     0.077 C 
BRANCH  22  23
HETATM   23  C           1      -9.351   7.090 -30.771  0.00  0.00     0.010 C 
BRANCH  23  24
HETATM   24  C           1      -8.142   7.100 -29.821  0.00  0.00    -0.004 C 
HETATM   25  C           1      -8.402   6.273 -28.555  0.00  0.00     0.005 C 
ENDBRANCH  23  24
ENDBRANCH  22  23
ENDBRANCH  21  22
ENDBRANCH   2  21
BRANCH   3  26
HETATM   26  C           1      -5.088   4.764 -30.592  0.00  0.00     0.105 C 
HETATM   27  N           1      -5.046   5.247 -29.539  0.00  0.00    -0.151 N 
ENDBRANCH   3  26
BRANCH   1  28
HETATM   28  N           1      -7.164   2.646 -29.435  0.00  0.00    -0.388 N 
HETATM   29  H           1      -6.699   2.992 -28.560  0.00  0.00     0.157 HD
HETATM   30  H           1      -7.776   1.795 -29.375  0.00  0.00     0.157 HD
ENDBRANCH   1  28
BRANCH   7  31
HETATM   31  C           1      -4.362   1.269 -31.613  0.00  0.00    -0.026 A 
HETATM   32  C           1      -5.288   0.415 -31.137  0.00  0.00     0.009 A 
HETATM   33  C           1      -5.361  -0.856 -31.562  0.00  0.00     0.001 A 
HETATM   34  C           1      -4.494  -1.305 -32.480  0.00  0.00     0.000 A 
HETATM   35  C           1      -3.558  -0.475 -32.961  0.00  0.00     0.001 A 
HETATM   36  C           1      -3.496   0.795 -32.529  0.00  0.00     0.009 A 
ENDBRANCH   7  31
TORSDOF 11
ENDMDL
MODEL 5
REMARK VINA RESULT:      -6.7      3.028      6.948
REMARK  11 active torsions:
REMARK  status: ('A' for Active; 'I' for Inactive)
REMARK    1  A    between atoms: C_1  and  C_17 
REMARK    2  A    between atoms: C_1  and  S_18 
REMARK    3  A    between atoms: C_2  and  N_23 
REMARK    4  A    between atoms: C_3  and  C_13 
REMARK    5  A    between atoms: C_6  and  S_18 
REMARK    6  A    between atoms: C_6  and  S_19 
REMARK    7  A    between atoms: C_7  and  C_20 
REMARK    8  A    between atoms: C_7  and  C_21 
REMARK    9  A    between atoms: C_9  and  C_24 
REMARK   10  A    between atoms: C_16  and  C_17 
REMARK   11  A    between atoms: S_19  and  C_20 
ROOT
HETATM    1  C           1      -9.061   1.277 -31.711  0.00  0.00     0.092 C 
HETATM    2  C           1      -9.239   3.181 -33.176  0.00  0.00     0.156 C 
HETATM    3  C           1      -7.669   1.789 -31.951  0.00  0.00     0.127 C 
HETATM    4  C           1      -7.806   2.546 -33.290  0.00  0.00     0.136 C 
HETATM    5  C           1      -7.787   1.627 -34.464  0.00  0.00     0.079 C 
HETATM    6  N           1      -7.675   0.893 -35.355  0.00  0.00    -0.196 NA
HETATM    7  C           1      -6.307   0.978 -31.907  0.00  0.00     0.248 C 
HETATM    8  C           1      -5.341   3.073 -32.861  0.00  0.00     0.105 C 
HETATM    9  N           1      -9.897   2.056 -32.348  0.00  0.00    -0.350 N 
HETATM   10  N           1      -5.086   1.956 -31.963  0.00  0.00    -0.040 N 
HETATM   11  C           1      -4.139   3.950 -33.118  0.00  0.00     0.075 C 
HETATM   12  C           1      -6.537   3.368 -33.426  0.00  0.00     0.036 C 
HETATM   13  H           1     -10.916   1.922 -32.306  0.00  0.00     0.163 HD
HETATM   14  H           1      -4.821   2.287 -31.011  0.00  0.00     0.284 HD
HETATM   15  H           1      -4.268   1.420 -32.332  0.00  0.00     0.284 HD
ENDROOT
BRANCH   2  16
HETATM   16  S           1     -10.123   3.295 -34.766  0.00  0.00    -0.125 SA
BRANCH  16  17
HETATM   17  C           1     -11.835   2.895 -34.305  0.00  0.00     0.077 C 
BRANCH  17  18
HETATM   18  C           1     -12.270   1.627 -35.057  0.00  0.00     0.010 C 
BRANCH  18  19
HETATM   19  C           1     -13.590   1.066 -34.504  0.00  0.00    -0.004 C 
HETATM   20  C           1     -13.367  -0.196 -33.659  0.00  0.00     0.005 C 
ENDBRANCH  18  19
ENDBRANCH  17  18
ENDBRANCH  16  17
ENDBRANCH   2  16
BRANCH   2  21
HETATM   21  S           1      -9.181   4.714 -32.186  0.00  0.00    -0.125 SA
BRANCH  21  22
HETATM   22  C           1     -10.393   4.318 -30.887  0.00  0.00     0.077 C 
BRANCH  22  23
HETATM   23  C           1     -11.759   4.895 -31.294  0.00  0.00     0.010 C 
BRANCH  23  24
HETATM   24  C           1     -12.906   4.251 -30.497  0.00  0.00    -0.004 C 
HETATM   25  C           1     -13.973   3.644 -31.419  0.00  0.00     0.005 C 
ENDBRANCH  23  24
ENDBRANCH  22  23
ENDBRANCH  21  22
ENDBRANCH   2  21
BRANCH   3  26
HETATM   26  C           1      -7.293   2.711 -30.840  0.00  0.00     0.105 C 
HETATM   27  N           1      -7.315   2.687 -29.681  0.00  0.00    -0.151 N 
ENDBRANCH   3  26
BRANCH   1  28
HETATM   28  N           1      -9.389   0.317 -30.952  0.00  0.00    -0.388 N 
HETATM   29  H           1      -8.898   0.163 -30.038  0.00  0.00     0.157 HD
HETATM   30  H           1     -10.156  -0.345 -31.229  0.00  0.00     0.157 HD
ENDBRANCH   1  28
BRANCH   7  31
HETATM   31  C           1      -6.162  -0.151 -32.917  0.00  0.00    -0.026 A 
HETATM   32  C           1      -7.166  -1.034 -33.075  0.00  0.00     0.009 A 
HETATM   33  C           1      -7.081  -2.052 -33.947  0.00  0.00     0.001 A 
HETATM   34  C           1      -5.972  -2.210 -34.683  0.00  0.00     0.000 A 
HETATM   35  C           1      -4.956  -1.348 -34.535  0.00  0.00     0.001 A 
HETATM   36  C           1      -5.054  -0.334 -33.661  0.00  0.00     0.009 A 
ENDBRANCH   7  31
TORSDOF 11
ENDMDL
MODEL 6
REMARK VINA RESULT:      -6.6      2.093      4.006
REMARK  11 active torsions:
REMARK  status: ('A' for Active; 'I' for Inactive)
REMARK    1  A    between atoms: C_1  and  C_17 
REMARK    2  A    between atoms: C_1  and  S_18 
REMARK    3  A    between atoms: C_2  and  N_23 
REMARK    4  A    between atoms: C_3  and  C_13 
REMARK    5  A    between atoms: C_6  and  S_18 
REMARK    6  A    between atoms: C_6  and  S_19 
REMARK    7  A    between atoms: C_7  and  C_20 
REMARK    8  A    between atoms: C_7  and  C_21 
REMARK    9  A    between atoms: C_9  and  C_24 
REMARK   10  A    between atoms: C_16  and  C_17 
REMARK   11  A    between atoms: S_19  and  C_20 
ROOT
HETATM    1  C           1      -7.076   2.514 -30.898  0.00  0.00     0.092 C 
HETATM    2  C           1      -6.616   2.940 -33.223  0.00  0.00     0.156 C 
HETATM    3  C           1      -8.394   2.756 -31.579  0.00  0.00     0.127 C 
HETATM    4  C           1      -7.994   3.579 -32.822  0.00  0.00     0.136 C 
HETATM    5  C           1      -7.774   5.018 -32.500  0.00  0.00     0.079 C 
HETATM    6  N           1      -7.701   6.145 -32.232  0.00  0.00    -0.196 NA
HETATM    7  C           1      -9.734   3.320 -30.945  0.00  0.00     0.248 C 
HETATM    8  C           1     -10.496   3.420 -33.320  0.00  0.00     0.105 C 
HETATM    9  N           1      -6.132   2.582 -31.801  0.00  0.00    -0.350 N 
HETATM   10  N           1     -10.922   3.164 -31.951  0.00  0.00    -0.040 N 
HETATM   11  C           1     -11.626   3.482 -34.319  0.00  0.00     0.075 C 
HETATM   12  C           1      -9.213   3.571 -33.727  0.00  0.00     0.036 C 
HETATM   13  H           1      -5.142   2.419 -31.577  0.00  0.00     0.163 HD
HETATM   14  H           1     -11.375   2.229 -31.863  0.00  0.00     0.284 HD
HETATM   15  H           1     -11.648   3.872 -31.696  0.00  0.00     0.284 HD
ENDROOT
BRANCH   2  16
HETATM   16  S           1      -5.431   4.130 -33.934  0.00  0.00    -0.125 SA
BRANCH  16  17
HETATM   17  C           1      -4.244   4.374 -32.579  0.00  0.00     0.077 C 
BRANCH  17  18
HETATM   18  C           1      -2.897   3.752 -32.979  0.00  0.00     0.010 C 
BRANCH  18  19
HETATM   19  C           1      -1.859   4.830 -33.332  0.00  0.00    -0.004 C 
HETATM   20  C           1      -1.812   5.106 -34.842  0.00  0.00     0.005 C 
ENDBRANCH  18  19
ENDBRANCH  17  18
ENDBRANCH  16  17
ENDBRANCH   2  16
BRANCH   2  21
HETATM   21  S           1      -6.877   1.409 -34.183  0.00  0.00    -0.125 SA
BRANCH  21  22
HETATM   22  C           1      -5.610   0.331 -33.443  0.00  0.00     0.077 C 
BRANCH  22  23
HETATM   23  C           1      -6.239  -1.041 -33.150  0.00  0.00     0.010 C 
BRANCH  23  24
HETATM   24  C           1      -6.908  -1.636 -34.399  0.00  0.00    -0.004 C 
HETATM   25  C           1      -6.313  -3.001 -34.772  0.00  0.00     0.005 C 
ENDBRANCH  23  24
ENDBRANCH  22  23
ENDBRANCH  21  22
ENDBRANCH   2  21
BRANCH   3  26
HETATM   26  C           1      -8.988   1.442 -31.962  0.00  0.00     0.105 C 
HETATM   27  N           1      -9.063   0.383 -31.499  0.00  0.00    -0.151 N 
ENDBRANCH   3  26
BRANCH   1  28
HETATM   28  N           1      -6.903   2.206 -29.682  0.00  0.00    -0.388 N 
HETATM   29  H           1      -6.457   2.881 -29.014  0.00  0.00     0.157 HD
HETATM   30  H           1      -7.200   1.265 -29.322  0.00  0.00     0.157 HD
ENDBRANCH   1  28
BRANCH   7  31
HETATM   31  C           1      -9.668   4.729 -30.375  0.00  0.00    -0.026 A 
HETATM   32  C           1      -8.733   5.031 -29.454  0.00  0.00     0.009 A 
HETATM   33  C           1      -8.642   6.258 -28.916  0.00  0.00     0.001 A 
HETATM   34  C           1      -9.501   7.216 -29.290  0.00  0.00     0.000 A 
HETATM   35  C           1     -10.446   6.935 -30.198  0.00  0.00     0.001 A 
HETATM   36  C           1     -10.526   5.705 -30.730  0.00  0.00     0.009 A 
ENDBRANCH   7  31
TORSDOF 11
ENDMDL
MODEL 7
REMARK VINA RESULT:      -6.6      2.595      6.297
REMARK  11 active torsions:
REMARK  status: ('A' for Active; 'I' for Inactive)
REMARK    1  A    between atoms: C_1  and  C_17 
REMARK    2  A    between atoms: C_1  and  S_18 
REMARK    3  A    between atoms: C_2  and  N_23 
REMARK    4  A    between atoms: C_3  and  C_13 
REMARK    5  A    between atoms: C_6  and  S_18 
REMARK    6  A    between atoms: C_6  and  S_19 
REMARK    7  A    between atoms: C_7  and  C_20 
REMARK    8  A    between atoms: C_7  and  C_21 
REMARK    9  A    between atoms: C_9  and  C_24 
REMARK   10  A    between atoms: C_16  and  C_17 
REMARK   11  A    between atoms: S_19  and  C_20 
ROOT
HETATM    1  C           1      -6.901   3.078 -30.571  0.00  0.00     0.092 C 
HETATM    2  C           1      -5.421   3.642 -32.385  0.00  0.00     0.156 C 
HETATM    3  C           1      -7.037   2.002 -31.612  0.00  0.00     0.127 C 
HETATM    4  C           1      -6.576   2.711 -32.903  0.00  0.00     0.136 C 
HETATM    5  C           1      -7.646   3.566 -33.492  0.00  0.00     0.079 C 
HETATM    6  N           1      -8.529   4.147 -33.971  0.00  0.00    -0.196 NA
HETATM    7  C           1      -8.291   1.075 -31.903  0.00  0.00     0.248 C 
HETATM    8  C           1      -6.983   0.401 -33.920  0.00  0.00     0.105 C 
HETATM    9  N           1      -6.004   3.934 -30.985  0.00  0.00    -0.350 N 
HETATM   10  N           1      -7.904  -0.072 -32.896  0.00  0.00    -0.040 N 
HETATM   11  C           1      -6.720  -0.594 -35.024  0.00  0.00     0.075 C 
HETATM   12  C           1      -6.363   1.606 -33.923  0.00  0.00     0.036 C 
HETATM   13  H           1      -5.715   4.746 -30.423  0.00  0.00     0.163 HD
HETATM   14  H           1      -7.518  -0.897 -32.391  0.00  0.00     0.284 HD
HETATM   15  H           1      -8.780  -0.392 -33.366  0.00  0.00     0.284 HD
ENDROOT
BRANCH   2  16
HETATM   16  S           1      -5.293   5.225 -33.279  0.00  0.00    -0.125 SA
BRANCH  16  17
HETATM   17  C           1      -5.663   6.449 -31.987  0.00  0.00     0.077 C 
BRANCH  17  18
HETATM   18  C           1      -4.360   7.163 -31.590  0.00  0.00     0.010 C 
BRANCH  18  19
HETATM   19  C           1      -3.968   6.855 -30.136  0.00  0.00    -0.004 C 
HETATM   20  C           1      -2.621   7.489 -29.761  0.00  0.00     0.005 C 
ENDBRANCH  18  19
ENDBRANCH  17  18
ENDBRANCH  16  17
ENDBRANCH   2  16
BRANCH   2  21
HETATM   21  S           1      -3.867   2.698 -32.215  0.00  0.00    -0.125 SA
BRANCH  21  22
HETATM   22  C           1      -2.707   3.807 -33.074  0.00  0.00     0.077 C 
BRANCH  22  23
HETATM   23  C           1      -1.829   4.510 -32.026  0.00  0.00     0.010 C 
BRANCH  23  24
HETATM   24  C           1      -1.013   5.656 -32.648  0.00  0.00    -0.004 C 
HETATM   25  C           1      -1.487   5.990 -34.069  0.00  0.00     0.005 C 
ENDBRANCH  23  24
ENDBRANCH  22  23
ENDBRANCH  21  22
ENDBRANCH   2  21
BRANCH   3  26
HETATM   26  C           1      -6.133   0.869 -31.258  0.00  0.00     0.105 C 
HETATM   27  N           1      -5.812   0.317 -30.291  0.00  0.00    -0.151 N 
ENDBRANCH   3  26
BRANCH   1  28
HETATM   28  N           1      -7.480   3.112 -29.445  0.00  0.00    -0.388 N 
HETATM   29  H           1      -6.968   2.846 -28.569  0.00  0.00     0.157 HD
HETATM   30  H           1      -8.487   3.402 -29.371  0.00  0.00     0.157 HD
ENDBRANCH   1  28
BRANCH   7  31
HETATM   31  C           1      -9.565   1.783 -32.340  0.00  0.00    -0.026 A 
HETATM   32  C           1     -10.199   1.381 -33.458  0.00  0.00     0.009 A 
HETATM   33  C           1     -11.321   1.980 -33.887  0.00  0.00     0.001 A 
HETATM   34  C           1     -11.834   3.010 -33.200  0.00  0.00     0.000 A 
HETATM   35  C           1     -11.214   3.433 -32.089  0.00  0.00     0.001 A 
HETATM   36  C           1     -10.093   2.824 -31.669  0.00  0.00     0.009 A 
ENDBRANCH   7  31
TORSDOF 11
ENDMDL
MODEL 8
REMARK VINA RESULT:      -6.5      2.386      6.954
REMARK  11 active torsions:
REMARK  status: ('A' for Active; 'I' for Inactive)
REMARK    1  A    between atoms: C_1  and  C_17 
REMARK    2  A    between atoms: C_1  and  S_18 
REMARK    3  A    between atoms: C_2  and  N_23 
REMARK    4  A    between atoms: C_3  and  C_13 
REMARK    5  A    between atoms: C_6  and  S_18 
REMARK    6  A    between atoms: C_6  and  S_19 
REMARK    7  A    between atoms: C_7  and  C_20 
REMARK    8  A    between atoms: C_7  and  C_21 
REMARK    9  A    between atoms: C_9  and  C_24 
REMARK   10  A    between atoms: C_16  and  C_17 
REMARK   11  A    between atoms: S_19  and  C_20 
ROOT
HETATM    1  C           1      -8.644   1.418 -31.648  0.00  0.00     0.092 C 
HETATM    2  C           1      -8.274   3.451 -32.885  0.00  0.00     0.156 C 
HETATM    3  C           1      -7.160   1.649 -31.698  0.00  0.00     0.127 C 
HETATM    4  C           1      -6.992   2.545 -32.944  0.00  0.00     0.136 C 
HETATM    5  C           1      -7.022   1.762 -34.212  0.00  0.00     0.079 C 
HETATM    6  N           1      -6.957   1.112 -35.171  0.00  0.00    -0.196 NA
HETATM    7  C           1      -5.999   0.571 -31.628  0.00  0.00     0.248 C 
HETATM    8  C           1      -4.537   2.501 -32.233  0.00  0.00     0.105 C 
HETATM    9  N           1      -9.232   2.413 -32.261  0.00  0.00    -0.350 N 
HETATM   10  N           1      -4.611   1.273 -31.455  0.00  0.00    -0.040 N 
HETATM   11  C           1      -3.164   3.128 -32.273  0.00  0.00     0.075 C 
HETATM   12  C           1      -5.578   3.094 -32.866  0.00  0.00     0.036 C 
HETATM   13  H           1     -10.255   2.492 -32.328  0.00  0.00     0.163 HD
HETATM   14  H           1      -4.395   1.446 -30.451  0.00  0.00     0.284 HD
HETATM   15  H           1      -3.878   0.616 -31.810  0.00  0.00     0.284 HD
ENDROOT
BRANCH   2  16
HETATM   16  S           1      -8.932   3.903 -34.525  0.00  0.00    -0.125 SA
BRANCH  16  17
HETATM   17  C           1     -10.711   4.098 -34.205  0.00  0.00     0.077 C 
BRANCH  17  18
HETATM   18  C           1     -11.480   3.874 -35.518  0.00  0.00     0.010 C 
BRANCH  18  19
HETATM   19  C           1     -12.712   2.980 -35.305  0.00  0.00    -0.004 C 
HETATM   20  C           1     -12.320   1.522 -35.027  0.00  0.00     0.005 C 
ENDBRANCH  18  19
ENDBRANCH  17  18
ENDBRANCH  16  17
ENDBRANCH   2  16
BRANCH   2  21
HETATM   21  S           1      -8.027   4.834 -31.720  0.00  0.00    -0.125 SA
BRANCH  21  22
HETATM   22  C           1      -7.444   6.130 -32.857  0.00  0.00     0.077 C 
BRANCH  22  23
HETATM   23  C           1      -6.138   6.722 -32.303  0.00  0.00     0.010 C 
BRANCH  23  24
HETATM   24  C           1      -5.836   6.202 -30.888  0.00  0.00    -0.004 C 
HETATM   25  C           1      -4.331   6.195 -30.589  0.00  0.00     0.005 C 
ENDBRANCH  23  24
ENDBRANCH  22  23
ENDBRANCH  21  22
ENDBRANCH   2  21
BRANCH   3  26
HETATM   26  C           1      -6.738   2.358 -30.455  0.00  0.00     0.105 C 
HETATM   27  N           1      -7.228   2.661 -29.450  0.00  0.00    -0.151 N 
ENDBRANCH   3  26
BRANCH   1  28
HETATM   28  N           1      -9.239   0.478 -31.042  0.00  0.00    -0.388 N 
HETATM   29  H           1     -10.093   0.668 -30.463  0.00  0.00     0.157 HD
HETATM   30  H           1      -8.882  -0.508 -31.105  0.00  0.00     0.157 HD
ENDBRANCH   1  28
BRANCH   7  31
HETATM   31  C           1      -5.967  -0.459 -32.747  0.00  0.00    -0.026 A 
HETATM   32  C           1      -7.095  -1.116 -33.079  0.00  0.00     0.009 A 
HETATM   33  C           1      -7.113  -2.039 -34.054  0.00  0.00     0.001 A 
HETATM   34  C           1      -5.988  -2.331 -34.720  0.00  0.00     0.000 A 
HETATM   35  C           1      -4.851  -1.696 -34.399  0.00  0.00     0.001 A 
HETATM   36  C           1      -4.846  -0.773 -33.424  0.00  0.00     0.009 A 
ENDBRANCH   7  31
TORSDOF 11
ENDMDL
MODEL 9
REMARK VINA RESULT:      -6.4     16.324     18.852
REMARK  11 active torsions:
REMARK  status: ('A' for Active; 'I' for Inactive)
REMARK    1  A    between atoms: C_1  and  C_17 
REMARK    2  A    between atoms: C_1  and  S_18 
REMARK    3  A    between atoms: C_2  and  N_23 
REMARK    4  A    between atoms: C_3  and  C_13 
REMARK    5  A    between atoms: C_6  and  S_18 
REMARK    6  A    between atoms: C_6  and  S_19 
REMARK    7  A    between atoms: C_7  and  C_20 
REMARK    8  A    between atoms: C_7  and  C_21 
REMARK    9  A    between atoms: C_9  and  C_24 
REMARK   10  A    between atoms: C_16  and  C_17 
REMARK   11  A    between atoms: S_19  and  C_20 
ROOT
HETATM    1  C           1      -3.097 -14.315 -40.120  0.00  0.00     0.092 C 
HETATM    2  C           1      -3.302 -16.294 -38.762  0.00  0.00     0.156 C 
HETATM    3  C           1      -3.594 -13.883 -38.769  0.00  0.00     0.127 C 
HETATM    4  C           1      -4.250 -15.167 -38.216  0.00  0.00     0.136 C 
HETATM    5  C           1      -5.617 -15.387 -38.769  0.00  0.00     0.079 C 
HETATM    6  N           1      -6.710 -15.477 -39.147  0.00  0.00    -0.196 NA
HETATM    7  C           1      -4.471 -12.611 -38.410  0.00  0.00     0.248 C 
HETATM    8  C           1      -4.630 -13.689 -36.164  0.00  0.00     0.105 C 
HETATM    9  N           1      -2.912 -15.610 -40.090  0.00  0.00    -0.350 N 
HETATM   10  N           1      -4.538 -12.413 -36.859  0.00  0.00    -0.040 N 
HETATM   11  C           1      -4.895 -13.571 -34.683  0.00  0.00     0.075 C 
HETATM   12  C           1      -4.472 -14.907 -36.736  0.00  0.00     0.036 C 
HETATM   13  H           1      -2.542 -16.132 -40.896  0.00  0.00     0.163 HD
HETATM   14  H           1      -3.732 -11.849 -36.513  0.00  0.00     0.284 HD
HETATM   15  H           1      -5.401 -11.863 -36.647  0.00  0.00     0.284 HD
ENDROOT
BRANCH   2  16
HETATM   16  S           1      -4.164 -17.849 -39.167  0.00  0.00    -0.125 SA
BRANCH  16  17
HETATM   17  C           1      -3.967 -17.961 -40.971  0.00  0.00     0.077 C 
BRANCH  17  18
HETATM   18  C           1      -5.344 -17.793 -41.634  0.00  0.00     0.010 C 
BRANCH  18  19
HETATM   19  C           1      -5.258 -16.934 -42.906  0.00  0.00    -0.004 C 
HETATM   20  C           1      -5.622 -15.468 -42.632  0.00  0.00     0.005 C 
ENDBRANCH  18  19
ENDBRANCH  17  18
ENDBRANCH  16  17
ENDBRANCH   2  16
BRANCH   2  21
HETATM   21  S           1      -1.825 -16.457 -37.702  0.00  0.00    -0.125 SA
BRANCH  21  22
HETATM   22  C           1      -0.622 -17.108 -38.903  0.00  0.00     0.077 C 
BRANCH  22  23
HETATM   23  C           1       0.795 -16.903 -38.343  0.00  0.00     0.010 C 
BRANCH  23  24
HETATM   24  C           1       0.970 -15.497 -37.745  0.00  0.00    -0.004 C 
HETATM   25  C           1       1.848 -14.604 -38.632  0.00  0.00     0.005 C 
ENDBRANCH  23  24
ENDBRANCH  22  23
ENDBRANCH  21  22
ENDBRANCH   2  21
BRANCH   3  26
HETATM   26  C           1      -2.430 -13.462 -37.936  0.00  0.00     0.105 C 
HETATM   27  N           1      -1.458 -12.852 -38.093  0.00  0.00    -0.151 N 
ENDBRANCH   3  26
BRANCH   1  28
HETATM   28  N           1      -2.814 -13.558 -41.094  0.00  0.00    -0.388 N 
HETATM   29  H           1      -3.388 -13.574 -41.973  0.00  0.00     0.157 HD
HETATM   30  H           1      -1.995 -12.902 -41.042  0.00  0.00     0.157 HD
ENDBRANCH   1  28
BRANCH   7  31
HETATM   31  C           1      -5.855 -12.547 -39.040  0.00  0.00    -0.026 A 
HETATM   32  C           1      -5.974 -12.509 -40.380  0.00  0.00     0.009 A 
HETATM   33  C           1      -7.174 -12.444 -40.981  0.00  0.00     0.001 A 
HETATM   34  C           1      -8.290 -12.409 -40.241  0.00  0.00     0.000 A 
HETATM   35  C           1      -8.195 -12.436 -38.904  0.00  0.00     0.001 A 
HETATM   36  C           1      -6.990 -12.503 -38.315  0.00  0.00     0.009 A 
ENDBRANCH   7  31
TORSDOF 11
ENDMDL
MODEL 10
REMARK VINA RESULT:      -6.4      2.349      4.457
REMARK  11 active torsions:
REMARK  status: ('A' for Active; 'I' for Inactive)
REMARK    1  A    between atoms: C_1  and  C_17 
REMARK    2  A    between atoms: C_1  and  S_18 
REMARK    3  A    between atoms: C_2  and  N_23 
REMARK    4  A    between atoms: C_3  and  C_13 
REMARK    5  A    between atoms: C_6  and  S_18 
REMARK    6  A    between atoms: C_6  and  S_19 
REMARK    7  A    between atoms: C_7  and  C_20 
REMARK    8  A    between atoms: C_7  and  C_21 
REMARK    9  A    between atoms: C_9  and  C_24 
REMARK   10  A    between atoms: C_16  and  C_17 
REMARK   11  A    between atoms: S_19  and  C_20 
ROOT
HETATM    1  C           1      -6.167   1.708 -31.190  0.00  0.00     0.092 C 
HETATM    2  C           1      -7.912   1.451 -32.830  0.00  0.00     0.156 C 
HETATM    3  C           1      -6.715   3.077 -31.480  0.00  0.00     0.127 C 
HETATM    4  C           1      -7.333   2.910 -32.885  0.00  0.00     0.136 C 
HETATM    5  C           1      -6.307   2.973 -33.965  0.00  0.00     0.079 C 
HETATM    6  N           1      -5.497   3.120 -34.783  0.00  0.00    -0.196 NA
HETATM    7  C           1      -5.973   4.474 -31.361  0.00  0.00     0.248 C 
HETATM    8  C           1      -8.007   5.348 -32.513  0.00  0.00     0.105 C 
HETATM    9  N           1      -6.843   0.840 -31.897  0.00  0.00    -0.350 N 
HETATM   10  N           1      -6.994   5.650 -31.512  0.00  0.00    -0.040 N 
HETATM   11  C           1      -8.908   6.511 -32.854  0.00  0.00     0.075 C 
HETATM   12  C           1      -8.194   4.142 -33.102  0.00  0.00     0.036 C 
HETATM   13  H           1      -6.669  -0.172 -31.841  0.00  0.00     0.163 HD
HETATM   14  H           1      -7.426   5.898 -30.597  0.00  0.00     0.284 HD
HETATM   15  H           1      -6.462   6.492 -31.829  0.00  0.00     0.284 HD
ENDROOT
BRANCH   2  16
HETATM   16  S           1      -7.834   0.567 -34.422  0.00  0.00    -0.125 SA
BRANCH  16  17
HETATM   17  C           1      -7.307  -1.102 -33.932  0.00  0.00     0.077 C 
BRANCH  17  18
HETATM   18  C           1      -6.189  -1.569 -34.877  0.00  0.00     0.010 C 
BRANCH  18  19
HETATM   19  C           1      -5.730  -2.999 -34.547  0.00  0.00    -0.004 C 
HETATM   20  C           1      -6.754  -4.048 -35.002  0.00  0.00     0.005 C 
ENDBRANCH  18  19
ENDBRANCH  17  18
ENDBRANCH  16  17
ENDBRANCH   2  16
BRANCH   2  21
HETATM   21  S           1      -9.534   1.438 -31.992  0.00  0.00    -0.125 SA
BRANCH  21  22
HETATM   22  C           1     -10.569   0.674 -33.280  0.00  0.00     0.077 C 
BRANCH  22  23
HETATM   23  C           1     -11.616   1.700 -33.745  0.00  0.00     0.010 C 
BRANCH  23  24
HETATM   24  C           1     -12.771   1.027 -34.504  0.00  0.00    -0.004 C 
HETATM   25  C           1     -13.410  -0.105 -33.688  0.00  0.00     0.005 C 
ENDBRANCH  23  24
ENDBRANCH  22  23
ENDBRANCH  21  22
ENDBRANCH   2  21
BRANCH   3  26
HETATM   26  C           1      -7.754   3.409 -30.463  0.00  0.00     0.105 C 
HETATM   27  N           1      -7.819   3.450 -29.307  0.00  0.00    -0.151 N 
ENDBRANCH   3  26
BRANCH   1  28
HETATM   28  N           1      -5.271   1.421 -30.342  0.00  0.00    -0.388 N 
HETATM   29  H           1      -5.285   1.842 -29.381  0.00  0.00     0.157 HD
HETATM   30  H           1      -4.493   0.761 -30.590  0.00  0.00     0.157 HD
ENDBRANCH   1  28
BRANCH   7  31
HETATM   31  C           1      -4.760   4.671 -32.258  0.00  0.00    -0.026 A 
HETATM   32  C           1      -3.710   3.834 -32.150  0.00  0.00     0.009 A 
HETATM   33  C           1      -2.615   3.974 -32.914  0.00  0.00     0.001 A 
HETATM   34  C           1      -2.545   4.970 -33.808  0.00  0.00     0.000 A 
HETATM   35  C           1      -3.575   5.821 -33.925  0.00  0.00     0.001 A 
HETATM   36  C           1      -4.666   5.670 -33.157  0.00  0.00     0.009 A 
ENDBRANCH   7  31
TORSDOF 11
ENDMDL
