MODEL 1
REMARK VINA RESULT:      -8.7      0.000      0.000
REMARK  5 active torsions:
REMARK  status: ('A' for Active; 'I' for Inactive)
REMARK    1  A    between atoms: C_2  and  C_3 
REMARK    2  A    between atoms: C_7  and  C_8 
REMARK    3  A    between atoms: C_8  and  N_9 
REMARK       I    between atoms: N_9  and  C_10 
REMARK       I    between atoms: C_10  and  N_11 
REMARK    4  A    between atoms: N_11  and  C_12 
REMARK    5  A    between atoms: C_14  and  C_15 
ROOT
HETATM    1  N   UNL     1      -6.179   2.326 -33.186  1.00  0.00    -0.333 N 
HETATM    2  C   UNL     1      -6.267   1.145 -33.920  1.00  0.00     0.322 C 
HETATM    3  N   UNL     1      -5.717   0.050 -33.293  1.00  0.00    -0.309 N 
HETATM    4  O   UNL     1      -6.766   1.137 -35.043  1.00  0.00    -0.247 OA
HETATM    5  C   UNL     1      -6.064   2.406 -31.734  1.00  0.00     0.155 C 
HETATM    6  H   UNL     1      -5.095   0.263 -32.530  1.00  0.00     0.170 HD
ENDROOT
BRANCH   1   7
HETATM    7  C   UNL     1      -6.373   3.583 -33.897  1.00  0.00     0.185 C 
BRANCH   7   8
HETATM    8  C   UNL     1      -5.223   4.489 -33.674  1.00  0.00     0.047 A 
HETATM    9  N   UNL     1      -5.392   5.794 -33.304  1.00  0.00    -0.280 N 
HETATM   10  N   UNL     1      -4.237   6.467 -33.173  1.00  0.00    -0.178 NA
HETATM   11  H   UNL     1      -6.271   6.275 -33.121  1.00  0.00     0.189 HD
HETATM   12  C   UNL     1      -3.289   5.571 -33.483  1.00  0.00     0.064 A 
HETATM   13  C   UNL     1      -3.864   4.313 -33.799  1.00  0.00     0.058 A 
BRANCH  12  14
HETATM   14  C   UNL     1      -1.811   5.935 -33.487  1.00  0.00    -0.005 C 
HETATM   15  C   UNL     1      -1.579   7.453 -33.336  1.00  0.00     0.021 C 
HETATM   16  C   UNL     1      -1.167   5.485 -34.815  1.00  0.00     0.021 C 
HETATM   17  C   UNL     1      -1.092   5.227 -32.320  1.00  0.00     0.021 C 
ENDBRANCH  12  14
ENDBRANCH   7   8
ENDBRANCH   1   7
BRANCH   3  18
HETATM   18  C   UNL     1      -5.687  -1.285 -33.747  1.00  0.00     0.037 A 
HETATM   19  C   UNL     1      -4.667  -2.191 -33.444  1.00  0.00     0.045 A 
HETATM   20  C   UNL     1      -4.707  -3.512 -33.930  1.00  0.00     0.050 A 
HETATM   21  C   UNL     1      -5.791  -3.915 -34.723  1.00  0.00     0.016 A 
HETATM   22  C   UNL     1      -6.804  -3.015 -35.040  1.00  0.00     0.003 A 
HETATM   23  C   UNL     1      -6.748  -1.706 -34.558  1.00  0.00     0.029 A 
BRANCH  20  24
HETATM   24  C   UNL     1      -3.622  -4.494 -33.569  1.00  0.00     0.417 C 
HETATM   25  F   UNL     1      -4.093  -5.707 -33.169  1.00  0.00    -0.166 F 
HETATM   26  F   UNL     1      -2.780  -4.742 -34.611  1.00  0.00    -0.166 F 
HETATM   27  F   UNL     1      -2.829  -4.054 -32.551  1.00  0.00    -0.166 F 
ENDBRANCH  20  24
ENDBRANCH   3  18
TORSDOF 5
ENDMDL
MODEL 2
REMARK VINA RESULT:      -8.7      1.585      1.924
REMARK  5 active torsions:
REMARK  status: ('A' for Active; 'I' for Inactive)
REMARK    1  A    between atoms: C_2  and  C_3 
REMARK    2  A    between atoms: C_7  and  C_8 
REMARK    3  A    between atoms: C_8  and  N_9 
REMARK       I    between atoms: N_9  and  C_10 
REMARK       I    between atoms: C_10  and  N_11 
REMARK    4  A    between atoms: N_11  and  C_12 
REMARK    5  A    between atoms: C_14  and  C_15 
ROOT
HETATM    1  N   UNL     1      -5.926   1.804 -33.048  1.00  0.00    -0.333 N 
HETATM    2  C   UNL     1      -5.604   0.452 -32.957  1.00  0.00     0.322 C 
HETATM    3  N   UNL     1      -6.159  -0.327 -33.947  1.00  0.00    -0.309 N 
HETATM    4  O   UNL     1      -4.913   0.030 -32.033  1.00  0.00    -0.247 OA
HETATM    5  C   UNL     1      -6.307   2.497 -34.274  1.00  0.00     0.155 C 
HETATM    6  H   UNL     1      -6.925   0.097 -34.445  1.00  0.00     0.170 HD
ENDROOT
BRANCH   1   7
HETATM    7  C   UNL     1      -5.719   2.632 -31.867  1.00  0.00     0.185 C 
BRANCH   7   8
HETATM    8  C   UNL     1      -4.394   3.291 -31.918  1.00  0.00     0.047 A 
HETATM    9  N   UNL     1      -3.330   2.832 -31.194  1.00  0.00    -0.280 N 
HETATM   10  N   UNL     1      -2.219   3.572 -31.348  1.00  0.00    -0.178 NA
HETATM   11  H   UNL     1      -3.304   2.016 -30.584  1.00  0.00     0.189 HD
HETATM   12  C   UNL     1      -2.581   4.551 -32.190  1.00  0.00     0.064 A 
HETATM   13  C   UNL     1      -3.939   4.410 -32.577  1.00  0.00     0.058 A 
BRANCH  12  14
HETATM   14  C   UNL     1      -1.610   5.642 -32.616  1.00  0.00    -0.005 C 
HETATM   15  C   UNL     1      -2.209   7.056 -32.456  1.00  0.00     0.021 C 
HETATM   16  C   UNL     1      -1.228   5.451 -34.098  1.00  0.00     0.021 C 
HETATM   17  C   UNL     1      -0.329   5.571 -31.759  1.00  0.00     0.021 C 
ENDBRANCH  12  14
ENDBRANCH   7   8
ENDBRANCH   1   7
BRANCH   3  18
HETATM   18  C   UNL     1      -5.990  -1.711 -34.159  1.00  0.00     0.037 A 
HETATM   19  C   UNL     1      -4.850  -2.426 -33.783  1.00  0.00     0.045 A 
HETATM   20  C   UNL     1      -4.755  -3.811 -34.024  1.00  0.00     0.050 A 
HETATM   21  C   UNL     1      -5.825  -4.472 -34.643  1.00  0.00     0.016 A 
HETATM   22  C   UNL     1      -6.958  -3.763 -35.033  1.00  0.00     0.003 A 
HETATM   23  C   UNL     1      -7.036  -2.390 -34.796  1.00  0.00     0.029 A 
BRANCH  20  24
HETATM   24  C   UNL     1      -3.537  -4.582 -33.583  1.00  0.00     0.417 C 
HETATM   25  F   UNL     1      -2.793  -3.938 -32.641  1.00  0.00    -0.166 F 
HETATM   26  F   UNL     1      -3.856  -5.793 -33.047  1.00  0.00    -0.166 F 
HETATM   27  F   UNL     1      -2.679  -4.847 -34.609  1.00  0.00    -0.166 F 
ENDBRANCH  20  24
ENDBRANCH   3  18
TORSDOF 5
ENDMDL
MODEL 3
REMARK VINA RESULT:      -8.5      3.013      3.954
REMARK  5 active torsions:
REMARK  status: ('A' for Active; 'I' for Inactive)
REMARK    1  A    between atoms: C_2  and  C_3 
REMARK    2  A    between atoms: C_7  and  C_8 
REMARK    3  A    between atoms: C_8  and  N_9 
REMARK       I    between atoms: N_9  and  C_10 
REMARK       I    between atoms: C_10  and  N_11 
REMARK    4  A    between atoms: N_11  and  C_12 
REMARK    5  A    between atoms: C_14  and  C_15 
ROOT
HETATM    1  N   UNL     1      -5.120   4.140 -30.972  1.00  0.00    -0.333 N 
HETATM    2  C   UNL     1      -4.804   3.089 -31.831  1.00  0.00     0.322 C 
HETATM    3  N   UNL     1      -4.853   1.847 -31.242  1.00  0.00    -0.309 N 
HETATM    4  O   UNL     1      -4.476   3.305 -32.995  1.00  0.00    -0.247 OA
HETATM    5  C   UNL     1      -5.946   4.028 -29.776  1.00  0.00     0.155 C 
HETATM    6  H   UNL     1      -4.843   1.850 -30.235  1.00  0.00     0.170 HD
ENDROOT
BRANCH   1   7
HETATM    7  C   UNL     1      -4.730   5.486 -31.374  1.00  0.00     0.185 C 
BRANCH   7   8
HETATM    8  C   UNL     1      -3.460   5.877 -30.721  1.00  0.00     0.047 A 
HETATM    9  N   UNL     1      -3.437   6.601 -29.562  1.00  0.00    -0.280 N 
HETATM   10  N   UNL     1      -2.196   6.883 -29.132  1.00  0.00    -0.178 NA
HETATM   11  H   UNL     1      -4.237   6.923 -29.018  1.00  0.00     0.189 HD
HETATM   12  C   UNL     1      -1.389   6.336 -30.052  1.00  0.00     0.064 A 
HETATM   13  C   UNL     1      -2.142   5.689 -31.066  1.00  0.00     0.058 A 
BRANCH  12  14
HETATM   14  C   UNL     1       0.126   6.448 -29.960  1.00  0.00    -0.005 C 
HETATM   15  C   UNL     1       0.784   5.135 -29.485  1.00  0.00     0.021 C 
HETATM   16  C   UNL     1       0.507   7.560 -28.961  1.00  0.00     0.021 C 
HETATM   17  C   UNL     1       0.712   6.799 -31.343  1.00  0.00     0.021 C 
ENDBRANCH  12  14
ENDBRANCH   7   8
ENDBRANCH   1   7
BRANCH   3  18
HETATM   18  C   UNL     1      -4.634   0.591 -31.847  1.00  0.00     0.037 A 
HETATM   19  C   UNL     1      -5.460   0.042 -32.831  1.00  0.00     0.045 A 
HETATM   20  C   UNL     1      -5.175  -1.217 -33.392  1.00  0.00     0.050 A 
HETATM   21  C   UNL     1      -4.042  -1.919 -32.956  1.00  0.00     0.016 A 
HETATM   22  C   UNL     1      -3.222  -1.385 -31.966  1.00  0.00     0.003 A 
HETATM   23  C   UNL     1      -3.521  -0.139 -31.412  1.00  0.00     0.029 A 
BRANCH  20  24
HETATM   24  C   UNL     1      -6.050  -1.787 -34.480  1.00  0.00     0.417 C 
HETATM   25  F   UNL     1      -7.148  -2.442 -34.011  1.00  0.00    -0.166 F 
HETATM   26  F   UNL     1      -6.517  -0.826 -35.325  1.00  0.00    -0.166 F 
HETATM   27  F   UNL     1      -5.395  -2.685 -35.268  1.00  0.00    -0.166 F 
ENDBRANCH  20  24
ENDBRANCH   3  18
TORSDOF 5
ENDMDL
MODEL 4
REMARK VINA RESULT:      -8.5      3.894      6.457
REMARK  5 active torsions:
REMARK  status: ('A' for Active; 'I' for Inactive)
REMARK    1  A    between atoms: C_2  and  C_3 
REMARK    2  A    between atoms: C_7  and  C_8 
REMARK    3  A    between atoms: C_8  and  N_9 
REMARK       I    between atoms: N_9  and  C_10 
REMARK       I    between atoms: C_10  and  N_11 
REMARK    4  A    between atoms: N_11  and  C_12 
REMARK    5  A    between atoms: C_14  and  C_15 
ROOT
HETATM    1  N   UNL     1      -7.442   2.386 -32.759  1.00  0.00    -0.333 N 
HETATM    2  C   UNL     1      -6.910   1.117 -32.542  1.00  0.00     0.322 C 
HETATM    3  N   UNL     1      -6.318   0.558 -33.651  1.00  0.00    -0.309 N 
HETATM    4  O   UNL     1      -7.018   0.567 -31.448  1.00  0.00    -0.247 OA
HETATM    5  C   UNL     1      -7.001   3.318 -33.791  1.00  0.00     0.155 C 
HETATM    6  H   UNL     1      -6.564   0.987 -34.528  1.00  0.00     0.170 HD
ENDROOT
BRANCH   1   7
HETATM    7  C   UNL     1      -8.406   2.893 -31.790  1.00  0.00     0.185 C 
BRANCH   7   8
HETATM    8  C   UNL     1      -9.787   2.746 -32.304  1.00  0.00     0.047 A 
HETATM    9  N   UNL     1     -10.768   3.650 -32.007  1.00  0.00    -0.280 N 
HETATM   10  N   UNL     1     -11.961   3.339 -32.542  1.00  0.00    -0.178 NA
HETATM   11  H   UNL     1     -10.678   4.499 -31.452  1.00  0.00     0.189 HD
HETATM   12  C   UNL     1     -11.748   2.188 -33.194  1.00  0.00     0.064 A 
HETATM   13  C   UNL     1     -10.393   1.781 -33.075  1.00  0.00     0.058 A 
BRANCH  12  14
HETATM   14  C   UNL     1     -12.865   1.463 -33.930  1.00  0.00    -0.005 C 
HETATM   15  C   UNL     1     -14.264   1.965 -33.514  1.00  0.00     0.021 C 
HETATM   16  C   UNL     1     -12.793  -0.048 -33.631  1.00  0.00     0.021 C 
HETATM   17  C   UNL     1     -12.718   1.676 -35.451  1.00  0.00     0.021 C 
ENDBRANCH  12  14
ENDBRANCH   7   8
ENDBRANCH   1   7
BRANCH   3  18
HETATM   18  C   UNL     1      -5.654  -0.683 -33.747  1.00  0.00     0.037 A 
HETATM   19  C   UNL     1      -6.241  -1.848 -34.248  1.00  0.00     0.045 A 
HETATM   20  C   UNL     1      -5.512  -3.051 -34.318  1.00  0.00     0.050 A 
HETATM   21  C   UNL     1      -4.180  -3.069 -33.883  1.00  0.00     0.016 A 
HETATM   22  C   UNL     1      -3.592  -1.915 -33.370  1.00  0.00     0.003 A 
HETATM   23  C   UNL     1      -4.328  -0.732 -33.299  1.00  0.00     0.029 A 
BRANCH  20  24
HETATM   24  C   UNL     1      -6.141  -4.294 -34.893  1.00  0.00     0.417 C 
HETATM   25  F   UNL     1      -6.333  -4.237 -36.240  1.00  0.00    -0.166 F 
HETATM   26  F   UNL     1      -5.390  -5.407 -34.666  1.00  0.00    -0.166 F 
HETATM   27  F   UNL     1      -7.367  -4.561 -34.359  1.00  0.00    -0.166 F 
ENDBRANCH  20  24
ENDBRANCH   3  18
TORSDOF 5
ENDMDL
MODEL 5
REMARK VINA RESULT:      -8.5      2.125      2.754
REMARK  5 active torsions:
REMARK  status: ('A' for Active; 'I' for Inactive)
REMARK    1  A    between atoms: C_2  and  C_3 
REMARK    2  A    between atoms: C_7  and  C_8 
REMARK    3  A    between atoms: C_8  and  N_9 
REMARK       I    between atoms: N_9  and  C_10 
REMARK       I    between atoms: C_10  and  N_11 
REMARK    4  A    between atoms: N_11  and  C_12 
REMARK    5  A    between atoms: C_14  and  C_15 
ROOT
HETATM    1  N   UNL     1      -5.326   3.592 -31.583  1.00  0.00    -0.333 N 
HETATM    2  C   UNL     1      -5.616   2.709 -32.621  1.00  0.00     0.322 C 
HETATM    3  N   UNL     1      -5.685   1.390 -32.235  1.00  0.00    -0.309 N 
HETATM    4  O   UNL     1      -5.750   3.114 -33.773  1.00  0.00    -0.247 OA
HETATM    5  C   UNL     1      -5.600   3.349 -30.171  1.00  0.00     0.155 C 
HETATM    6  H   UNL     1      -5.268   1.183 -31.342  1.00  0.00     0.170 HD
ENDROOT
BRANCH   1   7
HETATM    7  C   UNL     1      -4.857   4.926 -31.937  1.00  0.00     0.185 C 
BRANCH   7   8
HETATM    8  C   UNL     1      -3.413   5.066 -31.639  1.00  0.00     0.047 A 
HETATM    9  N   UNL     1      -2.477   4.239 -32.194  1.00  0.00    -0.280 N 
HETATM   10  N   UNL     1      -1.223   4.501 -31.788  1.00  0.00    -0.178 NA
HETATM   11  H   UNL     1      -2.636   3.485 -32.861  1.00  0.00     0.189 HD
HETATM   12  C   UNL     1      -1.354   5.523 -30.930  1.00  0.00     0.064 A 
HETATM   13  C   UNL     1      -2.714   5.913 -30.810  1.00  0.00     0.058 A 
BRANCH  12  14
HETATM   14  C   UNL     1      -0.157   6.122 -30.207  1.00  0.00    -0.005 C 
HETATM   15  C   UNL     1      -0.576   7.067 -29.061  1.00  0.00     0.021 C 
HETATM   16  C   UNL     1       0.702   6.931 -31.201  1.00  0.00     0.021 C 
HETATM   17  C   UNL     1       0.709   4.998 -29.601  1.00  0.00     0.021 C 
ENDBRANCH  12  14
ENDBRANCH   7   8
ENDBRANCH   1   7
BRANCH   3  18
HETATM   18  C   UNL     1      -6.002   0.269 -33.030  1.00  0.00     0.037 A 
HETATM   19  C   UNL     1      -5.152  -0.825 -33.214  1.00  0.00     0.045 A 
HETATM   20  C   UNL     1      -5.540  -1.912 -34.020  1.00  0.00     0.050 A 
HETATM   21  C   UNL     1      -6.798  -1.891 -34.637  1.00  0.00     0.016 A 
HETATM   22  C   UNL     1      -7.645  -0.799 -34.470  1.00  0.00     0.003 A 
HETATM   23  C   UNL     1      -7.245   0.276 -33.675  1.00  0.00     0.029 A 
BRANCH  20  24
HETATM   24  C   UNL     1      -4.632  -3.105 -34.185  1.00  0.00     0.417 C 
HETATM   25  F   UNL     1      -5.299  -4.279 -34.362  1.00  0.00    -0.166 F 
HETATM   26  F   UNL     1      -3.799  -2.979 -35.255  1.00  0.00    -0.166 F 
HETATM   27  F   UNL     1      -3.820  -3.303 -33.107  1.00  0.00    -0.166 F 
ENDBRANCH  20  24
ENDBRANCH   3  18
TORSDOF 5
ENDMDL
MODEL 6
REMARK VINA RESULT:      -8.3      3.976      5.150
REMARK  5 active torsions:
REMARK  status: ('A' for Active; 'I' for Inactive)
REMARK    1  A    between atoms: C_2  and  C_3 
REMARK    2  A    between atoms: C_7  and  C_8 
REMARK    3  A    between atoms: C_8  and  N_9 
REMARK       I    between atoms: N_9  and  C_10 
REMARK       I    between atoms: C_10  and  N_11 
REMARK    4  A    between atoms: N_11  and  C_12 
REMARK    5  A    between atoms: C_14  and  C_15 
ROOT
HETATM    1  N   UNL     1      -3.395   4.856 -31.425  1.00  0.00    -0.333 N 
HETATM    2  C   UNL     1      -3.270   3.623 -32.064  1.00  0.00     0.322 C 
HETATM    3  N   UNL     1      -3.912   2.589 -31.423  1.00  0.00    -0.309 N 
HETATM    4  O   UNL     1      -2.602   3.511 -33.089  1.00  0.00    -0.247 OA
HETATM    5  C   UNL     1      -4.482   5.231 -30.528  1.00  0.00     0.155 C 
HETATM    6  H   UNL     1      -4.159   2.769 -30.463  1.00  0.00     0.170 HD
ENDROOT
BRANCH   1   7
HETATM    7  C   UNL     1      -2.458   5.910 -31.795  1.00  0.00     0.185 C 
BRANCH   7   8
HETATM    8  C   UNL     1      -1.610   6.281 -30.639  1.00  0.00     0.047 A 
HETATM    9  N   UNL     1      -0.719   5.405 -30.086  1.00  0.00    -0.280 N 
HETATM   10  N   UNL     1      -0.057   5.910 -29.032  1.00  0.00    -0.178 NA
HETATM   11  H   UNL     1      -0.517   4.454 -30.391  1.00  0.00     0.189 HD
HETATM   12  C   UNL     1      -0.547   7.150 -28.889  1.00  0.00     0.064 A 
HETATM   13  C   UNL     1      -1.522   7.426 -29.882  1.00  0.00     0.058 A 
BRANCH  12  14
HETATM   14  C   UNL     1      -0.079   8.075 -27.775  1.00  0.00    -0.005 C 
HETATM   15  C   UNL     1       1.427   8.398 -27.874  1.00  0.00     0.021 C 
HETATM   16  C   UNL     1      -0.335   7.413 -26.405  1.00  0.00     0.021 C 
HETATM   17  C   UNL     1      -0.855   9.407 -27.836  1.00  0.00     0.021 C 
ENDBRANCH  12  14
ENDBRANCH   7   8
ENDBRANCH   1   7
BRANCH   3  18
HETATM   18  C   UNL     1      -4.014   1.243 -31.834  1.00  0.00     0.037 A 
HETATM   19  C   UNL     1      -4.958   0.775 -32.751  1.00  0.00     0.045 A 
HETATM   20  C   UNL     1      -4.996  -0.584 -33.117  1.00  0.00     0.050 A 
HETATM   21  C   UNL     1      -4.066  -1.470 -32.553  1.00  0.00     0.016 A 
HETATM   22  C   UNL     1      -3.131  -1.013 -31.628  1.00  0.00     0.003 A 
HETATM   23  C   UNL     1      -3.110   0.336 -31.268  1.00  0.00     0.029 A 
BRANCH  20  24
HETATM   24  C   UNL     1      -5.994  -1.076 -34.134  1.00  0.00     0.417 C 
HETATM   25  F   UNL     1      -5.534  -2.104 -34.899  1.00  0.00    -0.166 F 
HETATM   26  F   UNL     1      -7.145  -1.521 -33.557  1.00  0.00    -0.166 F 
HETATM   27  F   UNL     1      -6.373  -0.105 -35.013  1.00  0.00    -0.166 F 
ENDBRANCH  20  24
ENDBRANCH   3  18
TORSDOF 5
ENDMDL
MODEL 7
REMARK VINA RESULT:      -8.2      2.242      3.030
REMARK  5 active torsions:
REMARK  status: ('A' for Active; 'I' for Inactive)
REMARK    1  A    between atoms: C_2  and  C_3 
REMARK    2  A    between atoms: C_7  and  C_8 
REMARK    3  A    between atoms: C_8  and  N_9 
REMARK       I    between atoms: N_9  and  C_10 
REMARK       I    between atoms: C_10  and  N_11 
REMARK    4  A    between atoms: N_11  and  C_12 
REMARK    5  A    between atoms: C_14  and  C_15 
ROOT
HETATM    1  N   UNL     1      -5.115   2.516 -32.303  1.00  0.00    -0.333 N 
HETATM    2  C   UNL     1      -4.610   1.231 -32.115  1.00  0.00     0.322 C 
HETATM    3  N   UNL     1      -5.086   0.302 -33.010  1.00  0.00    -0.309 N 
HETATM    4  O   UNL     1      -3.837   0.988 -31.190  1.00  0.00    -0.247 OA
HETATM    5  C   UNL     1      -5.627   3.041 -33.564  1.00  0.00     0.155 C 
HETATM    6  H   UNL     1      -5.918   0.575 -33.507  1.00  0.00     0.170 HD
ENDROOT
BRANCH   1   7
HETATM    7  C   UNL     1      -4.984   3.465 -31.205  1.00  0.00     0.185 C 
BRANCH   7   8
HETATM    8  C   UNL     1      -3.739   4.254 -31.344  1.00  0.00     0.047 A 
HETATM    9  N   UNL     1      -2.505   3.693 -31.171  1.00  0.00    -0.280 N 
HETATM   10  N   UNL     1      -1.495   4.568 -31.312  1.00  0.00    -0.178 NA
HETATM   11  H   UNL     1      -2.293   2.719 -30.962  1.00  0.00     0.189 HD
HETATM   12  C   UNL     1      -2.097   5.737 -31.572  1.00  0.00     0.064 A 
HETATM   13  C   UNL     1      -3.508   5.585 -31.606  1.00  0.00     0.058 A 
BRANCH  12  14
HETATM   14  C   UNL     1      -1.304   7.020 -31.777  1.00  0.00    -0.005 C 
HETATM   15  C   UNL     1       0.195   6.842 -31.455  1.00  0.00     0.021 C 
HETATM   16  C   UNL     1      -1.860   8.129 -30.859  1.00  0.00     0.021 C 
HETATM   17  C   UNL     1      -1.422   7.483 -33.244  1.00  0.00     0.021 C 
ENDBRANCH  12  14
ENDBRANCH   7   8
ENDBRANCH   1   7
BRANCH   3  18
HETATM   18  C   UNL     1      -4.737  -1.061 -33.114  1.00  0.00     0.037 A 
HETATM   19  C   UNL     1      -5.406  -1.980 -33.926  1.00  0.00     0.045 A 
HETATM   20  C   UNL     1      -4.997  -3.326 -33.982  1.00  0.00     0.050 A 
HETATM   21  C   UNL     1      -3.899  -3.739 -33.214  1.00  0.00     0.016 A 
HETATM   22  C   UNL     1      -3.235  -2.832 -32.392  1.00  0.00     0.003 A 
HETATM   23  C   UNL     1      -3.657  -1.503 -32.340  1.00  0.00     0.029 A 
BRANCH  20  24
HETATM   24  C   UNL     1      -5.702  -4.304 -34.888  1.00  0.00     0.417 C 
HETATM   25  F   UNL     1      -5.053  -5.493 -35.019  1.00  0.00    -0.166 F 
HETATM   26  F   UNL     1      -6.956  -4.605 -34.450  1.00  0.00    -0.166 F 
HETATM   27  F   UNL     1      -5.858  -3.829 -36.157  1.00  0.00    -0.166 F 
ENDBRANCH  20  24
ENDBRANCH   3  18
TORSDOF 5
ENDMDL
MODEL 8
REMARK VINA RESULT:      -8.2      1.621      2.305
REMARK  5 active torsions:
REMARK  status: ('A' for Active; 'I' for Inactive)
REMARK    1  A    between atoms: C_2  and  C_3 
REMARK    2  A    between atoms: C_7  and  C_8 
REMARK    3  A    between atoms: C_8  and  N_9 
REMARK       I    between atoms: N_9  and  C_10 
REMARK       I    between atoms: C_10  and  N_11 
REMARK    4  A    between atoms: N_11  and  C_12 
REMARK    5  A    between atoms: C_14  and  C_15 
ROOT
HETATM    1  N   UNL     1      -7.478   2.606 -33.152  1.00  0.00    -0.333 N 
HETATM    2  C   UNL     1      -6.855   1.574 -33.851  1.00  0.00     0.322 C 
HETATM    3  N   UNL     1      -6.499   0.499 -33.070  1.00  0.00    -0.309 N 
HETATM    4  O   UNL     1      -6.629   1.678 -35.055  1.00  0.00    -0.247 OA
HETATM    5  C   UNL     1      -8.209   2.450 -31.899  1.00  0.00     0.155 C 
HETATM    6  H   UNL     1      -6.477   0.680 -32.080  1.00  0.00     0.170 HD
ENDROOT
BRANCH   1   7
HETATM    7  C   UNL     1      -7.543   3.916 -33.788  1.00  0.00     0.185 C 
BRANCH   7   8
HETATM    8  C   UNL     1      -6.271   4.650 -33.599  1.00  0.00     0.047 A 
HETATM    9  N   UNL     1      -6.244   5.973 -33.261  1.00  0.00    -0.280 N 
HETATM   10  N   UNL     1      -5.001   6.474 -33.158  1.00  0.00    -0.178 NA
HETATM   11  H   UNL     1      -7.041   6.582 -33.081  1.00  0.00     0.189 HD
HETATM   12  C   UNL     1      -4.198   5.443 -33.455  1.00  0.00     0.064 A 
HETATM   13  C   UNL     1      -4.954   4.275 -33.734  1.00  0.00     0.058 A 
BRANCH  12  14
HETATM   14  C   UNL     1      -2.683   5.588 -33.482  1.00  0.00    -0.005 C 
HETATM   15  C   UNL     1      -2.081   5.201 -34.850  1.00  0.00     0.021 C 
HETATM   16  C   UNL     1      -2.052   4.676 -32.409  1.00  0.00     0.021 C 
HETATM   17  C   UNL     1      -2.289   7.050 -33.187  1.00  0.00     0.021 C 
ENDBRANCH  12  14
ENDBRANCH   7   8
ENDBRANCH   1   7
BRANCH   3  18
HETATM   18  C   UNL     1      -5.899  -0.710 -33.480  1.00  0.00     0.037 A 
HETATM   19  C   UNL     1      -6.614  -1.828 -33.919  1.00  0.00     0.045 A 
HETATM   20  C   UNL     1      -5.945  -3.001 -34.317  1.00  0.00     0.050 A 
HETATM   21  C   UNL     1      -4.544  -3.036 -34.277  1.00  0.00     0.016 A 
HETATM   22  C   UNL     1      -3.826  -1.931 -33.829  1.00  0.00     0.003 A 
HETATM   23  C   UNL     1      -4.501  -0.777 -33.429  1.00  0.00     0.029 A 
BRANCH  20  24
HETATM   24  C   UNL     1      -6.721  -4.190 -34.823  1.00  0.00     0.417 C 
HETATM   25  F   UNL     1      -7.263  -4.005 -36.058  1.00  0.00    -0.166 F 
HETATM   26  F   UNL     1      -5.952  -5.311 -34.913  1.00  0.00    -0.166 F 
HETATM   27  F   UNL     1      -7.765  -4.523 -34.011  1.00  0.00    -0.166 F 
ENDBRANCH  20  24
ENDBRANCH   3  18
TORSDOF 5
ENDMDL
MODEL 9
REMARK VINA RESULT:      -7.9      2.756      4.975
REMARK  5 active torsions:
REMARK  status: ('A' for Active; 'I' for Inactive)
REMARK    1  A    between atoms: C_2  and  C_3 
REMARK    2  A    between atoms: C_7  and  C_8 
REMARK    3  A    between atoms: C_8  and  N_9 
REMARK       I    between atoms: N_9  and  C_10 
REMARK       I    between atoms: C_10  and  N_11 
REMARK    4  A    between atoms: N_11  and  C_12 
REMARK    5  A    between atoms: C_14  and  C_15 
ROOT
HETATM    1  N   UNL     1      -5.948   1.888 -31.886  1.00  0.00    -0.333 N 
HETATM    2  C   UNL     1      -6.201   0.543 -32.151  1.00  0.00     0.322 C 
HETATM    3  N   UNL     1      -5.501   0.039 -33.223  1.00  0.00    -0.309 N 
HETATM    4  O   UNL     1      -7.016  -0.087 -31.483  1.00  0.00    -0.247 OA
HETATM    5  C   UNL     1      -4.730   2.602 -32.252  1.00  0.00     0.155 C 
HETATM    6  H   UNL     1      -5.110   0.731 -33.842  1.00  0.00     0.170 HD
ENDROOT
BRANCH   1   7
HETATM    7  C   UNL     1      -6.898   2.604 -31.045  1.00  0.00     0.185 C 
BRANCH   7   8
HETATM    8  C   UNL     1      -8.023   3.124 -31.856  1.00  0.00     0.047 A 
HETATM    9  N   UNL     1      -8.058   4.416 -32.298  1.00  0.00    -0.280 N 
HETATM   10  N   UNL     1      -9.167   4.712 -32.996  1.00  0.00    -0.178 NA
HETATM   11  H   UNL     1      -7.351   5.137 -32.159  1.00  0.00     0.189 HD
HETATM   12  C   UNL     1      -9.880   3.577 -32.993  1.00  0.00     0.064 A 
HETATM   13  C   UNL     1      -9.195   2.551 -32.292  1.00  0.00     0.058 A 
BRANCH  12  14
HETATM   14  C   UNL     1     -11.243   3.483 -33.664  1.00  0.00    -0.005 C 
HETATM   15  C   UNL     1     -12.297   4.378 -32.978  1.00  0.00     0.021 C 
HETATM   16  C   UNL     1     -11.749   2.027 -33.613  1.00  0.00     0.021 C 
HETATM   17  C   UNL     1     -11.135   3.921 -35.139  1.00  0.00     0.021 C 
ENDBRANCH  12  14
ENDBRANCH   7   8
ENDBRANCH   1   7
BRANCH   3  18
HETATM   18  C   UNL     1      -5.500  -1.283 -33.715  1.00  0.00     0.037 A 
HETATM   19  C   UNL     1      -4.536  -2.239 -33.384  1.00  0.00     0.045 A 
HETATM   20  C   UNL     1      -4.603  -3.544 -33.911  1.00  0.00     0.050 A 
HETATM   21  C   UNL     1      -5.658  -3.879 -34.772  1.00  0.00     0.016 A 
HETATM   22  C   UNL     1      -6.615  -2.928 -35.116  1.00  0.00     0.003 A 
HETATM   23  C   UNL     1      -6.531  -1.637 -34.593  1.00  0.00     0.029 A 
BRANCH  20  24
HETATM   24  C   UNL     1      -3.580  -4.580 -33.522  1.00  0.00     0.417 C 
HETATM   25  F   UNL     1      -4.125  -5.752 -33.092  1.00  0.00    -0.166 F 
HETATM   26  F   UNL     1      -2.753  -4.905 -34.554  1.00  0.00    -0.166 F 
HETATM   27  F   UNL     1      -2.764  -4.163 -32.512  1.00  0.00    -0.166 F 
ENDBRANCH  20  24
ENDBRANCH   3  18
TORSDOF 5
ENDMDL
MODEL 10
REMARK VINA RESULT:      -7.9      5.223      6.470
REMARK  5 active torsions:
REMARK  status: ('A' for Active; 'I' for Inactive)
REMARK    1  A    between atoms: C_2  and  C_3 
REMARK    2  A    between atoms: C_7  and  C_8 
REMARK    3  A    between atoms: C_8  and  N_9 
REMARK       I    between atoms: N_9  and  C_10 
REMARK       I    between atoms: C_10  and  N_11 
REMARK    4  A    between atoms: N_11  and  C_12 
REMARK    5  A    between atoms: C_14  and  C_15 
ROOT
HETATM    1  N   UNL     1      -6.759   0.586 -31.990  1.00  0.00    -0.333 N 
HETATM    2  C   UNL     1      -7.996   1.213 -32.126  1.00  0.00     0.322 C 
HETATM    3  N   UNL     1      -8.633   0.949 -33.317  1.00  0.00    -0.309 N 
HETATM    4  O   UNL     1      -8.422   1.962 -31.250  1.00  0.00    -0.247 OA
HETATM    5  C   UNL     1      -6.357  -0.636 -32.678  1.00  0.00     0.155 C 
HETATM    6  H   UNL     1      -8.045   0.572 -34.042  1.00  0.00     0.170 HD
ENDROOT
BRANCH   1   7
HETATM    7  C   UNL     1      -5.850   1.091 -30.970  1.00  0.00     0.185 C 
BRANCH   7   8
HETATM    8  C   UNL     1      -4.895   2.059 -31.556  1.00  0.00     0.047 A 
HETATM    9  N   UNL     1      -3.561   2.027 -31.262  1.00  0.00    -0.280 N 
HETATM   10  N   UNL     1      -2.857   2.997 -31.868  1.00  0.00    -0.178 NA
HETATM   11  H   UNL     1      -3.077   1.362 -30.661  1.00  0.00     0.189 HD
HETATM   12  C   UNL     1      -3.768   3.689 -32.566  1.00  0.00     0.064 A 
HETATM   13  C   UNL     1      -5.062   3.131 -32.403  1.00  0.00     0.058 A 
BRANCH  12  14
HETATM   14  C   UNL     1      -3.389   4.911 -33.391  1.00  0.00    -0.005 C 
HETATM   15  C   UNL     1      -1.941   4.837 -33.919  1.00  0.00     0.021 C 
HETATM   16  C   UNL     1      -3.517   6.183 -32.527  1.00  0.00     0.021 C 
HETATM   17  C   UNL     1      -4.332   5.038 -34.606  1.00  0.00     0.021 C 
ENDBRANCH  12  14
ENDBRANCH   7   8
ENDBRANCH   1   7
BRANCH   3  18
HETATM   18  C   UNL     1      -9.906   1.391 -33.736  1.00  0.00     0.037 A 
HETATM   19  C   UNL     1     -11.091   0.686 -33.513  1.00  0.00     0.045 A 
HETATM   20  C   UNL     1     -12.327   1.193 -33.959  1.00  0.00     0.050 A 
HETATM   21  C   UNL     1     -12.359   2.425 -34.627  1.00  0.00     0.016 A 
HETATM   22  C   UNL     1     -11.181   3.127 -34.864  1.00  0.00     0.003 A 
HETATM   23  C   UNL     1      -9.961   2.609 -34.425  1.00  0.00     0.029 A 
BRANCH  20  24
HETATM   24  C   UNL     1     -13.606   0.443 -33.683  1.00  0.00     0.417 C 
HETATM   25  F   UNL     1     -13.409  -0.840 -33.272  1.00  0.00    -0.166 F 
HETATM   26  F   UNL     1     -14.356   1.038 -32.715  1.00  0.00    -0.166 F 
HETATM   27  F   UNL     1     -14.414   0.359 -34.778  1.00  0.00    -0.166 F 
ENDBRANCH  20  24
ENDBRANCH   3  18
TORSDOF 5
ENDMDL
