MODEL 1
REMARK VINA RESULT:      -8.1      0.000      0.000
REMARK  4 active torsions:
REMARK  status: ('A' for Active; 'I' for Inactive)
REMARK    1  A    between atoms: O_2  and  C_3 
REMARK    2  A    between atoms: C_4  and  O_5 
REMARK    3  A    between atoms: C_8  and  C_9 
REMARK    4  A    between atoms: C_9  and  N_10 
ROOT
HETATM    1  N   UNL     1      -6.630   2.131 -32.529  1.00  0.00    -0.066 N 
HETATM    2  H   UNL     1      -7.230   1.304 -32.389  1.00  0.00     0.280 HD
HETATM    3  C   UNL     1      -5.908   2.315 -31.206  1.00  0.00     0.246 C 
HETATM    4  C   UNL     1      -5.434   3.763 -30.959  1.00  0.00     0.062 C 
HETATM    5  C   UNL     1      -6.620   4.712 -31.076  1.00  0.00     0.020 C 
HETATM    6  C   UNL     1      -7.124   4.641 -32.510  1.00  0.00     0.031 C 
HETATM    7  C   UNL     1      -6.038   5.147 -33.459  1.00  0.00     0.138 C 
HETATM    8  N   UNL     1      -4.669   4.740 -33.145  1.00  0.00    -0.317 N 
HETATM    9  C   UNL     1      -4.328   4.175 -31.913  1.00  0.00     0.020 A 
HETATM   10  C   UNL     1      -3.034   3.983 -31.603  1.00  0.00     0.026 A 
HETATM   11  C   UNL     1      -3.703   5.082 -34.104  1.00  0.00     0.247 A 
HETATM   12  O   UNL     1      -3.976   5.514 -35.221  1.00  0.00    -0.268 OA
HETATM   13  C   UNL     1      -2.289   4.858 -33.726  1.00  0.00     0.074 A 
HETATM   14  C   UNL     1      -1.991   4.342 -32.529  1.00  0.00     0.007 A 
HETATM   15  C   UNL     1      -7.613   3.232 -32.851  1.00  0.00     0.241 C 
ENDROOT
BRANCH   1  16
HETATM   16  C   UNL     1      -5.720   1.646 -33.648  1.00  0.00     0.274 C 
BRANCH  16  17
HETATM   17  C   UNL     1      -5.688   0.156 -33.877  1.00  0.00    -0.012 A 
HETATM   18  C   UNL     1      -4.667  -0.676 -33.388  1.00  0.00     0.054 A 
HETATM   19  C   UNL     1      -4.713  -2.053 -33.635  1.00  0.00     0.117 A 
HETATM   20 BR   UNL     1      -3.217   0.044 -32.380  1.00  0.00    -0.047 Br
HETATM   21  C   UNL     1      -5.746  -2.625 -34.389  1.00  0.00     0.102 A 
HETATM   22  C   UNL     1      -6.754  -1.805 -34.885  1.00  0.00     0.040 A 
HETATM   23  C   UNL     1      -6.725  -0.429 -34.630  1.00  0.00     0.013 A 
BRANCH  19  24
HETATM   24  O   UNL     1      -3.736  -2.874 -33.133  1.00  0.00    -0.357 OA
HETATM   25  H   UNL     1      -3.843  -3.733 -33.591  1.00  0.00     0.218 HD
ENDBRANCH  19  24
BRANCH  21  26
HETATM   26  O   UNL     1      -5.658  -3.982 -34.558  1.00  0.00    -0.353 OA
HETATM   27  C   UNL     1      -6.614  -4.585 -35.425  1.00  0.00     0.210 C 
ENDBRANCH  21  26
ENDBRANCH  16  17
ENDBRANCH   1  16
TORSDOF 4
ENDMDL
MODEL 2
REMARK VINA RESULT:      -7.9      2.063      6.608
REMARK  4 active torsions:
REMARK  status: ('A' for Active; 'I' for Inactive)
REMARK    1  A    between atoms: O_2  and  C_3 
REMARK    2  A    between atoms: C_4  and  O_5 
REMARK    3  A    between atoms: C_8  and  C_9 
REMARK    4  A    between atoms: C_9  and  N_10 
ROOT
HETATM    1  N   UNL     1      -7.077   2.598 -32.886  1.00  0.00    -0.066 N 
HETATM    2  H   UNL     1      -7.251   3.610 -32.978  1.00  0.00     0.280 HD
HETATM    3  C   UNL     1      -8.146   1.941 -33.742  1.00  0.00     0.246 C 
HETATM    4  C   UNL     1      -8.472   0.493 -33.316  1.00  0.00     0.062 C 
HETATM    5  C   UNL     1      -8.855   0.472 -31.842  1.00  0.00     0.020 C 
HETATM    6  C   UNL     1      -7.636   0.913 -31.045  1.00  0.00     0.031 C 
HETATM    7  C   UNL     1      -6.507  -0.098 -31.237  1.00  0.00     0.138 C 
HETATM    8  N   UNL     1      -6.343  -0.628 -32.591  1.00  0.00    -0.317 N 
HETATM    9  C   UNL     1      -7.317  -0.455 -33.578  1.00  0.00     0.020 A 
HETATM   10  C   UNL     1      -7.204  -1.109 -34.747  1.00  0.00     0.026 A 
HETATM   11  C   UNL     1      -5.212  -1.436 -32.789  1.00  0.00     0.247 A 
HETATM   12  O   UNL     1      -4.306  -1.551 -31.968  1.00  0.00    -0.268 OA
HETATM   13  C   UNL     1      -5.124  -2.141 -34.088  1.00  0.00     0.074 A 
HETATM   14  C   UNL     1      -6.085  -1.979 -35.003  1.00  0.00     0.007 A 
HETATM   15  C   UNL     1      -7.232   2.344 -31.405  1.00  0.00     0.241 C 
ENDROOT
BRANCH   1  16
HETATM   16  C   UNL     1      -5.680   2.487 -33.480  1.00  0.00     0.274 C 
BRANCH  16  17
HETATM   17  C   UNL     1      -4.714   3.583 -33.109  1.00  0.00    -0.012 A 
HETATM   18  C   UNL     1      -3.657   3.402 -32.201  1.00  0.00     0.054 A 
HETATM   19  C   UNL     1      -2.795   4.467 -31.915  1.00  0.00     0.117 A 
HETATM   20 BR   UNL     1      -3.370   1.717 -31.356  1.00  0.00    -0.047 Br
HETATM   21  C   UNL     1      -2.978   5.730 -32.493  1.00  0.00     0.102 A 
HETATM   22  C   UNL     1      -4.030   5.918 -33.384  1.00  0.00     0.040 A 
HETATM   23  C   UNL     1      -4.887   4.855 -33.689  1.00  0.00     0.013 A 
BRANCH  19  24
HETATM   24  O   UNL     1      -1.742   4.288 -31.054  1.00  0.00    -0.357 OA
HETATM   25  H   UNL     1      -1.469   5.184 -30.771  1.00  0.00     0.218 HD
ENDBRANCH  19  24
BRANCH  21  26
HETATM   26  O   UNL     1      -2.066   6.679 -32.115  1.00  0.00    -0.353 OA
HETATM   27  C   UNL     1      -1.167   7.143 -33.118  1.00  0.00     0.210 C 
ENDBRANCH  21  26
ENDBRANCH  16  17
ENDBRANCH   1  16
TORSDOF 4
ENDMDL
MODEL 3
REMARK VINA RESULT:      -7.7      1.924      2.794
REMARK  4 active torsions:
REMARK  status: ('A' for Active; 'I' for Inactive)
REMARK    1  A    between atoms: O_2  and  C_3 
REMARK    2  A    between atoms: C_4  and  O_5 
REMARK    3  A    between atoms: C_8  and  C_9 
REMARK    4  A    between atoms: C_9  and  N_10 
ROOT
HETATM    1  N   UNL     1      -8.320   0.525 -33.426  1.00  0.00    -0.066 N 
HETATM    2  H   UNL     1      -8.474  -0.469 -33.651  1.00  0.00     0.280 HD
HETATM    3  C   UNL     1      -8.491   0.614 -31.920  1.00  0.00     0.246 C 
HETATM    4  C   UNL     1      -8.892   2.021 -31.428  1.00  0.00     0.062 C 
HETATM    5  C   UNL     1     -10.153   2.472 -32.154  1.00  0.00     0.020 C 
HETATM    6  C   UNL     1      -9.813   2.592 -33.632  1.00  0.00     0.031 C 
HETATM    7  C   UNL     1      -8.759   3.681 -33.827  1.00  0.00     0.138 C 
HETATM    8  N   UNL     1      -7.694   3.731 -32.826  1.00  0.00    -0.317 N 
HETATM    9  C   UNL     1      -7.779   3.034 -31.618  1.00  0.00     0.020 A 
HETATM   10  C   UNL     1      -6.864   3.252 -30.657  1.00  0.00     0.026 A 
HETATM   11  C   UNL     1      -6.653   4.632 -33.098  1.00  0.00     0.247 A 
HETATM   12  O   UNL     1      -6.514   5.206 -34.175  1.00  0.00    -0.268 OA
HETATM   13  C   UNL     1      -5.666   4.847 -32.016  1.00  0.00     0.074 A 
HETATM   14  C   UNL     1      -5.788   4.187 -30.860  1.00  0.00     0.007 A 
HETATM   15  C   UNL     1      -9.396   1.239 -34.211  1.00  0.00     0.241 C 
ENDROOT
BRANCH   1  16
HETATM   16  C   UNL     1      -6.878   0.705 -33.879  1.00  0.00     0.274 C 
BRANCH  16  17
HETATM   17  C   UNL     1      -6.029  -0.540 -33.898  1.00  0.00    -0.012 A 
HETATM   18  C   UNL     1      -4.928  -0.734 -33.047  1.00  0.00     0.054 A 
HETATM   19  C   UNL     1      -4.195  -1.924 -33.119  1.00  0.00     0.117 A 
HETATM   20 BR   UNL     1      -4.422   0.600 -31.782  1.00  0.00    -0.047 Br
HETATM   21  C   UNL     1      -4.514  -2.924 -34.047  1.00  0.00     0.102 A 
HETATM   22  C   UNL     1      -5.596  -2.732 -34.899  1.00  0.00     0.040 A 
HETATM   23  C   UNL     1      -6.346  -1.554 -34.824  1.00  0.00     0.013 A 
BRANCH  19  24
HETATM   24  O   UNL     1      -3.139  -2.133 -32.268  1.00  0.00    -0.357 OA
HETATM   25  H   UNL     1      -3.421  -2.842 -31.655  1.00  0.00     0.218 HD
ENDBRANCH  19  24
BRANCH  21  26
HETATM   26  O   UNL     1      -3.705  -4.029 -34.010  1.00  0.00    -0.353 OA
HETATM   27  C   UNL     1      -4.349  -5.295 -33.907  1.00  0.00     0.210 C 
ENDBRANCH  21  26
ENDBRANCH  16  17
ENDBRANCH   1  16
TORSDOF 4
ENDMDL
MODEL 4
REMARK VINA RESULT:      -7.3      3.367      5.048
REMARK  4 active torsions:
REMARK  status: ('A' for Active; 'I' for Inactive)
REMARK    1  A    between atoms: O_2  and  C_3 
REMARK    2  A    between atoms: C_4  and  O_5 
REMARK    3  A    between atoms: C_8  and  C_9 
REMARK    4  A    between atoms: C_9  and  N_10 
ROOT
HETATM    1  N   UNL     1      -3.729   5.481 -32.392  1.00  0.00    -0.066 N 
HETATM    2  H   UNL     1      -4.699   5.264 -32.664  1.00  0.00     0.280 HD
HETATM    3  C   UNL     1      -3.759   6.942 -31.978  1.00  0.00     0.246 C 
HETATM    4  C   UNL     1      -2.391   7.645 -32.100  1.00  0.00     0.062 C 
HETATM    5  C   UNL     1      -1.863   7.485 -33.521  1.00  0.00     0.020 C 
HETATM    6  C   UNL     1      -1.630   6.001 -33.758  1.00  0.00     0.031 C 
HETATM    7  C   UNL     1      -0.545   5.495 -32.809  1.00  0.00     0.138 C 
HETATM    8  N   UNL     1      -0.592   6.018 -31.444  1.00  0.00    -0.317 N 
HETATM    9  C   UNL     1      -1.383   7.117 -31.097  1.00  0.00     0.020 A 
HETATM   10  C   UNL     1      -1.257   7.670 -29.878  1.00  0.00     0.026 A 
HETATM   11  C   UNL     1       0.313   5.434 -30.543  1.00  0.00     0.247 A 
HETATM   12  O   UNL     1       0.969   4.427 -30.795  1.00  0.00    -0.268 OA
HETATM   13  C   UNL     1       0.424   6.072 -29.211  1.00  0.00     0.074 A 
HETATM   14  C   UNL     1      -0.325   7.139 -28.918  1.00  0.00     0.007 A 
HETATM   15  C   UNL     1      -2.938   5.215 -33.652  1.00  0.00     0.241 C 
ENDROOT
BRANCH   1  16
HETATM   16  C   UNL     1      -3.535   4.528 -31.221  1.00  0.00     0.274 C 
BRANCH  16  17
HETATM   17  C   UNL     1      -4.200   3.181 -31.346  1.00  0.00    -0.012 A 
HETATM   18  C   UNL     1      -5.443   2.881 -30.765  1.00  0.00     0.054 A 
HETATM   19  C   UNL     1      -6.000   1.608 -30.935  1.00  0.00     0.117 A 
HETATM   20 BR   UNL     1      -6.394   4.189 -29.755  1.00  0.00    -0.047 Br
HETATM   21  C   UNL     1      -5.330   0.606 -31.649  1.00  0.00     0.102 A 
HETATM   22  C   UNL     1      -4.093   0.895 -32.216  1.00  0.00     0.040 A 
HETATM   23  C   UNL     1      -3.535   2.170 -32.067  1.00  0.00     0.013 A 
BRANCH  19  24
HETATM   24  O   UNL     1      -7.229   1.318 -30.398  1.00  0.00    -0.357 OA
HETATM   25  H   UNL     1      -7.258   1.770 -29.530  1.00  0.00     0.218 HD
ENDBRANCH  19  24
BRANCH  21  26
HETATM   26  O   UNL     1      -5.989  -0.592 -31.726  1.00  0.00    -0.353 OA
HETATM   27  C   UNL     1      -6.447  -0.993 -33.014  1.00  0.00     0.210 C 
ENDBRANCH  21  26
ENDBRANCH  16  17
ENDBRANCH   1  16
TORSDOF 4
ENDMDL
MODEL 5
REMARK VINA RESULT:      -7.3      2.230      3.913
REMARK  4 active torsions:
REMARK  status: ('A' for Active; 'I' for Inactive)
REMARK    1  A    between atoms: O_2  and  C_3 
REMARK    2  A    between atoms: C_4  and  O_5 
REMARK    3  A    between atoms: C_8  and  C_9 
REMARK    4  A    between atoms: C_9  and  N_10 
ROOT
HETATM    1  N   UNL     1      -5.252   2.410 -32.392  1.00  0.00    -0.066 N 
HETATM    2  H   UNL     1      -4.302   2.015 -32.476  1.00  0.00     0.280 HD
HETATM    3  C   UNL     1      -5.607   2.867 -33.796  1.00  0.00     0.246 C 
HETATM    4  C   UNL     1      -6.671   3.985 -33.827  1.00  0.00     0.062 C 
HETATM    5  C   UNL     1      -6.205   5.154 -32.968  1.00  0.00     0.020 C 
HETATM    6  C   UNL     1      -6.114   4.659 -31.532  1.00  0.00     0.031 C 
HETATM    7  C   UNL     1      -7.504   4.257 -31.041  1.00  0.00     0.138 C 
HETATM    8  N   UNL     1      -8.346   3.550 -32.006  1.00  0.00    -0.317 N 
HETATM    9  C   UNL     1      -8.031   3.497 -33.366  1.00  0.00     0.020 A 
HETATM   10  C   UNL     1      -8.923   2.992 -34.237  1.00  0.00     0.026 A 
HETATM   11  C   UNL     1      -9.557   3.054 -31.498  1.00  0.00     0.247 A 
HETATM   12  O   UNL     1      -9.832   3.024 -30.302  1.00  0.00    -0.268 OA
HETATM   13  C   UNL     1     -10.514   2.508 -32.488  1.00  0.00     0.074 A 
HETATM   14  C   UNL     1     -10.197   2.495 -33.787  1.00  0.00     0.007 A 
HETATM   15  C   UNL     1      -5.081   3.538 -31.402  1.00  0.00     0.241 C 
ENDROOT
BRANCH   1  16
HETATM   16  C   UNL     1      -6.036   1.186 -31.942  1.00  0.00     0.274 C 
BRANCH  16  17
HETATM   17  C   UNL     1      -5.935  -0.029 -32.828  1.00  0.00    -0.012 A 
HETATM   18  C   UNL     1      -4.850  -0.920 -32.791  1.00  0.00     0.054 A 
HETATM   19  C   UNL     1      -4.834  -2.032 -33.640  1.00  0.00     0.117 A 
HETATM   20 BR   UNL     1      -3.395  -0.641 -31.590  1.00  0.00    -0.047 Br
HETATM   21  C   UNL     1      -5.868  -2.267 -34.556  1.00  0.00     0.102 A 
HETATM   22  C   UNL     1      -6.940  -1.383 -34.604  1.00  0.00     0.040 A 
HETATM   23  C   UNL     1      -6.973  -0.276 -33.748  1.00  0.00     0.013 A 
BRANCH  19  24
HETATM   24  O   UNL     1      -3.792  -2.923 -33.586  1.00  0.00    -0.357 OA
HETATM   25  H   UNL     1      -3.237  -2.739 -34.372  1.00  0.00     0.218 HD
ENDBRANCH  19  24
BRANCH  21  26
HETATM   26  O   UNL     1      -5.715  -3.388 -35.329  1.00  0.00    -0.353 OA
HETATM   27  C   UNL     1      -6.637  -4.451 -35.110  1.00  0.00     0.210 C 
ENDBRANCH  21  26
ENDBRANCH  16  17
ENDBRANCH   1  16
TORSDOF 4
ENDMDL
MODEL 6
REMARK VINA RESULT:      -7.0      5.266      7.367
REMARK  4 active torsions:
REMARK  status: ('A' for Active; 'I' for Inactive)
REMARK    1  A    between atoms: O_2  and  C_3 
REMARK    2  A    between atoms: C_4  and  O_5 
REMARK    3  A    between atoms: C_8  and  C_9 
REMARK    4  A    between atoms: C_9  and  N_10 
ROOT
HETATM    1  N   UNL     1     -10.488   4.331 -33.127  1.00  0.00    -0.066 N 
HETATM    2  H   UNL     1      -9.535   4.692 -32.968  1.00  0.00     0.280 HD
HETATM    3  C   UNL     1     -10.487   3.852 -34.568  1.00  0.00     0.246 C 
HETATM    4  C   UNL     1     -11.891   3.829 -35.209  1.00  0.00     0.062 C 
HETATM    5  C   UNL     1     -12.528   5.207 -35.086  1.00  0.00     0.020 C 
HETATM    6  C   UNL     1     -12.715   5.495 -33.604  1.00  0.00     0.031 C 
HETATM    7  C   UNL     1     -13.693   4.485 -33.006  1.00  0.00     0.138 C 
HETATM    8  N   UNL     1     -13.555   3.105 -33.470  1.00  0.00    -0.317 N 
HETATM    9  C   UNL     1     -12.787   2.773 -34.590  1.00  0.00     0.020 A 
HETATM   10  C   UNL     1     -12.834   1.523 -35.083  1.00  0.00     0.026 A 
HETATM   11  C   UNL     1     -14.354   2.162 -32.805  1.00  0.00     0.247 A 
HETATM   12  O   UNL     1     -14.984   2.407 -31.779  1.00  0.00    -0.268 OA
HETATM   13  C   UNL     1     -14.382   0.797 -33.379  1.00  0.00     0.074 A 
HETATM   14  C   UNL     1     -13.658   0.515 -34.467  1.00  0.00     0.007 A 
HETATM   15  C   UNL     1     -11.369   5.533 -32.878  1.00  0.00     0.241 C 
ENDROOT
BRANCH   1  16
HETATM   16  C   UNL     1     -10.540   3.194 -32.116  1.00  0.00     0.274 C 
BRANCH  16  17
HETATM   17  C   UNL     1      -9.496   2.119 -32.273  1.00  0.00    -0.012 A 
HETATM   18  C   UNL     1      -8.319   2.072 -31.508  1.00  0.00     0.054 A 
HETATM   19  C   UNL     1      -7.401   1.034 -31.707  1.00  0.00     0.117 A 
HETATM   20 BR   UNL     1      -7.954   3.401 -30.190  1.00  0.00    -0.047 Br
HETATM   21  C   UNL     1      -7.614   0.047 -32.678  1.00  0.00     0.102 A 
HETATM   22  C   UNL     1      -8.772   0.095 -33.446  1.00  0.00     0.040 A 
HETATM   23  C   UNL     1      -9.704   1.119 -33.244  1.00  0.00     0.013 A 
BRANCH  19  24
HETATM   24  O   UNL     1      -6.265   0.965 -30.941  1.00  0.00    -0.357 OA
HETATM   25  H   UNL     1      -6.527   1.251 -30.042  1.00  0.00     0.218 HD
ENDBRANCH  19  24
BRANCH  21  26
HETATM   26  O   UNL     1      -6.628  -0.900 -32.768  1.00  0.00    -0.353 OA
HETATM   27  C   UNL     1      -6.629  -1.721 -33.933  1.00  0.00     0.210 C 
ENDBRANCH  21  26
ENDBRANCH  16  17
ENDBRANCH   1  16
TORSDOF 4
ENDMDL
MODEL 7
REMARK VINA RESULT:      -7.0      2.613      4.104
REMARK  4 active torsions:
REMARK  status: ('A' for Active; 'I' for Inactive)
REMARK    1  A    between atoms: O_2  and  C_3 
REMARK    2  A    between atoms: C_4  and  O_5 
REMARK    3  A    between atoms: C_8  and  C_9 
REMARK    4  A    between atoms: C_9  and  N_10 
ROOT
HETATM    1  N   UNL     1      -5.055   2.208 -31.580  1.00  0.00    -0.066 N 
HETATM    2  H   UNL     1      -4.159   1.699 -31.601  1.00  0.00     0.280 HD
HETATM    3  C   UNL     1      -4.978   3.178 -32.746  1.00  0.00     0.246 C 
HETATM    4  C   UNL     1      -5.888   4.415 -32.578  1.00  0.00     0.062 C 
HETATM    5  C   UNL     1      -5.563   5.109 -31.262  1.00  0.00     0.020 C 
HETATM    6  C   UNL     1      -5.906   4.142 -30.138  1.00  0.00     0.031 C 
HETATM    7  C   UNL     1      -7.407   3.859 -30.147  1.00  0.00     0.138 C 
HETATM    8  N   UNL     1      -8.022   3.696 -31.464  1.00  0.00    -0.317 N 
HETATM    9  C   UNL     1      -7.360   4.056 -32.641  1.00  0.00     0.020 A 
HETATM   10  C   UNL     1      -8.029   4.056 -33.808  1.00  0.00     0.026 A 
HETATM   11  C   UNL     1      -9.365   3.287 -31.456  1.00  0.00     0.247 A 
HETATM   12  O   UNL     1      -9.952   2.898 -30.450  1.00  0.00    -0.268 OA
HETATM   13  C   UNL     1     -10.068   3.302 -32.760  1.00  0.00     0.074 A 
HETATM   14  C   UNL     1      -9.417   3.678 -33.865  1.00  0.00     0.007 A 
HETATM   15  C   UNL     1      -5.053   2.875 -30.224  1.00  0.00     0.241 C 
ENDROOT
BRANCH   1  16
HETATM   16  C   UNL     1      -6.041   1.071 -31.807  1.00  0.00     0.274 C 
BRANCH  16  17
HETATM   17  C   UNL     1      -5.489  -0.160 -32.480  1.00  0.00    -0.012 A 
HETATM   18  C   UNL     1      -6.080  -0.749 -33.610  1.00  0.00     0.054 A 
HETATM   19  C   UNL     1      -5.501  -1.887 -34.184  1.00  0.00     0.117 A 
HETATM   20 BR   UNL     1      -7.660  -0.014 -34.384  1.00  0.00    -0.047 Br
HETATM   21  C   UNL     1      -4.353  -2.477 -33.638  1.00  0.00     0.102 A 
HETATM   22  C   UNL     1      -3.771  -1.904 -32.513  1.00  0.00     0.040 A 
HETATM   23  C   UNL     1      -4.332  -0.757 -31.941  1.00  0.00     0.013 A 
BRANCH  19  24
HETATM   24  O   UNL     1      -6.055  -2.448 -35.306  1.00  0.00    -0.357 OA
HETATM   25  H   UNL     1      -6.477  -3.281 -35.012  1.00  0.00     0.218 HD
ENDBRANCH  19  24
BRANCH  21  26
HETATM   26  O   UNL     1      -3.904  -3.591 -34.297  1.00  0.00    -0.353 OA
HETATM   27  C   UNL     1      -3.446  -4.673 -33.493  1.00  0.00     0.210 C 
ENDBRANCH  21  26
ENDBRANCH  16  17
ENDBRANCH   1  16
TORSDOF 4
ENDMDL
MODEL 8
REMARK VINA RESULT:      -6.9      2.644      4.198
REMARK  4 active torsions:
REMARK  status: ('A' for Active; 'I' for Inactive)
REMARK    1  A    between atoms: O_2  and  C_3 
REMARK    2  A    between atoms: C_4  and  O_5 
REMARK    3  A    between atoms: C_8  and  C_9 
REMARK    4  A    between atoms: C_9  and  N_10 
ROOT
HETATM    1  N   UNL     1      -6.689   3.078 -31.946  1.00  0.00    -0.066 N 
HETATM    2  H   UNL     1      -5.719   2.976 -31.613  1.00  0.00     0.280 HD
HETATM    3  C   UNL     1      -7.000   4.556 -31.793  1.00  0.00     0.246 C 
HETATM    4  C   UNL     1      -8.507   4.857 -31.656  1.00  0.00     0.062 C 
HETATM    5  C   UNL     1      -9.083   4.050 -30.499  1.00  0.00     0.020 C 
HETATM    6  C   UNL     1      -8.949   2.577 -30.857  1.00  0.00     0.031 C 
HETATM    7  C   UNL     1      -9.794   2.272 -32.093  1.00  0.00     0.138 C 
HETATM    8  N   UNL     1      -9.778   3.284 -33.148  1.00  0.00    -0.317 N 
HETATM    9  C   UNL     1      -9.269   4.569 -32.936  1.00  0.00     0.020 A 
HETATM   10  C   UNL     1      -9.438   5.516 -33.875  1.00  0.00     0.026 A 
HETATM   11  C   UNL     1     -10.434   2.927 -34.336  1.00  0.00     0.247 A 
HETATM   12  O   UNL     1     -10.829   1.789 -34.579  1.00  0.00    -0.268 OA
HETATM   13  C   UNL     1     -10.603   3.997 -35.345  1.00  0.00     0.074 A 
HETATM   14  C   UNL     1     -10.129   5.223 -35.104  1.00  0.00     0.007 A 
HETATM   15  C   UNL     1      -7.480   2.183 -31.020  1.00  0.00     0.241 C 
ENDROOT
BRANCH   1  16
HETATM   16  C   UNL     1      -6.545   2.641 -33.397  1.00  0.00     0.274 C 
BRANCH  16  17
HETATM   17  C   UNL     1      -6.316   1.169 -33.627  1.00  0.00    -0.012 A 
HETATM   18  C   UNL     1      -5.148   0.500 -33.224  1.00  0.00     0.054 A 
HETATM   19  C   UNL     1      -5.014  -0.872 -33.464  1.00  0.00     0.117 A 
HETATM   20 BR   UNL     1      -3.741   1.435 -32.340  1.00  0.00    -0.047 Br
HETATM   21  C   UNL     1      -6.011  -1.597 -34.130  1.00  0.00     0.102 A 
HETATM   22  C   UNL     1      -7.164  -0.938 -34.541  1.00  0.00     0.040 A 
HETATM   23  C   UNL     1      -7.315   0.430 -34.291  1.00  0.00     0.013 A 
BRANCH  19  24
HETATM   24  O   UNL     1      -3.890  -1.537 -33.044  1.00  0.00    -0.357 OA
HETATM   25  H   UNL     1      -3.969  -2.448 -33.392  1.00  0.00     0.218 HD
ENDBRANCH  19  24
BRANCH  21  26
HETATM   26  O   UNL     1      -5.740  -2.929 -34.304  1.00  0.00    -0.353 OA
HETATM   27  C   UNL     1      -6.732  -3.705 -34.970  1.00  0.00     0.210 C 
ENDBRANCH  21  26
ENDBRANCH  16  17
ENDBRANCH   1  16
TORSDOF 4
ENDMDL
MODEL 9
REMARK VINA RESULT:      -6.9      4.023      5.944
REMARK  4 active torsions:
REMARK  status: ('A' for Active; 'I' for Inactive)
REMARK    1  A    between atoms: O_2  and  C_3 
REMARK    2  A    between atoms: C_4  and  O_5 
REMARK    3  A    between atoms: C_8  and  C_9 
REMARK    4  A    between atoms: C_9  and  N_10 
ROOT
HETATM    1  N   UNL     1      -7.247   3.020 -31.424  1.00  0.00    -0.066 N 
HETATM    2  H   UNL     1      -7.676   3.607 -30.692  1.00  0.00     0.280 HD
HETATM    3  C   UNL     1      -5.872   2.669 -30.884  1.00  0.00     0.246 C 
HETATM    4  C   UNL     1      -4.847   2.324 -31.986  1.00  0.00     0.062 C 
HETATM    5  C   UNL     1      -4.770   3.473 -32.983  1.00  0.00     0.020 C 
HETATM    6  C   UNL     1      -6.131   3.590 -33.654  1.00  0.00     0.031 C 
HETATM    7  C   UNL     1      -6.421   2.315 -34.446  1.00  0.00     0.138 C 
HETATM    8  N   UNL     1      -6.025   1.060 -33.810  1.00  0.00    -0.317 N 
HETATM    9  C   UNL     1      -5.182   1.026 -32.696  1.00  0.00     0.020 A 
HETATM   10  C   UNL     1      -4.704  -0.151 -32.257  1.00  0.00     0.026 A 
HETATM   11  C   UNL     1      -6.433  -0.108 -34.475  1.00  0.00     0.247 A 
HETATM   12  O   UNL     1      -7.227  -0.115 -35.412  1.00  0.00    -0.268 OA
HETATM   13  C   UNL     1      -5.884  -1.385 -33.964  1.00  0.00     0.074 A 
HETATM   14  C   UNL     1      -5.058  -1.383 -32.913  1.00  0.00     0.007 A 
HETATM   15  C   UNL     1      -7.219   3.926 -32.634  1.00  0.00     0.241 C 
ENDROOT
BRANCH   1  16
HETATM   16  C   UNL     1      -8.205   1.838 -31.448  1.00  0.00     0.274 C 
BRANCH  16  17
HETATM   17  C   UNL     1      -9.465   2.022 -32.253  1.00  0.00    -0.012 A 
HETATM   18  C   UNL     1     -10.436   2.992 -31.952  1.00  0.00     0.054 A 
HETATM   19  C   UNL     1     -11.577   3.108 -32.754  1.00  0.00     0.117 A 
HETATM   20 BR   UNL     1     -10.217   4.167 -30.466  1.00  0.00    -0.047 Br
HETATM   21  C   UNL     1     -11.793   2.253 -33.843  1.00  0.00     0.102 A 
HETATM   22  C   UNL     1     -10.841   1.284 -34.140  1.00  0.00     0.040 A 
HETATM   23  C   UNL     1      -9.689   1.171 -33.354  1.00  0.00     0.013 A 
BRANCH  19  24
HETATM   24  O   UNL     1     -12.512   4.074 -32.484  1.00  0.00    -0.357 OA
HETATM   25  H   UNL     1     -12.100   4.927 -32.733  1.00  0.00     0.218 HD
ENDBRANCH  19  24
BRANCH  21  26
HETATM   26  O   UNL     1     -12.956   2.476 -34.533  1.00  0.00    -0.353 OA
HETATM   27  C   UNL     1     -13.951   1.458 -34.460  1.00  0.00     0.210 C 
ENDBRANCH  21  26
ENDBRANCH  16  17
ENDBRANCH   1  16
TORSDOF 4
ENDMDL
MODEL 10
REMARK VINA RESULT:      -6.9     15.923     17.690
REMARK  4 active torsions:
REMARK  status: ('A' for Active; 'I' for Inactive)
REMARK    1  A    between atoms: O_2  and  C_3 
REMARK    2  A    between atoms: C_4  and  O_5 
REMARK    3  A    between atoms: C_8  and  C_9 
REMARK    4  A    between atoms: C_9  and  N_10 
ROOT
HETATM    1  N   UNL     1      -8.706 -15.236 -38.094  1.00  0.00    -0.066 N 
HETATM    2  H   UNL     1      -9.101 -15.437 -37.163  1.00  0.00     0.280 HD
HETATM    3  C   UNL     1      -9.166 -13.825 -38.414  1.00  0.00     0.246 C 
HETATM    4  C   UNL     1      -9.221 -13.523 -39.927  1.00  0.00     0.062 C 
HETATM    5  C   UNL     1     -10.099 -14.558 -40.619  1.00  0.00     0.020 C 
HETATM    6  C   UNL     1      -9.426 -15.912 -40.454  1.00  0.00     0.031 C 
HETATM    7  C   UNL     1      -8.077 -15.904 -41.171  1.00  0.00     0.138 C 
HETATM    8  N   UNL     1      -7.290 -14.678 -41.046  1.00  0.00    -0.317 N 
HETATM    9  C   UNL     1      -7.841 -13.490 -40.556  1.00  0.00     0.020 A 
HETATM   10  C   UNL     1      -7.134 -12.349 -40.627  1.00  0.00     0.026 A 
HETATM   11  C   UNL     1      -5.993 -14.736 -41.579  1.00  0.00     0.247 A 
HETATM   12  O   UNL     1      -5.457 -15.776 -41.952  1.00  0.00    -0.268 OA
HETATM   13  C   UNL     1      -5.247 -13.458 -41.642  1.00  0.00     0.074 A 
HETATM   14  C   UNL     1      -5.810 -12.333 -41.191  1.00  0.00     0.007 A 
HETATM   15  C   UNL     1      -9.321 -16.298 -38.977  1.00  0.00     0.241 C 
ENDROOT
BRANCH   1  16
HETATM   16  C   UNL     1      -7.215 -15.332 -37.806  1.00  0.00     0.274 C 
BRANCH  16  17
HETATM   17  C   UNL     1      -6.782 -14.936 -36.418  1.00  0.00    -0.012 A 
HETATM   18  C   UNL     1      -5.853 -13.913 -36.165  1.00  0.00     0.054 A 
HETATM   19  C   UNL     1      -5.508 -13.596 -34.846  1.00  0.00     0.117 A 
HETATM   20 BR   UNL     1      -5.058 -12.936 -37.597  1.00  0.00    -0.047 Br
HETATM   21  C   UNL     1      -6.048 -14.300 -33.761  1.00  0.00     0.102 A 
HETATM   22  C   UNL     1      -6.960 -15.321 -34.007  1.00  0.00     0.040 A 
HETATM   23  C   UNL     1      -7.323 -15.634 -35.321  1.00  0.00     0.013 A 
BRANCH  19  24
HETATM   24  O   UNL     1      -4.626 -12.576 -34.591  1.00  0.00    -0.357 OA
HETATM   25  H   UNL     1      -4.204 -12.363 -35.449  1.00  0.00     0.218 HD
ENDBRANCH  19  24
BRANCH  21  26
HETATM   26  O   UNL     1      -5.614 -13.888 -32.529  1.00  0.00    -0.353 OA
HETATM   27  C   UNL     1      -5.156 -14.901 -31.638  1.00  0.00     0.210 C 
ENDBRANCH  21  26
ENDBRANCH  16  17
ENDBRANCH   1  16
TORSDOF 4
ENDMDL
