MODEL 1
REMARK VINA RESULT:      -8.7      0.000      0.000
REMARK  2 active torsions:
REMARK  status: ('A' for Active; 'I' for Inactive)
REMARK       I    between atoms: C_2  and  N_3 
REMARK    1  A    between atoms: N_3  and  C_4 
REMARK    2  A    between atoms: C_11  and  N_12 
REMARK       I    between atoms: N_12  and  C_13 
ROOT
HETATM    1  C   UNL     1      -3.566   3.885 -31.518  1.00  0.00     0.035 A 
HETATM    2  C   UNL     1      -3.077   2.577 -31.510  1.00  0.00     0.038 A 
HETATM    3  C   UNL     1      -3.794   1.597 -32.184  1.00  0.00    -0.041 A 
HETATM    4  C   UNL     1      -4.990   1.890 -32.869  1.00  0.00    -0.019 A 
HETATM    5  C   UNL     1      -5.495   0.672 -33.463  1.00  0.00    -0.019 A 
HETATM    6  C   UNL     1      -4.619  -0.386 -33.148  1.00  0.00    -0.041 A 
HETATM    7  C   UNL     1      -4.846  -1.686 -33.584  1.00  0.00     0.038 A 
HETATM    8  C   UNL     1      -5.982  -1.945 -34.353  1.00  0.00     0.035 A 
HETATM    9  C   UNL     1      -6.851  -0.874 -34.674  1.00  0.00     0.030 A 
HETATM   10  C   UNL     1      -6.617   0.434 -34.230  1.00  0.00     0.015 A 
HETATM   11  C   UNL     1      -3.461   0.125 -32.310  1.00  0.00     0.079 A 
HETATM   12  C   UNL     1      -5.484   3.181 -32.884  1.00  0.00     0.015 A 
HETATM   13  C   UNL     1      -4.766   4.175 -32.206  1.00  0.00     0.030 A 
ENDROOT
BRANCH   1  14
HETATM   14  N   UNL     1      -2.930   4.964 -30.867  1.00  0.00    -0.328 N 
HETATM   15  C   UNL     1      -1.607   5.352 -30.978  1.00  0.00     0.218 C 
HETATM   16  C   UNL     1      -1.283   6.555 -30.125  1.00  0.00     0.117 C 
HETATM   17  O   UNL     1      -0.747   4.845 -31.689  1.00  0.00    -0.274 OA
HETATM   18  H   UNL     1      -3.517   5.516 -30.255  1.00  0.00     0.169 HD
ENDBRANCH   1  14
BRANCH   8  19
HETATM   19  N   UNL     1      -6.349  -3.201 -34.871  1.00  0.00    -0.328 N 
HETATM   20  C   UNL     1      -5.768  -4.431 -34.895  1.00  0.00     0.218 C 
HETATM   21  C   UNL     1      -4.471  -4.714 -34.200  1.00  0.00     0.117 C 
HETATM   22  O   UNL     1      -6.356  -5.334 -35.500  1.00  0.00    -0.274 OA
HETATM   23  H   UNL     1      -7.247  -3.238 -35.341  1.00  0.00     0.169 HD
ENDBRANCH   8  19
TORSDOF 2
ENDMDL
MODEL 2
REMARK VINA RESULT:      -8.4      1.796      8.282
REMARK  2 active torsions:
REMARK  status: ('A' for Active; 'I' for Inactive)
REMARK       I    between atoms: C_2  and  N_3 
REMARK    1  A    between atoms: N_3  and  C_4 
REMARK    2  A    between atoms: C_11  and  N_12 
REMARK       I    between atoms: N_12  and  C_13 
ROOT
HETATM    1  C   UNL     1      -5.836  -0.879 -33.531  1.00  0.00     0.035 A 
HETATM    2  C   UNL     1      -6.318   0.369 -33.933  1.00  0.00     0.038 A 
HETATM    3  C   UNL     1      -5.670   1.508 -33.476  1.00  0.00    -0.041 A 
HETATM    4  C   UNL     1      -4.549   1.436 -32.625  1.00  0.00    -0.019 A 
HETATM    5  C   UNL     1      -4.105   2.779 -32.325  1.00  0.00    -0.019 A 
HETATM    6  C   UNL     1      -4.947   3.695 -32.986  1.00  0.00    -0.041 A 
HETATM    7  C   UNL     1      -4.765   5.070 -32.884  1.00  0.00     0.038 A 
HETATM    8  C   UNL     1      -3.716   5.549 -32.099  1.00  0.00     0.035 A 
HETATM    9  C   UNL     1      -2.867   4.621 -31.448  1.00  0.00     0.030 A 
HETATM   10  C   UNL     1      -3.057   3.237 -31.553  1.00  0.00     0.015 A 
HETATM   11  C   UNL     1      -6.010   2.954 -33.776  1.00  0.00     0.079 A 
HETATM   12  C   UNL     1      -4.063   0.207 -32.220  1.00  0.00     0.015 A 
HETATM   13  C   UNL     1      -4.712  -0.948 -32.677  1.00  0.00     0.030 A 
ENDROOT
BRANCH   1  14
HETATM   14  N   UNL     1      -6.412  -2.106 -33.926  1.00  0.00    -0.328 N 
HETATM   15  C   UNL     1      -5.841  -3.087 -34.716  1.00  0.00     0.218 C 
HETATM   16  C   UNL     1      -6.761  -4.265 -34.931  1.00  0.00     0.117 C 
HETATM   17  O   UNL     1      -4.714  -3.084 -35.197  1.00  0.00    -0.274 OA
HETATM   18  H   UNL     1      -7.346  -2.283 -33.582  1.00  0.00     0.169 HD
ENDBRANCH   1  14
BRANCH   8  19
HETATM   19  N   UNL     1      -3.399   6.906 -31.899  1.00  0.00    -0.328 N 
HETATM   20  C   UNL     1      -2.455   7.750 -32.397  1.00  0.00     0.218 C 
HETATM   21  C   UNL     1      -1.492   7.328 -33.465  1.00  0.00     0.117 C 
HETATM   22  O   UNL     1      -2.420   8.902 -31.952  1.00  0.00    -0.274 OA
HETATM   23  H   UNL     1      -3.987   7.402 -31.238  1.00  0.00     0.169 HD
ENDBRANCH   8  19
TORSDOF 2
ENDMDL
MODEL 3
REMARK VINA RESULT:      -8.4      1.837      8.094
REMARK  2 active torsions:
REMARK  status: ('A' for Active; 'I' for Inactive)
REMARK       I    between atoms: C_2  and  N_3 
REMARK    1  A    between atoms: N_3  and  C_4 
REMARK    2  A    between atoms: C_11  and  N_12 
REMARK       I    between atoms: N_12  and  C_13 
ROOT
HETATM    1  C   UNL     1      -6.513  -0.852 -34.031  1.00  0.00     0.035 A 
HETATM    2  C   UNL     1      -5.503  -0.389 -33.185  1.00  0.00     0.038 A 
HETATM    3  C   UNL     1      -5.298   0.981 -33.086  1.00  0.00    -0.041 A 
HETATM    4  C   UNL     1      -6.078   1.904 -33.811  1.00  0.00    -0.019 A 
HETATM    5  C   UNL     1      -5.624   3.242 -33.499  1.00  0.00    -0.019 A 
HETATM    6  C   UNL     1      -4.559   3.159 -32.580  1.00  0.00    -0.041 A 
HETATM    7  C   UNL     1      -3.915   4.291 -32.093  1.00  0.00     0.038 A 
HETATM    8  C   UNL     1      -4.340   5.544 -32.536  1.00  0.00     0.035 A 
HETATM    9  C   UNL     1      -5.419   5.619 -33.450  1.00  0.00     0.030 A 
HETATM   10  C   UNL     1      -6.062   4.474 -33.938  1.00  0.00     0.015 A 
HETATM   11  C   UNL     1      -4.271   1.707 -32.242  1.00  0.00     0.079 A 
HETATM   12  C   UNL     1      -7.080   1.458 -34.651  1.00  0.00     0.015 A 
HETATM   13  C   UNL     1      -7.293   0.077 -34.757  1.00  0.00     0.030 A 
ENDROOT
BRANCH   1  14
HETATM   14  N   UNL     1      -6.814  -2.218 -34.218  1.00  0.00    -0.328 N 
HETATM   15  C   UNL     1      -6.017  -3.182 -34.808  1.00  0.00     0.218 C 
HETATM   16  C   UNL     1      -6.675  -4.541 -34.835  1.00  0.00     0.117 C 
HETATM   17  O   UNL     1      -4.885  -3.032 -35.254  1.00  0.00    -0.274 OA
HETATM   18  H   UNL     1      -7.715  -2.521 -33.872  1.00  0.00     0.169 HD
ENDBRANCH   1  14
BRANCH   8  19
HETATM   19  N   UNL     1      -3.796   6.779 -32.137  1.00  0.00    -0.328 N 
HETATM   20  C   UNL     1      -2.736   7.531 -32.541  1.00  0.00     0.218 C 
HETATM   21  C   UNL     1      -1.883   7.142 -33.710  1.00  0.00     0.117 C 
HETATM   22  O   UNL     1      -2.498   8.572 -31.920  1.00  0.00    -0.274 OA
HETATM   23  H   UNL     1      -4.277   7.247 -31.377  1.00  0.00     0.169 HD
ENDBRANCH   8  19
TORSDOF 2
ENDMDL
MODEL 4
REMARK VINA RESULT:      -8.0      5.898      9.619
REMARK  2 active torsions:
REMARK  status: ('A' for Active; 'I' for Inactive)
REMARK       I    between atoms: C_2  and  N_3 
REMARK    1  A    between atoms: N_3  and  C_4 
REMARK    2  A    between atoms: C_11  and  N_12 
REMARK       I    between atoms: N_12  and  C_13 
ROOT
HETATM    1  C   UNL     1       0.295   8.950 -25.777  1.00  0.00     0.035 A 
HETATM    2  C   UNL     1      -0.635   9.314 -26.754  1.00  0.00     0.038 A 
HETATM    3  C   UNL     1      -0.611   8.649 -27.972  1.00  0.00    -0.041 A 
HETATM    4  C   UNL     1       0.320   7.626 -28.243  1.00  0.00    -0.019 A 
HETATM    5  C   UNL     1       0.094   7.135 -29.585  1.00  0.00    -0.019 A 
HETATM    6  C   UNL     1      -0.976   7.851 -30.157  1.00  0.00    -0.041 A 
HETATM    7  C   UNL     1      -1.424   7.599 -31.449  1.00  0.00     0.038 A 
HETATM    8  C   UNL     1      -0.787   6.608 -32.196  1.00  0.00     0.035 A 
HETATM    9  C   UNL     1       0.279   5.885 -31.609  1.00  0.00     0.030 A 
HETATM   10  C   UNL     1       0.727   6.145 -30.307  1.00  0.00     0.015 A 
HETATM   11  C   UNL     1      -1.512   8.871 -29.169  1.00  0.00     0.079 A 
HETATM   12  C   UNL     1       1.244   7.257 -27.284  1.00  0.00     0.015 A 
HETATM   13  C   UNL     1       1.227   7.924 -26.052  1.00  0.00     0.030 A 
ENDROOT
BRANCH   1  14
HETATM   14  N   UNL     1       0.372   9.555 -24.504  1.00  0.00    -0.328 N 
HETATM   15  C   UNL     1       1.292  10.492 -24.072  1.00  0.00     0.218 C 
HETATM   16  C   UNL     1       1.063  10.910 -22.639  1.00  0.00     0.117 C 
HETATM   17  O   UNL     1       2.198  10.994 -24.727  1.00  0.00    -0.274 OA
HETATM   18  H   UNL     1      -0.335   9.269 -23.839  1.00  0.00     0.169 HD
ENDBRANCH   1  14
BRANCH   8  19
HETATM   19  N   UNL     1      -1.123   6.233 -33.511  1.00  0.00    -0.328 N 
HETATM   20  C   UNL     1      -1.801   5.190 -34.063  1.00  0.00     0.218 C 
HETATM   21  C   UNL     1      -2.472   4.144 -33.227  1.00  0.00     0.117 C 
HETATM   22  O   UNL     1      -1.868   5.134 -35.295  1.00  0.00    -0.274 OA
HETATM   23  H   UNL     1      -0.804   6.859 -34.242  1.00  0.00     0.169 HD
ENDBRANCH   8  19
TORSDOF 2
ENDMDL
MODEL 5
REMARK VINA RESULT:      -7.9      3.413      4.550
REMARK  2 active torsions:
REMARK  status: ('A' for Active; 'I' for Inactive)
REMARK       I    between atoms: C_2  and  N_3 
REMARK    1  A    between atoms: N_3  and  C_4 
REMARK    2  A    between atoms: C_11  and  N_12 
REMARK       I    between atoms: N_12  and  C_13 
ROOT
HETATM    1  C   UNL     1      -3.543   3.330 -31.551  1.00  0.00     0.035 A 
HETATM    2  C   UNL     1      -4.828   3.828 -31.325  1.00  0.00     0.038 A 
HETATM    3  C   UNL     1      -5.916   3.044 -31.685  1.00  0.00    -0.041 A 
HETATM    4  C   UNL     1      -5.754   1.770 -32.267  1.00  0.00    -0.019 A 
HETATM    5  C   UNL     1      -7.062   1.209 -32.528  1.00  0.00    -0.019 A 
HETATM    6  C   UNL     1      -8.043   2.130 -32.113  1.00  0.00    -0.041 A 
HETATM    7  C   UNL     1      -9.403   1.866 -32.239  1.00  0.00     0.038 A 
HETATM    8  C   UNL     1      -9.798   0.651 -32.799  1.00  0.00     0.035 A 
HETATM    9  C   UNL     1      -8.805  -0.274 -33.203  1.00  0.00     0.030 A 
HETATM   10  C   UNL     1      -7.437  -0.001 -33.074  1.00  0.00     0.015 A 
HETATM   11  C   UNL     1      -7.387   3.372 -31.537  1.00  0.00     0.079 A 
HETATM   12  C   UNL     1      -4.487   1.267 -32.495  1.00  0.00     0.015 A 
HETATM   13  C   UNL     1      -3.385   2.053 -32.135  1.00  0.00     0.030 A 
ENDROOT
BRANCH   1  14
HETATM   14  N   UNL     1      -2.362   4.034 -31.231  1.00  0.00    -0.328 N 
HETATM   15  C   UNL     1      -1.566   4.773 -32.087  1.00  0.00     0.218 C 
HETATM   16  C   UNL     1      -0.376   5.385 -31.387  1.00  0.00     0.117 C 
HETATM   17  O   UNL     1      -1.755   4.977 -33.281  1.00  0.00    -0.274 OA
HETATM   18  H   UNL     1      -2.076   3.995 -30.262  1.00  0.00     0.169 HD
ENDBRANCH   1  14
BRANCH   8  19
HETATM   19  N   UNL     1     -11.129   0.235 -32.992  1.00  0.00    -0.328 N 
HETATM   20  C   UNL     1     -12.149   0.638 -33.797  1.00  0.00     0.218 C 
HETATM   21  C   UNL     1     -11.974   1.713 -34.826  1.00  0.00     0.117 C 
HETATM   22  O   UNL     1     -13.241   0.075 -33.670  1.00  0.00    -0.274 OA
HETATM   23  H   UNL     1     -11.435  -0.543 -32.416  1.00  0.00     0.169 HD
ENDBRANCH   8  19
TORSDOF 2
ENDMDL
MODEL 6
REMARK VINA RESULT:      -7.7      4.630      7.776
REMARK  2 active torsions:
REMARK  status: ('A' for Active; 'I' for Inactive)
REMARK       I    between atoms: C_2  and  N_3 
REMARK    1  A    between atoms: N_3  and  C_4 
REMARK    2  A    between atoms: C_11  and  N_12 
REMARK       I    between atoms: N_12  and  C_13 
ROOT
HETATM    1  C   UNL     1      -5.380  -1.701 -33.468  1.00  0.00     0.035 A 
HETATM    2  C   UNL     1      -6.291  -1.276 -34.438  1.00  0.00     0.038 A 
HETATM    3  C   UNL     1      -7.227  -0.311 -34.091  1.00  0.00    -0.041 A 
HETATM    4  C   UNL     1      -7.278   0.243 -32.796  1.00  0.00    -0.019 A 
HETATM    5  C   UNL     1      -8.352   1.210 -32.746  1.00  0.00    -0.019 A 
HETATM    6  C   UNL     1      -8.977   1.261 -34.008  1.00  0.00    -0.041 A 
HETATM    7  C   UNL     1     -10.051   2.106 -34.265  1.00  0.00     0.038 A 
HETATM    8  C   UNL     1     -10.521   2.922 -33.236  1.00  0.00     0.035 A 
HETATM    9  C   UNL     1      -9.880   2.872 -31.974  1.00  0.00     0.030 A 
HETATM   10  C   UNL     1      -8.799   2.017 -31.721  1.00  0.00     0.015 A 
HETATM   11  C   UNL     1      -8.303   0.296 -34.966  1.00  0.00     0.079 A 
HETATM   12  C   UNL     1      -6.382  -0.170 -31.828  1.00  0.00     0.015 A 
HETATM   13  C   UNL     1      -5.434  -1.144 -32.171  1.00  0.00     0.030 A 
ENDROOT
BRANCH   1  14
HETATM   14  N   UNL     1      -4.387  -2.677 -33.700  1.00  0.00    -0.328 N 
HETATM   15  C   UNL     1      -4.568  -3.972 -34.150  1.00  0.00     0.218 C 
HETATM   16  C   UNL     1      -3.268  -4.729 -34.276  1.00  0.00     0.117 C 
HETATM   17  O   UNL     1      -5.628  -4.505 -34.458  1.00  0.00    -0.274 OA
HETATM   18  H   UNL     1      -3.435  -2.386 -33.521  1.00  0.00     0.169 HD
ENDBRANCH   1  14
BRANCH   8  19
HETATM   19  N   UNL     1     -11.592   3.829 -33.337  1.00  0.00    -0.328 N 
HETATM   20  C   UNL     1     -12.948   3.712 -33.324  1.00  0.00     0.218 C 
HETATM   21  C   UNL     1     -13.632   2.400 -33.087  1.00  0.00     0.117 C 
HETATM   22  O   UNL     1     -13.617   4.737 -33.497  1.00  0.00    -0.274 OA
HETATM   23  H   UNL     1     -11.335   4.805 -33.445  1.00  0.00     0.169 HD
ENDBRANCH   8  19
TORSDOF 2
ENDMDL
MODEL 7
REMARK VINA RESULT:      -7.6      3.270      8.035
REMARK  2 active torsions:
REMARK  status: ('A' for Active; 'I' for Inactive)
REMARK       I    between atoms: C_2  and  N_3 
REMARK    1  A    between atoms: N_3  and  C_4 
REMARK    2  A    between atoms: C_11  and  N_12 
REMARK       I    between atoms: N_12  and  C_13 
ROOT
HETATM    1  C   UNL     1      -4.379  -1.370 -32.872  1.00  0.00     0.035 A 
HETATM    2  C   UNL     1      -5.529  -1.025 -32.159  1.00  0.00     0.038 A 
HETATM    3  C   UNL     1      -5.631   0.261 -31.647  1.00  0.00    -0.041 A 
HETATM    4  C   UNL     1      -4.611   1.217 -31.829  1.00  0.00    -0.019 A 
HETATM    5  C   UNL     1      -5.007   2.449 -31.183  1.00  0.00    -0.019 A 
HETATM    6  C   UNL     1      -6.273   2.266 -30.593  1.00  0.00    -0.041 A 
HETATM    7  C   UNL     1      -6.915   3.284 -29.895  1.00  0.00     0.038 A 
HETATM    8  C   UNL     1      -6.277   4.519 -29.778  1.00  0.00     0.035 A 
HETATM    9  C   UNL     1      -5.010   4.697 -30.384  1.00  0.00     0.030 A 
HETATM   10  C   UNL     1      -4.368   3.667 -31.084  1.00  0.00     0.015 A 
HETATM   11  C   UNL     1      -6.772   0.856 -30.848  1.00  0.00     0.079 A 
HETATM   12  C   UNL     1      -3.468   0.887 -32.534  1.00  0.00     0.015 A 
HETATM   13  C   UNL     1      -3.359  -0.410 -33.053  1.00  0.00     0.030 A 
ENDROOT
BRANCH   1  14
HETATM   14  N   UNL     1      -4.160  -2.645 -33.436  1.00  0.00    -0.328 N 
HETATM   15  C   UNL     1      -3.484  -3.711 -32.870  1.00  0.00     0.218 C 
HETATM   16  C   UNL     1      -3.447  -4.919 -33.774  1.00  0.00     0.117 C 
HETATM   17  O   UNL     1      -2.971  -3.753 -31.757  1.00  0.00    -0.274 OA
HETATM   18  H   UNL     1      -4.552  -2.792 -34.357  1.00  0.00     0.169 HD
ENDBRANCH   1  14
BRANCH   8  19
HETATM   19  N   UNL     1      -6.793   5.645 -29.110  1.00  0.00    -0.328 N 
HETATM   20  C   UNL     1      -6.485   6.295 -27.954  1.00  0.00     0.218 C 
HETATM   21  C   UNL     1      -5.313   5.902 -27.107  1.00  0.00     0.117 C 
HETATM   22  O   UNL     1      -7.198   7.248 -27.621  1.00  0.00    -0.274 OA
HETATM   23  H   UNL     1      -7.576   6.105 -29.562  1.00  0.00     0.169 HD
ENDBRANCH   8  19
TORSDOF 2
ENDMDL
MODEL 8
REMARK VINA RESULT:      -7.4      1.516      2.389
REMARK  2 active torsions:
REMARK  status: ('A' for Active; 'I' for Inactive)
REMARK       I    between atoms: C_2  and  N_3 
REMARK    1  A    between atoms: N_3  and  C_4 
REMARK    2  A    between atoms: C_11  and  N_12 
REMARK       I    between atoms: N_12  and  C_13 
ROOT
HETATM    1  C   UNL     1      -3.574   5.342 -31.847  1.00  0.00     0.035 A 
HETATM    2  C   UNL     1      -4.667   4.976 -32.635  1.00  0.00     0.038 A 
HETATM    3  C   UNL     1      -4.930   3.625 -32.816  1.00  0.00    -0.041 A 
HETATM    4  C   UNL     1      -4.128   2.626 -32.229  1.00  0.00    -0.019 A 
HETATM    5  C   UNL     1      -4.652   1.330 -32.602  1.00  0.00    -0.019 A 
HETATM    6  C   UNL     1      -5.781   1.515 -33.425  1.00  0.00    -0.041 A 
HETATM    7  C   UNL     1      -6.500   0.443 -33.943  1.00  0.00     0.038 A 
HETATM    8  C   UNL     1      -6.082  -0.852 -33.636  1.00  0.00     0.035 A 
HETATM    9  C   UNL     1      -4.954  -1.029 -32.799  1.00  0.00     0.030 A 
HETATM   10  C   UNL     1      -4.233   0.055 -32.282  1.00  0.00     0.015 A 
HETATM   11  C   UNL     1      -6.048   2.996 -33.622  1.00  0.00     0.079 A 
HETATM   12  C   UNL     1      -3.044   2.976 -31.447  1.00  0.00     0.015 A 
HETATM   13  C   UNL     1      -2.772   4.338 -31.260  1.00  0.00     0.030 A 
ENDROOT
BRANCH   1  14
HETATM   14  N   UNL     1      -3.204   6.680 -31.593  1.00  0.00    -0.328 N 
HETATM   15  C   UNL     1      -2.366   7.480 -32.350  1.00  0.00     0.218 C 
HETATM   16  C   UNL     1      -2.200   8.861 -31.764  1.00  0.00     0.117 C 
HETATM   17  O   UNL     1      -1.810   7.180 -33.400  1.00  0.00    -0.274 OA
HETATM   18  H   UNL     1      -3.608   7.098 -30.765  1.00  0.00     0.169 HD
ENDBRANCH   1  14
BRANCH   8  19
HETATM   19  N   UNL     1      -6.702  -2.036 -34.077  1.00  0.00    -0.328 N 
HETATM   20  C   UNL     1      -6.275  -3.154 -34.724  1.00  0.00     0.218 C 
HETATM   21  C   UNL     1      -4.831  -3.378 -35.059  1.00  0.00     0.117 C 
HETATM   22  O   UNL     1      -7.118  -4.008 -35.018  1.00  0.00    -0.274 OA
HETATM   23  H   UNL     1      -7.696  -2.110 -33.887  1.00  0.00     0.169 HD
ENDBRANCH   8  19
TORSDOF 2
ENDMDL
MODEL 9
REMARK VINA RESULT:      -7.3      1.731      2.200
REMARK  2 active torsions:
REMARK  status: ('A' for Active; 'I' for Inactive)
REMARK       I    between atoms: C_2  and  N_3 
REMARK    1  A    between atoms: N_3  and  C_4 
REMARK    2  A    between atoms: C_11  and  N_12 
REMARK       I    between atoms: N_12  and  C_13 
ROOT
HETATM    1  C   UNL     1      -4.022   6.002 -31.858  1.00  0.00     0.035 A 
HETATM    2  C   UNL     1      -3.671   4.717 -31.438  1.00  0.00     0.038 A 
HETATM    3  C   UNL     1      -4.313   3.632 -32.019  1.00  0.00    -0.041 A 
HETATM    4  C   UNL     1      -5.300   3.795 -33.011  1.00  0.00    -0.019 A 
HETATM    5  C   UNL     1      -5.778   2.490 -33.412  1.00  0.00    -0.019 A 
HETATM    6  C   UNL     1      -5.093   1.508 -32.670  1.00  0.00    -0.041 A 
HETATM    7  C   UNL     1      -5.342   0.150 -32.838  1.00  0.00     0.038 A 
HETATM    8  C   UNL     1      -6.303  -0.243 -33.770  1.00  0.00     0.035 A 
HETATM    9  C   UNL     1      -6.978   0.750 -34.520  1.00  0.00     0.030 A 
HETATM   10  C   UNL     1      -6.724   2.117 -34.344  1.00  0.00     0.015 A 
HETATM   11  C   UNL     1      -4.101   2.161 -31.725  1.00  0.00     0.079 A 
HETATM   12  C   UNL     1      -5.656   5.062 -33.435  1.00  0.00     0.015 A 
HETATM   13  C   UNL     1      -5.012   6.163 -32.854  1.00  0.00     0.030 A 
ENDROOT
BRANCH   1  14
HETATM   14  N   UNL     1      -3.443   7.181 -31.341  1.00  0.00    -0.328 N 
HETATM   15  C   UNL     1      -2.524   8.009 -31.960  1.00  0.00     0.218 C 
HETATM   16  C   UNL     1      -2.126   9.181 -31.095  1.00  0.00     0.117 C 
HETATM   17  O   UNL     1      -2.062   7.885 -33.089  1.00  0.00    -0.274 OA
HETATM   18  H   UNL     1      -3.745   7.448 -30.413  1.00  0.00     0.169 HD
ENDBRANCH   1  14
BRANCH   8  19
HETATM   19  N   UNL     1      -6.666  -1.572 -34.058  1.00  0.00    -0.328 N 
HETATM   20  C   UNL     1      -5.985  -2.687 -34.438  1.00  0.00     0.218 C 
HETATM   21  C   UNL     1      -4.492  -2.707 -34.560  1.00  0.00     0.117 C 
HETATM   22  O   UNL     1      -6.638  -3.711 -34.669  1.00  0.00    -0.274 OA
HETATM   23  H   UNL     1      -7.654  -1.787 -33.974  1.00  0.00     0.169 HD
ENDBRANCH   8  19
TORSDOF 2
ENDMDL
MODEL 10
REMARK VINA RESULT:      -7.3      3.082      8.370
REMARK  2 active torsions:
REMARK  status: ('A' for Active; 'I' for Inactive)
REMARK       I    between atoms: C_2  and  N_3 
REMARK    1  A    between atoms: N_3  and  C_4 
REMARK    2  A    between atoms: C_11  and  N_12 
REMARK       I    between atoms: N_12  and  C_13 
ROOT
HETATM    1  C   UNL     1      -5.901  -1.550 -33.986  1.00  0.00     0.035 A 
HETATM    2  C   UNL     1      -7.072  -0.977 -33.485  1.00  0.00     0.038 A 
HETATM    3  C   UNL     1      -6.962   0.089 -32.602  1.00  0.00    -0.041 A 
HETATM    4  C   UNL     1      -5.710   0.600 -32.205  1.00  0.00    -0.019 A 
HETATM    5  C   UNL     1      -5.926   1.697 -31.286  1.00  0.00    -0.019 A 
HETATM    6  C   UNL     1      -7.312   1.873 -31.106  1.00  0.00    -0.041 A 
HETATM    7  C   UNL     1      -7.827   2.859 -30.271  1.00  0.00     0.038 A 
HETATM    8  C   UNL     1      -6.937   3.693 -29.593  1.00  0.00     0.035 A 
HETATM    9  C   UNL     1      -5.546   3.516 -29.790  1.00  0.00     0.030 A 
HETATM   10  C   UNL     1      -5.033   2.519 -30.631  1.00  0.00     0.015 A 
HETATM   11  C   UNL     1      -8.082   0.862 -31.936  1.00  0.00     0.079 A 
HETATM   12  C   UNL     1      -4.545   0.040 -32.694  1.00  0.00     0.015 A 
HETATM   13  C   UNL     1      -4.648  -1.036 -33.585  1.00  0.00     0.030 A 
ENDROOT
BRANCH   1  14
HETATM   14  N   UNL     1      -5.885  -2.639 -34.885  1.00  0.00    -0.328 N 
HETATM   15  C   UNL     1      -6.605  -3.816 -34.795  1.00  0.00     0.218 C 
HETATM   16  C   UNL     1      -6.326  -4.755 -35.944  1.00  0.00     0.117 C 
HETATM   17  O   UNL     1      -7.417  -4.120 -33.928  1.00  0.00    -0.274 OA
HETATM   18  H   UNL     1      -5.279  -2.535 -35.688  1.00  0.00     0.169 HD
ENDBRANCH   1  14
BRANCH   8  19
HETATM   19  N   UNL     1      -7.299   4.735 -28.719  1.00  0.00    -0.328 N 
HETATM   20  C   UNL     1      -7.385   6.088 -28.831  1.00  0.00     0.218 C 
HETATM   21  C   UNL     1      -7.145   6.798 -30.129  1.00  0.00     0.117 C 
HETATM   22  O   UNL     1      -7.691   6.732 -27.822  1.00  0.00    -0.274 OA
HETATM   23  H   UNL     1      -7.561   4.452 -27.781  1.00  0.00     0.169 HD
ENDBRANCH   8  19
TORSDOF 2
ENDMDL
