MODEL 1
REMARK VINA RESULT:      -8.1      0.000      0.000
REMARK  5 active torsions:
REMARK  status: ('A' for Active; 'I' for Inactive)
REMARK    1  A    between atoms: C_2  and  O_3 
REMARK    2  A    between atoms: C_2  and  C_5 
REMARK    3  A    between atoms: C_7  and  N_8 
REMARK    4  A    between atoms: N_8  and  C_9 
REMARK    5  A    between atoms: C_9  and  C_10 
ROOT
HETATM    1  N   UNL     1      -8.819   0.313 -34.027  1.00  0.00    -0.289 NA
HETATM    2  H   UNL     1      -8.731   1.215 -34.494  1.00  0.00     0.128 HD
ENDROOT
BRANCH   1   3
HETATM    3  C   UNL     1      -7.553  -0.224 -33.777  1.00  0.00     0.009 A 
HETATM    4  C   UNL     1      -7.159  -1.334 -34.544  1.00  0.00     0.033 A 
HETATM    5  C   UNL     1      -5.929  -1.984 -34.344  1.00  0.00    -0.028 A 
HETATM    6  C   UNL     1      -5.079  -1.488 -33.345  1.00  0.00     0.010 A 
HETATM    7  C   UNL     1      -5.450  -0.387 -32.575  1.00  0.00     0.002 A 
HETATM    8  C   UNL     1      -6.684   0.231 -32.783  1.00  0.00     0.023 A 
BRANCH   5   9
HETATM    9  C   UNL     1      -5.502  -3.223 -35.115  1.00  0.00     0.149 C 
HETATM   10  C   UNL     1      -6.530  -4.353 -35.167  1.00  0.00     0.045 C 
BRANCH   9  11
HETATM   11  O   UNL     1      -4.299  -3.691 -34.491  1.00  0.00    -0.386 OA
HETATM   12  C   UNL     1      -4.367  -5.044 -34.068  1.00  0.00     0.202 C 
ENDBRANCH   9  11
ENDBRANCH   5   9
ENDBRANCH   1   3
BRANCH   1  13
HETATM   13  C   UNL     1      -9.832   0.350 -32.975  1.00  0.00     0.133 C 
BRANCH  13  14
HETATM   14  C   UNL     1     -11.178   0.705 -33.569  1.00  0.00    -0.016 A 
HETATM   15  C   UNL     1     -11.406   1.814 -34.405  1.00  0.00     0.069 A 
HETATM   16  C   UNL     1     -12.635   2.124 -34.972  1.00  0.00     0.012 A 
HETATM   17  N   UNL     1     -10.552   2.797 -34.843  1.00  0.00    -0.277 N 
HETATM   18  C   UNL     1     -12.402   3.317 -35.691  1.00  0.00     0.152 A 
HETATM   19  C   UNL     1     -13.731   1.280 -34.733  1.00  0.00     0.015 A 
HETATM   20  N   UNL     1     -11.137   3.737 -35.609  1.00  0.00    -0.186 NA
HETATM   21  C   UNL     1     -13.541   0.147 -33.934  1.00  0.00     0.002 A 
HETATM   22  C   UNL     1     -12.294  -0.134 -33.369  1.00  0.00     0.011 A 
HETATM   23  H   UNL     1      -9.563   2.873 -34.619  1.00  0.00     0.189 HD
ENDBRANCH  13  14
ENDBRANCH   1  13
TORSDOF 5
ENDMDL
MODEL 2
REMARK VINA RESULT:      -8.1      1.482      2.122
REMARK  5 active torsions:
REMARK  status: ('A' for Active; 'I' for Inactive)
REMARK    1  A    between atoms: C_2  and  O_3 
REMARK    2  A    between atoms: C_2  and  C_5 
REMARK    3  A    between atoms: C_7  and  N_8 
REMARK    4  A    between atoms: N_8  and  C_9 
REMARK    5  A    between atoms: C_9  and  C_10 
ROOT
HETATM    1  N   UNL     1      -8.845  -0.150 -33.202  1.00  0.00    -0.289 NA
HETATM    2  H   UNL     1      -9.388  -0.519 -33.983  1.00  0.00     0.128 HD
ENDROOT
BRANCH   1   3
HETATM    3  C   UNL     1      -7.492  -0.464 -33.367  1.00  0.00     0.009 A 
HETATM    4  C   UNL     1      -7.182  -1.598 -34.138  1.00  0.00     0.033 A 
HETATM    5  C   UNL     1      -5.860  -2.035 -34.328  1.00  0.00    -0.028 A 
HETATM    6  C   UNL     1      -4.831  -1.296 -33.725  1.00  0.00     0.010 A 
HETATM    7  C   UNL     1      -5.118  -0.168 -32.959  1.00  0.00     0.002 A 
HETATM    8  C   UNL     1      -6.441   0.236 -32.772  1.00  0.00     0.023 A 
BRANCH   5   9
HETATM    9  C   UNL     1      -5.497  -3.290 -35.104  1.00  0.00     0.149 C 
HETATM   10  C   UNL     1      -6.545  -4.403 -35.082  1.00  0.00     0.045 C 
BRANCH   9  11
HETATM   11  O   UNL     1      -4.269  -3.771 -34.543  1.00  0.00    -0.386 OA
HETATM   12  C   UNL     1      -4.380  -5.053 -33.945  1.00  0.00     0.202 C 
ENDBRANCH   9  11
ENDBRANCH   5   9
ENDBRANCH   1   3
BRANCH   1  13
HETATM   13  C   UNL     1      -9.256   1.209 -32.858  1.00  0.00     0.133 C 
BRANCH  13  14
HETATM   14  C   UNL     1     -10.455   1.610 -33.690  1.00  0.00    -0.016 A 
HETATM   15  C   UNL     1     -11.663   0.889 -33.734  1.00  0.00     0.069 A 
HETATM   16  C   UNL     1     -12.772   1.272 -34.476  1.00  0.00     0.012 A 
HETATM   17  N   UNL     1     -12.034  -0.278 -33.112  1.00  0.00    -0.277 N 
HETATM   18  C   UNL     1     -13.720   0.250 -34.249  1.00  0.00     0.152 A 
HETATM   19  C   UNL     1     -12.721   2.461 -35.219  1.00  0.00     0.015 A 
HETATM   20  N   UNL     1     -13.272  -0.702 -33.425  1.00  0.00    -0.186 NA
HETATM   21  C   UNL     1     -11.550   3.227 -35.178  1.00  0.00     0.002 A 
HETATM   22  C   UNL     1     -10.446   2.811 -34.428  1.00  0.00     0.011 A 
HETATM   23  H   UNL     1     -11.457  -0.830 -32.483  1.00  0.00     0.189 HD
ENDBRANCH  13  14
ENDBRANCH   1  13
TORSDOF 5
ENDMDL
MODEL 3
REMARK VINA RESULT:      -7.9      4.562      7.035
REMARK  5 active torsions:
REMARK  status: ('A' for Active; 'I' for Inactive)
REMARK    1  A    between atoms: C_2  and  O_3 
REMARK    2  A    between atoms: C_2  and  C_5 
REMARK    3  A    between atoms: C_7  and  N_8 
REMARK    4  A    between atoms: N_8  and  C_9 
REMARK    5  A    between atoms: C_9  and  C_10 
ROOT
HETATM    1  N   UNL     1      -5.341   2.021 -32.388  1.00  0.00    -0.289 NA
HETATM    2  H   UNL     1      -5.410   1.639 -31.445  1.00  0.00     0.128 HD
ENDROOT
BRANCH   1   3
HETATM    3  C   UNL     1      -5.973   1.167 -33.298  1.00  0.00     0.009 A 
HETATM    4  C   UNL     1      -5.654  -0.200 -33.231  1.00  0.00     0.033 A 
HETATM    5  C   UNL     1      -6.191  -1.140 -34.127  1.00  0.00    -0.028 A 
HETATM    6  C   UNL     1      -7.079  -0.677 -35.109  1.00  0.00     0.010 A 
HETATM    7  C   UNL     1      -7.411   0.674 -35.191  1.00  0.00     0.002 A 
HETATM    8  C   UNL     1      -6.852   1.590 -34.298  1.00  0.00     0.023 A 
BRANCH   5   9
HETATM    9  C   UNL     1      -5.817  -2.613 -34.119  1.00  0.00     0.149 C 
HETATM   10  C   UNL     1      -4.427  -2.942 -34.665  1.00  0.00     0.045 C 
BRANCH   9  11
HETATM   11  O   UNL     1      -6.815  -3.287 -34.896  1.00  0.00    -0.386 OA
HETATM   12  C   UNL     1      -6.424  -4.582 -35.325  1.00  0.00     0.202 C 
ENDBRANCH   9  11
ENDBRANCH   5   9
ENDBRANCH   1   3
BRANCH   1  13
HETATM   13  C   UNL     1      -5.609   3.456 -32.406  1.00  0.00     0.133 C 
BRANCH  13  14
HETATM   14  C   UNL     1      -4.499   4.177 -33.141  1.00  0.00    -0.016 A 
HETATM   15  C   UNL     1      -3.201   4.358 -32.630  1.00  0.00     0.069 A 
HETATM   16  C   UNL     1      -2.175   4.996 -33.316  1.00  0.00     0.012 A 
HETATM   17  N   UNL     1      -2.650   3.989 -31.427  1.00  0.00    -0.277 N 
HETATM   18  C   UNL     1      -1.084   4.976 -32.419  1.00  0.00     0.152 A 
HETATM   19  C   UNL     1      -2.414   5.477 -34.613  1.00  0.00     0.015 A 
HETATM   20  N   UNL     1      -1.371   4.372 -31.263  1.00  0.00    -0.186 NA
HETATM   21  C   UNL     1      -3.683   5.288 -35.173  1.00  0.00     0.002 A 
HETATM   22  C   UNL     1      -4.698   4.650 -34.454  1.00  0.00     0.011 A 
HETATM   23  H   UNL     1      -3.127   3.492 -30.679  1.00  0.00     0.189 HD
ENDBRANCH  13  14
ENDBRANCH   1  13
TORSDOF 5
ENDMDL
MODEL 4
REMARK VINA RESULT:      -7.6      4.695      7.222
REMARK  5 active torsions:
REMARK  status: ('A' for Active; 'I' for Inactive)
REMARK    1  A    between atoms: C_2  and  O_3 
REMARK    2  A    between atoms: C_2  and  C_5 
REMARK    3  A    between atoms: C_7  and  N_8 
REMARK    4  A    between atoms: N_8  and  C_9 
REMARK    5  A    between atoms: C_9  and  C_10 
ROOT
HETATM    1  N   UNL     1      -4.749   2.240 -31.501  1.00  0.00    -0.289 NA
HETATM    2  H   UNL     1      -5.169   2.168 -30.574  1.00  0.00     0.128 HD
ENDROOT
BRANCH   1   3
HETATM    3  C   UNL     1      -4.532   0.964 -32.029  1.00  0.00     0.009 A 
HETATM    4  C   UNL     1      -5.401   0.529 -33.045  1.00  0.00     0.033 A 
HETATM    5  C   UNL     1      -5.308  -0.753 -33.613  1.00  0.00    -0.028 A 
HETATM    6  C   UNL     1      -4.301  -1.608 -33.141  1.00  0.00     0.010 A 
HETATM    7  C   UNL     1      -3.428  -1.195 -32.137  1.00  0.00     0.002 A 
HETATM    8  C   UNL     1      -3.552   0.078 -31.578  1.00  0.00     0.023 A 
BRANCH   5   9
HETATM    9  C   UNL     1      -6.270  -1.273 -34.668  1.00  0.00     0.149 C 
HETATM   10  C   UNL     1      -7.292  -0.259 -35.184  1.00  0.00     0.045 C 
BRANCH   9  11
HETATM   11  O   UNL     1      -6.951  -2.388 -34.078  1.00  0.00    -0.386 OA
HETATM   12  C   UNL     1      -6.787  -3.601 -34.799  1.00  0.00     0.202 C 
ENDBRANCH   9  11
ENDBRANCH   5   9
ENDBRANCH   1   3
BRANCH   1  13
HETATM   13  C   UNL     1      -5.391   3.278 -32.302  1.00  0.00     0.133 C 
BRANCH  13  14
HETATM   14  C   UNL     1      -4.342   4.082 -33.039  1.00  0.00    -0.016 A 
HETATM   15  C   UNL     1      -3.056   4.351 -32.537  1.00  0.00     0.069 A 
HETATM   16  C   UNL     1      -2.084   5.066 -33.225  1.00  0.00     0.012 A 
HETATM   17  N   UNL     1      -2.470   4.010 -31.342  1.00  0.00    -0.277 N 
HETATM   18  C   UNL     1      -0.986   5.116 -32.338  1.00  0.00     0.152 A 
HETATM   19  C   UNL     1      -2.368   5.540 -34.515  1.00  0.00     0.015 A 
HETATM   20  N   UNL     1      -1.219   4.482 -31.185  1.00  0.00    -0.186 NA
HETATM   21  C   UNL     1      -3.625   5.267 -35.067  1.00  0.00     0.002 A 
HETATM   22  C   UNL     1      -4.586   4.552 -34.346  1.00  0.00     0.011 A 
HETATM   23  H   UNL     1      -2.904   3.475 -30.595  1.00  0.00     0.189 HD
ENDBRANCH  13  14
ENDBRANCH   1  13
TORSDOF 5
ENDMDL
MODEL 5
REMARK VINA RESULT:      -7.5      5.303      7.888
REMARK  5 active torsions:
REMARK  status: ('A' for Active; 'I' for Inactive)
REMARK    1  A    between atoms: C_2  and  O_3 
REMARK    2  A    between atoms: C_2  and  C_5 
REMARK    3  A    between atoms: C_7  and  N_8 
REMARK    4  A    between atoms: N_8  and  C_9 
REMARK    5  A    between atoms: C_9  and  C_10 
ROOT
HETATM    1  N   UNL     1      -3.867  -0.359 -31.449  1.00  0.00    -0.289 NA
HETATM    2  H   UNL     1      -3.270  -0.709 -30.699  1.00  0.00     0.128 HD
ENDROOT
BRANCH   1   3
HETATM    3  C   UNL     1      -4.204   0.977 -31.210  1.00  0.00     0.009 A 
HETATM    4  C   UNL     1      -3.327   1.961 -31.698  1.00  0.00     0.033 A 
HETATM    5  C   UNL     1      -3.540   3.332 -31.473  1.00  0.00    -0.028 A 
HETATM    6  C   UNL     1      -4.676   3.708 -30.741  1.00  0.00     0.010 A 
HETATM    7  C   UNL     1      -5.559   2.748 -30.251  1.00  0.00     0.002 A 
HETATM    8  C   UNL     1      -5.316   1.392 -30.475  1.00  0.00     0.023 A 
BRANCH   5   9
HETATM    9  C   UNL     1      -2.579   4.415 -31.935  1.00  0.00     0.149 C 
HETATM   10  C   UNL     1      -2.293   4.444 -33.437  1.00  0.00     0.045 C 
BRANCH   9  11
HETATM   11  O   UNL     1      -1.358   4.206 -31.213  1.00  0.00    -0.386 OA
HETATM   12  C   UNL     1      -0.770   5.404 -30.731  1.00  0.00     0.202 C 
ENDBRANCH   9  11
ENDBRANCH   5   9
ENDBRANCH   1   3
BRANCH   1  13
HETATM   13  C   UNL     1      -3.384  -0.781 -32.761  1.00  0.00     0.133 C 
BRANCH  13  14
HETATM   14  C   UNL     1      -4.515  -1.406 -33.549  1.00  0.00    -0.016 A 
HETATM   15  C   UNL     1      -4.607  -2.778 -33.847  1.00  0.00     0.069 A 
HETATM   16  C   UNL     1      -5.658  -3.355 -34.547  1.00  0.00     0.012 A 
HETATM   17  N   UNL     1      -3.759  -3.818 -33.555  1.00  0.00    -0.277 N 
HETATM   18  C   UNL     1      -5.315  -4.722 -34.639  1.00  0.00     0.152 A 
HETATM   19  C   UNL     1      -6.723  -2.545 -34.973  1.00  0.00     0.015 A 
HETATM   20  N   UNL     1      -4.154  -5.008 -34.044  1.00  0.00    -0.186 NA
HETATM   21  C   UNL     1      -6.688  -1.179 -34.668  1.00  0.00     0.002 A 
HETATM   22  C   UNL     1      -5.611  -0.626 -33.970  1.00  0.00     0.011 A 
HETATM   23  H   UNL     1      -2.884  -3.750 -33.041  1.00  0.00     0.189 HD
ENDBRANCH  13  14
ENDBRANCH   1  13
TORSDOF 5
ENDMDL
MODEL 6
REMARK VINA RESULT:      -7.4      5.589      8.370
REMARK  5 active torsions:
REMARK  status: ('A' for Active; 'I' for Inactive)
REMARK    1  A    between atoms: C_2  and  O_3 
REMARK    2  A    between atoms: C_2  and  C_5 
REMARK    3  A    between atoms: C_7  and  N_8 
REMARK    4  A    between atoms: N_8  and  C_9 
REMARK    5  A    between atoms: C_9  and  C_10 
ROOT
HETATM    1  N   UNL     1      -3.002   2.010 -31.270  1.00  0.00    -0.289 NA
HETATM    2  H   UNL     1      -2.817   1.996 -30.267  1.00  0.00     0.128 HD
ENDROOT
BRANCH   1   3
HETATM    3  C   UNL     1      -3.398   0.740 -31.703  1.00  0.00     0.009 A 
HETATM    4  C   UNL     1      -4.673   0.624 -32.282  1.00  0.00     0.033 A 
HETATM    5  C   UNL     1      -5.193  -0.611 -32.706  1.00  0.00    -0.028 A 
HETATM    6  C   UNL     1      -4.392  -1.751 -32.543  1.00  0.00     0.010 A 
HETATM    7  C   UNL     1      -3.124  -1.656 -31.973  1.00  0.00     0.002 A 
HETATM    8  C   UNL     1      -2.637  -0.420 -31.546  1.00  0.00     0.023 A 
BRANCH   5   9
HETATM    9  C   UNL     1      -6.591  -0.778 -33.280  1.00  0.00     0.149 C 
HETATM   10  C   UNL     1      -6.753  -1.908 -34.297  1.00  0.00     0.045 C 
BRANCH   9  11
HETATM   11  O   UNL     1      -6.929   0.474 -33.888  1.00  0.00    -0.386 OA
HETATM   12  C   UNL     1      -7.129   0.390 -35.291  1.00  0.00     0.202 C 
ENDBRANCH   9  11
ENDBRANCH   5   9
ENDBRANCH   1   3
BRANCH   1  13
HETATM   13  C   UNL     1      -3.758   3.197 -31.659  1.00  0.00     0.133 C 
BRANCH  13  14
HETATM   14  C   UNL     1      -2.853   4.167 -32.388  1.00  0.00    -0.016 A 
HETATM   15  C   UNL     1      -1.769   4.838 -31.791  1.00  0.00     0.069 A 
HETATM   16  C   UNL     1      -0.923   5.707 -32.467  1.00  0.00     0.012 A 
HETATM   17  N   UNL     1      -1.302   4.816 -30.500  1.00  0.00    -0.277 N 
HETATM   18  C   UNL     1      -0.021   6.162 -31.480  1.00  0.00     0.152 A 
HETATM   19  C   UNL     1      -1.122   5.928 -33.839  1.00  0.00     0.015 A 
HETATM   20  N   UNL     1      -0.254   5.630 -30.277  1.00  0.00    -0.186 NA
HETATM   21  C   UNL     1      -2.169   5.255 -34.480  1.00  0.00     0.002 A 
HETATM   22  C   UNL     1      -3.010   4.394 -33.771  1.00  0.00     0.011 A 
HETATM   23  H   UNL     1      -1.691   4.273 -29.733  1.00  0.00     0.189 HD
ENDBRANCH  13  14
ENDBRANCH   1  13
TORSDOF 5
ENDMDL
MODEL 7
REMARK VINA RESULT:      -7.3      4.208      7.152
REMARK  5 active torsions:
REMARK  status: ('A' for Active; 'I' for Inactive)
REMARK    1  A    between atoms: C_2  and  O_3 
REMARK    2  A    between atoms: C_2  and  C_5 
REMARK    3  A    between atoms: C_7  and  N_8 
REMARK    4  A    between atoms: N_8  and  C_9 
REMARK    5  A    between atoms: C_9  and  C_10 
ROOT
HETATM    1  N   UNL     1      -3.966   0.182 -31.544  1.00  0.00    -0.289 NA
HETATM    2  H   UNL     1      -3.452  -0.221 -30.760  1.00  0.00     0.128 HD
ENDROOT
BRANCH   1   3
HETATM    3  C   UNL     1      -4.155   1.552 -31.339  1.00  0.00     0.009 A 
HETATM    4  C   UNL     1      -3.223   2.428 -31.922  1.00  0.00     0.033 A 
HETATM    5  C   UNL     1      -3.288   3.820 -31.740  1.00  0.00    -0.028 A 
HETATM    6  C   UNL     1      -4.330   4.331 -30.952  1.00  0.00     0.010 A 
HETATM    7  C   UNL     1      -5.265   3.480 -30.367  1.00  0.00     0.002 A 
HETATM    8  C   UNL     1      -5.170   2.100 -30.551  1.00  0.00     0.023 A 
BRANCH   5   9
HETATM    9  C   UNL     1      -2.261   4.787 -32.306  1.00  0.00     0.149 C 
HETATM   10  C   UNL     1      -2.050   4.712 -33.819  1.00  0.00     0.045 C 
BRANCH   9  11
HETATM   11  O   UNL     1      -1.028   4.507 -31.631  1.00  0.00    -0.386 OA
HETATM   12  C   UNL     1      -0.716   5.438 -30.606  1.00  0.00     0.202 C 
ENDBRANCH   9  11
ENDBRANCH   5   9
ENDBRANCH   1   3
BRANCH   1  13
HETATM   13  C   UNL     1      -3.469  -0.316 -32.824  1.00  0.00     0.133 C 
BRANCH  13  14
HETATM   14  C   UNL     1      -4.570  -1.059 -33.549  1.00  0.00    -0.016 A 
HETATM   15  C   UNL     1      -5.730  -0.450 -34.061  1.00  0.00     0.069 A 
HETATM   16  C   UNL     1      -6.728  -1.128 -34.750  1.00  0.00     0.012 A 
HETATM   17  N   UNL     1      -6.149   0.858 -34.022  1.00  0.00    -0.277 N 
HETATM   18  C   UNL     1      -7.694  -0.139 -35.038  1.00  0.00     0.152 A 
HETATM   19  C   UNL     1      -6.583  -2.504 -34.985  1.00  0.00     0.015 A 
HETATM   20  N   UNL     1      -7.351   1.071 -34.588  1.00  0.00    -0.186 NA
HETATM   21  C   UNL     1      -5.428  -3.145 -34.520  1.00  0.00     0.002 A 
HETATM   22  C   UNL     1      -4.445  -2.437 -33.823  1.00  0.00     0.011 A 
HETATM   23  H   UNL     1      -5.650   1.632 -33.593  1.00  0.00     0.189 HD
ENDBRANCH  13  14
ENDBRANCH   1  13
TORSDOF 5
ENDMDL
MODEL 8
REMARK VINA RESULT:      -7.3      3.807      6.192
REMARK  5 active torsions:
REMARK  status: ('A' for Active; 'I' for Inactive)
REMARK    1  A    between atoms: C_2  and  O_3 
REMARK    2  A    between atoms: C_2  and  C_5 
REMARK    3  A    between atoms: C_7  and  N_8 
REMARK    4  A    between atoms: N_8  and  C_9 
REMARK    5  A    between atoms: C_9  and  C_10 
ROOT
HETATM    1  N   UNL     1      -6.271   0.372 -31.115  1.00  0.00    -0.289 NA
HETATM    2  H   UNL     1      -6.866   1.148 -30.823  1.00  0.00     0.128 HD
ENDROOT
BRANCH   1   3
HETATM    3  C   UNL     1      -6.596  -0.017 -32.418  1.00  0.00     0.009 A 
HETATM    4  C   UNL     1      -5.962  -1.164 -32.926  1.00  0.00     0.033 A 
HETATM    5  C   UNL     1      -6.176  -1.618 -34.239  1.00  0.00    -0.028 A 
HETATM    6  C   UNL     1      -7.060  -0.891 -35.049  1.00  0.00     0.010 A 
HETATM    7  C   UNL     1      -7.700   0.248 -34.563  1.00  0.00     0.002 A 
HETATM    8  C   UNL     1      -7.459   0.686 -33.260  1.00  0.00     0.023 A 
BRANCH   5   9
HETATM    9  C   UNL     1      -5.460  -2.818 -34.837  1.00  0.00     0.149 C 
HETATM   10  C   UNL     1      -6.324  -4.062 -35.047  1.00  0.00     0.045 C 
BRANCH   9  11
HETATM   11  O   UNL     1      -4.377  -3.125 -33.949  1.00  0.00    -0.386 OA
HETATM   12  C   UNL     1      -3.957  -4.480 -34.011  1.00  0.00     0.202 C 
ENDBRANCH   9  11
ENDBRANCH   5   9
ENDBRANCH   1   3
BRANCH   1  13
HETATM   13  C   UNL     1      -4.879   0.589 -30.729  1.00  0.00     0.133 C 
BRANCH  13  14
HETATM   14  C   UNL     1      -4.450   1.988 -31.115  1.00  0.00    -0.016 A 
HETATM   15  C   UNL     1      -4.956   3.161 -30.525  1.00  0.00     0.069 A 
HETATM   16  C   UNL     1      -4.542   4.443 -30.861  1.00  0.00     0.012 A 
HETATM   17  N   UNL     1      -5.906   3.336 -29.548  1.00  0.00    -0.277 N 
HETATM   18  C   UNL     1      -5.331   5.293 -30.053  1.00  0.00     0.152 A 
HETATM   19  C   UNL     1      -3.540   4.608 -31.830  1.00  0.00     0.015 A 
HETATM   20  N   UNL     1      -6.170   4.624 -29.258  1.00  0.00    -0.186 NA
HETATM   21  C   UNL     1      -2.986   3.465 -32.420  1.00  0.00     0.002 A 
HETATM   22  C   UNL     1      -3.429   2.188 -32.067  1.00  0.00     0.011 A 
HETATM   23  H   UNL     1      -6.416   2.597 -29.072  1.00  0.00     0.189 HD
ENDBRANCH  13  14
ENDBRANCH   1  13
TORSDOF 5
ENDMDL
MODEL 9
REMARK VINA RESULT:      -7.1      5.822      8.769
REMARK  5 active torsions:
REMARK  status: ('A' for Active; 'I' for Inactive)
REMARK    1  A    between atoms: C_2  and  O_3 
REMARK    2  A    between atoms: C_2  and  C_5 
REMARK    3  A    between atoms: C_7  and  N_8 
REMARK    4  A    between atoms: N_8  and  C_9 
REMARK    5  A    between atoms: C_9  and  C_10 
ROOT
HETATM    1  N   UNL     1      -4.475   3.291 -32.521  1.00  0.00    -0.289 NA
HETATM    2  H   UNL     1      -5.207   3.882 -32.126  1.00  0.00     0.128 HD
ENDROOT
BRANCH   1   3
HETATM    3  C   UNL     1      -3.365   4.068 -32.864  1.00  0.00     0.009 A 
HETATM    4  C   UNL     1      -2.472   4.411 -31.833  1.00  0.00     0.033 A 
HETATM    5  C   UNL     1      -1.351   5.228 -32.054  1.00  0.00    -0.028 A 
HETATM    6  C   UNL     1      -1.130   5.701 -33.356  1.00  0.00     0.010 A 
HETATM    7  C   UNL     1      -2.001   5.372 -34.392  1.00  0.00     0.002 A 
HETATM    8  C   UNL     1      -3.117   4.571 -34.143  1.00  0.00     0.023 A 
BRANCH   5   9
HETATM    9  C   UNL     1      -0.402   5.665 -30.949  1.00  0.00     0.149 C 
HETATM   10  C   UNL     1       0.526   6.828 -31.301  1.00  0.00     0.045 C 
BRANCH   9  11
HETATM   11  O   UNL     1       0.375   4.511 -30.605  1.00  0.00    -0.386 OA
HETATM   12  C   UNL     1       1.040   4.624 -29.356  1.00  0.00     0.202 C 
ENDBRANCH   9  11
ENDBRANCH   5   9
ENDBRANCH   1   3
BRANCH   1  13
HETATM   13  C   UNL     1      -4.312   2.057 -31.756  1.00  0.00     0.133 C 
BRANCH  13  14
HETATM   14  C   UNL     1      -4.756   0.874 -32.589  1.00  0.00    -0.016 A 
HETATM   15  C   UNL     1      -4.210  -0.418 -32.480  1.00  0.00     0.069 A 
HETATM   16  C   UNL     1      -4.635  -1.510 -33.226  1.00  0.00     0.012 A 
HETATM   17  N   UNL     1      -3.203  -0.902 -31.681  1.00  0.00    -0.277 N 
HETATM   18  C   UNL     1      -3.796  -2.569 -32.814  1.00  0.00     0.152 A 
HETATM   19  C   UNL     1      -5.692  -1.347 -34.135  1.00  0.00     0.015 A 
HETATM   20  N   UNL     1      -2.915  -2.202 -31.879  1.00  0.00    -0.186 NA
HETATM   21  C   UNL     1      -6.286  -0.085 -34.252  1.00  0.00     0.002 A 
HETATM   22  C   UNL     1      -5.830   0.997 -33.495  1.00  0.00     0.011 A 
HETATM   23  H   UNL     1      -2.669  -0.366 -31.001  1.00  0.00     0.189 HD
ENDBRANCH  13  14
ENDBRANCH   1  13
TORSDOF 5
ENDMDL
MODEL 10
REMARK VINA RESULT:      -7.1      5.613      8.276
REMARK  5 active torsions:
REMARK  status: ('A' for Active; 'I' for Inactive)
REMARK    1  A    between atoms: C_2  and  O_3 
REMARK    2  A    between atoms: C_2  and  C_5 
REMARK    3  A    between atoms: C_7  and  N_8 
REMARK    4  A    between atoms: N_8  and  C_9 
REMARK    5  A    between atoms: C_9  and  C_10 
ROOT
HETATM    1  N   UNL     1      -4.564   2.971 -32.180  1.00  0.00    -0.289 NA
HETATM    2  H   UNL     1      -4.759   3.710 -32.856  1.00  0.00     0.128 HD
ENDROOT
BRANCH   1   3
HETATM    3  C   UNL     1      -5.131   1.767 -32.609  1.00  0.00     0.009 A 
HETATM    4  C   UNL     1      -4.289   0.643 -32.674  1.00  0.00     0.033 A 
HETATM    5  C   UNL     1      -4.740  -0.604 -33.137  1.00  0.00    -0.028 A 
HETATM    6  C   UNL     1      -6.081  -0.711 -33.536  1.00  0.00     0.010 A 
HETATM    7  C   UNL     1      -6.932   0.391 -33.478  1.00  0.00     0.002 A 
HETATM    8  C   UNL     1      -6.455   1.623 -33.028  1.00  0.00     0.023 A 
BRANCH   5   9
HETATM    9  C   UNL     1      -3.840  -1.821 -33.276  1.00  0.00     0.149 C 
HETATM   10  C   UNL     1      -4.431  -2.990 -34.065  1.00  0.00     0.045 C 
BRANCH   9  11
HETATM   11  O   UNL     1      -3.526  -2.245 -31.943  1.00  0.00    -0.386 OA
HETATM   12  C   UNL     1      -3.060  -3.584 -31.867  1.00  0.00     0.202 C 
ENDBRANCH   9  11
ENDBRANCH   5   9
ENDBRANCH   1   3
BRANCH   1  13
HETATM   13  C   UNL     1      -3.179   3.018 -31.719  1.00  0.00     0.133 C 
BRANCH  13  14
HETATM   14  C   UNL     1      -2.455   4.171 -32.381  1.00  0.00    -0.016 A 
HETATM   15  C   UNL     1      -1.487   4.968 -31.742  1.00  0.00     0.069 A 
HETATM   16  C   UNL     1      -0.804   6.009 -32.358  1.00  0.00     0.012 A 
HETATM   17  N   UNL     1      -1.004   4.934 -30.457  1.00  0.00    -0.277 N 
HETATM   18  C   UNL     1       0.025   6.537 -31.344  1.00  0.00     0.152 A 
HETATM   19  C   UNL     1      -1.058   6.289 -33.710  1.00  0.00     0.015 A 
HETATM   20  N   UNL     1      -0.099   5.892 -30.181  1.00  0.00    -0.186 NA
HETATM   21  C   UNL     1      -1.990   5.499 -34.393  1.00  0.00     0.002 A 
HETATM   22  C   UNL     1      -2.668   4.464 -33.744  1.00  0.00     0.011 A 
HETATM   23  H   UNL     1      -1.287   4.284 -29.729  1.00  0.00     0.189 HD
ENDBRANCH  13  14
ENDBRANCH   1  13
TORSDOF 5
ENDMDL
