MODEL 1
REMARK VINA RESULT:      -7.9      0.000      0.000
REMARK  6 active torsions:
REMARK  status: ('A' for Active; 'I' for Inactive)
REMARK    1  A    between atoms: C_6  and  O_7 
REMARK    2  A    between atoms: C_8  and  C_9 
REMARK    3  A    between atoms: C_9  and  N_10 
REMARK    4  A    between atoms: N_10  and  C_12 
REMARK    5  A    between atoms: C_12  and  C_13 
REMARK    6  A    between atoms: C_12  and  C_16 
REMARK       I    between atoms: C_13  and  N_14 
ROOT
HETATM    1  N   UNL     1      -7.089   0.490 -32.673  1.00  0.00    -0.054 N 
HETATM    2  H   UNL     1      -6.853  -0.337 -32.107  1.00  0.00     0.281 HD
HETATM    3  C   UNL     1      -8.533   0.416 -33.080  1.00  0.00     0.271 C 
ENDROOT
BRANCH   1   4
HETATM    4  C   UNL     1      -6.166   0.334 -33.873  1.00  0.00     0.277 C 
BRANCH   4   5
HETATM    5  C   UNL     1      -5.567  -1.045 -33.948  1.00  0.00     0.001 A 
HETATM    6  C   UNL     1      -4.388  -1.350 -33.266  1.00  0.00     0.074 A 
HETATM    7  C   UNL     1      -3.850  -2.633 -33.289  1.00  0.00     0.044 A 
HETATM    8  C   UNL     1      -4.501  -3.656 -33.996  1.00  0.00    -0.053 A 
HETATM    9  C   UNL     1      -5.679  -3.363 -34.713  1.00  0.00    -0.055 A 
HETATM   10  C   UNL     1      -3.916  -5.044 -33.987  1.00  0.00     0.049 C 
HETATM   11  C   UNL     1      -6.424  -4.428 -35.473  1.00  0.00     0.049 C 
HETATM   12  C   UNL     1      -6.201  -2.059 -34.679  1.00  0.00     0.019 A 
BRANCH   6  13
HETATM   13  O   UNL     1      -3.798  -0.361 -32.523  1.00  0.00    -0.360 OA
HETATM   14  H   UNL     1      -4.511   0.114 -32.048  1.00  0.00     0.217 HD
ENDBRANCH   6  13
ENDBRANCH   4   5
ENDBRANCH   1   4
BRANCH   1  15
HETATM   15  C   UNL     1      -6.728   1.728 -31.836  1.00  0.00     0.312 C 
BRANCH  15  16
HETATM   16  C   UNL     1      -6.227   1.287 -30.427  1.00  0.00     0.251 C 
HETATM   17  N   UNL     1      -6.538   2.069 -29.348  1.00  0.00    -0.368 N 
HETATM   18  H   UNL     1      -7.351   2.676 -29.324  1.00  0.00     0.159 HD
HETATM   19  H   UNL     1      -6.225   1.725 -28.444  1.00  0.00     0.159 HD
HETATM   20  O   UNL     1      -5.434   0.356 -30.295  1.00  0.00    -0.271 OA
ENDBRANCH  15  16
BRANCH  15  21
HETATM   21  C   UNL     1      -5.832   2.761 -32.527  1.00  0.00    -0.016 A 
HETATM   22  C   UNL     1      -4.451   2.864 -32.290  1.00  0.00     0.052 A 
HETATM   23  C   UNL     1      -3.684   3.817 -32.962  1.00  0.00     0.117 A 
HETATM   24  F   UNL     1      -2.375   3.899 -32.695  1.00  0.00    -0.206 F 
HETATM   25  C   UNL     1      -4.251   4.674 -33.891  1.00  0.00     0.042 A 
HETATM   26  C   UNL     1      -5.607   4.565 -34.173  1.00  0.00     0.004 A 
HETATM   27  C   UNL     1      -6.386   3.610 -33.510  1.00  0.00     0.010 A 
ENDBRANCH  15  21
ENDBRANCH   1  15
TORSDOF 6
ENDMDL
MODEL 2
REMARK VINA RESULT:      -7.5      2.515      3.566
REMARK  6 active torsions:
REMARK  status: ('A' for Active; 'I' for Inactive)
REMARK    1  A    between atoms: C_6  and  O_7 
REMARK    2  A    between atoms: C_8  and  C_9 
REMARK    3  A    between atoms: C_9  and  N_10 
REMARK    4  A    between atoms: N_10  and  C_12 
REMARK    5  A    between atoms: C_12  and  C_13 
REMARK    6  A    between atoms: C_12  and  C_16 
REMARK       I    between atoms: C_13  and  N_14 
ROOT
HETATM    1  N   UNL     1      -6.059   2.944 -32.984  1.00  0.00    -0.054 N 
HETATM    2  H   UNL     1      -5.232   2.349 -32.838  1.00  0.00     0.281 HD
HETATM    3  C   UNL     1      -6.627   3.341 -31.651  1.00  0.00     0.271 C 
ENDROOT
BRANCH   1   4
HETATM    4  C   UNL     1      -7.001   2.009 -33.731  1.00  0.00     0.277 C 
BRANCH   4   5
HETATM    5  C   UNL     1      -6.436   0.620 -33.853  1.00  0.00     0.001 A 
HETATM    6  C   UNL     1      -7.004  -0.309 -34.727  1.00  0.00     0.074 A 
HETATM    7  C   UNL     1      -6.461  -1.581 -34.883  1.00  0.00     0.044 A 
HETATM    8  C   UNL     1      -5.313  -1.948 -34.165  1.00  0.00    -0.053 A 
HETATM    9  C   UNL     1      -4.740  -1.035 -33.258  1.00  0.00    -0.055 A 
HETATM   10  C   UNL     1      -4.727  -3.322 -34.368  1.00  0.00     0.049 C 
HETATM   11  C   UNL     1      -3.498  -1.375 -32.476  1.00  0.00     0.049 C 
HETATM   12  C   UNL     1      -5.307   0.242 -33.113  1.00  0.00     0.019 A 
BRANCH   6  13
HETATM   13  O   UNL     1      -8.084   0.084 -35.474  1.00  0.00    -0.360 OA
HETATM   14  H   UNL     1      -8.760   0.428 -34.854  1.00  0.00     0.217 HD
ENDBRANCH   6  13
ENDBRANCH   4   5
ENDBRANCH   1   4
BRANCH   1  15
HETATM   15  C   UNL     1      -5.616   4.125 -33.863  1.00  0.00     0.312 C 
BRANCH  15  16
HETATM   16  C   UNL     1      -6.630   5.302 -33.719  1.00  0.00     0.251 C 
HETATM   17  N   UNL     1      -6.293   6.360 -32.921  1.00  0.00    -0.368 N 
HETATM   18  H   UNL     1      -5.331   6.620 -32.727  1.00  0.00     0.159 HD
HETATM   19  H   UNL     1      -6.964   7.123 -32.885  1.00  0.00     0.159 HD
HETATM   20  O   UNL     1      -7.771   5.219 -34.170  1.00  0.00    -0.271 OA
ENDBRANCH  15  16
BRANCH  15  21
HETATM   21  C   UNL     1      -4.148   4.540 -33.730  1.00  0.00    -0.016 A 
HETATM   22  C   UNL     1      -3.371   4.269 -32.591  1.00  0.00     0.052 A 
HETATM   23  C   UNL     1      -2.032   4.660 -32.534  1.00  0.00     0.117 A 
HETATM   24  F   UNL     1      -1.330   4.402 -31.425  1.00  0.00    -0.206 F 
HETATM   25  C   UNL     1      -1.425   5.308 -33.597  1.00  0.00     0.042 A 
HETATM   26  C   UNL     1      -2.161   5.552 -34.751  1.00  0.00     0.004 A 
HETATM   27  C   UNL     1      -3.502   5.160 -34.822  1.00  0.00     0.010 A 
ENDBRANCH  15  21
ENDBRANCH   1  15
TORSDOF 6
ENDMDL
MODEL 3
REMARK VINA RESULT:      -7.3      2.850      6.415
REMARK  6 active torsions:
REMARK  status: ('A' for Active; 'I' for Inactive)
REMARK    1  A    between atoms: C_6  and  O_7 
REMARK    2  A    between atoms: C_8  and  C_9 
REMARK    3  A    between atoms: C_9  and  N_10 
REMARK    4  A    between atoms: N_10  and  C_12 
REMARK    5  A    between atoms: C_12  and  C_13 
REMARK    6  A    between atoms: C_12  and  C_16 
REMARK       I    between atoms: C_13  and  N_14 
ROOT
HETATM    1  N   UNL     1      -5.957   2.674 -31.555  1.00  0.00    -0.054 N 
HETATM    2  H   UNL     1      -6.315   3.464 -32.110  1.00  0.00     0.281 HD
HETATM    3  C   UNL     1      -5.666   3.143 -30.158  1.00  0.00     0.271 C 
ENDROOT
BRANCH   1   4
HETATM    4  C   UNL     1      -4.676   2.316 -32.296  1.00  0.00     0.277 C 
BRANCH   4   5
HETATM    5  C   UNL     1      -3.921   3.539 -32.742  1.00  0.00     0.001 A 
HETATM    6  C   UNL     1      -4.487   4.439 -33.646  1.00  0.00     0.074 A 
HETATM    7  C   UNL     1      -3.818   5.597 -34.029  1.00  0.00     0.044 A 
HETATM    8  C   UNL     1      -2.554   5.888 -33.494  1.00  0.00    -0.053 A 
HETATM    9  C   UNL     1      -1.953   4.980 -32.599  1.00  0.00    -0.055 A 
HETATM   10  C   UNL     1      -1.857   7.160 -33.902  1.00  0.00     0.049 C 
HETATM   11  C   UNL     1      -0.605   5.254 -31.984  1.00  0.00     0.049 C 
HETATM   12  C   UNL     1      -2.645   3.814 -32.231  1.00  0.00     0.019 A 
BRANCH   6  13
HETATM   13  O   UNL     1      -5.751   4.180 -34.110  1.00  0.00    -0.360 OA
HETATM   14  H   UNL     1      -5.814   4.555 -35.013  1.00  0.00     0.217 HD
ENDBRANCH   6  13
ENDBRANCH   4   5
ENDBRANCH   1   4
BRANCH   1  15
HETATM   15  C   UNL     1      -6.999   1.548 -31.645  1.00  0.00     0.312 C 
BRANCH  15  16
HETATM   16  C   UNL     1      -8.427   2.129 -31.409  1.00  0.00     0.251 C 
HETATM   17  N   UNL     1      -9.391   1.305 -30.895  1.00  0.00    -0.368 N 
HETATM   18  H   UNL     1      -9.176   0.497 -30.320  1.00  0.00     0.159 HD
HETATM   19  H   UNL     1     -10.296   1.733 -30.721  1.00  0.00     0.159 HD
HETATM   20  O   UNL     1      -8.738   3.245 -31.823  1.00  0.00    -0.271 OA
ENDBRANCH  15  16
BRANCH  15  21
HETATM   21  C   UNL     1      -6.887   0.632 -32.867  1.00  0.00    -0.016 A 
HETATM   22  C   UNL     1      -6.320  -0.652 -32.818  1.00  0.00     0.052 A 
HETATM   23  C   UNL     1      -6.259  -1.447 -33.963  1.00  0.00     0.117 A 
HETATM   24  F   UNL     1      -5.694  -2.657 -33.882  1.00  0.00    -0.206 F 
HETATM   25  C   UNL     1      -6.767  -1.006 -35.174  1.00  0.00     0.042 A 
HETATM   26  C   UNL     1      -7.369   0.245 -35.240  1.00  0.00     0.004 A 
HETATM   27  C   UNL     1      -7.441   1.049 -34.097  1.00  0.00     0.010 A 
ENDBRANCH  15  21
ENDBRANCH   1  15
TORSDOF 6
ENDMDL
MODEL 4
REMARK VINA RESULT:      -7.3      2.176      3.091
REMARK  6 active torsions:
REMARK  status: ('A' for Active; 'I' for Inactive)
REMARK    1  A    between atoms: C_6  and  O_7 
REMARK    2  A    between atoms: C_8  and  C_9 
REMARK    3  A    between atoms: C_9  and  N_10 
REMARK    4  A    between atoms: N_10  and  C_12 
REMARK    5  A    between atoms: C_12  and  C_13 
REMARK    6  A    between atoms: C_12  and  C_16 
REMARK       I    between atoms: C_13  and  N_14 
ROOT
HETATM    1  N   UNL     1      -6.732   2.612 -32.007  1.00  0.00    -0.054 N 
HETATM    2  H   UNL     1      -6.136   1.858 -31.639  1.00  0.00     0.281 HD
HETATM    3  C   UNL     1      -8.098   2.509 -31.391  1.00  0.00     0.271 C 
ENDROOT
BRANCH   1   4
HETATM    4  C   UNL     1      -6.771   2.292 -33.495  1.00  0.00     0.277 C 
BRANCH   4   5
HETATM    5  C   UNL     1      -6.494   0.839 -33.768  1.00  0.00     0.001 A 
HETATM    6  C   UNL     1      -7.311   0.104 -34.628  1.00  0.00     0.074 A 
HETATM    7  C   UNL     1      -7.036  -1.228 -34.924  1.00  0.00     0.044 A 
HETATM    8  C   UNL     1      -5.912  -1.855 -34.366  1.00  0.00    -0.053 A 
HETATM    9  C   UNL     1      -5.089  -1.139 -33.474  1.00  0.00    -0.055 A 
HETATM   10  C   UNL     1      -5.619  -3.290 -34.720  1.00  0.00     0.049 C 
HETATM   11  C   UNL     1      -3.862  -1.762 -32.861  1.00  0.00     0.049 C 
HETATM   12  C   UNL     1      -5.388   0.203 -33.186  1.00  0.00     0.019 A 
BRANCH   6  13
HETATM   13  O   UNL     1      -8.366   0.746 -35.222  1.00  0.00    -0.360 OA
HETATM   14  H   UNL     1      -8.743   0.135 -35.889  1.00  0.00     0.217 HD
ENDBRANCH   6  13
ENDBRANCH   4   5
ENDBRANCH   1   4
BRANCH   1  15
HETATM   15  C   UNL     1      -6.007   3.939 -31.730  1.00  0.00     0.312 C 
BRANCH  15  16
HETATM   16  C   UNL     1      -5.770   4.102 -30.197  1.00  0.00     0.251 C 
HETATM   17  N   UNL     1      -5.417   2.999 -29.469  1.00  0.00    -0.368 N 
HETATM   18  H   UNL     1      -4.942   2.200 -29.876  1.00  0.00     0.159 HD
HETATM   19  H   UNL     1      -5.235   3.157 -28.482  1.00  0.00     0.159 HD
HETATM   20  O   UNL     1      -6.050   5.150 -29.617  1.00  0.00    -0.271 OA
ENDBRANCH  15  16
BRANCH  15  21
HETATM   21  C   UNL     1      -4.770   4.214 -32.590  1.00  0.00    -0.016 A 
HETATM   22  C   UNL     1      -4.834   4.790 -33.870  1.00  0.00     0.052 A 
HETATM   23  C   UNL     1      -3.670   5.030 -34.601  1.00  0.00     0.117 A 
HETATM   24  F   UNL     1      -3.772   5.561 -35.825  1.00  0.00    -0.206 F 
HETATM   25  C   UNL     1      -2.420   4.728 -34.085  1.00  0.00     0.042 A 
HETATM   26  C   UNL     1      -2.327   4.195 -32.805  1.00  0.00     0.004 A 
HETATM   27  C   UNL     1      -3.487   3.955 -32.060  1.00  0.00     0.010 A 
ENDBRANCH  15  21
ENDBRANCH   1  15
TORSDOF 6
ENDMDL
MODEL 5
REMARK VINA RESULT:      -7.3      2.350      3.648
REMARK  6 active torsions:
REMARK  status: ('A' for Active; 'I' for Inactive)
REMARK    1  A    between atoms: C_6  and  O_7 
REMARK    2  A    between atoms: C_8  and  C_9 
REMARK    3  A    between atoms: C_9  and  N_10 
REMARK    4  A    between atoms: N_10  and  C_12 
REMARK    5  A    between atoms: C_12  and  C_13 
REMARK    6  A    between atoms: C_12  and  C_16 
REMARK       I    between atoms: C_13  and  N_14 
ROOT
HETATM    1  N   UNL     1      -4.403   1.781 -31.754  1.00  0.00    -0.054 N 
HETATM    2  H   UNL     1      -4.690   1.672 -32.736  1.00  0.00     0.281 HD
HETATM    3  C   UNL     1      -3.315   2.814 -31.667  1.00  0.00     0.271 C 
ENDROOT
BRANCH   1   4
HETATM    4  C   UNL     1      -3.876   0.393 -31.416  1.00  0.00     0.277 C 
BRANCH   4   5
HETATM    5  C   UNL     1      -4.314  -0.637 -32.423  1.00  0.00     0.001 A 
HETATM    6  C   UNL     1      -3.694  -1.886 -32.483  1.00  0.00     0.074 A 
HETATM    7  C   UNL     1      -4.121  -2.862 -33.378  1.00  0.00     0.044 A 
HETATM    8  C   UNL     1      -5.204  -2.607 -34.234  1.00  0.00    -0.053 A 
HETATM    9  C   UNL     1      -5.827  -1.343 -34.206  1.00  0.00    -0.055 A 
HETATM   10  C   UNL     1      -5.667  -3.687 -35.177  1.00  0.00     0.049 C 
HETATM   11  C   UNL     1      -7.003  -1.024 -35.093  1.00  0.00     0.049 C 
HETATM   12  C   UNL     1      -5.376  -0.371 -33.298  1.00  0.00     0.019 A 
BRANCH   6  13
HETATM   13  O   UNL     1      -2.683  -2.149 -31.597  1.00  0.00    -0.360 OA
HETATM   14  H   UNL     1      -2.032  -1.419 -31.669  1.00  0.00     0.217 HD
ENDBRANCH   6  13
ENDBRANCH   4   5
ENDBRANCH   1   4
BRANCH   1  15
HETATM   15  C   UNL     1      -5.667   2.121 -30.948  1.00  0.00     0.312 C 
BRANCH  15  16
HETATM   16  C   UNL     1      -5.556   3.565 -30.372  1.00  0.00     0.251 C 
HETATM   17  N   UNL     1      -5.352   3.718 -29.027  1.00  0.00    -0.368 N 
HETATM   18  H   UNL     1      -4.903   3.011 -28.455  1.00  0.00     0.159 HD
HETATM   19  H   UNL     1      -5.246   4.675 -28.700  1.00  0.00     0.159 HD
HETATM   20  O   UNL     1      -5.807   4.550 -31.065  1.00  0.00    -0.271 OA
ENDBRANCH  15  16
BRANCH  15  21
HETATM   21  C   UNL     1      -7.000   1.822 -31.643  1.00  0.00    -0.016 A 
HETATM   22  C   UNL     1      -7.430   2.490 -32.802  1.00  0.00     0.052 A 
HETATM   23  C   UNL     1      -8.649   2.163 -33.399  1.00  0.00     0.117 A 
HETATM   24  F   UNL     1      -9.035   2.835 -34.490  1.00  0.00    -0.206 F 
HETATM   25  C   UNL     1      -9.460   1.166 -32.883  1.00  0.00     0.042 A 
HETATM   26  C   UNL     1      -9.037   0.463 -31.761  1.00  0.00     0.004 A 
HETATM   27  C   UNL     1      -7.815   0.777 -31.156  1.00  0.00     0.010 A 
ENDBRANCH  15  21
ENDBRANCH   1  15
TORSDOF 6
ENDMDL
MODEL 6
REMARK VINA RESULT:      -7.2      2.594      3.887
REMARK  6 active torsions:
REMARK  status: ('A' for Active; 'I' for Inactive)
REMARK    1  A    between atoms: C_6  and  O_7 
REMARK    2  A    between atoms: C_8  and  C_9 
REMARK    3  A    between atoms: C_9  and  N_10 
REMARK    4  A    between atoms: N_10  and  C_12 
REMARK    5  A    between atoms: C_12  and  C_13 
REMARK    6  A    between atoms: C_12  and  C_16 
REMARK       I    between atoms: C_13  and  N_14 
ROOT
HETATM    1  N   UNL     1      -6.547   0.960 -33.045  1.00  0.00    -0.054 N 
HETATM    2  H   UNL     1      -6.777   0.061 -33.491  1.00  0.00     0.281 HD
HETATM    3  C   UNL     1      -6.511   2.037 -34.092  1.00  0.00     0.271 C 
ENDROOT
BRANCH   1   4
HETATM    4  C   UNL     1      -5.159   0.692 -32.479  1.00  0.00     0.277 C 
BRANCH   4   5
HETATM    5  C   UNL     1      -4.684  -0.703 -32.785  1.00  0.00     0.001 A 
HETATM    6  C   UNL     1      -3.689  -1.305 -32.013  1.00  0.00     0.074 A 
HETATM    7  C   UNL     1      -3.276  -2.611 -32.257  1.00  0.00     0.044 A 
HETATM    8  C   UNL     1      -3.871  -3.356 -33.287  1.00  0.00    -0.053 A 
HETATM    9  C   UNL     1      -4.859  -2.758 -34.094  1.00  0.00    -0.055 A 
HETATM   10  C   UNL     1      -3.427  -4.777 -33.518  1.00  0.00     0.049 C 
HETATM   11  C   UNL     1      -5.540  -3.520 -35.202  1.00  0.00     0.049 C 
HETATM   12  C   UNL     1      -5.258  -1.436 -33.832  1.00  0.00     0.019 A 
BRANCH   6  13
HETATM   13  O   UNL     1      -3.164  -0.592 -30.967  1.00  0.00    -0.360 OA
HETATM   14  H   UNL     1      -3.841   0.058 -30.685  1.00  0.00     0.217 HD
ENDBRANCH   6  13
ENDBRANCH   4   5
ENDBRANCH   1   4
BRANCH   1  15
HETATM   15  C   UNL     1      -7.581   1.191 -31.931  1.00  0.00     0.312 C 
BRANCH  15  16
HETATM   16  C   UNL     1      -7.034   2.233 -30.909  1.00  0.00     0.251 C 
HETATM   17  N   UNL     1      -6.849   1.841 -29.611  1.00  0.00    -0.368 N 
HETATM   18  H   UNL     1      -6.679   0.876 -29.346  1.00  0.00     0.159 HD
HETATM   19  H   UNL     1      -6.455   2.539 -28.987  1.00  0.00     0.159 HD
HETATM   20  O   UNL     1      -6.923   3.421 -31.207  1.00  0.00    -0.271 OA
ENDBRANCH  15  16
BRANCH  15  21
HETATM   21  C   UNL     1      -9.014   1.461 -32.399  1.00  0.00    -0.016 A 
HETATM   22  C   UNL     1      -9.616   2.729 -32.343  1.00  0.00     0.052 A 
HETATM   23  C   UNL     1     -10.922   2.917 -32.798  1.00  0.00     0.117 A 
HETATM   24  F   UNL     1     -11.469   4.135 -32.709  1.00  0.00    -0.206 F 
HETATM   25  C   UNL     1     -11.656   1.871 -33.333  1.00  0.00     0.042 A 
HETATM   26  C   UNL     1     -11.069   0.616 -33.437  1.00  0.00     0.004 A 
HETATM   27  C   UNL     1      -9.758   0.416 -32.989  1.00  0.00     0.010 A 
ENDBRANCH  15  21
ENDBRANCH   1  15
TORSDOF 6
ENDMDL
MODEL 7
REMARK VINA RESULT:      -7.1      2.180      2.716
REMARK  6 active torsions:
REMARK  status: ('A' for Active; 'I' for Inactive)
REMARK    1  A    between atoms: C_6  and  O_7 
REMARK    2  A    between atoms: C_8  and  C_9 
REMARK    3  A    between atoms: C_9  and  N_10 
REMARK    4  A    between atoms: N_10  and  C_12 
REMARK    5  A    between atoms: C_12  and  C_13 
REMARK    6  A    between atoms: C_12  and  C_16 
REMARK       I    between atoms: C_13  and  N_14 
ROOT
HETATM    1  N   UNL     1      -7.834   0.829 -33.653  1.00  0.00    -0.054 N 
HETATM    2  H   UNL     1      -6.975   0.793 -33.088  1.00  0.00     0.281 HD
HETATM    3  C   UNL     1      -8.928   0.088 -32.939  1.00  0.00     0.271 C 
ENDROOT
BRANCH   1   4
HETATM    4  C   UNL     1      -7.413   0.106 -34.925  1.00  0.00     0.277 C 
BRANCH   4   5
HETATM    5  C   UNL     1      -6.447  -1.013 -34.644  1.00  0.00     0.001 A 
HETATM    6  C   UNL     1      -5.288  -0.787 -33.900  1.00  0.00     0.074 A 
HETATM    7  C   UNL     1      -4.412  -1.824 -33.594  1.00  0.00     0.044 A 
HETATM    8  C   UNL     1      -4.691  -3.131 -34.023  1.00  0.00    -0.053 A 
HETATM    9  C   UNL     1      -5.842  -3.375 -34.799  1.00  0.00    -0.055 A 
HETATM   10  C   UNL     1      -3.742  -4.243 -33.660  1.00  0.00     0.049 C 
HETATM   11  C   UNL     1      -6.195  -4.762 -35.270  1.00  0.00     0.049 C 
HETATM   12  C   UNL     1      -6.711  -2.312 -35.099  1.00  0.00     0.019 A 
BRANCH   6  13
HETATM   13  O   UNL     1      -5.061   0.479 -33.427  1.00  0.00    -0.360 OA
HETATM   14  H   UNL     1      -5.405   0.516 -32.510  1.00  0.00     0.217 HD
ENDBRANCH   6  13
ENDBRANCH   4   5
ENDBRANCH   1   4
BRANCH   1  15
HETATM   15  C   UNL     1      -8.139   2.313 -33.917  1.00  0.00     0.312 C 
BRANCH  15  16
HETATM   16  C   UNL     1      -9.672   2.568 -33.792  1.00  0.00     0.251 C 
HETATM   17  N   UNL     1     -10.456   2.398 -34.900  1.00  0.00    -0.368 N 
HETATM   18  H   UNL     1     -10.203   1.779 -35.663  1.00  0.00     0.159 HD
HETATM   19  H   UNL     1     -11.453   2.537 -34.766  1.00  0.00     0.159 HD
HETATM   20  O   UNL     1     -10.154   3.069 -32.777  1.00  0.00    -0.271 OA
ENDBRANCH  15  16
BRANCH  15  21
HETATM   21  C   UNL     1      -7.269   3.317 -33.154  1.00  0.00    -0.016 A 
HETATM   22  C   UNL     1      -6.732   3.060 -31.882  1.00  0.00     0.052 A 
HETATM   23  C   UNL     1      -5.933   4.010 -31.243  1.00  0.00     0.117 A 
HETATM   24  F   UNL     1      -5.456   3.738 -30.023  1.00  0.00    -0.206 F 
HETATM   25  C   UNL     1      -5.633   5.221 -31.844  1.00  0.00     0.042 A 
HETATM   26  C   UNL     1      -6.119   5.483 -33.119  1.00  0.00     0.004 A 
HETATM   27  C   UNL     1      -6.916   4.536 -33.773  1.00  0.00     0.010 A 
ENDBRANCH  15  21
ENDBRANCH   1  15
TORSDOF 6
ENDMDL
MODEL 8
REMARK VINA RESULT:      -7.1      3.435      7.312
REMARK  6 active torsions:
REMARK  status: ('A' for Active; 'I' for Inactive)
REMARK    1  A    between atoms: C_6  and  O_7 
REMARK    2  A    between atoms: C_8  and  C_9 
REMARK    3  A    between atoms: C_9  and  N_10 
REMARK    4  A    between atoms: N_10  and  C_12 
REMARK    5  A    between atoms: C_12  and  C_13 
REMARK    6  A    between atoms: C_12  and  C_16 
REMARK       I    between atoms: C_13  and  N_14 
ROOT
HETATM    1  N   UNL     1      -6.654   0.538 -32.548  1.00  0.00    -0.054 N 
HETATM    2  H   UNL     1      -5.781   0.088 -32.239  1.00  0.00     0.281 HD
HETATM    3  C   UNL     1      -6.350   1.924 -33.040  1.00  0.00     0.271 C 
ENDROOT
BRANCH   1   4
HETATM    4  C   UNL     1      -7.470   0.573 -31.263  1.00  0.00     0.277 C 
BRANCH   4   5
HETATM    5  C   UNL     1      -7.977   1.956 -30.954  1.00  0.00     0.001 A 
HETATM    6  C   UNL     1      -9.224   2.380 -31.418  1.00  0.00     0.074 A 
HETATM    7  C   UNL     1      -9.724   3.639 -31.099  1.00  0.00     0.044 A 
HETATM    8  C   UNL     1      -8.979   4.506 -30.285  1.00  0.00    -0.053 A 
HETATM    9  C   UNL     1      -7.706   4.107 -29.828  1.00  0.00    -0.055 A 
HETATM   10  C   UNL     1      -9.550   5.855 -29.931  1.00  0.00     0.049 C 
HETATM   11  C   UNL     1      -6.875   4.994 -28.939  1.00  0.00     0.049 C 
HETATM   12  C   UNL     1      -7.220   2.833 -30.166  1.00  0.00     0.019 A 
BRANCH   6  13
HETATM   13  O   UNL     1      -9.972   1.500 -32.154  1.00  0.00    -0.360 OA
HETATM   14  H   UNL     1     -10.687   2.012 -32.586  1.00  0.00     0.217 HD
ENDBRANCH   6  13
ENDBRANCH   4   5
ENDBRANCH   1   4
BRANCH   1  15
HETATM   15  C   UNL     1      -7.291  -0.385 -33.600  1.00  0.00     0.312 C 
BRANCH  15  16
HETATM   16  C   UNL     1      -7.761   0.456 -34.826  1.00  0.00     0.251 C 
HETATM   17  N   UNL     1      -9.047   0.922 -34.845  1.00  0.00    -0.368 N 
HETATM   18  H   UNL     1      -9.585   1.090 -34.002  1.00  0.00     0.159 HD
HETATM   19  H   UNL     1      -9.300   1.498 -35.644  1.00  0.00     0.159 HD
HETATM   20  O   UNL     1      -7.059   0.566 -35.830  1.00  0.00    -0.271 OA
ENDBRANCH  15  16
BRANCH  15  21
HETATM   21  C   UNL     1      -6.484  -1.634 -33.966  1.00  0.00    -0.016 A 
HETATM   22  C   UNL     1      -7.045  -2.754 -34.603  1.00  0.00     0.052 A 
HETATM   23  C   UNL     1      -6.255  -3.859 -34.925  1.00  0.00     0.117 A 
HETATM   24  F   UNL     1      -6.828  -4.915 -35.512  1.00  0.00    -0.206 F 
HETATM   25  C   UNL     1      -4.898  -3.880 -34.645  1.00  0.00     0.042 A 
HETATM   26  C   UNL     1      -4.312  -2.768 -34.052  1.00  0.00     0.004 A 
HETATM   27  C   UNL     1      -5.092  -1.653 -33.729  1.00  0.00     0.010 A 
ENDBRANCH  15  21
ENDBRANCH   1  15
TORSDOF 6
ENDMDL
MODEL 9
REMARK VINA RESULT:      -7.0      3.090      6.684
REMARK  6 active torsions:
REMARK  status: ('A' for Active; 'I' for Inactive)
REMARK    1  A    between atoms: C_6  and  O_7 
REMARK    2  A    between atoms: C_8  and  C_9 
REMARK    3  A    between atoms: C_9  and  N_10 
REMARK    4  A    between atoms: N_10  and  C_12 
REMARK    5  A    between atoms: C_12  and  C_13 
REMARK    6  A    between atoms: C_12  and  C_16 
REMARK       I    between atoms: C_13  and  N_14 
ROOT
HETATM    1  N   UNL     1      -6.570   0.120 -32.825  1.00  0.00    -0.054 N 
HETATM    2  H   UNL     1      -7.372  -0.369 -33.246  1.00  0.00     0.281 HD
HETATM    3  C   UNL     1      -6.616  -0.047 -31.333  1.00  0.00     0.271 C 
ENDROOT
BRANCH   1   4
HETATM    4  C   UNL     1      -6.826   1.565 -33.229  1.00  0.00     0.277 C 
BRANCH   4   5
HETATM    5  C   UNL     1      -8.296   1.887 -33.270  1.00  0.00     0.001 A 
HETATM    6  C   UNL     1      -9.123   1.329 -34.247  1.00  0.00     0.074 A 
HETATM    7  C   UNL     1     -10.491   1.582 -34.266  1.00  0.00     0.044 A 
HETATM    8  C   UNL     1     -11.069   2.401 -33.284  1.00  0.00    -0.053 A 
HETATM    9  C   UNL     1     -10.247   2.995 -32.305  1.00  0.00    -0.055 A 
HETATM   10  C   UNL     1     -12.556   2.642 -33.308  1.00  0.00     0.049 C 
HETATM   11  C   UNL     1     -10.821   3.869 -31.220  1.00  0.00     0.049 C 
HETATM   12  C   UNL     1      -8.868   2.729 -32.307  1.00  0.00     0.019 A 
BRANCH   6  13
HETATM   13  O   UNL     1      -8.559   0.476 -35.159  1.00  0.00    -0.360 OA
HETATM   14  H   UNL     1      -9.092   0.532 -35.980  1.00  0.00     0.217 HD
ENDBRANCH   6  13
ENDBRANCH   4   5
ENDBRANCH   1   4
BRANCH   1  15
HETATM   15  C   UNL     1      -5.301  -0.439 -33.488  1.00  0.00     0.312 C 
BRANCH  15  16
HETATM   16  C   UNL     1      -4.057  -0.120 -32.603  1.00  0.00     0.251 C 
HETATM   17  N   UNL     1      -3.732  -0.988 -31.597  1.00  0.00    -0.368 N 
HETATM   18  H   UNL     1      -3.983  -1.971 -31.614  1.00  0.00     0.159 HD
HETATM   19  H   UNL     1      -2.892  -0.764 -31.069  1.00  0.00     0.159 HD
HETATM   20  O   UNL     1      -3.474   0.959 -32.688  1.00  0.00    -0.271 OA
ENDBRANCH  15  16
BRANCH  15  21
HETATM   21  C   UNL     1      -5.381  -1.895 -33.959  1.00  0.00    -0.016 A 
HETATM   22  C   UNL     1      -4.298  -2.787 -33.891  1.00  0.00     0.052 A 
HETATM   23  C   UNL     1      -4.436  -4.107 -34.323  1.00  0.00     0.117 A 
HETATM   24  F   UNL     1      -3.377  -4.922 -34.261  1.00  0.00    -0.206 F 
HETATM   25  C   UNL     1      -5.642  -4.583 -34.812  1.00  0.00     0.042 A 
HETATM   26  C   UNL     1      -6.739  -3.730 -34.853  1.00  0.00     0.004 A 
HETATM   27  C   UNL     1      -6.615  -2.406 -34.418  1.00  0.00     0.010 A 
ENDBRANCH  15  21
ENDBRANCH   1  15
TORSDOF 6
ENDMDL
MODEL 10
REMARK VINA RESULT:      -7.0      2.949      3.615
REMARK  6 active torsions:
REMARK  status: ('A' for Active; 'I' for Inactive)
REMARK    1  A    between atoms: C_6  and  O_7 
REMARK    2  A    between atoms: C_8  and  C_9 
REMARK    3  A    between atoms: C_9  and  N_10 
REMARK    4  A    between atoms: N_10  and  C_12 
REMARK    5  A    between atoms: C_12  and  C_13 
REMARK    6  A    between atoms: C_12  and  C_16 
REMARK       I    between atoms: C_13  and  N_14 
ROOT
HETATM    1  N   UNL     1      -6.744   1.114 -32.543  1.00  0.00    -0.054 N 
HETATM    2  H   UNL     1      -5.816   0.875 -32.166  1.00  0.00     0.281 HD
HETATM    3  C   UNL     1      -7.799   0.388 -31.759  1.00  0.00     0.271 C 
ENDROOT
BRANCH   1   4
HETATM    4  C   UNL     1      -6.655   0.589 -33.970  1.00  0.00     0.277 C 
BRANCH   4   5
HETATM    5  C   UNL     1      -5.932  -0.729 -34.042  1.00  0.00     0.001 A 
HETATM    6  C   UNL     1      -4.655  -0.874 -33.499  1.00  0.00     0.074 A 
HETATM    7  C   UNL     1      -3.997  -2.100 -33.519  1.00  0.00     0.044 A 
HETATM    8  C   UNL     1      -4.621  -3.225 -34.079  1.00  0.00    -0.053 A 
HETATM    9  C   UNL     1      -5.900  -3.094 -34.656  1.00  0.00    -0.055 A 
HETATM   10  C   UNL     1      -3.901  -4.549 -34.067  1.00  0.00     0.049 C 
HETATM   11  C   UNL     1      -6.619  -4.274 -35.256  1.00  0.00     0.049 C 
HETATM   12  C   UNL     1      -6.544  -1.845 -34.629  1.00  0.00     0.019 A 
BRANCH   6  13
HETATM   13  O   UNL     1      -4.083   0.214 -32.894  1.00  0.00    -0.360 OA
HETATM   14  H   UNL     1      -3.191   0.330 -33.282  1.00  0.00     0.217 HD
ENDBRANCH   6  13
ENDBRANCH   4   5
ENDBRANCH   1   4
BRANCH   1  15
HETATM   15  C   UNL     1      -6.866   2.646 -32.508  1.00  0.00     0.312 C 
BRANCH  15  16
HETATM   16  C   UNL     1      -5.721   3.288 -33.349  1.00  0.00     0.251 C 
HETATM   17  N   UNL     1      -4.437   3.193 -32.884  1.00  0.00    -0.368 N 
HETATM   18  H   UNL     1      -4.128   2.448 -32.269  1.00  0.00     0.159 HD
HETATM   19  H   UNL     1      -3.717   3.591 -33.481  1.00  0.00     0.159 HD
HETATM   20  O   UNL     1      -5.965   4.005 -34.317  1.00  0.00    -0.271 OA
ENDBRANCH  15  16
BRANCH  15  21
HETATM   21  C   UNL     1      -8.259   3.209 -32.809  1.00  0.00    -0.016 A 
HETATM   22  C   UNL     1      -8.974   2.910 -33.981  1.00  0.00     0.052 A 
HETATM   23  C   UNL     1     -10.247   3.443 -34.192  1.00  0.00     0.117 A 
HETATM   24  F   UNL     1     -10.889   3.152 -35.329  1.00  0.00    -0.206 F 
HETATM   25  C   UNL     1     -10.850   4.264 -33.253  1.00  0.00     0.042 A 
HETATM   26  C   UNL     1     -10.179   4.542 -32.067  1.00  0.00     0.004 A 
HETATM   27  C   UNL     1      -8.905   4.009 -31.841  1.00  0.00     0.010 A 
ENDBRANCH  15  21
ENDBRANCH   1  15
TORSDOF 6
ENDMDL
