MODEL 1
REMARK VINA RESULT:      -9.1      0.000      0.000
REMARK  3 active torsions:
REMARK  status: ('A' for Active; 'I' for Inactive)
REMARK    1  A    between atoms: C_4  and  N_5 
REMARK       I    between atoms: N_5  and  C_6 
REMARK       I    between atoms: C_6  and  N_7 
REMARK    2  A    between atoms: C_10  and  C_11 
REMARK    3  A    between atoms: C_24  and  O_25 
ROOT
HETATM    1  N   UNL     1     -11.010   2.588 -32.398  1.00  0.00    -0.306 N 
HETATM    2  C   UNL     1     -10.240   2.658 -33.532  1.00  0.00     0.323 C 
HETATM    3  N   UNL     1      -9.098   1.846 -33.493  1.00  0.00    -0.330 N 
HETATM    4  C   UNL     1      -8.261   1.931 -34.685  1.00  0.00     0.155 C 
HETATM    5  C   UNL     1      -7.086   1.004 -34.649  1.00  0.00     0.001 C 
HETATM    6  C   UNL     1      -6.836   0.120 -33.670  1.00  0.00    -0.046 C 
HETATM    7  C   UNL     1      -7.753   0.006 -32.485  1.00  0.00     0.059 C 
HETATM    8  C   UNL     1      -9.143   0.546 -32.814  1.00  0.00     0.132 C 
HETATM    9  O   UNL     1     -10.502   3.366 -34.503  1.00  0.00    -0.247 OA
HETATM   10  H   UNL     1     -10.504   2.519 -31.524  1.00  0.00     0.171 HD
ENDROOT
BRANCH   1  11
HETATM   11  C   UNL     1     -12.360   2.973 -32.271  1.00  0.00     0.070 A 
HETATM   12  C   UNL     1     -12.736   4.181 -31.674  1.00  0.00     0.039 A 
HETATM   13  C   UNL     1     -14.080   4.572 -31.636  1.00  0.00    -0.060 A 
HETATM   14  C   UNL     1     -14.478   5.888 -31.038  1.00  0.00     0.048 C 
HETATM   15  C   UNL     1     -15.048   3.736 -32.203  1.00  0.00     0.009 A 
HETATM   16  C   UNL     1     -14.682   2.524 -32.797  1.00  0.00     0.039 A 
HETATM   17  C   UNL     1     -13.341   2.134 -32.831  1.00  0.00     0.095 A 
BRANCH  17  18
HETATM   18  O   UNL     1     -12.883   0.970 -33.405  1.00  0.00    -0.354 OA
HETATM   19  C   UNL     1     -13.872  -0.015 -33.684  1.00  0.00     0.210 C 
ENDBRANCH  17  18
ENDBRANCH   1  11
BRANCH   6  20
HETATM   20  C   UNL     1      -5.773  -0.830 -33.711  1.00  0.00    -0.002 A 
HETATM   21  C   UNL     1      -5.851  -2.193 -34.132  1.00  0.00     0.003 A 
HETATM   22  C   UNL     1      -4.573  -2.738 -33.984  1.00  0.00     0.043 A 
HETATM   23  C   UNL     1      -6.886  -3.025 -34.610  1.00  0.00     0.014 A 
HETATM   24  C   UNL     1      -4.280  -4.071 -34.295  1.00  0.00     0.030 A 
HETATM   25  N   UNL     1      -3.760  -1.738 -33.499  1.00  0.00    -0.364 N 
HETATM   26  C   UNL     1      -5.324  -4.873 -34.769  1.00  0.00     0.002 A 
HETATM   27  C   UNL     1      -6.610  -4.360 -34.925  1.00  0.00     0.001 A 
HETATM   28  H   UNL     1      -2.777  -1.850 -33.298  1.00  0.00     0.165 HD
HETATM   29  C   UNL     1      -4.477  -0.584 -33.318  1.00  0.00     0.101 A 
ENDBRANCH   6  20
TORSDOF 3
ENDMDL
MODEL 2
REMARK VINA RESULT:      -9.1      2.255      2.800
REMARK  3 active torsions:
REMARK  status: ('A' for Active; 'I' for Inactive)
REMARK    1  A    between atoms: C_4  and  N_5 
REMARK       I    between atoms: N_5  and  C_6 
REMARK       I    between atoms: C_6  and  N_7 
REMARK    2  A    between atoms: C_10  and  C_11 
REMARK    3  A    between atoms: C_24  and  O_25 
ROOT
HETATM    1  N   UNL     1     -10.475   3.123 -34.681  1.00  0.00    -0.306 N 
HETATM    2  C   UNL     1     -10.027   2.692 -33.457  1.00  0.00     0.323 C 
HETATM    3  N   UNL     1      -9.054   1.686 -33.532  1.00  0.00    -0.330 N 
HETATM    4  C   UNL     1      -8.589   1.204 -32.235  1.00  0.00     0.155 C 
HETATM    5  C   UNL     1      -7.502   0.181 -32.341  1.00  0.00     0.001 C 
HETATM    6  C   UNL     1      -6.937  -0.224 -33.490  1.00  0.00    -0.046 C 
HETATM    7  C   UNL     1      -7.390   0.338 -34.808  1.00  0.00     0.059 C 
HETATM    8  C   UNL     1      -8.070   1.693 -34.621  1.00  0.00     0.132 C 
HETATM    9  O   UNL     1     -10.432   3.126 -32.381  1.00  0.00    -0.247 OA
HETATM   10  H   UNL     1     -10.582   2.408 -35.389  1.00  0.00     0.171 HD
ENDROOT
BRANCH   1  11
HETATM   11  C   UNL     1     -11.146   4.332 -34.955  1.00  0.00     0.070 A 
HETATM   12  C   UNL     1     -10.464   5.486 -35.355  1.00  0.00     0.039 A 
HETATM   13  C   UNL     1     -11.167   6.648 -35.698  1.00  0.00    -0.060 A 
HETATM   14  C   UNL     1     -10.439   7.871 -36.171  1.00  0.00     0.048 C 
HETATM   15  C   UNL     1     -12.565   6.641 -35.635  1.00  0.00     0.009 A 
HETATM   16  C   UNL     1     -13.254   5.494 -35.231  1.00  0.00     0.039 A 
HETATM   17  C   UNL     1     -12.551   4.337 -34.886  1.00  0.00     0.095 A 
BRANCH  17  18
HETATM   18  O   UNL     1     -13.140   3.157 -34.492  1.00  0.00    -0.354 OA
HETATM   19  C   UNL     1     -13.821   3.190 -33.242  1.00  0.00     0.210 C 
ENDBRANCH  17  18
ENDBRANCH   1  11
BRANCH   6  20
HETATM   20  C   UNL     1      -5.827  -1.117 -33.558  1.00  0.00    -0.002 A 
HETATM   21  C   UNL     1      -5.822  -2.447 -34.080  1.00  0.00     0.003 A 
HETATM   22  C   UNL     1      -4.525  -2.940 -33.922  1.00  0.00     0.043 A 
HETATM   23  C   UNL     1      -6.796  -3.289 -34.657  1.00  0.00     0.014 A 
HETATM   24  C   UNL     1      -4.154  -4.231 -34.318  1.00  0.00     0.030 A 
HETATM   25  N   UNL     1      -3.780  -1.941 -33.335  1.00  0.00    -0.364 N 
HETATM   26  C   UNL     1      -5.139  -5.044 -34.888  1.00  0.00     0.002 A 
HETATM   27  C   UNL     1      -6.443  -4.582 -35.056  1.00  0.00     0.001 A 
HETATM   28  H   UNL     1      -2.800  -2.021 -33.104  1.00  0.00     0.165 HD
HETATM   29  C   UNL     1      -4.560  -0.839 -33.099  1.00  0.00     0.101 A 
ENDBRANCH   6  20
TORSDOF 3
ENDMDL
MODEL 3
REMARK VINA RESULT:      -9.0      0.944      2.115
REMARK  3 active torsions:
REMARK  status: ('A' for Active; 'I' for Inactive)
REMARK    1  A    between atoms: C_4  and  N_5 
REMARK       I    between atoms: N_5  and  C_6 
REMARK       I    between atoms: C_6  and  N_7 
REMARK    2  A    between atoms: C_10  and  C_11 
REMARK    3  A    between atoms: C_24  and  O_25 
ROOT
HETATM    1  N   UNL     1     -10.952   2.743 -32.410  1.00  0.00    -0.306 N 
HETATM    2  C   UNL     1     -10.203   2.754 -33.562  1.00  0.00     0.323 C 
HETATM    3  N   UNL     1      -9.071   1.931 -33.510  1.00  0.00    -0.330 N 
HETATM    4  C   UNL     1      -8.256   1.954 -34.720  1.00  0.00     0.155 C 
HETATM    5  C   UNL     1      -7.092   1.016 -34.667  1.00  0.00     0.001 C 
HETATM    6  C   UNL     1      -6.832   0.171 -33.656  1.00  0.00    -0.046 C 
HETATM    7  C   UNL     1      -7.727   0.119 -32.450  1.00  0.00     0.059 C 
HETATM    8  C   UNL     1      -9.117   0.661 -32.774  1.00  0.00     0.132 C 
HETATM    9  O   UNL     1     -10.477   3.423 -34.557  1.00  0.00    -0.247 OA
HETATM   10  H   UNL     1     -10.430   2.705 -31.545  1.00  0.00     0.171 HD
ENDROOT
BRANCH   1  11
HETATM   11  C   UNL     1     -12.295   3.149 -32.274  1.00  0.00     0.070 A 
HETATM   12  C   UNL     1     -13.360   2.353 -32.709  1.00  0.00     0.039 A 
HETATM   13  C   UNL     1     -14.684   2.749 -32.485  1.00  0.00    -0.060 A 
HETATM   14  C   UNL     1     -15.826   1.873 -32.909  1.00  0.00     0.048 C 
HETATM   15  C   UNL     1     -14.932   3.954 -31.820  1.00  0.00     0.009 A 
HETATM   16  C   UNL     1     -13.873   4.759 -31.387  1.00  0.00     0.039 A 
HETATM   17  C   UNL     1     -12.552   4.364 -31.614  1.00  0.00     0.095 A 
BRANCH  17  18
HETATM   18  O   UNL     1     -11.446   5.080 -31.213  1.00  0.00    -0.354 OA
HETATM   19  C   UNL     1     -11.329   6.393 -31.750  1.00  0.00     0.210 C 
ENDBRANCH  17  18
ENDBRANCH   1  11
BRANCH   6  20
HETATM   20  C   UNL     1      -5.781  -0.793 -33.676  1.00  0.00    -0.002 A 
HETATM   21  C   UNL     1      -5.867  -2.153 -34.105  1.00  0.00     0.003 A 
HETATM   22  C   UNL     1      -4.601  -2.716 -33.930  1.00  0.00     0.043 A 
HETATM   23  C   UNL     1      -6.902  -2.970 -34.610  1.00  0.00     0.014 A 
HETATM   24  C   UNL     1      -4.318  -4.051 -34.240  1.00  0.00     0.030 A 
HETATM   25  N   UNL     1      -3.786  -1.728 -33.422  1.00  0.00    -0.364 N 
HETATM   26  C   UNL     1      -5.362  -4.837 -34.741  1.00  0.00     0.002 A 
HETATM   27  C   UNL     1      -6.637  -4.306 -34.924  1.00  0.00     0.001 A 
HETATM   28  H   UNL     1      -2.809  -1.854 -33.200  1.00  0.00     0.165 HD
HETATM   29  C   UNL     1      -4.492  -0.565 -33.253  1.00  0.00     0.101 A 
ENDBRANCH   6  20
TORSDOF 3
ENDMDL
MODEL 4
REMARK VINA RESULT:      -9.0      5.659      7.963
REMARK  3 active torsions:
REMARK  status: ('A' for Active; 'I' for Inactive)
REMARK    1  A    between atoms: C_4  and  N_5 
REMARK       I    between atoms: N_5  and  C_6 
REMARK       I    between atoms: C_6  and  N_7 
REMARK    2  A    between atoms: C_10  and  C_11 
REMARK    3  A    between atoms: C_24  and  O_25 
ROOT
HETATM    1  N   UNL     1      -3.753   4.919 -31.677  1.00  0.00    -0.306 N 
HETATM    2  C   UNL     1      -3.141   3.692 -31.591  1.00  0.00     0.323 C 
HETATM    3  N   UNL     1      -3.948   2.626 -32.011  1.00  0.00    -0.330 N 
HETATM    4  C   UNL     1      -3.314   1.316 -31.901  1.00  0.00     0.155 C 
HETATM    5  C   UNL     1      -4.169   0.202 -32.420  1.00  0.00     0.001 C 
HETATM    6  C   UNL     1      -5.370   0.361 -32.999  1.00  0.00    -0.046 C 
HETATM    7  C   UNL     1      -5.969   1.729 -33.160  1.00  0.00     0.059 C 
HETATM    8  C   UNL     1      -4.890   2.809 -33.121  1.00  0.00     0.132 C 
HETATM    9  O   UNL     1      -1.996   3.519 -31.179  1.00  0.00    -0.247 OA
HETATM   10  H   UNL     1      -4.735   4.940 -31.435  1.00  0.00     0.171 HD
ENDROOT
BRANCH   1  11
HETATM   11  C   UNL     1      -3.120   6.178 -31.689  1.00  0.00     0.070 A 
HETATM   12  C   UNL     1      -2.923   6.922 -30.520  1.00  0.00     0.039 A 
HETATM   13  C   UNL     1      -2.218   8.132 -30.555  1.00  0.00    -0.060 A 
HETATM   14  C   UNL     1      -1.967   8.906 -29.296  1.00  0.00     0.048 C 
HETATM   15  C   UNL     1      -1.712   8.590 -31.776  1.00  0.00     0.009 A 
HETATM   16  C   UNL     1      -1.909   7.855 -32.949  1.00  0.00     0.039 A 
HETATM   17  C   UNL     1      -2.615   6.651 -32.914  1.00  0.00     0.095 A 
BRANCH  17  18
HETATM   18  O   UNL     1      -2.846   5.851 -34.010  1.00  0.00    -0.354 OA
HETATM   19  C   UNL     1      -1.688   5.328 -34.652  1.00  0.00     0.210 C 
ENDBRANCH  17  18
ENDBRANCH   1  11
BRANCH   6  20
HETATM   20  C   UNL     1      -6.115  -0.704 -33.586  1.00  0.00    -0.002 A 
HETATM   21  C   UNL     1      -5.641  -2.011 -33.911  1.00  0.00     0.003 A 
HETATM   22  C   UNL     1      -6.712  -2.703 -34.481  1.00  0.00     0.043 A 
HETATM   23  C   UNL     1      -4.400  -2.673 -33.793  1.00  0.00     0.014 A 
HETATM   24  C   UNL     1      -6.605  -4.024 -34.932  1.00  0.00     0.030 A 
HETATM   25  N   UNL     1      -7.789  -1.844 -34.490  1.00  0.00    -0.364 N 
HETATM   26  C   UNL     1      -5.364  -4.656 -34.802  1.00  0.00     0.002 A 
HETATM   27  C   UNL     1      -4.275  -3.993 -34.241  1.00  0.00     0.001 A 
HETATM   28  H   UNL     1      -8.704  -2.081 -34.846  1.00  0.00     0.165 HD
HETATM   29  C   UNL     1      -7.437  -0.629 -33.963  1.00  0.00     0.101 A 
ENDBRANCH   6  20
TORSDOF 3
ENDMDL
MODEL 5
REMARK VINA RESULT:      -8.9      2.379      3.344
REMARK  3 active torsions:
REMARK  status: ('A' for Active; 'I' for Inactive)
REMARK    1  A    between atoms: C_4  and  N_5 
REMARK       I    between atoms: N_5  and  C_6 
REMARK       I    between atoms: C_6  and  N_7 
REMARK    2  A    between atoms: C_10  and  C_11 
REMARK    3  A    between atoms: C_24  and  O_25 
ROOT
HETATM    1  N   UNL     1     -10.079   3.843 -34.929  1.00  0.00    -0.306 N 
HETATM    2  C   UNL     1     -10.291   2.726 -34.158  1.00  0.00     0.323 C 
HETATM    3  N   UNL     1      -9.233   1.808 -34.191  1.00  0.00    -0.330 N 
HETATM    4  C   UNL     1      -9.459   0.606 -33.394  1.00  0.00     0.155 C 
HETATM    5  C   UNL     1      -8.289  -0.327 -33.389  1.00  0.00     0.001 C 
HETATM    6  C   UNL     1      -7.110  -0.085 -33.986  1.00  0.00    -0.046 C 
HETATM    7  C   UNL     1      -6.882   1.192 -34.744  1.00  0.00     0.059 C 
HETATM    8  C   UNL     1      -7.848   2.283 -34.286  1.00  0.00     0.132 C 
HETATM    9  O   UNL     1     -11.308   2.525 -33.498  1.00  0.00    -0.247 OA
HETATM   10  H   UNL     1      -9.610   3.689 -35.811  1.00  0.00     0.171 HD
ENDROOT
BRANCH   1  11
HETATM   11  C   UNL     1     -10.751   5.079 -34.825  1.00  0.00     0.070 A 
HETATM   12  C   UNL     1     -12.013   5.289 -35.391  1.00  0.00     0.039 A 
HETATM   13  C   UNL     1     -12.688   6.500 -35.201  1.00  0.00    -0.060 A 
HETATM   14  C   UNL     1     -14.060   6.708 -35.768  1.00  0.00     0.048 C 
HETATM   15  C   UNL     1     -12.084   7.503 -34.435  1.00  0.00     0.009 A 
HETATM   16  C   UNL     1     -10.821   7.304 -33.870  1.00  0.00     0.039 A 
HETATM   17  C   UNL     1     -10.147   6.096 -34.064  1.00  0.00     0.095 A 
BRANCH  17  18
HETATM   18  O   UNL     1      -8.910   5.801 -33.537  1.00  0.00    -0.354 OA
HETATM   19  C   UNL     1      -8.835   5.761 -32.115  1.00  0.00     0.210 C 
ENDBRANCH  17  18
ENDBRANCH   1  11
BRANCH   6  20
HETATM   20  C   UNL     1      -5.973  -0.938 -33.874  1.00  0.00    -0.002 A 
HETATM   21  C   UNL     1      -5.895  -2.321 -34.223  1.00  0.00     0.003 A 
HETATM   22  C   UNL     1      -4.597  -2.743 -33.926  1.00  0.00     0.043 A 
HETATM   23  C   UNL     1      -6.805  -3.263 -34.748  1.00  0.00     0.014 A 
HETATM   24  C   UNL     1      -4.164  -4.058 -34.133  1.00  0.00     0.030 A 
HETATM   25  N   UNL     1      -3.922  -1.652 -33.425  1.00  0.00    -0.364 N 
HETATM   26  C   UNL     1      -5.087  -4.971 -34.656  1.00  0.00     0.002 A 
HETATM   27  C   UNL     1      -6.390  -4.582 -34.960  1.00  0.00     0.001 A 
HETATM   28  H   UNL     1      -2.957  -1.667 -33.127  1.00  0.00     0.165 HD
HETATM   29  C   UNL     1      -4.747  -0.559 -33.377  1.00  0.00     0.101 A 
ENDBRANCH   6  20
TORSDOF 3
ENDMDL
MODEL 6
REMARK VINA RESULT:      -8.7      2.253      9.164
REMARK  3 active torsions:
REMARK  status: ('A' for Active; 'I' for Inactive)
REMARK    1  A    between atoms: C_4  and  N_5 
REMARK       I    between atoms: N_5  and  C_6 
REMARK       I    between atoms: C_6  and  N_7 
REMARK    2  A    between atoms: C_10  and  C_11 
REMARK    3  A    between atoms: C_24  and  O_25 
ROOT
HETATM    1  N   UNL     1      -7.565  -0.732 -33.877  1.00  0.00    -0.306 N 
HETATM    2  C   UNL     1      -7.965   0.524 -34.263  1.00  0.00     0.323 C 
HETATM    3  N   UNL     1      -9.343   0.744 -34.132  1.00  0.00    -0.330 N 
HETATM    4  C   UNL     1      -9.781   2.068 -34.562  1.00  0.00     0.155 C 
HETATM    5  C   UNL     1     -11.244   2.304 -34.348  1.00  0.00     0.001 C 
HETATM    6  C   UNL     1     -12.083   1.438 -33.758  1.00  0.00    -0.046 C 
HETATM    7  C   UNL     1     -11.591   0.107 -33.264  1.00  0.00     0.059 C 
HETATM    8  C   UNL     1     -10.083   0.137 -33.020  1.00  0.00     0.132 C 
HETATM    9  O   UNL     1      -7.206   1.389 -34.695  1.00  0.00    -0.247 OA
HETATM   10  H   UNL     1      -8.193  -1.488 -34.115  1.00  0.00     0.171 HD
ENDROOT
BRANCH   1  11
HETATM   11  C   UNL     1      -6.256  -1.134 -33.543  1.00  0.00     0.070 A 
HETATM   12  C   UNL     1      -5.501  -0.471 -32.569  1.00  0.00     0.039 A 
HETATM   13  C   UNL     1      -4.235  -0.945 -32.203  1.00  0.00    -0.060 A 
HETATM   14  C   UNL     1      -3.446  -0.262 -31.126  1.00  0.00     0.048 C 
HETATM   15  C   UNL     1      -3.731  -2.091 -32.825  1.00  0.00     0.009 A 
HETATM   16  C   UNL     1      -4.476  -2.756 -33.804  1.00  0.00     0.039 A 
HETATM   17  C   UNL     1      -5.737  -2.281 -34.171  1.00  0.00     0.095 A 
BRANCH  17  18
HETATM   18  O   UNL     1      -6.550  -2.874 -35.110  1.00  0.00    -0.354 OA
HETATM   19  C   UNL     1      -6.609  -4.296 -35.070  1.00  0.00     0.210 C 
ENDBRANCH  17  18
ENDBRANCH   1  11
BRANCH   6  20
HETATM   20  C   UNL     1     -13.448   1.729 -33.465  1.00  0.00    -0.002 A 
HETATM   21  C   UNL     1     -13.950   2.824 -32.696  1.00  0.00     0.003 A 
HETATM   22  C   UNL     1     -15.340   2.692 -32.660  1.00  0.00     0.043 A 
HETATM   23  C   UNL     1     -13.359   3.907 -32.011  1.00  0.00     0.014 A 
HETATM   24  C   UNL     1     -16.166   3.593 -31.979  1.00  0.00     0.030 A 
HETATM   25  N   UNL     1     -15.659   1.566 -33.386  1.00  0.00    -0.364 N 
HETATM   26  C   UNL     1     -15.554   4.659 -31.309  1.00  0.00     0.002 A 
HETATM   27  C   UNL     1     -14.170   4.816 -31.324  1.00  0.00     0.001 A 
HETATM   28  H   UNL     1     -16.600   1.228 -33.530  1.00  0.00     0.165 HD
HETATM   29  C   UNL     1     -14.523   0.968 -33.866  1.00  0.00     0.101 A 
ENDBRANCH   6  20
TORSDOF 3
ENDMDL
MODEL 7
REMARK VINA RESULT:      -8.6      5.069      8.923
REMARK  3 active torsions:
REMARK  status: ('A' for Active; 'I' for Inactive)
REMARK    1  A    between atoms: C_4  and  N_5 
REMARK       I    between atoms: N_5  and  C_6 
REMARK       I    between atoms: C_6  and  N_7 
REMARK    2  A    between atoms: C_10  and  C_11 
REMARK    3  A    between atoms: C_24  and  O_25 
ROOT
HETATM    1  N   UNL     1      -4.061   4.727 -31.928  1.00  0.00    -0.306 N 
HETATM    2  C   UNL     1      -4.124   3.377 -32.173  1.00  0.00     0.323 C 
HETATM    3  N   UNL     1      -5.429   2.882 -32.288  1.00  0.00    -0.330 N 
HETATM    4  C   UNL     1      -5.506   1.444 -32.526  1.00  0.00     0.155 C 
HETATM    5  C   UNL     1      -6.907   0.951 -32.714  1.00  0.00     0.001 C 
HETATM    6  C   UNL     1      -7.999   1.732 -32.740  1.00  0.00    -0.046 C 
HETATM    7  C   UNL     1      -7.884   3.219 -32.560  1.00  0.00     0.059 C 
HETATM    8  C   UNL     1      -6.477   3.706 -32.902  1.00  0.00     0.132 C 
HETATM    9  O   UNL     1      -3.139   2.648 -32.277  1.00  0.00    -0.247 OA
HETATM   10  H   UNL     1      -4.767   5.096 -31.304  1.00  0.00     0.171 HD
ENDROOT
BRANCH   1  11
HETATM   11  C   UNL     1      -2.948   5.569 -32.123  1.00  0.00     0.070 A 
HETATM   12  C   UNL     1      -1.914   5.664 -31.185  1.00  0.00     0.039 A 
HETATM   13  C   UNL     1      -0.783   6.447 -31.447  1.00  0.00    -0.060 A 
HETATM   14  C   UNL     1       0.346   6.512 -30.462  1.00  0.00     0.048 C 
HETATM   15  C   UNL     1      -0.698   7.137 -32.661  1.00  0.00     0.009 A 
HETATM   16  C   UNL     1      -1.729   7.052 -33.601  1.00  0.00     0.039 A 
HETATM   17  C   UNL     1      -2.858   6.273 -33.338  1.00  0.00     0.095 A 
BRANCH  17  18
HETATM   18  O   UNL     1      -3.915   6.115 -34.206  1.00  0.00    -0.354 OA
HETATM   19  C   UNL     1      -3.691   5.238 -35.304  1.00  0.00     0.210 C 
ENDBRANCH  17  18
ENDBRANCH   1  11
BRANCH   6  20
HETATM   20  C   UNL     1      -9.310   1.254 -33.032  1.00  0.00    -0.002 A 
HETATM   21  C   UNL     1     -10.285   1.870 -33.875  1.00  0.00     0.003 A 
HETATM   22  C   UNL     1     -11.420   1.057 -33.847  1.00  0.00     0.043 A 
HETATM   23  C   UNL     1     -10.322   3.051 -34.649  1.00  0.00     0.014 A 
HETATM   24  C   UNL     1     -12.586   1.364 -34.558  1.00  0.00     0.030 A 
HETATM   25  N   UNL     1     -11.134  -0.010 -33.024  1.00  0.00    -0.364 N 
HETATM   26  C   UNL     1     -12.595   2.539 -35.317  1.00  0.00     0.002 A 
HETATM   27  C   UNL     1     -11.480   3.372 -35.364  1.00  0.00     0.001 A 
HETATM   28  H   UNL     1     -11.777  -0.761 -32.821  1.00  0.00     0.165 HD
HETATM   29  C   UNL     1      -9.866   0.105 -32.516  1.00  0.00     0.101 A 
ENDBRANCH   6  20
TORSDOF 3
ENDMDL
MODEL 8
REMARK VINA RESULT:      -8.5      4.470      5.567
REMARK  3 active torsions:
REMARK  status: ('A' for Active; 'I' for Inactive)
REMARK    1  A    between atoms: C_4  and  N_5 
REMARK       I    between atoms: N_5  and  C_6 
REMARK       I    between atoms: C_6  and  N_7 
REMARK    2  A    between atoms: C_10  and  C_11 
REMARK    3  A    between atoms: C_24  and  O_25 
ROOT
HETATM    1  N   UNL     1      -5.604   3.514 -29.452  1.00  0.00    -0.306 N 
HETATM    2  C   UNL     1      -4.765   3.395 -30.532  1.00  0.00     0.323 C 
HETATM    3  N   UNL     1      -4.541   2.072 -30.933  1.00  0.00    -0.330 N 
HETATM    4  C   UNL     1      -3.631   1.934 -32.066  1.00  0.00     0.155 C 
HETATM    5  C   UNL     1      -3.462   0.518 -32.519  1.00  0.00     0.001 C 
HETATM    6  C   UNL     1      -4.118  -0.536 -32.006  1.00  0.00    -0.046 C 
HETATM    7  C   UNL     1      -5.100  -0.357 -30.883  1.00  0.00     0.059 C 
HETATM    8  C   UNL     1      -5.617   1.079 -30.831  1.00  0.00     0.132 C 
HETATM    9  O   UNL     1      -4.240   4.348 -31.107  1.00  0.00    -0.247 OA
HETATM   10  H   UNL     1      -5.501   2.810 -28.733  1.00  0.00     0.171 HD
ENDROOT
BRANCH   1  11
HETATM   11  C   UNL     1      -6.304   4.670 -29.050  1.00  0.00     0.070 A 
HETATM   12  C   UNL     1      -5.667   5.740 -28.412  1.00  0.00     0.039 A 
HETATM   13  C   UNL     1      -6.374   6.908 -28.099  1.00  0.00    -0.060 A 
HETATM   14  C   UNL     1      -5.681   8.072 -27.458  1.00  0.00     0.048 C 
HETATM   15  C   UNL     1      -7.730   6.993 -28.433  1.00  0.00     0.009 A 
HETATM   16  C   UNL     1      -8.375   5.926 -29.066  1.00  0.00     0.039 A 
HETATM   17  C   UNL     1      -7.670   4.760 -29.374  1.00  0.00     0.095 A 
BRANCH  17  18
HETATM   18  O   UNL     1      -8.213   3.666 -30.008  1.00  0.00    -0.354 OA
HETATM   19  C   UNL     1      -8.648   3.878 -31.347  1.00  0.00     0.210 C 
ENDBRANCH  17  18
ENDBRANCH   1  11
BRANCH   6  20
HETATM   20  C   UNL     1      -4.024  -1.860 -32.528  1.00  0.00    -0.002 A 
HETATM   21  C   UNL     1      -4.890  -2.473 -33.484  1.00  0.00     0.003 A 
HETATM   22  C   UNL     1      -4.425  -3.776 -33.678  1.00  0.00     0.043 A 
HETATM   23  C   UNL     1      -6.037  -2.056 -34.193  1.00  0.00     0.014 A 
HETATM   24  C   UNL     1      -5.046  -4.678 -34.549  1.00  0.00     0.030 A 
HETATM   25  N   UNL     1      -3.317  -3.934 -32.874  1.00  0.00    -0.364 N 
HETATM   26  C   UNL     1      -6.180  -4.238 -35.241  1.00  0.00     0.002 A 
HETATM   27  C   UNL     1      -6.670  -2.945 -35.067  1.00  0.00     0.001 A 
HETATM   28  H   UNL     1      -2.774  -4.783 -32.813  1.00  0.00     0.165 HD
HETATM   29  C   UNL     1      -3.073  -2.787 -32.165  1.00  0.00     0.101 A 
ENDBRANCH   6  20
TORSDOF 3
ENDMDL
MODEL 9
REMARK VINA RESULT:      -8.4      7.702      9.960
REMARK  3 active torsions:
REMARK  status: ('A' for Active; 'I' for Inactive)
REMARK    1  A    between atoms: C_4  and  N_5 
REMARK       I    between atoms: N_5  and  C_6 
REMARK       I    between atoms: C_6  and  N_7 
REMARK    2  A    between atoms: C_10  and  C_11 
REMARK    3  A    between atoms: C_24  and  O_25 
ROOT
HETATM    1  N   UNL     1      -1.721   6.296 -29.402  1.00  0.00    -0.306 N 
HETATM    2  C   UNL     1      -1.450   5.906 -30.691  1.00  0.00     0.323 C 
HETATM    3  N   UNL     1      -2.384   5.003 -31.217  1.00  0.00    -0.330 N 
HETATM    4  C   UNL     1      -2.092   4.564 -32.578  1.00  0.00     0.155 C 
HETATM    5  C   UNL     1      -3.138   3.655 -33.142  1.00  0.00     0.001 C 
HETATM    6  C   UNL     1      -4.278   3.315 -32.518  1.00  0.00    -0.046 C 
HETATM    7  C   UNL     1      -4.585   3.836 -31.143  1.00  0.00     0.059 C 
HETATM    8  C   UNL     1      -3.801   5.114 -30.853  1.00  0.00     0.132 C 
HETATM    9  O   UNL     1      -0.480   6.292 -31.340  1.00  0.00    -0.247 OA
HETATM   10  H   UNL     1      -2.086   5.578 -28.791  1.00  0.00     0.171 HD
ENDROOT
BRANCH   1  11
HETATM   11  C   UNL     1      -1.213   7.433 -28.742  1.00  0.00     0.070 A 
HETATM   12  C   UNL     1       0.029   7.426 -28.098  1.00  0.00     0.039 A 
HETATM   13  C   UNL     1       0.542   8.594 -27.521  1.00  0.00    -0.060 A 
HETATM   14  C   UNL     1       1.893   8.598 -26.872  1.00  0.00     0.048 C 
HETATM   15  C   UNL     1      -0.206   9.774 -27.595  1.00  0.00     0.009 A 
HETATM   16  C   UNL     1      -1.451   9.789 -28.232  1.00  0.00     0.039 A 
HETATM   17  C   UNL     1      -1.962   8.622 -28.804  1.00  0.00     0.095 A 
BRANCH  17  18
HETATM   18  O   UNL     1      -3.168   8.542 -29.463  1.00  0.00    -0.354 OA
HETATM   19  C   UNL     1      -3.267   9.293 -30.669  1.00  0.00     0.210 C 
ENDBRANCH  17  18
ENDBRANCH   1  11
BRANCH   6  20
HETATM   20  C   UNL     1      -5.311   2.538 -33.120  1.00  0.00    -0.002 A 
HETATM   21  C   UNL     1      -5.359   1.116 -33.245  1.00  0.00     0.003 A 
HETATM   22  C   UNL     1      -6.544   0.807 -33.916  1.00  0.00     0.043 A 
HETATM   23  C   UNL     1      -4.503   0.059 -32.869  1.00  0.00     0.014 A 
HETATM   24  C   UNL     1      -6.917  -0.507 -34.224  1.00  0.00     0.030 A 
HETATM   25  N   UNL     1      -7.185   1.998 -34.177  1.00  0.00    -0.364 N 
HETATM   26  C   UNL     1      -6.051  -1.536 -33.839  1.00  0.00     0.002 A 
HETATM   27  C   UNL     1      -4.860  -1.260 -33.170  1.00  0.00     0.001 A 
HETATM   28  H   UNL     1      -8.072   2.075 -34.653  1.00  0.00     0.165 HD
HETATM   29  C   UNL     1      -6.443   3.052 -33.711  1.00  0.00     0.101 A 
ENDBRANCH   6  20
TORSDOF 3
ENDMDL
MODEL 10
REMARK VINA RESULT:      -8.4      6.562      9.015
REMARK  3 active torsions:
REMARK  status: ('A' for Active; 'I' for Inactive)
REMARK    1  A    between atoms: C_4  and  N_5 
REMARK       I    between atoms: N_5  and  C_6 
REMARK       I    between atoms: C_6  and  N_7 
REMARK    2  A    between atoms: C_10  and  C_11 
REMARK    3  A    between atoms: C_24  and  O_25 
ROOT
HETATM    1  N   UNL     1      -2.231   5.362 -30.944  1.00  0.00    -0.306 N 
HETATM    2  C   UNL     1      -3.129   5.571 -31.962  1.00  0.00     0.323 C 
HETATM    3  N   UNL     1      -3.852   4.427 -32.324  1.00  0.00    -0.330 N 
HETATM    4  C   UNL     1      -4.792   4.635 -33.421  1.00  0.00     0.155 C 
HETATM    5  C   UNL     1      -5.601   3.417 -33.743  1.00  0.00     0.001 C 
HETATM    6  C   UNL     1      -5.547   2.258 -33.067  1.00  0.00    -0.046 C 
HETATM    7  C   UNL     1      -4.618   2.094 -31.898  1.00  0.00     0.059 C 
HETATM    8  C   UNL     1      -4.241   3.449 -31.302  1.00  0.00     0.132 C 
HETATM    9  O   UNL     1      -3.294   6.652 -32.525  1.00  0.00    -0.247 OA
HETATM   10  H   UNL     1      -1.744   4.475 -30.960  1.00  0.00     0.171 HD
ENDROOT
BRANCH   1  11
HETATM   11  C   UNL     1      -1.642   6.345 -30.123  1.00  0.00     0.070 A 
HETATM   12  C   UNL     1      -2.387   7.088 -29.201  1.00  0.00     0.039 A 
HETATM   13  C   UNL     1      -1.759   8.000 -28.344  1.00  0.00    -0.060 A 
HETATM   14  C   UNL     1      -2.551   8.761 -27.324  1.00  0.00     0.048 C 
HETATM   15  C   UNL     1      -0.372   8.161 -28.421  1.00  0.00     0.009 A 
HETATM   16  C   UNL     1       0.380   7.427 -29.344  1.00  0.00     0.039 A 
HETATM   17  C   UNL     1      -0.248   6.521 -30.200  1.00  0.00     0.095 A 
BRANCH  17  18
HETATM   18  O   UNL     1       0.407   5.743 -31.129  1.00  0.00    -0.354 OA
HETATM   19  C   UNL     1       1.279   4.749 -30.601  1.00  0.00     0.210 C 
ENDBRANCH  17  18
ENDBRANCH   1  11
BRANCH   6  20
HETATM   20  C   UNL     1      -6.407   1.150 -33.321  1.00  0.00    -0.002 A 
HETATM   21  C   UNL     1      -6.020  -0.182 -33.663  1.00  0.00     0.003 A 
HETATM   22  C   UNL     1      -7.195  -0.916 -33.836  1.00  0.00     0.043 A 
HETATM   23  C   UNL     1      -4.784  -0.834 -33.861  1.00  0.00     0.014 A 
HETATM   24  C   UNL     1      -7.194  -2.270 -34.191  1.00  0.00     0.030 A 
HETATM   25  N   UNL     1      -8.247  -0.059 -33.600  1.00  0.00    -0.364 N 
HETATM   26  C   UNL     1      -5.955  -2.893 -34.378  1.00  0.00     0.002 A 
HETATM   27  C   UNL     1      -4.765  -2.187 -34.216  1.00  0.00     0.001 A 
HETATM   28  H   UNL     1      -9.220  -0.323 -33.651  1.00  0.00     0.165 HD
HETATM   29  C   UNL     1      -7.783   1.196 -33.300  1.00  0.00     0.101 A 
ENDBRANCH   6  20
TORSDOF 3
ENDMDL
