MODEL 1
REMARK VINA RESULT:      -9.0      0.000      0.000
REMARK  7 active torsions:
REMARK  status: ('A' for Active; 'I' for Inactive)
REMARK    1  A    between atoms: C_5  and  O_6 
REMARK    2  A    between atoms: O_6  and  C_7 
REMARK    3  A    between atoms: C_7  and  C_8 
REMARK    4  A    between atoms: C_8  and  N_9 
REMARK       I    between atoms: N_9  and  C_10 
REMARK       I    between atoms: C_10  and  N_11 
REMARK    5  A    between atoms: N_11  and  C_12 
REMARK    6  A    between atoms: N_15  and  S_16 
REMARK    7  A    between atoms: S_16  and  C_17 
ROOT
HETATM    1  C   UNL     1      -6.277   3.161 -31.231  1.00  0.00     0.103 A 
HETATM    2  S   UNL     1      -7.118   2.248 -32.469  1.00  0.00    -0.032 SA
HETATM    3  C   UNL     1      -8.696   2.572 -31.716  1.00  0.00     0.185 A 
HETATM    4  N   UNL     1      -9.866   2.214 -32.123  1.00  0.00    -0.134 NA
HETATM    5  N   UNL     1      -8.453   3.315 -30.585  1.00  0.00    -0.336 N 
HETATM    6  C   UNL     1      -7.133   3.678 -30.329  1.00  0.00     0.041 A 
HETATM    7  C   UNL     1      -6.863   4.658 -29.234  1.00  0.00     0.071 C 
HETATM    8  H   UNL     1      -9.216   3.718 -30.059  1.00  0.00     0.168 HD
ENDROOT
BRANCH   1   9
HETATM    9  N   UNL     1      -4.935   3.256 -31.410  1.00  0.00    -0.301 N 
HETATM   10  C   UNL     1      -3.865   2.457 -31.176  1.00  0.00     0.321 C 
HETATM   11  N   UNL     1      -4.100   1.139 -30.908  1.00  0.00    -0.341 N 
HETATM   12  O   UNL     1      -2.738   2.927 -31.308  1.00  0.00    -0.247 OA
HETATM   13  H   UNL     1      -5.005   0.815 -31.215  1.00  0.00     0.164 HD
HETATM   14  H   UNL     1      -4.645   4.093 -31.906  1.00  0.00     0.171 HD
BRANCH  11  15
HETATM   15  C   UNL     1      -3.012   0.185 -31.075  1.00  0.00     0.151 C 
BRANCH  15  16
HETATM   16  C   UNL     1      -2.966  -0.498 -32.441  1.00  0.00     0.195 C 
BRANCH  16  17
HETATM   17  O   UNL     1      -4.199  -0.182 -33.090  1.00  0.00    -0.350 OA
BRANCH  17  18
HETATM   18  C   UNL     1      -4.912  -1.186 -33.676  1.00  0.00     0.068 A 
HETATM   19  C   UNL     1      -4.168  -2.339 -33.939  1.00  0.00     0.037 A 
HETATM   20  C   UNL     1      -4.764  -3.458 -34.525  1.00  0.00     0.009 A 
HETATM   21  C   UNL     1      -6.119  -3.435 -34.860  1.00  0.00    -0.062 A 
HETATM   22  C   UNL     1      -6.778  -4.641 -35.461  1.00  0.00     0.048 C 
HETATM   23  C   UNL     1      -6.864  -2.281 -34.590  1.00  0.00     0.009 A 
HETATM   24  C   UNL     1      -6.264  -1.157 -34.007  1.00  0.00     0.037 A 
ENDBRANCH  17  18
ENDBRANCH  16  17
ENDBRANCH  15  16
ENDBRANCH  11  15
ENDBRANCH   1   9
BRANCH   4  25
HETATM   25  S   UNL     1     -10.017   1.332 -33.473  1.00  0.00     0.285 S 
HETATM   26  O   UNL     1      -9.580   2.126 -34.606  1.00  0.00    -0.198 OA
HETATM   27  O   UNL     1      -9.494  -0.001 -33.242  1.00  0.00    -0.198 OA
BRANCH  25  28
HETATM   28  C   UNL     1     -11.778   1.118 -33.669  1.00  0.00     0.081 A 
HETATM   29  C   UNL     1     -12.340  -0.154 -33.516  1.00  0.00     0.025 A 
HETATM   30  C   UNL     1     -13.718  -0.317 -33.649  1.00  0.00     0.002 A 
HETATM   31  C   UNL     1     -14.526   0.785 -33.937  1.00  0.00     0.000 A 
HETATM   32  C   UNL     1     -13.958   2.053 -34.093  1.00  0.00     0.002 A 
HETATM   33  C   UNL     1     -12.580   2.224 -33.960  1.00  0.00     0.025 A 
ENDBRANCH  25  28
ENDBRANCH   4  25
TORSDOF 7
ENDMDL
MODEL 2
REMARK VINA RESULT:      -8.7      5.341      9.630
REMARK  7 active torsions:
REMARK  status: ('A' for Active; 'I' for Inactive)
REMARK    1  A    between atoms: C_5  and  O_6 
REMARK    2  A    between atoms: O_6  and  C_7 
REMARK    3  A    between atoms: C_7  and  C_8 
REMARK    4  A    between atoms: C_8  and  N_9 
REMARK       I    between atoms: N_9  and  C_10 
REMARK       I    between atoms: C_10  and  N_11 
REMARK    5  A    between atoms: N_11  and  C_12 
REMARK    6  A    between atoms: N_15  and  S_16 
REMARK    7  A    between atoms: S_16  and  C_17 
ROOT
HETATM    1  C   UNL     1      -3.250   6.047 -32.959  1.00  0.00     0.103 A 
HETATM    2  S   UNL     1      -3.302   6.882 -31.417  1.00  0.00    -0.032 SA
HETATM    3  C   UNL     1      -1.528   6.879 -31.292  1.00  0.00     0.185 A 
HETATM    4  N   UNL     1      -0.790   7.389 -30.366  1.00  0.00    -0.134 NA
HETATM    5  N   UNL     1      -1.050   6.228 -32.405  1.00  0.00    -0.336 N 
HETATM    6  C   UNL     1      -1.983   5.802 -33.346  1.00  0.00     0.041 A 
HETATM    7  C   UNL     1      -1.487   5.286 -34.658  1.00  0.00     0.071 C 
HETATM    8  H   UNL     1      -0.060   6.211 -32.608  1.00  0.00     0.168 HD
ENDROOT
BRANCH   1   9
HETATM    9  N   UNL     1      -4.461   5.845 -33.535  1.00  0.00    -0.301 N 
HETATM   10  C   UNL     1      -5.313   4.798 -33.664  1.00  0.00     0.321 C 
HETATM   11  N   UNL     1      -5.104   3.705 -32.872  1.00  0.00    -0.341 N 
HETATM   12  O   UNL     1      -6.283   4.914 -34.409  1.00  0.00    -0.247 OA
HETATM   13  H   UNL     1      -4.541   3.893 -32.056  1.00  0.00     0.164 HD
HETATM   14  H   UNL     1      -4.887   6.689 -33.904  1.00  0.00     0.171 HD
BRANCH  11  15
HETATM   15  C   UNL     1      -6.200   2.769 -32.665  1.00  0.00     0.151 C 
BRANCH  15  16
HETATM   16  C   UNL     1      -6.267   1.629 -33.680  1.00  0.00     0.195 C 
BRANCH  16  17
HETATM   17  O   UNL     1      -5.283   0.674 -33.276  1.00  0.00    -0.350 OA
BRANCH  17  18
HETATM   18  C   UNL     1      -5.391  -0.611 -33.718  1.00  0.00     0.068 A 
HETATM   19  C   UNL     1      -6.671  -0.961 -34.155  1.00  0.00     0.037 A 
HETATM   20  C   UNL     1      -6.935  -2.240 -34.650  1.00  0.00     0.009 A 
HETATM   21  C   UNL     1      -5.915  -3.192 -34.711  1.00  0.00    -0.062 A 
HETATM   22  C   UNL     1      -6.177  -4.559 -35.269  1.00  0.00     0.048 C 
HETATM   23  C   UNL     1      -4.632  -2.837 -34.278  1.00  0.00     0.009 A 
HETATM   24  C   UNL     1      -4.370  -1.555 -33.777  1.00  0.00     0.037 A 
ENDBRANCH  17  18
ENDBRANCH  16  17
ENDBRANCH  15  16
ENDBRANCH  11  15
ENDBRANCH   1   9
BRANCH   4  25
HETATM   25  S   UNL     1      -1.479   8.127 -29.099  1.00  0.00     0.285 S 
HETATM   26  O   UNL     1      -1.907   9.454 -29.503  1.00  0.00    -0.198 OA
HETATM   27  O   UNL     1      -2.390   7.212 -28.441  1.00  0.00    -0.198 OA
BRANCH  25  28
HETATM   28  C   UNL     1      -0.140   8.370 -27.944  1.00  0.00     0.081 A 
HETATM   29  C   UNL     1       0.035   9.621 -27.344  1.00  0.00     0.025 A 
HETATM   30  C   UNL     1       1.068   9.804 -26.426  1.00  0.00     0.002 A 
HETATM   31  C   UNL     1       1.921   8.743 -26.116  1.00  0.00     0.000 A 
HETATM   32  C   UNL     1       1.744   7.497 -26.722  1.00  0.00     0.002 A 
HETATM   33  C   UNL     1       0.712   7.305 -27.640  1.00  0.00     0.025 A 
ENDBRANCH  25  28
ENDBRANCH   4  25
TORSDOF 7
ENDMDL
MODEL 3
REMARK VINA RESULT:      -8.5      3.885      7.283
REMARK  7 active torsions:
REMARK  status: ('A' for Active; 'I' for Inactive)
REMARK    1  A    between atoms: C_5  and  O_6 
REMARK    2  A    between atoms: O_6  and  C_7 
REMARK    3  A    between atoms: C_7  and  C_8 
REMARK    4  A    between atoms: C_8  and  N_9 
REMARK       I    between atoms: N_9  and  C_10 
REMARK       I    between atoms: C_10  and  N_11 
REMARK    5  A    between atoms: N_11  and  C_12 
REMARK    6  A    between atoms: N_15  and  S_16 
REMARK    7  A    between atoms: S_16  and  C_17 
ROOT
HETATM    1  C   UNL     1      -5.649   4.754 -30.402  1.00  0.00     0.103 A 
HETATM    2  S   UNL     1      -5.786   3.019 -30.186  1.00  0.00    -0.032 SA
HETATM    3  C   UNL     1      -5.456   2.721 -31.907  1.00  0.00     0.185 A 
HETATM    4  N   UNL     1      -5.359   1.591 -32.520  1.00  0.00    -0.134 NA
HETATM    5  N   UNL     1      -5.298   3.951 -32.502  1.00  0.00    -0.336 N 
HETATM    6  C   UNL     1      -5.363   5.072 -31.679  1.00  0.00     0.041 A 
HETATM    7  C   UNL     1      -4.986   6.399 -32.253  1.00  0.00     0.071 C 
HETATM    8  H   UNL     1      -4.983   4.024 -33.459  1.00  0.00     0.168 HD
ENDROOT
BRANCH   1   9
HETATM    9  N   UNL     1      -5.784   5.479 -29.263  1.00  0.00    -0.301 N 
HETATM   10  C   UNL     1      -4.946   6.136 -28.425  1.00  0.00     0.321 C 
HETATM   11  N   UNL     1      -3.673   6.380 -28.858  1.00  0.00    -0.341 N 
HETATM   12  O   UNL     1      -5.390   6.566 -27.363  1.00  0.00    -0.247 OA
HETATM   13  H   UNL     1      -3.567   6.332 -29.860  1.00  0.00     0.164 HD
HETATM   14  H   UNL     1      -6.749   5.643 -28.993  1.00  0.00     0.171 HD
BRANCH  11  15
HETATM   15  C   UNL     1      -2.897   7.423 -28.201  1.00  0.00     0.151 C 
BRANCH  15  16
HETATM   16  C   UNL     1      -1.841   8.085 -29.085  1.00  0.00     0.195 C 
BRANCH  16  17
HETATM   17  O   UNL     1      -1.039   7.027 -29.613  1.00  0.00    -0.350 OA
BRANCH  17  18
HETATM   18  C   UNL     1      -1.174   6.691 -30.928  1.00  0.00     0.068 A 
HETATM   19  C   UNL     1      -1.335   5.322 -31.156  1.00  0.00     0.037 A 
HETATM   20  C   UNL     1      -1.500   4.825 -32.451  1.00  0.00     0.009 A 
HETATM   21  C   UNL     1      -1.500   5.697 -33.541  1.00  0.00    -0.062 A 
HETATM   22  C   UNL     1      -1.707   5.181 -34.934  1.00  0.00     0.048 C 
HETATM   23  C   UNL     1      -1.345   7.070 -33.310  1.00  0.00     0.009 A 
HETATM   24  C   UNL     1      -1.176   7.566 -32.010  1.00  0.00     0.037 A 
ENDBRANCH  17  18
ENDBRANCH  16  17
ENDBRANCH  15  16
ENDBRANCH  11  15
ENDBRANCH   1   9
BRANCH   4  25
HETATM   25  S   UNL     1      -5.573   0.208 -31.704  1.00  0.00     0.285 S 
HETATM   26  O   UNL     1      -4.397  -0.047 -30.893  1.00  0.00    -0.198 OA
HETATM   27  O   UNL     1      -6.903   0.187 -31.126  1.00  0.00    -0.198 OA
BRANCH  25  28
HETATM   28  C   UNL     1      -5.588  -1.055 -32.964  1.00  0.00     0.081 A 
HETATM   29  C   UNL     1      -4.414  -1.760 -33.249  1.00  0.00     0.025 A 
HETATM   30  C   UNL     1      -4.432  -2.761 -34.219  1.00  0.00     0.002 A 
HETATM   31  C   UNL     1      -5.616  -3.050 -34.901  1.00  0.00     0.000 A 
HETATM   32  C   UNL     1      -6.785  -2.339 -34.616  1.00  0.00     0.002 A 
HETATM   33  C   UNL     1      -6.775  -1.337 -33.645  1.00  0.00     0.025 A 
ENDBRANCH  25  28
ENDBRANCH   4  25
TORSDOF 7
ENDMDL
MODEL 4
REMARK VINA RESULT:      -8.2      3.218      6.583
REMARK  7 active torsions:
REMARK  status: ('A' for Active; 'I' for Inactive)
REMARK    1  A    between atoms: C_5  and  O_6 
REMARK    2  A    between atoms: O_6  and  C_7 
REMARK    3  A    between atoms: C_7  and  C_8 
REMARK    4  A    between atoms: C_8  and  N_9 
REMARK       I    between atoms: N_9  and  C_10 
REMARK       I    between atoms: C_10  and  N_11 
REMARK    5  A    between atoms: N_11  and  C_12 
REMARK    6  A    between atoms: N_15  and  S_16 
REMARK    7  A    between atoms: S_16  and  C_17 
ROOT
HETATM    1  C   UNL     1      -5.341  -0.452 -32.808  1.00  0.00     0.103 A 
HETATM    2  S   UNL     1      -6.659   0.652 -32.462  1.00  0.00    -0.032 SA
HETATM    3  C   UNL     1      -7.631   0.003 -33.803  1.00  0.00     0.185 A 
HETATM    4  N   UNL     1      -8.823   0.336 -34.161  1.00  0.00    -0.134 NA
HETATM    5  N   UNL     1      -6.871  -0.969 -34.411  1.00  0.00    -0.336 N 
HETATM    6  C   UNL     1      -5.630  -1.255 -33.851  1.00  0.00     0.041 A 
HETATM    7  C   UNL     1      -4.877  -2.443 -34.355  1.00  0.00     0.071 C 
HETATM    8  H   UNL     1      -7.269  -1.560 -35.128  1.00  0.00     0.168 HD
ENDROOT
BRANCH   1   9
HETATM    9  N   UNL     1      -4.293  -0.370 -31.951  1.00  0.00    -0.301 N 
HETATM   10  C   UNL     1      -3.381   0.577 -31.620  1.00  0.00     0.321 C 
HETATM   11  N   UNL     1      -3.621   1.861 -32.019  1.00  0.00    -0.341 N 
HETATM   12  O   UNL     1      -2.436   0.260 -30.901  1.00  0.00    -0.247 OA
HETATM   13  H   UNL     1      -4.587   2.045 -32.243  1.00  0.00     0.164 HD
HETATM   14  H   UNL     1      -4.193  -1.179 -31.346  1.00  0.00     0.171 HD
BRANCH  11  15
HETATM   15  C   UNL     1      -2.924   2.947 -31.343  1.00  0.00     0.151 C 
BRANCH  15  16
HETATM   16  C   UNL     1      -2.759   4.216 -32.177  1.00  0.00     0.195 C 
BRANCH  16  17
HETATM   17  O   UNL     1      -1.353   4.462 -32.259  1.00  0.00    -0.350 OA
BRANCH  17  18
HETATM   18  C   UNL     1      -0.762   5.228 -31.298  1.00  0.00     0.068 A 
HETATM   19  C   UNL     1      -1.036   6.594 -31.405  1.00  0.00     0.037 A 
HETATM   20  C   UNL     1      -0.512   7.504 -30.484  1.00  0.00     0.009 A 
HETATM   21  C   UNL     1       0.302   7.056 -29.442  1.00  0.00    -0.062 A 
HETATM   22  C   UNL     1       0.846   8.019 -28.428  1.00  0.00     0.048 C 
HETATM   23  C   UNL     1       0.570   5.687 -29.333  1.00  0.00     0.009 A 
HETATM   24  C   UNL     1       0.047   4.775 -30.260  1.00  0.00     0.037 A 
ENDBRANCH  17  18
ENDBRANCH  16  17
ENDBRANCH  15  16
ENDBRANCH  11  15
ENDBRANCH   1   9
BRANCH   4  25
HETATM   25  S   UNL     1      -9.611   1.503 -33.362  1.00  0.00     0.285 S 
HETATM   26  O   UNL     1      -9.507   1.252 -31.936  1.00  0.00    -0.198 OA
HETATM   27  O   UNL     1      -9.265   2.794 -33.925  1.00  0.00    -0.198 OA
BRANCH  25  28
HETATM   28  C   UNL     1     -11.327   1.252 -33.784  1.00  0.00     0.081 A 
HETATM   29  C   UNL     1     -11.963   0.064 -33.409  1.00  0.00     0.025 A 
HETATM   30  C   UNL     1     -13.309  -0.122 -33.721  1.00  0.00     0.002 A 
HETATM   31  C   UNL     1     -14.010   0.872 -34.407  1.00  0.00     0.000 A 
HETATM   32  C   UNL     1     -13.368   2.054 -34.784  1.00  0.00     0.002 A 
HETATM   33  C   UNL     1     -12.021   2.249 -34.474  1.00  0.00     0.025 A 
ENDBRANCH  25  28
ENDBRANCH   4  25
TORSDOF 7
ENDMDL
MODEL 5
REMARK VINA RESULT:      -8.1      3.834      7.799
REMARK  7 active torsions:
REMARK  status: ('A' for Active; 'I' for Inactive)
REMARK    1  A    between atoms: C_5  and  O_6 
REMARK    2  A    between atoms: O_6  and  C_7 
REMARK    3  A    between atoms: C_7  and  C_8 
REMARK    4  A    between atoms: C_8  and  N_9 
REMARK       I    between atoms: N_9  and  C_10 
REMARK       I    between atoms: C_10  and  N_11 
REMARK    5  A    between atoms: N_11  and  C_12 
REMARK    6  A    between atoms: N_15  and  S_16 
REMARK    7  A    between atoms: S_16  and  C_17 
ROOT
HETATM    1  C   UNL     1      -6.261   4.176 -32.821  1.00  0.00     0.103 A 
HETATM    2  S   UNL     1      -5.352   2.714 -32.485  1.00  0.00    -0.032 SA
HETATM    3  C   UNL     1      -6.558   1.705 -33.315  1.00  0.00     0.185 A 
HETATM    4  N   UNL     1      -6.537   0.431 -33.510  1.00  0.00    -0.134 NA
HETATM    5  N   UNL     1      -7.553   2.549 -33.750  1.00  0.00    -0.336 N 
HETATM    6  C   UNL     1      -7.382   3.911 -33.519  1.00  0.00     0.041 A 
HETATM    7  C   UNL     1      -8.334   4.867 -34.162  1.00  0.00     0.071 C 
HETATM    8  H   UNL     1      -8.288   2.210 -34.355  1.00  0.00     0.168 HD
ENDROOT
BRANCH   1   9
HETATM    9  N   UNL     1      -5.672   5.320 -32.392  1.00  0.00    -0.301 N 
HETATM   10  C   UNL     1      -4.479   5.931 -32.590  1.00  0.00     0.321 C 
HETATM   11  N   UNL     1      -3.700   5.492 -33.622  1.00  0.00    -0.341 N 
HETATM   12  O   UNL     1      -4.195   6.908 -31.900  1.00  0.00    -0.247 OA
HETATM   13  H   UNL     1      -4.208   4.977 -34.326  1.00  0.00     0.164 HD
HETATM   14  H   UNL     1      -6.284   5.917 -31.844  1.00  0.00     0.171 HD
BRANCH  11  15
HETATM   15  C   UNL     1      -2.651   6.364 -34.130  1.00  0.00     0.151 C 
BRANCH  15  16
HETATM   16  C   UNL     1      -1.230   5.922 -33.785  1.00  0.00     0.195 C 
BRANCH  16  17
HETATM   17  O   UNL     1      -1.314   5.249 -32.527  1.00  0.00    -0.350 OA
BRANCH  17  18
HETATM   18  C   UNL     1      -0.795   5.853 -31.420  1.00  0.00     0.068 A 
HETATM   19  C   UNL     1      -0.199   4.973 -30.513  1.00  0.00     0.037 A 
HETATM   20  C   UNL     1       0.389   5.444 -29.337  1.00  0.00     0.009 A 
HETATM   21  C   UNL     1       0.385   6.811 -29.051  1.00  0.00    -0.062 A 
HETATM   22  C   UNL     1       1.040   7.334 -27.808  1.00  0.00     0.048 C 
HETATM   23  C   UNL     1      -0.207   7.692 -29.965  1.00  0.00     0.009 A 
HETATM   24  C   UNL     1      -0.801   7.216 -31.142  1.00  0.00     0.037 A 
ENDBRANCH  17  18
ENDBRANCH  16  17
ENDBRANCH  15  16
ENDBRANCH  11  15
ENDBRANCH   1   9
BRANCH   4  25
HETATM   25  S   UNL     1      -5.306  -0.454 -32.940  1.00  0.00     0.285 S 
HETATM   26  O   UNL     1      -4.059   0.104 -33.430  1.00  0.00    -0.198 OA
HETATM   27  O   UNL     1      -5.510  -0.716 -31.529  1.00  0.00    -0.198 OA
BRANCH  25  28
HETATM   28  C   UNL     1      -5.488  -2.038 -33.743  1.00  0.00     0.081 A 
HETATM   29  C   UNL     1      -4.382  -2.886 -33.855  1.00  0.00     0.025 A 
HETATM   30  C   UNL     1      -4.530  -4.132 -34.463  1.00  0.00     0.002 A 
HETATM   31  C   UNL     1      -5.775  -4.522 -34.960  1.00  0.00     0.000 A 
HETATM   32  C   UNL     1      -6.876  -3.668 -34.850  1.00  0.00     0.002 A 
HETATM   33  C   UNL     1      -6.736  -2.421 -34.240  1.00  0.00     0.025 A 
ENDBRANCH  25  28
ENDBRANCH   4  25
TORSDOF 7
ENDMDL
MODEL 6
REMARK VINA RESULT:      -8.0      4.636      9.013
REMARK  7 active torsions:
REMARK  status: ('A' for Active; 'I' for Inactive)
REMARK    1  A    between atoms: C_5  and  O_6 
REMARK    2  A    between atoms: O_6  and  C_7 
REMARK    3  A    between atoms: C_7  and  C_8 
REMARK    4  A    between atoms: C_8  and  N_9 
REMARK       I    between atoms: N_9  and  C_10 
REMARK       I    between atoms: C_10  and  N_11 
REMARK    5  A    between atoms: N_11  and  C_12 
REMARK    6  A    between atoms: N_15  and  S_16 
REMARK    7  A    between atoms: S_16  and  C_17 
ROOT
HETATM    1  C   UNL     1      -4.219   4.041 -30.854  1.00  0.00     0.103 A 
HETATM    2  S   UNL     1      -5.413   2.775 -31.071  1.00  0.00    -0.032 SA
HETATM    3  C   UNL     1      -4.401   1.950 -32.279  1.00  0.00     0.185 A 
HETATM    4  N   UNL     1      -4.636   0.847 -32.902  1.00  0.00    -0.134 NA
HETATM    5  N   UNL     1      -3.266   2.712 -32.435  1.00  0.00    -0.336 N 
HETATM    6  C   UNL     1      -3.137   3.840 -31.630  1.00  0.00     0.041 A 
HETATM    7  C   UNL     1      -1.829   4.563 -31.621  1.00  0.00     0.071 C 
HETATM    8  H   UNL     1      -2.489   2.373 -32.986  1.00  0.00     0.168 HD
ENDROOT
BRANCH   1   9
HETATM    9  N   UNL     1      -4.539   4.965 -29.913  1.00  0.00    -0.301 N 
HETATM   10  C   UNL     1      -4.382   6.304 -29.774  1.00  0.00     0.321 C 
HETATM   11  N   UNL     1      -4.039   7.024 -30.882  1.00  0.00    -0.341 N 
HETATM   12  O   UNL     1      -4.648   6.820 -28.691  1.00  0.00    -0.247 OA
HETATM   13  H   UNL     1      -4.238   6.554 -31.752  1.00  0.00     0.164 HD
HETATM   14  H   UNL     1      -5.094   4.597 -29.148  1.00  0.00     0.171 HD
BRANCH  11  15
HETATM   15  C   UNL     1      -4.277   8.461 -30.887  1.00  0.00     0.151 C 
BRANCH  15  16
HETATM   16  C   UNL     1      -3.012   9.318 -30.916  1.00  0.00     0.195 C 
BRANCH  16  17
HETATM   17  O   UNL     1      -2.748   9.690 -29.561  1.00  0.00    -0.350 OA
BRANCH  17  18
HETATM   18  C   UNL     1      -1.643   9.184 -28.942  1.00  0.00     0.068 A 
HETATM   19  C   UNL     1      -1.259   9.883 -27.795  1.00  0.00     0.037 A 
HETATM   20  C   UNL     1      -0.154   9.477 -27.045  1.00  0.00     0.009 A 
HETATM   21  C   UNL     1       0.588   8.361 -27.438  1.00  0.00    -0.062 A 
HETATM   22  C   UNL     1       1.759   7.895 -26.624  1.00  0.00     0.048 C 
HETATM   23  C   UNL     1       0.197   7.658 -28.584  1.00  0.00     0.009 A 
HETATM   24  C   UNL     1      -0.910   8.070 -29.338  1.00  0.00     0.037 A 
ENDBRANCH  17  18
ENDBRANCH  16  17
ENDBRANCH  15  16
ENDBRANCH  11  15
ENDBRANCH   1   9
BRANCH   4  25
HETATM   25  S   UNL     1      -6.018   0.046 -32.632  1.00  0.00     0.285 S 
HETATM   26  O   UNL     1      -6.064  -0.359 -31.239  1.00  0.00    -0.198 OA
HETATM   27  O   UNL     1      -7.121   0.763 -33.243  1.00  0.00    -0.198 OA
BRANCH  25  28
HETATM   28  C   UNL     1      -5.853  -1.457 -33.579  1.00  0.00     0.081 A 
HETATM   29  C   UNL     1      -6.999  -2.099 -34.061  1.00  0.00     0.025 A 
HETATM   30  C   UNL     1      -6.868  -3.262 -34.818  1.00  0.00     0.002 A 
HETATM   31  C   UNL     1      -5.600  -3.780 -35.087  1.00  0.00     0.000 A 
HETATM   32  C   UNL     1      -4.459  -3.137 -34.600  1.00  0.00     0.002 A 
HETATM   33  C   UNL     1      -4.581  -1.972 -33.842  1.00  0.00     0.025 A 
ENDBRANCH  25  28
ENDBRANCH   4  25
TORSDOF 7
ENDMDL
MODEL 7
REMARK VINA RESULT:      -7.8      2.316      7.231
REMARK  7 active torsions:
REMARK  status: ('A' for Active; 'I' for Inactive)
REMARK    1  A    between atoms: C_5  and  O_6 
REMARK    2  A    between atoms: O_6  and  C_7 
REMARK    3  A    between atoms: C_7  and  C_8 
REMARK    4  A    between atoms: C_8  and  N_9 
REMARK       I    between atoms: N_9  and  C_10 
REMARK       I    between atoms: C_10  and  N_11 
REMARK    5  A    between atoms: N_11  and  C_12 
REMARK    6  A    between atoms: N_15  and  S_16 
REMARK    7  A    between atoms: S_16  and  C_17 
ROOT
HETATM    1  C   UNL     1      -7.499   3.338 -31.691  1.00  0.00     0.103 A 
HETATM    2  S   UNL     1      -7.935   2.043 -32.789  1.00  0.00    -0.032 SA
HETATM    3  C   UNL     1      -6.326   1.300 -32.644  1.00  0.00     0.185 A 
HETATM    4  N   UNL     1      -5.893   0.214 -33.187  1.00  0.00    -0.134 NA
HETATM    5  N   UNL     1      -5.591   2.104 -31.804  1.00  0.00    -0.336 N 
HETATM    6  C   UNL     1      -6.235   3.203 -31.244  1.00  0.00     0.041 A 
HETATM    7  C   UNL     1      -5.534   3.968 -30.169  1.00  0.00     0.071 C 
HETATM    8  H   UNL     1      -4.679   1.812 -31.479  1.00  0.00     0.168 HD
ENDROOT
BRANCH   1   9
HETATM    9  N   UNL     1      -8.499   4.213 -31.421  1.00  0.00    -0.301 N 
HETATM   10  C   UNL     1      -9.105   5.230 -32.082  1.00  0.00     0.321 C 
HETATM   11  N   UNL     1      -8.888   5.337 -33.426  1.00  0.00    -0.341 N 
HETATM   12  O   UNL     1      -9.892   5.947 -31.468  1.00  0.00    -0.247 OA
HETATM   13  H   UNL     1      -8.560   4.484 -33.855  1.00  0.00     0.164 HD
HETATM   14  H   UNL     1      -8.974   4.036 -30.542  1.00  0.00     0.171 HD
BRANCH  11  15
HETATM   15  C   UNL     1      -9.822   6.114 -34.228  1.00  0.00     0.151 C 
BRANCH  15  16
HETATM   16  C   UNL     1     -10.585   5.309 -35.279  1.00  0.00     0.195 C 
BRANCH  16  17
HETATM   17  O   UNL     1     -11.923   5.183 -34.795  1.00  0.00    -0.350 OA
BRANCH  17  18
HETATM   18  C   UNL     1     -12.392   3.944 -34.469  1.00  0.00     0.068 A 
HETATM   19  C   UNL     1     -11.878   2.912 -35.257  1.00  0.00     0.037 A 
HETATM   20  C   UNL     1     -12.254   1.585 -35.034  1.00  0.00     0.009 A 
HETATM   21  C   UNL     1     -13.158   1.274 -34.016  1.00  0.00    -0.062 A 
HETATM   22  C   UNL     1     -13.546  -0.149 -33.746  1.00  0.00     0.048 C 
HETATM   23  C   UNL     1     -13.667   2.311 -33.224  1.00  0.00     0.009 A 
HETATM   24  C   UNL     1     -13.292   3.641 -33.451  1.00  0.00     0.037 A 
ENDBRANCH  17  18
ENDBRANCH  16  17
ENDBRANCH  15  16
ENDBRANCH  11  15
ENDBRANCH   1   9
BRANCH   4  25
HETATM   25  S   UNL     1      -6.861  -0.641 -34.164  1.00  0.00     0.285 S 
HETATM   26  O   UNL     1      -8.122  -0.882 -33.487  1.00  0.00    -0.198 OA
HETATM   27  O   UNL     1      -6.821  -0.078 -35.500  1.00  0.00    -0.198 OA
BRANCH  25  28
HETATM   28  C   UNL     1      -6.062  -2.231 -34.301  1.00  0.00     0.081 A 
HETATM   29  C   UNL     1      -4.729  -2.371 -33.899  1.00  0.00     0.025 A 
HETATM   30  C   UNL     1      -4.112  -3.618 -33.987  1.00  0.00     0.002 A 
HETATM   31  C   UNL     1      -4.824  -4.715 -34.476  1.00  0.00     0.000 A 
HETATM   32  C   UNL     1      -6.154  -4.569 -34.880  1.00  0.00     0.002 A 
HETATM   33  C   UNL     1      -6.778  -3.324 -34.794  1.00  0.00     0.025 A 
ENDBRANCH  25  28
ENDBRANCH   4  25
TORSDOF 7
ENDMDL
MODEL 8
REMARK VINA RESULT:      -7.8      4.165      8.110
REMARK  7 active torsions:
REMARK  status: ('A' for Active; 'I' for Inactive)
REMARK    1  A    between atoms: C_5  and  O_6 
REMARK    2  A    between atoms: O_6  and  C_7 
REMARK    3  A    between atoms: C_7  and  C_8 
REMARK    4  A    between atoms: C_8  and  N_9 
REMARK       I    between atoms: N_9  and  C_10 
REMARK       I    between atoms: C_10  and  N_11 
REMARK    5  A    between atoms: N_11  and  C_12 
REMARK    6  A    between atoms: N_15  and  S_16 
REMARK    7  A    between atoms: S_16  and  C_17 
ROOT
HETATM    1  C   UNL     1      -5.651   5.295 -30.149  1.00  0.00     0.103 A 
HETATM    2  S   UNL     1      -6.274   3.657 -30.086  1.00  0.00    -0.032 SA
HETATM    3  C   UNL     1      -5.365   3.195 -31.543  1.00  0.00     0.185 A 
HETATM    4  N   UNL     1      -5.305   2.042 -32.117  1.00  0.00    -0.134 NA
HETATM    5  N   UNL     1      -4.693   4.318 -31.967  1.00  0.00    -0.336 N 
HETATM    6  C   UNL     1      -4.811   5.465 -31.188  1.00  0.00     0.041 A 
HETATM    7  C   UNL     1      -3.930   6.631 -31.500  1.00  0.00     0.071 C 
HETATM    8  H   UNL     1      -4.014   4.261 -32.713  1.00  0.00     0.168 HD
ENDROOT
BRANCH   1   9
HETATM    9  N   UNL     1      -6.053   6.093 -29.128  1.00  0.00    -0.301 N 
HETATM   10  C   UNL     1      -5.525   6.498 -27.947  1.00  0.00     0.321 C 
HETATM   11  N   UNL     1      -4.190   6.297 -27.742  1.00  0.00    -0.341 N 
HETATM   12  O   UNL     1      -6.243   7.110 -27.159  1.00  0.00    -0.247 OA
HETATM   13  H   UNL     1      -3.663   6.157 -28.591  1.00  0.00     0.164 HD
HETATM   14  H   UNL     1      -6.931   6.571 -29.301  1.00  0.00     0.171 HD
BRANCH  11  15
HETATM   15  C   UNL     1      -3.513   7.075 -26.714  1.00  0.00     0.151 C 
BRANCH  15  16
HETATM   16  C   UNL     1      -2.865   8.366 -27.214  1.00  0.00     0.195 C 
BRANCH  16  17
HETATM   17  O   UNL     1      -1.454   8.182 -27.088  1.00  0.00    -0.350 OA
BRANCH  17  18
HETATM   18  C   UNL     1      -0.812   7.373 -27.979  1.00  0.00     0.068 A 
HETATM   19  C   UNL     1      -0.999   7.732 -29.316  1.00  0.00     0.037 A 
HETATM   20  C   UNL     1      -0.394   7.006 -30.344  1.00  0.00     0.009 A 
HETATM   21  C   UNL     1       0.408   5.903 -30.045  1.00  0.00    -0.062 A 
HETATM   22  C   UNL     1       1.089   5.133 -31.137  1.00  0.00     0.048 C 
HETATM   23  C   UNL     1       0.599   5.549 -28.703  1.00  0.00     0.009 A 
HETATM   24  C   UNL     1      -0.013   6.275 -27.673  1.00  0.00     0.037 A 
ENDBRANCH  17  18
ENDBRANCH  16  17
ENDBRANCH  15  16
ENDBRANCH  11  15
ENDBRANCH   1   9
BRANCH   4  25
HETATM   25  S   UNL     1      -6.151   0.797 -31.521  1.00  0.00     0.285 S 
HETATM   26  O   UNL     1      -5.501   0.321 -30.313  1.00  0.00    -0.198 OA
HETATM   27  O   UNL     1      -7.564   1.120 -31.536  1.00  0.00    -0.198 OA
BRANCH  25  28
HETATM   28  C   UNL     1      -5.952  -0.498 -32.732  1.00  0.00     0.081 A 
HETATM   29  C   UNL     1      -7.021  -0.828 -33.572  1.00  0.00     0.025 A 
HETATM   30  C   UNL     1      -6.858  -1.825 -34.533  1.00  0.00     0.002 A 
HETATM   31  C   UNL     1      -5.635  -2.489 -34.648  1.00  0.00     0.000 A 
HETATM   32  C   UNL     1      -4.572  -2.158 -33.803  1.00  0.00     0.002 A 
HETATM   33  C   UNL     1      -4.727  -1.160 -32.841  1.00  0.00     0.025 A 
ENDBRANCH  25  28
ENDBRANCH   4  25
TORSDOF 7
ENDMDL
MODEL 9
REMARK VINA RESULT:      -7.8      3.491      7.512
REMARK  7 active torsions:
REMARK  status: ('A' for Active; 'I' for Inactive)
REMARK    1  A    between atoms: C_5  and  O_6 
REMARK    2  A    between atoms: O_6  and  C_7 
REMARK    3  A    between atoms: C_7  and  C_8 
REMARK    4  A    between atoms: C_8  and  N_9 
REMARK       I    between atoms: N_9  and  C_10 
REMARK       I    between atoms: C_10  and  N_11 
REMARK    5  A    between atoms: N_11  and  C_12 
REMARK    6  A    between atoms: N_15  and  S_16 
REMARK    7  A    between atoms: S_16  and  C_17 
ROOT
HETATM    1  C   UNL     1      -7.476   3.445 -29.681  1.00  0.00     0.103 A 
HETATM    2  S   UNL     1      -6.169   2.419 -30.242  1.00  0.00    -0.032 SA
HETATM    3  C   UNL     1      -7.256   1.536 -31.338  1.00  0.00     0.185 A 
HETATM    4  N   UNL     1      -6.965   0.586 -32.159  1.00  0.00    -0.134 NA
HETATM    5  N   UNL     1      -8.512   2.069 -31.168  1.00  0.00    -0.336 N 
HETATM    6  C   UNL     1      -8.639   3.143 -30.291  1.00  0.00     0.041 A 
HETATM    7  C   UNL     1      -9.939   3.877 -30.247  1.00  0.00     0.071 C 
HETATM    8  H   UNL     1      -9.272   1.802 -31.778  1.00  0.00     0.168 HD
ENDROOT
BRANCH   1   9
HETATM    9  N   UNL     1      -7.105   4.400 -28.792  1.00  0.00    -0.301 N 
HETATM   10  C   UNL     1      -6.345   5.521 -28.832  1.00  0.00     0.321 C 
HETATM   11  N   UNL     1      -6.012   6.023 -30.058  1.00  0.00    -0.341 N 
HETATM   12  O   UNL     1      -6.072   6.087 -27.776  1.00  0.00    -0.247 OA
HETATM   13  H   UNL     1      -6.612   5.706 -30.805  1.00  0.00     0.164 HD
HETATM   14  H   UNL     1      -7.552   4.313 -27.885  1.00  0.00     0.171 HD
BRANCH  11  15
HETATM   15  C   UNL     1      -5.585   7.412 -30.155  1.00  0.00     0.151 C 
BRANCH  15  16
HETATM   16  C   UNL     1      -4.572   7.692 -31.264  1.00  0.00     0.195 C 
BRANCH  16  17
HETATM   17  O   UNL     1      -3.348   8.035 -30.612  1.00  0.00    -0.350 OA
BRANCH  17  18
HETATM   18  C   UNL     1      -2.288   7.182 -30.710  1.00  0.00     0.068 A 
HETATM   19  C   UNL     1      -1.115   7.656 -30.118  1.00  0.00     0.037 A 
HETATM   20  C   UNL     1       0.052   6.889 -30.125  1.00  0.00     0.009 A 
HETATM   21  C   UNL     1       0.061   5.632 -30.732  1.00  0.00    -0.062 A 
HETATM   22  C   UNL     1       1.298   4.785 -30.720  1.00  0.00     0.048 C 
HETATM   23  C   UNL     1      -1.118   5.157 -31.320  1.00  0.00     0.009 A 
HETATM   24  C   UNL     1      -2.287   5.929 -31.316  1.00  0.00     0.037 A 
ENDBRANCH  17  18
ENDBRANCH  16  17
ENDBRANCH  15  16
ENDBRANCH  11  15
ENDBRANCH   1   9
BRANCH   4  25
HETATM   25  S   UNL     1      -5.443   0.042 -32.260  1.00  0.00     0.285 S 
HETATM   26  O   UNL     1      -4.629   1.041 -32.928  1.00  0.00    -0.198 OA
HETATM   27  O   UNL     1      -5.045  -0.522 -30.985  1.00  0.00    -0.198 OA
BRANCH  25  28
HETATM   28  C   UNL     1      -5.540  -1.345 -33.378  1.00  0.00     0.081 A 
HETATM   29  C   UNL     1      -4.368  -2.008 -33.759  1.00  0.00     0.025 A 
HETATM   30  C   UNL     1      -4.447  -3.105 -34.616  1.00  0.00     0.002 A 
HETATM   31  C   UNL     1      -5.689  -3.532 -35.090  1.00  0.00     0.000 A 
HETATM   32  C   UNL     1      -6.855  -2.863 -34.709  1.00  0.00     0.002 A 
HETATM   33  C   UNL     1      -6.785  -1.766 -33.851  1.00  0.00     0.025 A 
ENDBRANCH  25  28
ENDBRANCH   4  25
TORSDOF 7
ENDMDL
MODEL 10
REMARK VINA RESULT:      -7.8      5.154      9.259
REMARK  7 active torsions:
REMARK  status: ('A' for Active; 'I' for Inactive)
REMARK    1  A    between atoms: C_5  and  O_6 
REMARK    2  A    between atoms: O_6  and  C_7 
REMARK    3  A    between atoms: C_7  and  C_8 
REMARK    4  A    between atoms: C_8  and  N_9 
REMARK       I    between atoms: N_9  and  C_10 
REMARK       I    between atoms: C_10  and  N_11 
REMARK    5  A    between atoms: N_11  and  C_12 
REMARK    6  A    between atoms: N_15  and  S_16 
REMARK    7  A    between atoms: S_16  and  C_17 
ROOT
HETATM    1  C   UNL     1      -5.959   4.946 -30.204  1.00  0.00     0.103 A 
HETATM    2  S   UNL     1      -6.136   3.210 -30.029  1.00  0.00    -0.032 SA
HETATM    3  C   UNL     1      -5.806   2.946 -31.757  1.00  0.00     0.185 A 
HETATM    4  N   UNL     1      -5.732   1.829 -32.395  1.00  0.00    -0.134 NA
HETATM    5  N   UNL     1      -5.617   4.186 -32.321  1.00  0.00    -0.336 N 
HETATM    6  C   UNL     1      -5.660   5.288 -31.472  1.00  0.00     0.041 A 
HETATM    7  C   UNL     1      -5.250   6.619 -32.013  1.00  0.00     0.071 C 
HETATM    8  H   UNL     1      -5.297   4.274 -33.275  1.00  0.00     0.168 HD
ENDROOT
BRANCH   1   9
HETATM    9  N   UNL     1      -6.082   5.647 -29.049  1.00  0.00    -0.301 N 
HETATM   10  C   UNL     1      -5.229   6.196 -28.150  1.00  0.00     0.321 C 
HETATM   11  N   UNL     1      -3.919   6.329 -28.512  1.00  0.00    -0.341 N 
HETATM   12  O   UNL     1      -5.684   6.634 -27.096  1.00  0.00    -0.247 OA
HETATM   13  H   UNL     1      -3.766   6.301 -29.509  1.00  0.00     0.164 HD
HETATM   14  H   UNL     1      -7.039   5.895 -28.819  1.00  0.00     0.171 HD
BRANCH  11  15
HETATM   15  C   UNL     1      -3.082   7.272 -27.784  1.00  0.00     0.151 C 
BRANCH  15  16
HETATM   16  C   UNL     1      -2.582   8.454 -28.614  1.00  0.00     0.195 C 
BRANCH  16  17
HETATM   17  O   UNL     1      -1.244   8.134 -29.003  1.00  0.00    -0.350 OA
BRANCH  17  18
HETATM   18  C   UNL     1      -0.248   8.232 -28.076  1.00  0.00     0.068 A 
HETATM   19  C   UNL     1      -0.155   9.485 -27.465  1.00  0.00     0.037 A 
HETATM   20  C   UNL     1       0.808   9.734 -26.485  1.00  0.00     0.009 A 
HETATM   21  C   UNL     1       1.698   8.728 -26.105  1.00  0.00    -0.062 A 
HETATM   22  C   UNL     1       2.718   8.973 -25.032  1.00  0.00     0.048 C 
HETATM   23  C   UNL     1       1.600   7.471 -26.715  1.00  0.00     0.009 A 
HETATM   24  C   UNL     1       0.636   7.224 -27.702  1.00  0.00     0.037 A 
ENDBRANCH  17  18
ENDBRANCH  16  17
ENDBRANCH  15  16
ENDBRANCH  11  15
ENDBRANCH   1   9
BRANCH   4  25
HETATM   25  S   UNL     1      -5.981   0.432 -31.613  1.00  0.00     0.285 S 
HETATM   26  O   UNL     1      -4.889   0.212 -30.683  1.00  0.00    -0.198 OA
HETATM   27  O   UNL     1      -7.363   0.359 -31.181  1.00  0.00    -0.198 OA
BRANCH  25  28
HETATM   28  C   UNL     1      -5.816  -0.819 -32.874  1.00  0.00     0.081 A 
HETATM   29  C   UNL     1      -6.928  -1.171 -33.647  1.00  0.00     0.025 A 
HETATM   30  C   UNL     1      -6.793  -2.134 -34.646  1.00  0.00     0.002 A 
HETATM   31  C   UNL     1      -5.555  -2.743 -34.865  1.00  0.00     0.000 A 
HETATM   32  C   UNL     1      -4.450  -2.391 -34.087  1.00  0.00     0.002 A 
HETATM   33  C   UNL     1      -4.576  -1.427 -33.086  1.00  0.00     0.025 A 
ENDBRANCH  25  28
ENDBRANCH   4  25
TORSDOF 7
ENDMDL
