MODEL 1
REMARK VINA RESULT:      -7.6      0.000      0.000
REMARK  8 active torsions:
REMARK  status: ('A' for Active; 'I' for Inactive)
REMARK    1  A    between atoms: C_2  and  N_3 
REMARK    2  A    between atoms: C_2  and  C_17 
REMARK    3  A    between atoms: N_3  and  C_6 
REMARK    4  A    between atoms: C_6  and  C_7 
REMARK    5  A    between atoms: C_7  and  O_8 
REMARK    6  A    between atoms: C_7  and  C_9 
REMARK    7  A    between atoms: C_11  and  O_12 
REMARK    8  A    between atoms: C_17  and  C_18 
ROOT
HETATM    1  N   UNL     1      -7.497   0.644 -31.641  1.00  0.00    -0.068 N 
HETATM    2  H   UNL     1      -7.473  -0.077 -32.393  1.00  0.00     0.277 HD
HETATM    3  H   UNL     1      -7.683   0.111 -30.773  1.00  0.00     0.277 HD
ENDROOT
BRANCH   1   4
HETATM    4  C   UNL     1      -6.155   1.323 -31.631  1.00  0.00     0.188 C 
HETATM    5  C   UNL     1      -5.284   0.716 -30.537  1.00  0.00     0.040 C 
BRANCH   4   6
HETATM    6  C   UNL     1      -5.472   1.165 -33.008  1.00  0.00     0.099 C 
BRANCH   6   7
HETATM    7  C   UNL     1      -5.391  -0.273 -33.423  1.00  0.00     0.078 A 
HETATM    8  S   UNL     1      -3.929  -1.146 -33.265  1.00  0.00    -0.073 SA
HETATM    9  C   UNL     1      -4.700  -2.552 -33.891  1.00  0.00     0.035 A 
HETATM   10  C   UNL     1      -6.034  -2.250 -34.175  1.00  0.00     0.074 A 
HETATM   11  C   UNL     1      -4.162  -3.829 -34.116  1.00  0.00     0.021 A 
HETATM   12  N   UNL     1      -6.425  -0.946 -33.885  1.00  0.00    -0.245 NA
HETATM   13  C   UNL     1      -6.856  -3.260 -34.716  1.00  0.00     0.033 A 
HETATM   14  C   UNL     1      -6.331  -4.536 -34.943  1.00  0.00     0.002 A 
HETATM   15  C   UNL     1      -5.001  -4.815 -34.644  1.00  0.00     0.002 A 
ENDBRANCH   6   7
ENDBRANCH   4   6
ENDBRANCH   1   4
BRANCH   1  16
HETATM   16  C   UNL     1      -8.715   1.490 -31.890  1.00  0.00     0.269 C 
BRANCH  16  17
HETATM   17  C   UNL     1      -9.794   0.611 -32.560  1.00  0.00     0.177 C 
BRANCH  17  18
HETATM   18  O   UNL     1      -9.107  -0.458 -33.232  1.00  0.00    -0.389 OA
HETATM   19  H   UNL     1      -8.821  -0.098 -34.097  1.00  0.00     0.210 HD
ENDBRANCH  17  18
BRANCH  17  20
HETATM   20  C   UNL     1     -10.660   1.389 -33.527  1.00  0.00    -0.025 A 
HETATM   21  C   UNL     1     -11.959   0.922 -33.810  1.00  0.00     0.046 A 
HETATM   22  C   UNL     1     -12.794   1.616 -34.690  1.00  0.00     0.068 A 
HETATM   23  C   UNL     1     -12.329   2.783 -35.295  1.00  0.00     0.037 A 
HETATM   24  C   UNL     1     -11.046   3.259 -35.028  1.00  0.00     0.003 A 
HETATM   25  C   UNL     1     -10.217   2.570 -34.144  1.00  0.00     0.010 A 
BRANCH  22  26
HETATM   26  O   UNL     1     -14.069   1.268 -35.032  1.00  0.00    -0.356 OA
HETATM   27  C   UNL     1     -14.963   0.926 -33.980  1.00  0.00     0.210 C 
ENDBRANCH  22  26
ENDBRANCH  17  20
ENDBRANCH  16  17
ENDBRANCH   1  16
TORSDOF 8
ENDMDL
MODEL 2
REMARK VINA RESULT:      -7.5      4.727      7.314
REMARK  8 active torsions:
REMARK  status: ('A' for Active; 'I' for Inactive)
REMARK    1  A    between atoms: C_2  and  N_3 
REMARK    2  A    between atoms: C_2  and  C_17 
REMARK    3  A    between atoms: N_3  and  C_6 
REMARK    4  A    between atoms: C_6  and  C_7 
REMARK    5  A    between atoms: C_7  and  O_8 
REMARK    6  A    between atoms: C_7  and  C_9 
REMARK    7  A    between atoms: C_11  and  O_12 
REMARK    8  A    between atoms: C_17  and  C_18 
ROOT
HETATM    1  N   UNL     1      -4.771   2.815 -32.717  1.00  0.00    -0.068 N 
HETATM    2  H   UNL     1      -4.750   2.991 -33.744  1.00  0.00     0.277 HD
HETATM    3  H   UNL     1      -5.077   3.713 -32.303  1.00  0.00     0.277 HD
ENDROOT
BRANCH   1   4
HETATM    4  C   UNL     1      -5.748   1.697 -32.475  1.00  0.00     0.188 C 
HETATM    5  C   UNL     1      -6.921   2.216 -31.650  1.00  0.00     0.040 C 
BRANCH   4   6
HETATM    6  C   UNL     1      -6.250   1.133 -33.822  1.00  0.00     0.099 C 
BRANCH   6   7
HETATM    7  C   UNL     1      -5.898  -0.315 -33.981  1.00  0.00     0.078 A 
HETATM    8  S   UNL     1      -4.389  -0.911 -33.441  1.00  0.00    -0.073 SA
HETATM    9  C   UNL     1      -4.830  -2.494 -33.955  1.00  0.00     0.035 A 
HETATM   10  C   UNL     1      -6.113  -2.453 -34.504  1.00  0.00     0.074 A 
HETATM   11  C   UNL     1      -4.092  -3.685 -33.877  1.00  0.00     0.021 A 
HETATM   12  N   UNL     1      -6.724  -1.202 -34.498  1.00  0.00    -0.245 NA
HETATM   13  C   UNL     1      -6.673  -3.645 -35.007  1.00  0.00     0.033 A 
HETATM   14  C   UNL     1      -5.947  -4.838 -34.934  1.00  0.00     0.002 A 
HETATM   15  C   UNL     1      -4.673  -4.856 -34.374  1.00  0.00     0.002 A 
ENDBRANCH   6   7
ENDBRANCH   4   6
ENDBRANCH   1   4
BRANCH   1  16
HETATM   16  C   UNL     1      -3.345   2.612 -32.284  1.00  0.00     0.269 C 
BRANCH  16  17
HETATM   17  C   UNL     1      -2.886   3.863 -31.502  1.00  0.00     0.177 C 
BRANCH  17  18
HETATM   18  O   UNL     1      -4.012   4.310 -30.728  1.00  0.00    -0.389 OA
HETATM   19  H   UNL     1      -4.805   4.149 -31.280  1.00  0.00     0.210 HD
ENDBRANCH  17  18
BRANCH  17  20
HETATM   20  C   UNL     1      -2.383   4.964 -32.410  1.00  0.00    -0.025 A 
HETATM   21  C   UNL     1      -2.433   6.299 -31.959  1.00  0.00     0.046 A 
HETATM   22  C   UNL     1      -1.971   7.344 -32.762  1.00  0.00     0.068 A 
HETATM   23  C   UNL     1      -1.457   7.057 -34.026  1.00  0.00     0.037 A 
HETATM   24  C   UNL     1      -1.401   5.744 -34.489  1.00  0.00     0.003 A 
HETATM   25  C   UNL     1      -1.856   4.701 -33.684  1.00  0.00     0.010 A 
BRANCH  22  26
HETATM   26  O   UNL     1      -1.959   8.668 -32.431  1.00  0.00    -0.356 OA
HETATM   27  C   UNL     1      -2.248   9.013 -31.082  1.00  0.00     0.210 C 
ENDBRANCH  22  26
ENDBRANCH  17  20
ENDBRANCH  16  17
ENDBRANCH   1  16
TORSDOF 8
ENDMDL
MODEL 3
REMARK VINA RESULT:      -7.4      3.161      6.917
REMARK  8 active torsions:
REMARK  status: ('A' for Active; 'I' for Inactive)
REMARK    1  A    between atoms: C_2  and  N_3 
REMARK    2  A    between atoms: C_2  and  C_17 
REMARK    3  A    between atoms: N_3  and  C_6 
REMARK    4  A    between atoms: C_6  and  C_7 
REMARK    5  A    between atoms: C_7  and  O_8 
REMARK    6  A    between atoms: C_7  and  C_9 
REMARK    7  A    between atoms: C_11  and  O_12 
REMARK    8  A    between atoms: C_17  and  C_18 
ROOT
HETATM    1  N   UNL     1      -8.288   0.753 -31.322  1.00  0.00    -0.068 N 
HETATM    2  H   UNL     1      -7.499   0.177 -30.958  1.00  0.00     0.277 HD
HETATM    3  H   UNL     1      -9.066   0.578 -30.661  1.00  0.00     0.277 HD
ENDROOT
BRANCH   1   4
HETATM    4  C   UNL     1      -7.833   2.186 -31.321  1.00  0.00     0.188 C 
HETATM    5  C   UNL     1      -8.818   3.033 -30.523  1.00  0.00     0.040 C 
BRANCH   4   6
HETATM    6  C   UNL     1      -6.419   2.291 -30.709  1.00  0.00     0.099 C 
BRANCH   6   7
HETATM    7  C   UNL     1      -5.461   2.968 -31.643  1.00  0.00     0.078 A 
HETATM    8  S   UNL     1      -3.775   2.898 -31.366  1.00  0.00    -0.073 SA
HETATM    9  C   UNL     1      -3.502   3.824 -32.791  1.00  0.00     0.035 A 
HETATM   10  C   UNL     1      -4.732   4.120 -33.384  1.00  0.00     0.074 A 
HETATM   11  C   UNL     1      -2.286   4.257 -33.344  1.00  0.00     0.021 A 
HETATM   12  N   UNL     1      -5.848   3.609 -32.727  1.00  0.00    -0.245 NA
HETATM   13  C   UNL     1      -4.746   4.890 -34.565  1.00  0.00     0.033 A 
HETATM   14  C   UNL     1      -3.541   5.327 -35.124  1.00  0.00     0.002 A 
HETATM   15  C   UNL     1      -2.327   5.011 -34.521  1.00  0.00     0.002 A 
ENDBRANCH   6   7
ENDBRANCH   4   6
ENDBRANCH   1   4
BRANCH   1  16
HETATM   16  C   UNL     1      -8.700   0.142 -32.633  1.00  0.00     0.269 C 
BRANCH  16  17
HETATM   17  C   UNL     1      -7.620   0.471 -33.688  1.00  0.00     0.177 C 
BRANCH  17  18
HETATM   18  O   UNL     1      -8.307   0.729 -34.924  1.00  0.00    -0.389 OA
HETATM   19  H   UNL     1      -7.696   1.269 -35.469  1.00  0.00     0.210 HD
ENDBRANCH  17  18
BRANCH  17  20
HETATM   20  C   UNL     1      -6.610  -0.644 -33.854  1.00  0.00    -0.025 A 
HETATM   21  C   UNL     1      -5.504  -0.699 -32.982  1.00  0.00     0.046 A 
HETATM   22  C   UNL     1      -4.553  -1.717 -33.095  1.00  0.00     0.068 A 
HETATM   23  C   UNL     1      -4.706  -2.686 -34.086  1.00  0.00     0.037 A 
HETATM   24  C   UNL     1      -5.793  -2.647 -34.957  1.00  0.00     0.003 A 
HETATM   25  C   UNL     1      -6.744  -1.634 -34.839  1.00  0.00     0.010 A 
BRANCH  22  26
HETATM   26  O   UNL     1      -3.451  -1.880 -32.306  1.00  0.00    -0.356 OA
HETATM   27  C   UNL     1      -2.840  -0.709 -31.779  1.00  0.00     0.210 C 
ENDBRANCH  22  26
ENDBRANCH  17  20
ENDBRANCH  16  17
ENDBRANCH   1  16
TORSDOF 8
ENDMDL
MODEL 4
REMARK VINA RESULT:      -7.3      2.916      7.785
REMARK  8 active torsions:
REMARK  status: ('A' for Active; 'I' for Inactive)
REMARK    1  A    between atoms: C_2  and  N_3 
REMARK    2  A    between atoms: C_2  and  C_17 
REMARK    3  A    between atoms: N_3  and  C_6 
REMARK    4  A    between atoms: C_6  and  C_7 
REMARK    5  A    between atoms: C_7  and  O_8 
REMARK    6  A    between atoms: C_7  and  C_9 
REMARK    7  A    between atoms: C_11  and  O_12 
REMARK    8  A    between atoms: C_17  and  C_18 
ROOT
HETATM    1  N   UNL     1      -9.089   1.383 -31.146  1.00  0.00    -0.068 N 
HETATM    2  H   UNL     1      -9.379   1.060 -30.199  1.00  0.00     0.277 HD
HETATM    3  H   UNL     1      -9.825   1.027 -31.781  1.00  0.00     0.277 HD
ENDROOT
BRANCH   1   4
HETATM    4  C   UNL     1      -9.030   2.886 -31.106  1.00  0.00     0.188 C 
HETATM    5  C   UNL     1      -7.583   3.335 -30.934  1.00  0.00     0.040 C 
BRANCH   4   6
HETATM    6  C   UNL     1      -9.621   3.473 -32.406  1.00  0.00     0.099 C 
BRANCH   6   7
HETATM    7  C   UNL     1     -10.999   2.947 -32.675  1.00  0.00     0.078 A 
HETATM    8  S   UNL     1     -12.376   3.748 -32.054  1.00  0.00    -0.073 SA
HETATM    9  C   UNL     1     -13.394   2.580 -32.804  1.00  0.00     0.035 A 
HETATM   10  C   UNL     1     -12.600   1.654 -33.484  1.00  0.00     0.074 A 
HETATM   11  C   UNL     1     -14.795   2.489 -32.789  1.00  0.00     0.021 A 
HETATM   12  N   UNL     1     -11.228   1.884 -33.420  1.00  0.00    -0.245 NA
HETATM   13  C   UNL     1     -13.230   0.592 -34.164  1.00  0.00     0.033 A 
HETATM   14  C   UNL     1     -14.625   0.492 -34.156  1.00  0.00     0.002 A 
HETATM   15  C   UNL     1     -15.396   1.431 -33.479  1.00  0.00     0.002 A 
ENDBRANCH   6   7
ENDBRANCH   4   6
ENDBRANCH   1   4
BRANCH   1  16
HETATM   16  C   UNL     1      -7.830   0.636 -31.492  1.00  0.00     0.269 C 
BRANCH  16  17
HETATM   17  C   UNL     1      -7.860   0.294 -32.998  1.00  0.00     0.177 C 
BRANCH  17  18
HETATM   18  O   UNL     1      -9.164  -0.242 -33.280  1.00  0.00    -0.389 OA
HETATM   19  H   UNL     1      -9.074  -1.216 -33.238  1.00  0.00     0.210 HD
ENDBRANCH  17  18
BRANCH  17  20
HETATM   20  C   UNL     1      -6.776  -0.685 -33.393  1.00  0.00    -0.025 A 
HETATM   21  C   UNL     1      -5.600  -0.753 -32.619  1.00  0.00     0.046 A 
HETATM   22  C   UNL     1      -4.579  -1.649 -32.943  1.00  0.00     0.068 A 
HETATM   23  C   UNL     1      -4.730  -2.483 -34.051  1.00  0.00     0.037 A 
HETATM   24  C   UNL     1      -5.885  -2.429 -34.829  1.00  0.00     0.003 A 
HETATM   25  C   UNL     1      -6.906  -1.539 -34.499  1.00  0.00     0.010 A 
BRANCH  22  26
HETATM   26  O   UNL     1      -3.405  -1.812 -32.266  1.00  0.00    -0.356 OA
HETATM   27  C   UNL     1      -3.041  -3.133 -31.887  1.00  0.00     0.210 C 
ENDBRANCH  22  26
ENDBRANCH  17  20
ENDBRANCH  16  17
ENDBRANCH   1  16
TORSDOF 8
ENDMDL
MODEL 5
REMARK VINA RESULT:      -7.3      1.173      1.691
REMARK  8 active torsions:
REMARK  status: ('A' for Active; 'I' for Inactive)
REMARK    1  A    between atoms: C_2  and  N_3 
REMARK    2  A    between atoms: C_2  and  C_17 
REMARK    3  A    between atoms: N_3  and  C_6 
REMARK    4  A    between atoms: C_6  and  C_7 
REMARK    5  A    between atoms: C_7  and  O_8 
REMARK    6  A    between atoms: C_7  and  C_9 
REMARK    7  A    between atoms: C_11  and  O_12 
REMARK    8  A    between atoms: C_17  and  C_18 
ROOT
HETATM    1  N   UNL     1      -7.783   0.383 -31.888  1.00  0.00    -0.068 N 
HETATM    2  H   UNL     1      -7.648  -0.292 -32.671  1.00  0.00     0.277 HD
HETATM    3  H   UNL     1      -7.845  -0.208 -31.041  1.00  0.00     0.277 HD
ENDROOT
BRANCH   1   4
HETATM    4  C   UNL     1      -6.590   1.299 -31.876  1.00  0.00     0.188 C 
HETATM    5  C   UNL     1      -5.711   0.973 -30.673  1.00  0.00     0.040 C 
BRANCH   4   6
HETATM    6  C   UNL     1      -5.787   1.138 -33.185  1.00  0.00     0.099 C 
BRANCH   6   7
HETATM    7  C   UNL     1      -5.591  -0.304 -33.541  1.00  0.00     0.078 A 
HETATM    8  S   UNL     1      -4.095  -1.080 -33.251  1.00  0.00    -0.073 SA
HETATM    9  C   UNL     1      -4.735  -2.550 -33.878  1.00  0.00     0.035 A 
HETATM   10  C   UNL     1      -6.061  -2.340 -34.264  1.00  0.00     0.074 A 
HETATM   11  C   UNL     1      -4.108  -3.798 -34.018  1.00  0.00     0.021 A 
HETATM   12  N   UNL     1      -6.548  -1.054 -34.050  1.00  0.00    -0.245 NA
HETATM   13  C   UNL     1      -6.781  -3.416 -34.823  1.00  0.00     0.033 A 
HETATM   14  C   UNL     1      -6.166  -4.663 -34.968  1.00  0.00     0.002 A 
HETATM   15  C   UNL     1      -4.847  -4.851 -34.567  1.00  0.00     0.002 A 
ENDBRANCH   6   7
ENDBRANCH   4   6
ENDBRANCH   1   4
BRANCH   1  16
HETATM   16  C   UNL     1      -9.143   0.997 -32.078  1.00  0.00     0.269 C 
BRANCH  16  17
HETATM   17  C   UNL     1      -9.806   0.351 -33.314  1.00  0.00     0.177 C 
BRANCH  17  18
HETATM   18  O   UNL     1      -8.991   0.685 -34.450  1.00  0.00    -0.389 OA
HETATM   19  H   UNL     1      -8.161   1.060 -34.090  1.00  0.00     0.210 HD
ENDBRANCH  17  18
BRANCH  17  20
HETATM   20  C   UNL     1     -11.233   0.814 -33.517  1.00  0.00    -0.025 A 
HETATM   21  C   UNL     1     -11.483   2.184 -33.730  1.00  0.00     0.046 A 
HETATM   22  C   UNL     1     -12.784   2.653 -33.930  1.00  0.00     0.068 A 
HETATM   23  C   UNL     1     -13.844   1.747 -33.917  1.00  0.00     0.037 A 
HETATM   24  C   UNL     1     -13.616   0.388 -33.707  1.00  0.00     0.003 A 
HETATM   25  C   UNL     1     -12.317  -0.078 -33.514  1.00  0.00     0.010 A 
BRANCH  22  26
HETATM   26  O   UNL     1     -13.147   3.949 -34.155  1.00  0.00    -0.356 OA
HETATM   27  C   UNL     1     -13.615   4.704 -33.044  1.00  0.00     0.210 C 
ENDBRANCH  22  26
ENDBRANCH  17  20
ENDBRANCH  16  17
ENDBRANCH   1  16
TORSDOF 8
ENDMDL
MODEL 6
REMARK VINA RESULT:      -7.3      3.380      6.464
REMARK  8 active torsions:
REMARK  status: ('A' for Active; 'I' for Inactive)
REMARK    1  A    between atoms: C_2  and  N_3 
REMARK    2  A    between atoms: C_2  and  C_17 
REMARK    3  A    between atoms: N_3  and  C_6 
REMARK    4  A    between atoms: C_6  and  C_7 
REMARK    5  A    between atoms: C_7  and  O_8 
REMARK    6  A    between atoms: C_7  and  C_9 
REMARK    7  A    between atoms: C_11  and  O_12 
REMARK    8  A    between atoms: C_17  and  C_18 
ROOT
HETATM    1  N   UNL     1      -4.257   2.128 -31.167  1.00  0.00    -0.068 N 
HETATM    2  H   UNL     1      -3.845   1.837 -30.256  1.00  0.00     0.277 HD
HETATM    3  H   UNL     1      -5.230   1.775 -31.139  1.00  0.00     0.277 HD
ENDROOT
BRANCH   1   4
HETATM    4  C   UNL     1      -4.184   3.629 -31.232  1.00  0.00     0.188 C 
HETATM    5  C   UNL     1      -3.606   4.053 -32.578  1.00  0.00     0.040 C 
BRANCH   4   6
HETATM    6  C   UNL     1      -5.590   4.237 -31.038  1.00  0.00     0.099 C 
BRANCH   6   7
HETATM    7  C   UNL     1      -6.649   3.399 -31.689  1.00  0.00     0.078 A 
HETATM    8  S   UNL     1      -7.228   3.784 -33.252  1.00  0.00    -0.073 SA
HETATM    9  C   UNL     1      -8.279   2.422 -33.198  1.00  0.00     0.035 A 
HETATM   10  C   UNL     1      -8.108   1.763 -31.979  1.00  0.00     0.074 A 
HETATM   11  C   UNL     1      -9.191   1.970 -34.166  1.00  0.00     0.021 A 
HETATM   12  N   UNL     1      -7.157   2.321 -31.128  1.00  0.00    -0.245 NA
HETATM   13  C   UNL     1      -8.886   0.618 -31.713  1.00  0.00     0.033 A 
HETATM   14  C   UNL     1      -9.797   0.159 -32.670  1.00  0.00     0.002 A 
HETATM   15  C   UNL     1      -9.944   0.827 -33.881  1.00  0.00     0.002 A 
ENDBRANCH   6   7
ENDBRANCH   4   6
ENDBRANCH   1   4
BRANCH   1  16
HETATM   16  C   UNL     1      -3.549   1.340 -32.234  1.00  0.00     0.269 C 
BRANCH  16  17
HETATM   17  C   UNL     1      -3.793  -0.164 -31.977  1.00  0.00     0.177 C 
BRANCH  17  18
HETATM   18  O   UNL     1      -2.504  -0.799 -31.950  1.00  0.00    -0.389 OA
HETATM   19  H   UNL     1      -1.971  -0.366 -32.648  1.00  0.00     0.210 HD
ENDBRANCH  17  18
BRANCH  17  20
HETATM   20  C   UNL     1      -4.684  -0.795 -33.025  1.00  0.00    -0.025 A 
HETATM   21  C   UNL     1      -4.469  -2.141 -33.386  1.00  0.00     0.046 A 
HETATM   22  C   UNL     1      -5.275  -2.764 -34.342  1.00  0.00     0.068 A 
HETATM   23  C   UNL     1      -6.302  -2.040 -34.945  1.00  0.00     0.037 A 
HETATM   24  C   UNL     1      -6.529  -0.708 -34.603  1.00  0.00     0.003 A 
HETATM   25  C   UNL     1      -5.728  -0.089 -33.643  1.00  0.00     0.010 A 
BRANCH  22  26
HETATM   26  O   UNL     1      -5.169  -4.058 -34.763  1.00  0.00    -0.356 OA
HETATM   27  C   UNL     1      -6.289  -4.628 -35.428  1.00  0.00     0.210 C 
ENDBRANCH  22  26
ENDBRANCH  17  20
ENDBRANCH  16  17
ENDBRANCH   1  16
TORSDOF 8
ENDMDL
MODEL 7
REMARK VINA RESULT:      -7.2      2.057      2.951
REMARK  8 active torsions:
REMARK  status: ('A' for Active; 'I' for Inactive)
REMARK    1  A    between atoms: C_2  and  N_3 
REMARK    2  A    between atoms: C_2  and  C_17 
REMARK    3  A    between atoms: N_3  and  C_6 
REMARK    4  A    between atoms: C_6  and  C_7 
REMARK    5  A    between atoms: C_7  and  O_8 
REMARK    6  A    between atoms: C_7  and  C_9 
REMARK    7  A    between atoms: C_11  and  O_12 
REMARK    8  A    between atoms: C_17  and  C_18 
ROOT
HETATM    1  N   UNL     1      -5.310   3.145 -30.651  1.00  0.00    -0.068 N 
HETATM    2  H   UNL     1      -5.320   2.236 -30.140  1.00  0.00     0.277 HD
HETATM    3  H   UNL     1      -5.120   3.853 -29.921  1.00  0.00     0.277 HD
ENDROOT
BRANCH   1   4
HETATM    4  C   UNL     1      -4.220   3.064 -31.684  1.00  0.00     0.188 C 
HETATM    5  C   UNL     1      -3.309   4.281 -31.559  1.00  0.00     0.040 C 
BRANCH   4   6
HETATM    6  C   UNL     1      -3.407   1.765 -31.494  1.00  0.00     0.099 C 
BRANCH   6   7
HETATM    7  C   UNL     1      -3.981   0.632 -32.289  1.00  0.00     0.078 A 
HETATM    8  S   UNL     1      -3.137  -0.849 -32.435  1.00  0.00    -0.073 SA
HETATM    9  C   UNL     1      -4.419  -1.486 -33.389  1.00  0.00     0.035 A 
HETATM   10  C   UNL     1      -5.412  -0.513 -33.526  1.00  0.00     0.074 A 
HETATM   11  C   UNL     1      -4.537  -2.757 -33.975  1.00  0.00     0.021 A 
HETATM   12  N   UNL     1      -5.160   0.691 -32.876  1.00  0.00    -0.245 NA
HETATM   13  C   UNL     1      -6.558  -0.818 -34.288  1.00  0.00     0.033 A 
HETATM   14  C   UNL     1      -6.686  -2.081 -34.876  1.00  0.00     0.002 A 
HETATM   15  C   UNL     1      -5.688  -3.037 -34.719  1.00  0.00     0.002 A 
ENDBRANCH   6   7
ENDBRANCH   4   6
ENDBRANCH   1   4
BRANCH   1  16
HETATM   16  C   UNL     1      -6.716   3.389 -31.125  1.00  0.00     0.269 C 
BRANCH  16  17
HETATM   17  C   UNL     1      -7.630   2.286 -30.546  1.00  0.00     0.177 C 
BRANCH  17  18
HETATM   18  O   UNL     1      -6.773   1.216 -30.116  1.00  0.00    -0.389 OA
HETATM   19  H   UNL     1      -6.684   0.611 -30.882  1.00  0.00     0.210 HD
ENDBRANCH  17  18
BRANCH  17  20
HETATM   20  C   UNL     1      -8.651   1.792 -31.547  1.00  0.00    -0.025 A 
HETATM   21  C   UNL     1      -9.397   2.733 -32.285  1.00  0.00     0.046 A 
HETATM   22  C   UNL     1     -10.343   2.319 -33.226  1.00  0.00     0.068 A 
HETATM   23  C   UNL     1     -10.550   0.956 -33.431  1.00  0.00     0.037 A 
HETATM   24  C   UNL     1      -9.823   0.010 -32.709  1.00  0.00     0.003 A 
HETATM   25  C   UNL     1      -8.874   0.425 -31.776  1.00  0.00     0.010 A 
BRANCH  22  26
HETATM   26  O   UNL     1     -11.114   3.134 -34.003  1.00  0.00    -0.356 OA
HETATM   27  C   UNL     1     -11.916   2.522 -35.006  1.00  0.00     0.210 C 
ENDBRANCH  22  26
ENDBRANCH  17  20
ENDBRANCH  16  17
ENDBRANCH   1  16
TORSDOF 8
ENDMDL
MODEL 8
REMARK VINA RESULT:      -7.2      2.823      5.728
REMARK  8 active torsions:
REMARK  status: ('A' for Active; 'I' for Inactive)
REMARK    1  A    between atoms: C_2  and  N_3 
REMARK    2  A    between atoms: C_2  and  C_17 
REMARK    3  A    between atoms: N_3  and  C_6 
REMARK    4  A    between atoms: C_6  and  C_7 
REMARK    5  A    between atoms: C_7  and  O_8 
REMARK    6  A    between atoms: C_7  and  C_9 
REMARK    7  A    between atoms: C_11  and  O_12 
REMARK    8  A    between atoms: C_17  and  C_18 
ROOT
HETATM    1  N   UNL     1      -9.052   0.711 -31.356  1.00  0.00    -0.068 N 
HETATM    2  H   UNL     1      -9.938   0.742 -30.808  1.00  0.00     0.277 HD
HETATM    3  H   UNL     1      -8.430   0.087 -30.813  1.00  0.00     0.277 HD
ENDROOT
BRANCH   1   4
HETATM    4  C   UNL     1      -9.387   0.160 -32.715  1.00  0.00     0.188 C 
HETATM    5  C   UNL     1     -10.708   0.754 -33.194  1.00  0.00     0.040 C 
BRANCH   4   6
HETATM    6  C   UNL     1      -8.257   0.494 -33.714  1.00  0.00     0.099 C 
BRANCH   6   7
HETATM    7  C   UNL     1      -7.308  -0.654 -33.878  1.00  0.00     0.078 A 
HETATM    8  S   UNL     1      -5.667  -0.502 -33.420  1.00  0.00    -0.073 SA
HETATM    9  C   UNL     1      -5.384  -2.134 -33.891  1.00  0.00     0.035 A 
HETATM   10  C   UNL     1      -6.577  -2.684 -34.365  1.00  0.00     0.074 A 
HETATM   11  C   UNL     1      -4.192  -2.873 -33.844  1.00  0.00     0.021 A 
HETATM   12  N   UNL     1      -7.679  -1.833 -34.336  1.00  0.00    -0.245 NA
HETATM   13  C   UNL     1      -6.573  -4.018 -34.821  1.00  0.00     0.033 A 
HETATM   14  C   UNL     1      -5.391  -4.763 -34.779  1.00  0.00     0.002 A 
HETATM   15  C   UNL     1      -4.216  -4.197 -34.293  1.00  0.00     0.002 A 
ENDBRANCH   6   7
ENDBRANCH   4   6
ENDBRANCH   1   4
BRANCH   1  16
HETATM   16  C   UNL     1      -8.448   2.086 -31.280  1.00  0.00     0.269 C 
BRANCH  16  17
HETATM   17  C   UNL     1      -7.036   1.969 -30.665  1.00  0.00     0.177 C 
BRANCH  17  18
HETATM   18  O   UNL     1      -7.110   2.517 -29.338  1.00  0.00    -0.389 OA
HETATM   19  H   UNL     1      -6.636   3.374 -29.369  1.00  0.00     0.210 HD
ENDBRANCH  17  18
BRANCH  17  20
HETATM   20  C   UNL     1      -5.984   2.683 -31.486  1.00  0.00    -0.025 A 
HETATM   21  C   UNL     1      -4.657   2.722 -31.012  1.00  0.00     0.046 A 
HETATM   22  C   UNL     1      -3.653   3.362 -31.744  1.00  0.00     0.068 A 
HETATM   23  C   UNL     1      -3.976   3.970 -32.956  1.00  0.00     0.037 A 
HETATM   24  C   UNL     1      -5.282   3.943 -33.440  1.00  0.00     0.003 A 
HETATM   25  C   UNL     1      -6.281   3.298 -32.712  1.00  0.00     0.010 A 
BRANCH  22  26
HETATM   26  O   UNL     1      -2.337   3.456 -31.393  1.00  0.00    -0.356 OA
HETATM   27  C   UNL     1      -1.747   4.749 -31.393  1.00  0.00     0.210 C 
ENDBRANCH  22  26
ENDBRANCH  17  20
ENDBRANCH  16  17
ENDBRANCH   1  16
TORSDOF 8
ENDMDL
MODEL 9
REMARK VINA RESULT:      -7.2      1.347      1.671
REMARK  8 active torsions:
REMARK  status: ('A' for Active; 'I' for Inactive)
REMARK    1  A    between atoms: C_2  and  N_3 
REMARK    2  A    between atoms: C_2  and  C_17 
REMARK    3  A    between atoms: N_3  and  C_6 
REMARK    4  A    between atoms: C_6  and  C_7 
REMARK    5  A    between atoms: C_7  and  O_8 
REMARK    6  A    between atoms: C_7  and  C_9 
REMARK    7  A    between atoms: C_11  and  O_12 
REMARK    8  A    between atoms: C_17  and  C_18 
ROOT
HETATM    1  N   UNL     1      -7.334   0.349 -31.815  1.00  0.00    -0.068 N 
HETATM    2  H   UNL     1      -7.073  -0.478 -32.394  1.00  0.00     0.277 HD
HETATM    3  H   UNL     1      -7.016   0.109 -30.860  1.00  0.00     0.277 HD
ENDROOT
BRANCH   1   4
HETATM    4  C   UNL     1      -6.615   1.540 -32.386  1.00  0.00     0.188 C 
HETATM    5  C   UNL     1      -5.439   1.905 -31.487  1.00  0.00     0.040 C 
BRANCH   4   6
HETATM    6  C   UNL     1      -6.118   1.223 -33.814  1.00  0.00     0.099 C 
BRANCH   6   7
HETATM    7  C   UNL     1      -5.930  -0.249 -34.020  1.00  0.00     0.078 A 
HETATM    8  S   UNL     1      -7.121  -1.177 -34.826  1.00  0.00    -0.073 SA
HETATM    9  C   UNL     1      -6.149  -2.585 -34.641  1.00  0.00     0.035 A 
HETATM   10  C   UNL     1      -4.971  -2.241 -33.974  1.00  0.00     0.074 A 
HETATM   11  C   UNL     1      -6.411  -3.900 -35.057  1.00  0.00     0.021 A 
HETATM   12  N   UNL     1      -4.847  -0.896 -33.639  1.00  0.00    -0.245 NA
HETATM   13  C   UNL     1      -4.027  -3.253 -33.701  1.00  0.00     0.033 A 
HETATM   14  C   UNL     1      -4.278  -4.566 -34.111  1.00  0.00     0.002 A 
HETATM   15  C   UNL     1      -5.455  -4.883 -34.782  1.00  0.00     0.002 A 
ENDBRANCH   6   7
ENDBRANCH   4   6
ENDBRANCH   1   4
BRANCH   1  16
HETATM   16  C   UNL     1      -8.836   0.386 -31.767  1.00  0.00     0.269 C 
BRANCH  16  17
HETATM   17  C   UNL     1      -9.297   1.851 -31.938  1.00  0.00     0.177 C 
BRANCH  17  18
HETATM   18  O   UNL     1      -9.855   2.264 -30.679  1.00  0.00    -0.389 OA
HETATM   19  H   UNL     1      -9.836   3.244 -30.680  1.00  0.00     0.210 HD
ENDBRANCH  17  18
BRANCH  17  20
HETATM   20  C   UNL     1     -10.303   2.017 -33.056  1.00  0.00    -0.025 A 
HETATM   21  C   UNL     1     -11.322   1.056 -33.207  1.00  0.00     0.046 A 
HETATM   22  C   UNL     1     -12.277   1.176 -34.221  1.00  0.00     0.068 A 
HETATM   23  C   UNL     1     -12.213   2.263 -35.092  1.00  0.00     0.037 A 
HETATM   24  C   UNL     1     -11.211   3.223 -34.958  1.00  0.00     0.003 A 
HETATM   25  C   UNL     1     -10.264   3.105 -33.942  1.00  0.00     0.010 A 
BRANCH  22  26
HETATM   26  O   UNL     1     -13.311   0.318 -34.458  1.00  0.00    -0.356 OA
HETATM   27  C   UNL     1     -14.632   0.816 -34.289  1.00  0.00     0.210 C 
ENDBRANCH  22  26
ENDBRANCH  17  20
ENDBRANCH  16  17
ENDBRANCH   1  16
TORSDOF 8
ENDMDL
MODEL 10
REMARK VINA RESULT:      -7.1      3.997      6.830
REMARK  8 active torsions:
REMARK  status: ('A' for Active; 'I' for Inactive)
REMARK    1  A    between atoms: C_2  and  N_3 
REMARK    2  A    between atoms: C_2  and  C_17 
REMARK    3  A    between atoms: N_3  and  C_6 
REMARK    4  A    between atoms: C_6  and  C_7 
REMARK    5  A    between atoms: C_7  and  O_8 
REMARK    6  A    between atoms: C_7  and  C_9 
REMARK    7  A    between atoms: C_11  and  O_12 
REMARK    8  A    between atoms: C_17  and  C_18 
ROOT
HETATM    1  N   UNL     1      -6.771   2.987 -32.400  1.00  0.00    -0.068 N 
HETATM    2  H   UNL     1      -7.014   3.297 -33.365  1.00  0.00     0.277 HD
HETATM    3  H   UNL     1      -7.616   3.191 -31.839  1.00  0.00     0.277 HD
ENDROOT
BRANCH   1   4
HETATM    4  C   UNL     1      -6.457   1.517 -32.469  1.00  0.00     0.188 C 
HETATM    5  C   UNL     1      -7.517   0.734 -31.702  1.00  0.00     0.040 C 
BRANCH   4   6
HETATM    6  C   UNL     1      -6.411   1.054 -33.941  1.00  0.00     0.099 C 
BRANCH   6   7
HETATM    7  C   UNL     1      -5.990  -0.379 -34.058  1.00  0.00     0.078 A 
HETATM    8  S   UNL     1      -4.471  -0.895 -33.463  1.00  0.00    -0.073 SA
HETATM    9  C   UNL     1      -4.826  -2.506 -33.952  1.00  0.00     0.035 A 
HETATM   10  C   UNL     1      -6.094  -2.535 -34.538  1.00  0.00     0.074 A 
HETATM   11  C   UNL     1      -4.038  -3.661 -33.827  1.00  0.00     0.021 A 
HETATM   12  N   UNL     1      -6.761  -1.314 -34.577  1.00  0.00    -0.245 NA
HETATM   13  C   UNL     1      -6.585  -3.762 -35.028  1.00  0.00     0.033 A 
HETATM   14  C   UNL     1      -5.809  -4.919 -34.908  1.00  0.00     0.002 A 
HETATM   15  C   UNL     1      -4.552  -4.868 -34.313  1.00  0.00     0.002 A 
ENDBRANCH   6   7
ENDBRANCH   4   6
ENDBRANCH   1   4
BRANCH   1  16
HETATM   16  C   UNL     1      -5.697   3.916 -31.905  1.00  0.00     0.269 C 
BRANCH  16  17
HETATM   17  C   UNL     1      -5.440   4.990 -32.985  1.00  0.00     0.177 C 
BRANCH  17  18
HETATM   18  O   UNL     1      -6.266   4.656 -34.113  1.00  0.00    -0.389 OA
HETATM   19  H   UNL     1      -7.189   4.647 -33.784  1.00  0.00     0.210 HD
ENDBRANCH  17  18
BRANCH  17  20
HETATM   20  C   UNL     1      -3.984   5.073 -33.388  1.00  0.00    -0.025 A 
HETATM   21  C   UNL     1      -2.991   4.907 -32.401  1.00  0.00     0.046 A 
HETATM   22  C   UNL     1      -1.635   4.967 -32.732  1.00  0.00     0.068 A 
HETATM   23  C   UNL     1      -1.265   5.198 -34.056  1.00  0.00     0.037 A 
HETATM   24  C   UNL     1      -2.233   5.367 -35.045  1.00  0.00     0.003 A 
HETATM   25  C   UNL     1      -3.586   5.299 -34.715  1.00  0.00     0.010 A 
BRANCH  22  26
HETATM   26  O   UNL     1      -0.589   4.811 -31.869  1.00  0.00    -0.356 OA
HETATM   27  C   UNL     1      -0.310   5.879 -30.972  1.00  0.00     0.210 C 
ENDBRANCH  22  26
ENDBRANCH  17  20
ENDBRANCH  16  17
ENDBRANCH   1  16
TORSDOF 8
ENDMDL
