MODEL 1
REMARK VINA RESULT:      -9.2      0.000      0.000
REMARK  3 active torsions:
REMARK  status: ('A' for Active; 'I' for Inactive)
REMARK    1  A    between atoms: C_3  and  N_4 
REMARK       I    between atoms: N_4  and  C_5 
REMARK    2  A    between atoms: C_5  and  C_6 
REMARK    3  A    between atoms: C_6  and  N_7 
ROOT
HETATM    1  N   UNL     1      -9.314   0.790 -34.075  1.00  0.00    -0.367 N 
HETATM    2  C   UNL     1     -10.292   1.668 -34.201  1.00  0.00     0.108 C 
HETATM    3  C   UNL     1     -11.702   1.208 -34.135  1.00  0.00     0.014 A 
HETATM    4  C   UNL     1     -12.717   2.048 -34.638  1.00  0.00    -0.042 A 
HETATM    5  C   UNL     1     -14.057   1.647 -34.604  1.00  0.00     0.008 A 
HETATM    6  C   UNL     1     -14.404   0.425 -34.035  1.00  0.00     0.001 A 
HETATM    7  C   UNL     1     -13.418  -0.400 -33.503  1.00  0.00     0.001 A 
HETATM    8  C   UNL     1     -12.077  -0.013 -33.550  1.00  0.00     0.016 A 
HETATM    9  C   UNL     1     -12.330   3.374 -35.242  1.00  0.00     0.069 C 
HETATM   10  C   UNL     1     -11.112   3.987 -34.522  1.00  0.00     0.028 C 
HETATM   11  C   UNL     1     -10.532   5.125 -35.370  1.00  0.00     0.038 C 
HETATM   12  C   UNL     1     -11.457   4.511 -33.124  1.00  0.00     0.038 C 
HETATM   13  N   UNL     1     -10.043   2.962 -34.370  1.00  0.00    -0.367 N 
HETATM   14  H   UNL     1      -9.085   3.271 -34.432  1.00  0.00     0.162 HD
HETATM   15  H   UNL     1      -9.560  -0.200 -34.116  1.00  0.00     0.161 HD
ENDROOT
BRANCH   1  16
HETATM   16  C   UNL     1      -7.873   1.070 -33.979  1.00  0.00     0.224 C 
BRANCH  16  17
HETATM   17  C   UNL     1      -7.196  -0.224 -33.541  1.00  0.00     0.239 C 
HETATM   18  N   UNL     1      -6.643  -0.955 -34.574  1.00  0.00    -0.325 N 
HETATM   19  H   UNL     1      -6.526  -0.506 -35.473  1.00  0.00     0.169 HD
HETATM   20  O   UNL     1      -7.104  -0.467 -32.340  1.00  0.00    -0.271 OA
BRANCH  18  21
HETATM   21  C   UNL     1      -6.075  -2.249 -34.475  1.00  0.00     0.040 A 
HETATM   22  C   UNL     1      -4.738  -2.382 -34.041  1.00  0.00    -0.035 A 
HETATM   23  C   UNL     1      -3.906  -1.212 -33.590  1.00  0.00     0.050 C 
HETATM   24  C   UNL     1      -4.147  -3.658 -34.021  1.00  0.00     0.009 A 
HETATM   25  C   UNL     1      -4.866  -4.786 -34.410  1.00  0.00     0.001 A 
HETATM   26  C   UNL     1      -6.186  -4.654 -34.822  1.00  0.00     0.002 A 
HETATM   27  C   UNL     1      -6.788  -3.394 -34.853  1.00  0.00     0.030 A 
ENDBRANCH  18  21
ENDBRANCH  16  17
ENDBRANCH   1  16
TORSDOF 3
ENDMDL
MODEL 2
REMARK VINA RESULT:      -9.1      4.862      7.696
REMARK  3 active torsions:
REMARK  status: ('A' for Active; 'I' for Inactive)
REMARK    1  A    between atoms: C_3  and  N_4 
REMARK       I    between atoms: N_4  and  C_5 
REMARK    2  A    between atoms: C_5  and  C_6 
REMARK    3  A    between atoms: C_6  and  N_7 
ROOT
HETATM    1  N   UNL     1      -4.970   1.274 -32.155  1.00  0.00    -0.367 N 
HETATM    2  C   UNL     1      -5.933   0.724 -32.872  1.00  0.00     0.108 C 
HETATM    3  C   UNL     1      -5.698  -0.585 -33.532  1.00  0.00     0.014 A 
HETATM    4  C   UNL     1      -6.553  -0.982 -34.580  1.00  0.00    -0.042 A 
HETATM    5  C   UNL     1      -6.358  -2.204 -35.236  1.00  0.00     0.008 A 
HETATM    6  C   UNL     1      -5.337  -3.058 -34.829  1.00  0.00     0.001 A 
HETATM    7  C   UNL     1      -4.507  -2.696 -33.773  1.00  0.00     0.001 A 
HETATM    8  C   UNL     1      -4.684  -1.470 -33.127  1.00  0.00     0.016 A 
HETATM    9  C   UNL     1      -7.663  -0.055 -35.004  1.00  0.00     0.069 C 
HETATM   10  C   UNL     1      -8.231   0.729 -33.805  1.00  0.00     0.028 C 
HETATM   11  C   UNL     1      -9.083   1.899 -34.311  1.00  0.00     0.038 C 
HETATM   12  C   UNL     1      -9.070  -0.151 -32.870  1.00  0.00     0.038 C 
HETATM   13  N   UNL     1      -7.118   1.309 -33.003  1.00  0.00    -0.367 N 
HETATM   14  H   UNL     1      -7.271   2.206 -32.568  1.00  0.00     0.162 HD
HETATM   15  H   UNL     1      -4.037   0.866 -32.226  1.00  0.00     0.161 HD
ENDROOT
BRANCH   1  16
HETATM   16  C   UNL     1      -5.060   2.485 -31.325  1.00  0.00     0.224 C 
BRANCH  16  17
HETATM   17  C   UNL     1      -3.780   3.280 -31.559  1.00  0.00     0.239 C 
HETATM   18  N   UNL     1      -3.986   4.584 -31.967  1.00  0.00    -0.325 N 
HETATM   19  H   UNL     1      -4.913   4.977 -31.872  1.00  0.00     0.169 HD
HETATM   20  O   UNL     1      -2.700   2.761 -31.282  1.00  0.00    -0.271 OA
BRANCH  18  21
HETATM   21  C   UNL     1      -2.989   5.500 -32.382  1.00  0.00     0.040 A 
HETATM   22  C   UNL     1      -2.855   5.796 -33.756  1.00  0.00    -0.035 A 
HETATM   23  C   UNL     1      -3.784   5.245 -34.804  1.00  0.00     0.050 C 
HETATM   24  C   UNL     1      -1.813   6.641 -34.178  1.00  0.00     0.009 A 
HETATM   25  C   UNL     1      -0.927   7.198 -33.258  1.00  0.00     0.001 A 
HETATM   26  C   UNL     1      -1.071   6.919 -31.905  1.00  0.00     0.002 A 
HETATM   27  C   UNL     1      -2.096   6.076 -31.469  1.00  0.00     0.030 A 
ENDBRANCH  18  21
ENDBRANCH  16  17
ENDBRANCH   1  16
TORSDOF 3
ENDMDL
MODEL 3
REMARK VINA RESULT:      -8.7      2.026      7.996
REMARK  3 active torsions:
REMARK  status: ('A' for Active; 'I' for Inactive)
REMARK    1  A    between atoms: C_3  and  N_4 
REMARK       I    between atoms: N_4  and  C_5 
REMARK    2  A    between atoms: C_5  and  C_6 
REMARK    3  A    between atoms: C_6  and  N_7 
ROOT
HETATM    1  N   UNL     1      -7.992   0.569 -33.899  1.00  0.00    -0.367 N 
HETATM    2  C   UNL     1      -6.832   0.433 -33.284  1.00  0.00     0.108 C 
HETATM    3  C   UNL     1      -5.997  -0.766 -33.551  1.00  0.00     0.014 A 
HETATM    4  C   UNL     1      -4.973  -1.100 -32.642  1.00  0.00    -0.042 A 
HETATM    5  C   UNL     1      -4.173  -2.229 -32.851  1.00  0.00     0.008 A 
HETATM    6  C   UNL     1      -4.357  -3.012 -33.987  1.00  0.00     0.001 A 
HETATM    7  C   UNL     1      -5.340  -2.676 -34.912  1.00  0.00     0.001 A 
HETATM    8  C   UNL     1      -6.155  -1.562 -34.699  1.00  0.00     0.016 A 
HETATM    9  C   UNL     1      -4.776  -0.238 -31.421  1.00  0.00     0.069 C 
HETATM   10  C   UNL     1      -5.084   1.243 -31.721  1.00  0.00     0.028 C 
HETATM   11  C   UNL     1      -5.225   2.016 -30.406  1.00  0.00     0.038 C 
HETATM   12  C   UNL     1      -4.009   1.902 -32.593  1.00  0.00     0.038 C 
HETATM   13  N   UNL     1      -6.382   1.355 -32.441  1.00  0.00    -0.367 N 
HETATM   14  H   UNL     1      -6.956   2.161 -32.247  1.00  0.00     0.162 HD
HETATM   15  H   UNL     1      -8.358  -0.241 -34.400  1.00  0.00     0.161 HD
ENDROOT
BRANCH   1  16
HETATM   16  C   UNL     1      -8.884   1.738 -33.866  1.00  0.00     0.224 C 
BRANCH  16  17
HETATM   17  C   UNL     1     -10.289   1.218 -33.580  1.00  0.00     0.239 C 
HETATM   18  N   UNL     1     -11.302   2.021 -34.067  1.00  0.00    -0.325 N 
HETATM   19  H   UNL     1     -11.067   2.739 -34.739  1.00  0.00     0.169 HD
HETATM   20  O   UNL     1     -10.417   0.118 -33.049  1.00  0.00    -0.271 OA
BRANCH  18  21
HETATM   21  C   UNL     1     -12.689   1.854 -33.834  1.00  0.00     0.040 A 
HETATM   22  C   UNL     1     -13.327   2.664 -32.869  1.00  0.00    -0.035 A 
HETATM   23  C   UNL     1     -12.617   3.767 -32.131  1.00  0.00     0.050 C 
HETATM   24  C   UNL     1     -14.684   2.444 -32.577  1.00  0.00     0.009 A 
HETATM   25  C   UNL     1     -15.406   1.451 -33.236  1.00  0.00     0.001 A 
HETATM   26  C   UNL     1     -14.781   0.665 -34.196  1.00  0.00     0.002 A 
HETATM   27  C   UNL     1     -13.431   0.866 -34.495  1.00  0.00     0.030 A 
ENDBRANCH  18  21
ENDBRANCH  16  17
ENDBRANCH   1  16
TORSDOF 3
ENDMDL
MODEL 4
REMARK VINA RESULT:      -8.7      5.588      7.977
REMARK  3 active torsions:
REMARK  status: ('A' for Active; 'I' for Inactive)
REMARK    1  A    between atoms: C_3  and  N_4 
REMARK       I    between atoms: N_4  and  C_5 
REMARK    2  A    between atoms: C_5  and  C_6 
REMARK    3  A    between atoms: C_6  and  N_7 
ROOT
HETATM    1  N   UNL     1      -3.743   2.953 -31.589  1.00  0.00    -0.367 N 
HETATM    2  C   UNL     1      -3.576   4.257 -31.469  1.00  0.00     0.108 C 
HETATM    3  C   UNL     1      -2.708   4.977 -32.435  1.00  0.00     0.014 A 
HETATM    4  C   UNL     1      -2.230   6.259 -32.098  1.00  0.00    -0.042 A 
HETATM    5  C   UNL     1      -1.400   6.966 -32.976  1.00  0.00     0.008 A 
HETATM    6  C   UNL     1      -1.071   6.421 -34.214  1.00  0.00     0.001 A 
HETATM    7  C   UNL     1      -1.564   5.171 -34.577  1.00  0.00     0.001 A 
HETATM    8  C   UNL     1      -2.377   4.453 -33.697  1.00  0.00     0.016 A 
HETATM    9  C   UNL     1      -2.602   6.845 -30.759  1.00  0.00     0.069 C 
HETATM   10  C   UNL     1      -4.020   6.417 -30.332  1.00  0.00     0.028 C 
HETATM   11  C   UNL     1      -4.222   6.719 -28.843  1.00  0.00     0.038 C 
HETATM   12  C   UNL     1      -5.116   7.109 -31.150  1.00  0.00     0.038 C 
HETATM   13  N   UNL     1      -4.182   4.947 -30.510  1.00  0.00    -0.367 N 
HETATM   14  H   UNL     1      -4.758   4.456 -29.843  1.00  0.00     0.162 HD
HETATM   15  H   UNL     1      -3.127   2.456 -32.234  1.00  0.00     0.161 HD
ENDROOT
BRANCH   1  16
HETATM   16  C   UNL     1      -4.660   2.099 -30.820  1.00  0.00     0.224 C 
BRANCH  16  17
HETATM   17  C   UNL     1      -4.571   0.699 -31.418  1.00  0.00     0.239 C 
HETATM   18  N   UNL     1      -5.168   0.570 -32.657  1.00  0.00    -0.325 N 
HETATM   19  H   UNL     1      -5.412   1.411 -33.163  1.00  0.00     0.169 HD
HETATM   20  O   UNL     1      -3.915  -0.156 -30.829  1.00  0.00    -0.271 OA
BRANCH  18  21
HETATM   21  C   UNL     1      -5.352  -0.635 -33.378  1.00  0.00     0.040 A 
HETATM   22  C   UNL     1      -6.663  -1.060 -33.683  1.00  0.00    -0.035 A 
HETATM   23  C   UNL     1      -7.884  -0.245 -33.353  1.00  0.00     0.050 C 
HETATM   24  C   UNL     1      -6.851  -2.297 -34.326  1.00  0.00     0.009 A 
HETATM   25  C   UNL     1      -5.763  -3.094 -34.675  1.00  0.00     0.001 A 
HETATM   26  C   UNL     1      -4.474  -2.666 -34.388  1.00  0.00     0.002 A 
HETATM   27  C   UNL     1      -4.268  -1.443 -33.745  1.00  0.00     0.030 A 
ENDBRANCH  18  21
ENDBRANCH  16  17
ENDBRANCH   1  16
TORSDOF 3
ENDMDL
MODEL 5
REMARK VINA RESULT:      -8.6      5.761      8.081
REMARK  3 active torsions:
REMARK  status: ('A' for Active; 'I' for Inactive)
REMARK    1  A    between atoms: C_3  and  N_4 
REMARK       I    between atoms: N_4  and  C_5 
REMARK    2  A    between atoms: C_5  and  C_6 
REMARK    3  A    between atoms: C_6  and  N_7 
ROOT
HETATM    1  N   UNL     1      -4.076   3.319 -31.379  1.00  0.00    -0.367 N 
HETATM    2  C   UNL     1      -3.592   4.547 -31.340  1.00  0.00     0.108 C 
HETATM    3  C   UNL     1      -2.719   5.026 -32.442  1.00  0.00     0.014 A 
HETATM    4  C   UNL     1      -1.912   6.161 -32.226  1.00  0.00    -0.042 A 
HETATM    5  C   UNL     1      -1.066   6.637 -33.236  1.00  0.00     0.008 A 
HETATM    6  C   UNL     1      -1.047   6.014 -34.480  1.00  0.00     0.001 A 
HETATM    7  C   UNL     1      -1.865   4.914 -34.719  1.00  0.00     0.001 A 
HETATM    8  C   UNL     1      -2.696   4.422 -33.710  1.00  0.00     0.016 A 
HETATM    9  C   UNL     1      -1.950   6.835 -30.879  1.00  0.00     0.069 C 
HETATM   10  C   UNL     1      -3.357   6.764 -30.253  1.00  0.00     0.028 C 
HETATM   11  C   UNL     1      -3.277   7.124 -28.765  1.00  0.00     0.038 C 
HETATM   12  C   UNL     1      -4.360   7.688 -30.953  1.00  0.00     0.038 C 
HETATM   13  N   UNL     1      -3.883   5.374 -30.342  1.00  0.00    -0.367 N 
HETATM   14  H   UNL     1      -4.462   5.043 -29.586  1.00  0.00     0.162 HD
HETATM   15  H   UNL     1      -3.689   2.681 -32.075  1.00  0.00     0.161 HD
ENDROOT
BRANCH   1  16
HETATM   16  C   UNL     1      -5.055   2.719 -30.460  1.00  0.00     0.224 C 
BRANCH  16  17
HETATM   17  C   UNL     1      -5.360   1.321 -30.986  1.00  0.00     0.239 C 
HETATM   18  N   UNL     1      -4.980   1.110 -32.298  1.00  0.00    -0.325 N 
HETATM   19  H   UNL     1      -4.356   1.778 -32.731  1.00  0.00     0.169 HD
HETATM   20  O   UNL     1      -5.811   0.481 -30.211  1.00  0.00    -0.271 OA
BRANCH  18  21
HETATM   21  C   UNL     1      -5.260  -0.038 -33.078  1.00  0.00     0.040 A 
HETATM   22  C   UNL     1      -4.354  -1.121 -33.057  1.00  0.00    -0.035 A 
HETATM   23  C   UNL     1      -3.137  -1.151 -32.171  1.00  0.00     0.050 C 
HETATM   24  C   UNL     1      -4.586  -2.227 -33.893  1.00  0.00     0.009 A 
HETATM   25  C   UNL     1      -5.702  -2.272 -34.726  1.00  0.00     0.001 A 
HETATM   26  C   UNL     1      -6.600  -1.212 -34.734  1.00  0.00     0.002 A 
HETATM   27  C   UNL     1      -6.382  -0.103 -33.913  1.00  0.00     0.030 A 
ENDBRANCH  18  21
ENDBRANCH  16  17
ENDBRANCH   1  16
TORSDOF 3
ENDMDL
MODEL 6
REMARK VINA RESULT:      -8.2      5.708      8.802
REMARK  3 active torsions:
REMARK  status: ('A' for Active; 'I' for Inactive)
REMARK    1  A    between atoms: C_3  and  N_4 
REMARK       I    between atoms: N_4  and  C_5 
REMARK    2  A    between atoms: C_5  and  C_6 
REMARK    3  A    between atoms: C_6  and  N_7 
ROOT
HETATM    1  N   UNL     1      -4.458   2.946 -32.769  1.00  0.00    -0.367 N 
HETATM    2  C   UNL     1      -5.143   1.831 -32.946  1.00  0.00     0.108 C 
HETATM    3  C   UNL     1      -4.500   0.523 -32.660  1.00  0.00     0.014 A 
HETATM    4  C   UNL     1      -5.072  -0.649 -33.195  1.00  0.00    -0.042 A 
HETATM    5  C   UNL     1      -4.490  -1.900 -32.959  1.00  0.00     0.008 A 
HETATM    6  C   UNL     1      -3.358  -2.000 -32.155  1.00  0.00     0.001 A 
HETATM    7  C   UNL     1      -2.802  -0.856 -31.590  1.00  0.00     0.001 A 
HETATM    8  C   UNL     1      -3.367   0.397 -31.839  1.00  0.00     0.016 A 
HETATM    9  C   UNL     1      -6.305  -0.529 -34.055  1.00  0.00     0.069 C 
HETATM   10  C   UNL     1      -7.214   0.621 -33.578  1.00  0.00     0.028 C 
HETATM   11  C   UNL     1      -8.248   0.944 -34.663  1.00  0.00     0.038 C 
HETATM   12  C   UNL     1      -7.933   0.297 -32.263  1.00  0.00     0.038 C 
HETATM   13  N   UNL     1      -6.405   1.852 -33.360  1.00  0.00    -0.367 N 
HETATM   14  H   UNL     1      -6.836   2.739 -33.570  1.00  0.00     0.162 HD
HETATM   15  H   UNL     1      -3.453   2.863 -32.614  1.00  0.00     0.161 HD
ENDROOT
BRANCH   1  16
HETATM   16  C   UNL     1      -4.962   4.324 -32.869  1.00  0.00     0.224 C 
BRANCH  16  17
HETATM   17  C   UNL     1      -3.770   5.250 -32.650  1.00  0.00     0.239 C 
HETATM   18  N   UNL     1      -2.935   4.869 -31.619  1.00  0.00    -0.325 N 
HETATM   19  H   UNL     1      -3.030   3.934 -31.243  1.00  0.00     0.169 HD
HETATM   20  O   UNL     1      -3.586   6.176 -33.437  1.00  0.00    -0.271 OA
BRANCH  18  21
HETATM   21  C   UNL     1      -1.837   5.607 -31.111  1.00  0.00     0.040 A 
HETATM   22  C   UNL     1      -2.072   6.615 -30.151  1.00  0.00    -0.035 A 
HETATM   23  C   UNL     1      -3.433   6.890 -29.571  1.00  0.00     0.050 C 
HETATM   24  C   UNL     1      -0.996   7.404 -29.708  1.00  0.00     0.009 A 
HETATM   25  C   UNL     1       0.293   7.193 -30.192  1.00  0.00     0.001 A 
HETATM   26  C   UNL     1       0.524   6.189 -31.124  1.00  0.00     0.002 A 
HETATM   27  C   UNL     1      -0.534   5.399 -31.580  1.00  0.00     0.030 A 
ENDBRANCH  18  21
ENDBRANCH  16  17
ENDBRANCH   1  16
TORSDOF 3
ENDMDL
MODEL 7
REMARK VINA RESULT:      -8.2      4.254      6.390
REMARK  3 active torsions:
REMARK  status: ('A' for Active; 'I' for Inactive)
REMARK    1  A    between atoms: C_3  and  N_4 
REMARK       I    between atoms: N_4  and  C_5 
REMARK    2  A    between atoms: C_5  and  C_6 
REMARK    3  A    between atoms: C_6  and  N_7 
ROOT
HETATM    1  N   UNL     1      -7.125   2.509 -30.795  1.00  0.00    -0.367 N 
HETATM    2  C   UNL     1      -7.546   1.774 -31.807  1.00  0.00     0.108 C 
HETATM    3  C   UNL     1      -8.937   1.937 -32.302  1.00  0.00     0.014 A 
HETATM    4  C   UNL     1      -9.499   0.921 -33.101  1.00  0.00    -0.042 A 
HETATM    5  C   UNL     1     -10.811   1.031 -33.578  1.00  0.00     0.008 A 
HETATM    6  C   UNL     1     -11.560   2.169 -33.297  1.00  0.00     0.001 A 
HETATM    7  C   UNL     1     -11.007   3.197 -32.539  1.00  0.00     0.001 A 
HETATM    8  C   UNL     1      -9.706   3.084 -32.045  1.00  0.00     0.016 A 
HETATM    9  C   UNL     1      -8.673  -0.303 -33.409  1.00  0.00     0.069 C 
HETATM   10  C   UNL     1      -7.179   0.047 -33.550  1.00  0.00     0.028 C 
HETATM   11  C   UNL     1      -6.343  -1.237 -33.499  1.00  0.00     0.038 C 
HETATM   12  C   UNL     1      -6.872   0.809 -34.844  1.00  0.00     0.038 C 
HETATM   13  N   UNL     1      -6.747   0.900 -32.409  1.00  0.00    -0.367 N 
HETATM   14  H   UNL     1      -5.808   0.778 -32.062  1.00  0.00     0.162 HD
HETATM   15  H   UNL     1      -7.824   3.035 -30.271  1.00  0.00     0.161 HD
ENDROOT
BRANCH   1  16
HETATM   16  C   UNL     1      -5.757   2.585 -30.260  1.00  0.00     0.224 C 
BRANCH  16  17
HETATM   17  C   UNL     1      -5.068   3.749 -30.964  1.00  0.00     0.239 C 
HETATM   18  N   UNL     1      -4.226   3.373 -31.993  1.00  0.00    -0.325 N 
HETATM   19  H   UNL     1      -4.288   2.427 -32.345  1.00  0.00     0.169 HD
HETATM   20  O   UNL     1      -5.373   4.897 -30.650  1.00  0.00    -0.271 OA
BRANCH  18  21
HETATM   21  C   UNL     1      -3.363   4.226 -32.724  1.00  0.00     0.040 A 
HETATM   22  C   UNL     1      -3.825   4.804 -33.927  1.00  0.00    -0.035 A 
HETATM   23  C   UNL     1      -5.231   4.626 -34.431  1.00  0.00     0.050 C 
HETATM   24  C   UNL     1      -2.943   5.584 -34.696  1.00  0.00     0.009 A 
HETATM   25  C   UNL     1      -1.632   5.803 -34.279  1.00  0.00     0.001 A 
HETATM   26  C   UNL     1      -1.185   5.246 -33.088  1.00  0.00     0.002 A 
HETATM   27  C   UNL     1      -2.045   4.464 -32.313  1.00  0.00     0.030 A 
ENDBRANCH  18  21
ENDBRANCH  16  17
ENDBRANCH   1  16
TORSDOF 3
ENDMDL
MODEL 8
REMARK VINA RESULT:      -8.0      4.233      6.466
REMARK  3 active torsions:
REMARK  status: ('A' for Active; 'I' for Inactive)
REMARK    1  A    between atoms: C_3  and  N_4 
REMARK       I    between atoms: N_4  and  C_5 
REMARK    2  A    between atoms: C_5  and  C_6 
REMARK    3  A    between atoms: C_6  and  N_7 
ROOT
HETATM    1  N   UNL     1      -5.167   2.680 -30.800  1.00  0.00    -0.367 N 
HETATM    2  C   UNL     1      -5.381   3.780 -31.498  1.00  0.00     0.108 C 
HETATM    3  C   UNL     1      -4.275   4.369 -32.295  1.00  0.00     0.014 A 
HETATM    4  C   UNL     1      -4.380   5.709 -32.720  1.00  0.00    -0.042 A 
HETATM    5  C   UNL     1      -3.354   6.305 -33.463  1.00  0.00     0.008 A 
HETATM    6  C   UNL     1      -2.234   5.562 -33.823  1.00  0.00     0.001 A 
HETATM    7  C   UNL     1      -2.132   4.228 -33.442  1.00  0.00     0.001 A 
HETATM    8  C   UNL     1      -3.143   3.634 -32.684  1.00  0.00     0.016 A 
HETATM    9  C   UNL     1      -5.604   6.501 -32.333  1.00  0.00     0.069 C 
HETATM   10  C   UNL     1      -6.860   5.609 -32.287  1.00  0.00     0.028 C 
HETATM   11  C   UNL     1      -7.988   6.345 -31.555  1.00  0.00     0.038 C 
HETATM   12  C   UNL     1      -7.339   5.194 -33.683  1.00  0.00     0.038 C 
HETATM   13  N   UNL     1      -6.573   4.366 -31.519  1.00  0.00    -0.367 N 
HETATM   14  H   UNL     1      -7.320   3.975 -30.965  1.00  0.00     0.162 HD
HETATM   15  H   UNL     1      -4.201   2.373 -30.689  1.00  0.00     0.161 HD
ENDROOT
BRANCH   1  16
HETATM   16  C   UNL     1      -6.163   1.884 -30.067  1.00  0.00     0.224 C 
BRANCH  16  17
HETATM   17  C   UNL     1      -6.219   0.516 -30.738  1.00  0.00     0.239 C 
HETATM   18  N   UNL     1      -5.650   0.475 -31.996  1.00  0.00    -0.325 N 
HETATM   19  H   UNL     1      -5.064   1.248 -32.285  1.00  0.00     0.169 HD
HETATM   20  O   UNL     1      -6.656  -0.440 -30.101  1.00  0.00    -0.271 OA
BRANCH  18  21
HETATM   21  C   UNL     1      -5.679  -0.619 -32.895  1.00  0.00     0.040 A 
HETATM   22  C   UNL     1      -4.518  -1.407 -33.058  1.00  0.00    -0.035 A 
HETATM   23  C   UNL     1      -3.266  -1.191 -32.252  1.00  0.00     0.050 C 
HETATM   24  C   UNL     1      -4.519  -2.441 -34.010  1.00  0.00     0.009 A 
HETATM   25  C   UNL     1      -5.651  -2.706 -34.779  1.00  0.00     0.001 A 
HETATM   26  C   UNL     1      -6.796  -1.940 -34.605  1.00  0.00     0.002 A 
HETATM   27  C   UNL     1      -6.812  -0.904 -33.668  1.00  0.00     0.030 A 
ENDBRANCH  18  21
ENDBRANCH  16  17
ENDBRANCH   1  16
TORSDOF 3
ENDMDL
MODEL 9
REMARK VINA RESULT:      -8.0     13.966     16.157
REMARK  3 active torsions:
REMARK  status: ('A' for Active; 'I' for Inactive)
REMARK    1  A    between atoms: C_3  and  N_4 
REMARK       I    between atoms: N_4  and  C_5 
REMARK    2  A    between atoms: C_5  and  C_6 
REMARK    3  A    between atoms: C_6  and  N_7 
ROOT
HETATM    1  N   UNL     1      -6.206 -13.157 -37.086  1.00  0.00    -0.367 N 
HETATM    2  C   UNL     1      -6.899 -14.083 -37.722  1.00  0.00     0.108 C 
HETATM    3  C   UNL     1      -8.057 -13.684 -38.562  1.00  0.00     0.014 A 
HETATM    4  C   UNL     1      -9.007 -14.661 -38.923  1.00  0.00    -0.042 A 
HETATM    5  C   UNL     1     -10.118 -14.322 -39.704  1.00  0.00     0.008 A 
HETATM    6  C   UNL     1     -10.273 -13.019 -40.166  1.00  0.00     0.001 A 
HETATM    7  C   UNL     1      -9.325 -12.051 -39.849  1.00  0.00     0.001 A 
HETATM    8  C   UNL     1      -8.224 -12.378 -39.054  1.00  0.00     0.016 A 
HETATM    9  C   UNL     1      -8.822 -16.072 -38.426  1.00  0.00     0.069 C 
HETATM   10  C   UNL     1      -7.329 -16.447 -38.337  1.00  0.00     0.028 C 
HETATM   11  C   UNL     1      -7.168 -17.724 -37.503  1.00  0.00     0.038 C 
HETATM   12  C   UNL     1      -6.691 -16.650 -39.716  1.00  0.00     0.038 C 
HETATM   13  N   UNL     1      -6.575 -15.369 -37.642  1.00  0.00    -0.367 N 
HETATM   14  H   UNL     1      -5.799 -15.641 -37.058  1.00  0.00     0.162 HD
HETATM   15  H   UNL     1      -6.597 -12.216 -37.050  1.00  0.00     0.161 HD
ENDROOT
BRANCH   1  16
HETATM   16  C   UNL     1      -4.961 -13.344 -36.326  1.00  0.00     0.224 C 
BRANCH  16  17
HETATM   17  C   UNL     1      -3.808 -13.097 -37.293  1.00  0.00     0.239 C 
HETATM   18  N   UNL     1      -3.199 -14.247 -37.759  1.00  0.00    -0.325 N 
HETATM   19  H   UNL     1      -3.671 -15.131 -37.619  1.00  0.00     0.169 HD
HETATM   20  O   UNL     1      -3.574 -11.947 -37.655  1.00  0.00    -0.271 OA
BRANCH  18  21
HETATM   21  C   UNL     1      -2.030 -14.313 -38.555  1.00  0.00     0.040 A 
HETATM   22  C   UNL     1      -2.151 -14.591 -39.934  1.00  0.00    -0.035 A 
HETATM   23  C   UNL     1      -3.481 -14.736 -40.623  1.00  0.00     0.050 C 
HETATM   24  C   UNL     1      -0.988 -14.738 -40.709  1.00  0.00     0.009 A 
HETATM   25  C   UNL     1       0.276 -14.600 -40.137  1.00  0.00     0.001 A 
HETATM   26  C   UNL     1       0.392 -14.311 -38.784  1.00  0.00     0.002 A 
HETATM   27  C   UNL     1      -0.753 -14.166 -37.997  1.00  0.00     0.030 A 
ENDBRANCH  18  21
ENDBRANCH  16  17
ENDBRANCH   1  16
TORSDOF 3
ENDMDL
MODEL 10
REMARK VINA RESULT:      -7.7      2.006      3.957
REMARK  3 active torsions:
REMARK  status: ('A' for Active; 'I' for Inactive)
REMARK    1  A    between atoms: C_3  and  N_4 
REMARK       I    between atoms: N_4  and  C_5 
REMARK    2  A    between atoms: C_5  and  C_6 
REMARK    3  A    between atoms: C_6  and  N_7 
ROOT
HETATM    1  N   UNL     1      -9.840   2.062 -31.901  1.00  0.00    -0.367 N 
HETATM    2  C   UNL     1     -10.910   2.290 -32.640  1.00  0.00     0.108 C 
HETATM    3  C   UNL     1     -11.328   3.688 -32.912  1.00  0.00     0.014 A 
HETATM    4  C   UNL     1     -12.642   3.932 -33.361  1.00  0.00    -0.042 A 
HETATM    5  C   UNL     1     -13.079   5.237 -33.618  1.00  0.00     0.008 A 
HETATM    6  C   UNL     1     -12.201   6.306 -33.469  1.00  0.00     0.001 A 
HETATM    7  C   UNL     1     -10.890   6.079 -33.062  1.00  0.00     0.001 A 
HETATM    8  C   UNL     1     -10.454   4.781 -32.785  1.00  0.00     0.016 A 
HETATM    9  C   UNL     1     -13.581   2.764 -33.529  1.00  0.00     0.069 C 
HETATM   10  C   UNL     1     -12.831   1.501 -33.998  1.00  0.00     0.028 C 
HETATM   11  C   UNL     1     -13.726   0.271 -33.811  1.00  0.00     0.038 C 
HETATM   12  C   UNL     1     -12.381   1.593 -35.461  1.00  0.00     0.038 C 
HETATM   13  N   UNL     1     -11.616   1.293 -33.163  1.00  0.00    -0.367 N 
HETATM   14  H   UNL     1     -11.342   0.343 -32.964  1.00  0.00     0.162 HD
HETATM   15  H   UNL     1      -9.441   2.851 -31.393  1.00  0.00     0.161 HD
ENDROOT
BRANCH   1  16
HETATM   16  C   UNL     1      -9.201   0.764 -31.638  1.00  0.00     0.224 C 
BRANCH  16  17
HETATM   17  C   UNL     1      -7.738   0.898 -32.047  1.00  0.00     0.239 C 
HETATM   18  N   UNL     1      -6.971  -0.223 -31.793  1.00  0.00    -0.325 N 
HETATM   19  H   UNL     1      -7.444  -1.091 -31.576  1.00  0.00     0.169 HD
HETATM   20  O   UNL     1      -7.379   1.911 -32.641  1.00  0.00    -0.271 OA
BRANCH  18  21
HETATM   21  C   UNL     1      -5.567  -0.331 -31.945  1.00  0.00     0.040 A 
HETATM   22  C   UNL     1      -5.047  -0.978 -33.086  1.00  0.00    -0.035 A 
HETATM   23  C   UNL     1      -5.917  -1.490 -34.203  1.00  0.00     0.050 C 
HETATM   24  C   UNL     1      -3.657  -1.159 -33.199  1.00  0.00     0.009 A 
HETATM   25  C   UNL     1      -2.793  -0.696 -32.209  1.00  0.00     0.001 A 
HETATM   26  C   UNL     1      -3.306  -0.045 -31.095  1.00  0.00     0.002 A 
HETATM   27  C   UNL     1      -4.684   0.139 -30.964  1.00  0.00     0.030 A 
ENDBRANCH  18  21
ENDBRANCH  16  17
ENDBRANCH   1  16
TORSDOF 3
ENDMDL
