MODEL 1
REMARK VINA RESULT:      -8.0      0.000      0.000
REMARK  3 active torsions:
REMARK  status: ('A' for Active; 'I' for Inactive)
REMARK    1  A    between atoms: C_2  and  N_3 
REMARK       I    between atoms: N_3  and  C_4 
REMARK    2  A    between atoms: C_4  and  C_5 
REMARK    3  A    between atoms: C_5  and  C_6 
ROOT
HETATM    1  C   UNL     1      -8.978   0.824 -32.210  1.00  0.00     0.286 C 
HETATM    2  N   UNL     1      -9.348   0.772 -33.690  1.00  0.00    -0.056 N 
HETATM    3  H   UNL     1      -8.664   1.401 -34.162  1.00  0.00     0.278 HD
HETATM    4  H   UNL     1      -9.191  -0.164 -34.083  1.00  0.00     0.278 HD
HETATM    5  C   UNL     1     -10.727   1.276 -34.011  1.00  0.00     0.209 C 
HETATM    6  C   UNL     1     -10.904   2.697 -33.420  1.00  0.00     0.115 C 
HETATM    7  N   UNL     1     -10.491   2.789 -32.020  1.00  0.00    -0.353 N 
HETATM    8  C   UNL     1      -9.378   2.147 -31.527  1.00  0.00     0.249 C 
HETATM    9  O   UNL     1      -8.814   2.573 -30.525  1.00  0.00    -0.271 OA
HETATM   10  C   UNL     1     -11.779   0.279 -33.520  1.00  0.00     0.035 C 
HETATM   11  C   UNL     1     -13.190   0.812 -33.751  1.00  0.00     0.002 C 
HETATM   12  C   UNL     1     -13.379   2.182 -33.104  1.00  0.00     0.002 C 
HETATM   13  C   UNL     1     -12.344   3.190 -33.603  1.00  0.00     0.027 C 
HETATM   14  H   UNL     1     -10.667   3.667 -31.535  1.00  0.00     0.163 HD
ENDROOT
BRANCH   1  15
HETATM   15  C   UNL     1      -7.491   0.503 -32.003  1.00  0.00     0.146 C 
BRANCH  15  16
HETATM   16  C   UNL     1      -6.658   1.053 -33.130  1.00  0.00     0.224 C 
HETATM   17  N   UNL     1      -5.954   0.259 -33.977  1.00  0.00    -0.327 N 
HETATM   18  H   UNL     1      -5.375   0.810 -34.606  1.00  0.00     0.169 HD
HETATM   19  O   UNL     1      -6.658   2.279 -33.315  1.00  0.00    -0.273 OA
BRANCH  17  20
HETATM   20  C   UNL     1      -5.871  -1.135 -34.170  1.00  0.00     0.034 A 
HETATM   21  C   UNL     1      -6.912  -1.962 -34.601  1.00  0.00     0.032 A 
HETATM   22  C   UNL     1      -6.699  -3.335 -34.786  1.00  0.00     0.044 A 
HETATM   23  C   UNL     1      -5.447  -3.883 -34.547  1.00  0.00     0.116 A 
HETATM   24  C   UNL     1      -4.398  -3.083 -34.128  1.00  0.00     0.044 A 
HETATM   25  F   UNL     1      -5.253  -5.194 -34.732  1.00  0.00    -0.206 F 
HETATM   26  C   UNL     1      -4.609  -1.713 -33.945  1.00  0.00     0.032 A 
ENDBRANCH  17  20
ENDBRANCH  15  16
ENDBRANCH   1  15
TORSDOF 3
ENDMDL
MODEL 2
REMARK VINA RESULT:      -7.8      3.924      6.189
REMARK  3 active torsions:
REMARK  status: ('A' for Active; 'I' for Inactive)
REMARK    1  A    between atoms: C_2  and  N_3 
REMARK       I    between atoms: N_3  and  C_4 
REMARK    2  A    between atoms: C_4  and  C_5 
REMARK    3  A    between atoms: C_5  and  C_6 
ROOT
HETATM    1  C   UNL     1      -5.337   3.538 -33.777  1.00  0.00     0.286 C 
HETATM    2  N   UNL     1      -4.217   3.301 -32.768  1.00  0.00    -0.056 N 
HETATM    3  H   UNL     1      -4.697   3.214 -31.846  1.00  0.00     0.278 HD
HETATM    4  H   UNL     1      -3.751   2.400 -32.930  1.00  0.00     0.278 HD
HETATM    5  C   UNL     1      -3.221   4.420 -32.658  1.00  0.00     0.209 C 
HETATM    6  C   UNL     1      -3.970   5.749 -32.389  1.00  0.00     0.115 C 
HETATM    7  N   UNL     1      -5.092   5.967 -33.302  1.00  0.00    -0.353 N 
HETATM    8  C   UNL     1      -5.937   4.956 -33.701  1.00  0.00     0.249 C 
HETATM    9  O   UNL     1      -7.076   5.216 -34.074  1.00  0.00    -0.271 OA
HETATM   10  C   UNL     1      -2.340   4.464 -33.909  1.00  0.00     0.035 C 
HETATM   11  C   UNL     1      -1.382   5.651 -33.864  1.00  0.00     0.002 C 
HETATM   12  C   UNL     1      -2.134   6.965 -33.669  1.00  0.00     0.002 C 
HETATM   13  C   UNL     1      -3.002   6.937 -32.411  1.00  0.00     0.027 C 
HETATM   14  H   UNL     1      -5.574   6.863 -33.247  1.00  0.00     0.163 HD
ENDROOT
BRANCH   1  15
HETATM   15  C   UNL     1      -6.419   2.455 -33.664  1.00  0.00     0.146 C 
BRANCH  15  16
HETATM   16  C   UNL     1      -6.401   1.814 -32.302  1.00  0.00     0.224 C 
HETATM   17  N   UNL     1      -6.246   0.477 -32.123  1.00  0.00    -0.327 N 
HETATM   18  H   UNL     1      -6.362   0.219 -31.145  1.00  0.00     0.169 HD
HETATM   19  O   UNL     1      -6.483   2.549 -31.307  1.00  0.00    -0.273 OA
BRANCH  17  20
HETATM   20  C   UNL     1      -5.954  -0.599 -32.985  1.00  0.00     0.034 A 
HETATM   21  C   UNL     1      -4.696  -1.180 -33.166  1.00  0.00     0.032 A 
HETATM   22  C   UNL     1      -4.534  -2.270 -34.032  1.00  0.00     0.044 A 
HETATM   23  C   UNL     1      -5.627  -2.784 -34.714  1.00  0.00     0.116 A 
HETATM   24  C   UNL     1      -6.886  -2.231 -34.545  1.00  0.00     0.044 A 
HETATM   25  F   UNL     1      -5.464  -3.828 -35.534  1.00  0.00    -0.206 F 
HETATM   26  C   UNL     1      -7.048  -1.145 -33.680  1.00  0.00     0.032 A 
ENDBRANCH  17  20
ENDBRANCH  15  16
ENDBRANCH   1  15
TORSDOF 3
ENDMDL
MODEL 3
REMARK VINA RESULT:      -7.8      1.633      2.702
REMARK  3 active torsions:
REMARK  status: ('A' for Active; 'I' for Inactive)
REMARK    1  A    between atoms: C_2  and  N_3 
REMARK       I    between atoms: N_3  and  C_4 
REMARK    2  A    between atoms: C_4  and  C_5 
REMARK    3  A    between atoms: C_5  and  C_6 
ROOT
HETATM    1  C   UNL     1      -7.205   2.005 -33.549  1.00  0.00     0.286 C 
HETATM    2  N   UNL     1      -7.939   1.809 -32.226  1.00  0.00    -0.056 N 
HETATM    3  H   UNL     1      -7.662   0.858 -31.901  1.00  0.00     0.278 HD
HETATM    4  H   UNL     1      -7.602   2.464 -31.510  1.00  0.00     0.278 HD
HETATM    5  C   UNL     1      -9.438   1.835 -32.329  1.00  0.00     0.209 C 
HETATM    6  C   UNL     1      -9.897   0.816 -33.401  1.00  0.00     0.115 C 
HETATM    7  N   UNL     1      -9.159   0.939 -34.659  1.00  0.00    -0.353 N 
HETATM    8  C   UNL     1      -7.806   1.185 -34.708  1.00  0.00     0.249 C 
HETATM    9  O   UNL     1      -7.154   0.849 -35.691  1.00  0.00    -0.271 OA
HETATM   10  C   UNL     1      -9.922   3.262 -32.602  1.00  0.00     0.035 C 
HETATM   11  C   UNL     1     -11.434   3.299 -32.803  1.00  0.00     0.002 C 
HETATM   12  C   UNL     1     -11.871   2.344 -33.911  1.00  0.00     0.002 C 
HETATM   13  C   UNL     1     -11.408   0.913 -33.637  1.00  0.00     0.027 C 
HETATM   14  H   UNL     1      -9.469   0.366 -35.442  1.00  0.00     0.163 HD
ENDROOT
BRANCH   1  15
HETATM   15  C   UNL     1      -5.701   1.745 -33.388  1.00  0.00     0.146 C 
BRANCH  15  16
HETATM   16  C   UNL     1      -5.421   0.954 -32.138  1.00  0.00     0.224 C 
HETATM   17  N   UNL     1      -5.376  -0.403 -32.124  1.00  0.00    -0.327 N 
HETATM   18  H   UNL     1      -5.276  -0.760 -31.176  1.00  0.00     0.169 HD
HETATM   19  O   UNL     1      -5.175   1.575 -31.093  1.00  0.00    -0.273 OA
BRANCH  17  20
HETATM   20  C   UNL     1      -5.424  -1.395 -33.124  1.00  0.00     0.034 A 
HETATM   21  C   UNL     1      -4.320  -2.050 -33.677  1.00  0.00     0.032 A 
HETATM   22  C   UNL     1      -4.496  -3.044 -34.648  1.00  0.00     0.044 A 
HETATM   23  C   UNL     1      -5.773  -3.390 -35.066  1.00  0.00     0.116 A 
HETATM   24  C   UNL     1      -6.884  -2.762 -34.527  1.00  0.00     0.044 A 
HETATM   25  F   UNL     1      -5.932  -4.345 -35.990  1.00  0.00    -0.206 F 
HETATM   26  C   UNL     1      -6.708  -1.771 -33.556  1.00  0.00     0.032 A 
ENDBRANCH  17  20
ENDBRANCH  15  16
ENDBRANCH   1  15
TORSDOF 3
ENDMDL
MODEL 4
REMARK VINA RESULT:      -7.7      9.205     11.222
REMARK  3 active torsions:
REMARK  status: ('A' for Active; 'I' for Inactive)
REMARK    1  A    between atoms: C_2  and  N_3 
REMARK       I    between atoms: N_3  and  C_4 
REMARK    2  A    between atoms: C_4  and  C_5 
REMARK    3  A    between atoms: C_5  and  C_6 
ROOT
HETATM    1  C   UNL     1      -1.207   6.251 -31.971  1.00  0.00     0.286 C 
HETATM    2  N   UNL     1      -1.092   4.860 -32.587  1.00  0.00    -0.056 N 
HETATM    3  H   UNL     1      -0.271   4.915 -33.228  1.00  0.00     0.278 HD
HETATM    4  H   UNL     1      -0.852   4.156 -31.880  1.00  0.00     0.278 HD
HETATM    5  C   UNL     1      -2.279   4.434 -33.404  1.00  0.00     0.209 C 
HETATM    6  C   UNL     1      -2.582   5.515 -34.471  1.00  0.00     0.115 C 
HETATM    7  N   UNL     1      -2.631   6.868 -33.915  1.00  0.00    -0.353 N 
HETATM    8  C   UNL     1      -1.754   7.309 -32.950  1.00  0.00     0.249 C 
HETATM    9  O   UNL     1      -1.521   8.508 -32.831  1.00  0.00    -0.271 OA
HETATM   10  C   UNL     1      -3.467   4.135 -32.488  1.00  0.00     0.035 C 
HETATM   11  C   UNL     1      -4.713   3.790 -33.299  1.00  0.00     0.002 C 
HETATM   12  C   UNL     1      -5.047   4.894 -34.299  1.00  0.00     0.002 C 
HETATM   13  C   UNL     1      -3.872   5.186 -35.232  1.00  0.00     0.027 C 
HETATM   14  H   UNL     1      -2.919   7.621 -34.538  1.00  0.00     0.163 HD
ENDROOT
BRANCH   1  15
HETATM   15  C   UNL     1       0.126   6.689 -31.347  1.00  0.00     0.146 C 
BRANCH  15  16
HETATM   16  C   UNL     1       0.645   5.644 -30.396  1.00  0.00     0.224 C 
HETATM   17  N   UNL     1       0.716   5.844 -29.055  1.00  0.00    -0.327 N 
HETATM   18  H   UNL     1       1.186   5.071 -28.589  1.00  0.00     0.169 HD
HETATM   19  O   UNL     1       0.974   4.542 -30.858  1.00  0.00    -0.273 OA
BRANCH  17  20
HETATM   20  C   UNL     1       0.276   6.869 -28.193  1.00  0.00     0.034 A 
HETATM   21  C   UNL     1      -0.884   6.837 -27.414  1.00  0.00     0.032 A 
HETATM   22  C   UNL     1      -1.203   7.908 -26.569  1.00  0.00     0.044 A 
HETATM   23  C   UNL     1      -0.363   9.010 -26.496  1.00  0.00     0.116 A 
HETATM   24  C   UNL     1       0.797   9.062 -27.251  1.00  0.00     0.044 A 
HETATM   25  F   UNL     1      -0.673  10.025 -25.682  1.00  0.00    -0.206 F 
HETATM   26  C   UNL     1       1.116   7.992 -28.093  1.00  0.00     0.032 A 
ENDBRANCH  17  20
ENDBRANCH  15  16
ENDBRANCH   1  15
TORSDOF 3
ENDMDL
MODEL 5
REMARK VINA RESULT:      -7.6      4.539      6.582
REMARK  3 active torsions:
REMARK  status: ('A' for Active; 'I' for Inactive)
REMARK    1  A    between atoms: C_2  and  N_3 
REMARK       I    between atoms: N_3  and  C_4 
REMARK    2  A    between atoms: C_4  and  C_5 
REMARK    3  A    between atoms: C_5  and  C_6 
ROOT
HETATM    1  C   UNL     1      -5.168   1.971 -31.775  1.00  0.00     0.286 C 
HETATM    2  N   UNL     1      -6.655   2.134 -32.077  1.00  0.00    -0.056 N 
HETATM    3  H   UNL     1      -7.135   1.986 -31.163  1.00  0.00     0.278 HD
HETATM    4  H   UNL     1      -6.876   3.095 -32.361  1.00  0.00     0.278 HD
HETATM    5  C   UNL     1      -7.212   1.133 -33.050  1.00  0.00     0.209 C 
HETATM    6  C   UNL     1      -6.874  -0.298 -32.563  1.00  0.00     0.115 C 
HETATM    7  N   UNL     1      -5.465  -0.461 -32.202  1.00  0.00    -0.353 N 
HETATM    8  C   UNL     1      -4.750   0.507 -31.534  1.00  0.00     0.249 C 
HETATM    9  O   UNL     1      -3.766   0.198 -30.870  1.00  0.00    -0.271 OA
HETATM   10  C   UNL     1      -6.700   1.431 -34.461  1.00  0.00     0.035 C 
HETATM   11  C   UNL     1      -7.177   0.373 -35.452  1.00  0.00     0.002 C 
HETATM   12  C   UNL     1      -6.778  -1.030 -35.002  1.00  0.00     0.002 C 
HETATM   13  C   UNL     1      -7.301  -1.344 -33.600  1.00  0.00     0.027 C 
HETATM   14  H   UNL     1      -5.147  -1.399 -31.964  1.00  0.00     0.163 HD
ENDROOT
BRANCH   1  15
HETATM   15  C   UNL     1      -4.738   2.883 -30.617  1.00  0.00     0.146 C 
BRANCH  15  16
HETATM   16  C   UNL     1      -5.364   4.247 -30.743  1.00  0.00     0.224 C 
HETATM   17  N   UNL     1      -4.914   5.182 -31.619  1.00  0.00    -0.327 N 
HETATM   18  H   UNL     1      -5.393   6.070 -31.490  1.00  0.00     0.169 HD
HETATM   19  O   UNL     1      -6.361   4.501 -30.051  1.00  0.00    -0.273 OA
BRANCH  17  20
HETATM   20  C   UNL     1      -3.955   5.175 -32.652  1.00  0.00     0.034 A 
HETATM   21  C   UNL     1      -4.226   5.303 -34.017  1.00  0.00     0.032 A 
HETATM   22  C   UNL     1      -3.182   5.312 -34.951  1.00  0.00     0.044 A 
HETATM   23  C   UNL     1      -1.866   5.198 -34.525  1.00  0.00     0.116 A 
HETATM   24  C   UNL     1      -1.572   5.078 -33.177  1.00  0.00     0.044 A 
HETATM   25  F   UNL     1      -0.876   5.213 -35.424  1.00  0.00    -0.206 F 
HETATM   26  C   UNL     1      -2.613   5.071 -32.245  1.00  0.00     0.032 A 
ENDBRANCH  17  20
ENDBRANCH  15  16
ENDBRANCH   1  15
TORSDOF 3
ENDMDL
MODEL 6
REMARK VINA RESULT:      -7.5      1.474      1.996
REMARK  3 active torsions:
REMARK  status: ('A' for Active; 'I' for Inactive)
REMARK    1  A    between atoms: C_2  and  N_3 
REMARK       I    between atoms: N_3  and  C_4 
REMARK    2  A    between atoms: C_4  and  C_5 
REMARK    3  A    between atoms: C_5  and  C_6 
ROOT
HETATM    1  C   UNL     1      -8.975   1.737 -33.001  1.00  0.00     0.286 C 
HETATM    2  N   UNL     1      -9.391   3.181 -32.735  1.00  0.00    -0.056 N 
HETATM    3  H   UNL     1      -9.549   3.232 -31.705  1.00  0.00     0.278 HD
HETATM    4  H   UNL     1      -8.625   3.834 -32.936  1.00  0.00     0.278 HD
HETATM    5  C   UNL     1     -10.664   3.604 -33.412  1.00  0.00     0.209 C 
HETATM    6  C   UNL     1     -11.791   2.603 -33.056  1.00  0.00     0.115 C 
HETATM    7  N   UNL     1     -11.394   1.207 -33.239  1.00  0.00    -0.353 N 
HETATM    8  C   UNL     1     -10.145   0.737 -32.902  1.00  0.00     0.249 C 
HETATM    9  O   UNL     1      -9.982  -0.451 -32.643  1.00  0.00    -0.271 OA
HETATM   10  C   UNL     1     -10.434   3.749 -34.918  1.00  0.00     0.035 C 
HETATM   11  C   UNL     1     -11.735   4.087 -35.641  1.00  0.00     0.002 C 
HETATM   12  C   UNL     1     -12.821   3.056 -35.342  1.00  0.00     0.002 C 
HETATM   13  C   UNL     1     -13.070   2.918 -33.840  1.00  0.00     0.027 C 
HETATM   14  H   UNL     1     -12.112   0.495 -33.116  1.00  0.00     0.163 HD
ENDROOT
BRANCH   1  15
HETATM   15  C   UNL     1      -7.799   1.328 -32.103  1.00  0.00     0.146 C 
BRANCH  15  16
HETATM   16  C   UNL     1      -6.492   1.811 -32.673  1.00  0.00     0.224 C 
HETATM   17  N   UNL     1      -5.626   0.989 -33.319  1.00  0.00    -0.327 N 
HETATM   18  H   UNL     1      -4.756   1.469 -33.541  1.00  0.00     0.169 HD
HETATM   19  O   UNL     1      -6.225   3.019 -32.587  1.00  0.00    -0.273 OA
BRANCH  17  20
HETATM   20  C   UNL     1      -5.683  -0.353 -33.746  1.00  0.00     0.034 A 
HETATM   21  C   UNL     1      -6.757  -0.953 -34.407  1.00  0.00     0.032 A 
HETATM   22  C   UNL     1      -6.685  -2.293 -34.811  1.00  0.00     0.044 A 
HETATM   23  C   UNL     1      -5.540  -3.034 -34.560  1.00  0.00     0.116 A 
HETATM   24  C   UNL     1      -4.458  -2.460 -33.913  1.00  0.00     0.044 A 
HETATM   25  F   UNL     1      -5.479  -4.311 -34.954  1.00  0.00    -0.206 F 
HETATM   26  C   UNL     1      -4.529  -1.123 -33.513  1.00  0.00     0.032 A 
ENDBRANCH  17  20
ENDBRANCH  15  16
ENDBRANCH   1  15
TORSDOF 3
ENDMDL
MODEL 7
REMARK VINA RESULT:      -7.4      7.448      9.252
REMARK  3 active torsions:
REMARK  status: ('A' for Active; 'I' for Inactive)
REMARK    1  A    between atoms: C_2  and  N_3 
REMARK       I    between atoms: N_3  and  C_4 
REMARK    2  A    between atoms: C_4  and  C_5 
REMARK    3  A    between atoms: C_5  and  C_6 
ROOT
HETATM    1  C   UNL     1      -2.651   4.942 -33.197  1.00  0.00     0.286 C 
HETATM    2  N   UNL     1      -3.787   5.912 -33.507  1.00  0.00    -0.056 N 
HETATM    3  H   UNL     1      -3.610   6.740 -32.898  1.00  0.00     0.278 HD
HETATM    4  H   UNL     1      -3.734   6.254 -34.473  1.00  0.00     0.278 HD
HETATM    5  C   UNL     1      -5.160   5.395 -33.183  1.00  0.00     0.209 C 
HETATM    6  C   UNL     1      -5.195   4.916 -31.710  1.00  0.00     0.115 C 
HETATM    7  N   UNL     1      -4.075   4.037 -31.370  1.00  0.00    -0.353 N 
HETATM    8  C   UNL     1      -2.795   4.250 -31.827  1.00  0.00     0.249 C 
HETATM    9  O   UNL     1      -1.836   3.804 -31.204  1.00  0.00    -0.271 OA
HETATM   10  C   UNL     1      -5.563   4.310 -34.184  1.00  0.00     0.035 C 
HETATM   11  C   UNL     1      -6.916   3.704 -33.821  1.00  0.00     0.002 C 
HETATM   12  C   UNL     1      -6.919   3.169 -32.391  1.00  0.00     0.002 C 
HETATM   13  C   UNL     1      -6.536   4.252 -31.382  1.00  0.00     0.027 C 
HETATM   14  H   UNL     1      -4.081   3.606 -30.447  1.00  0.00     0.163 HD
ENDROOT
BRANCH   1  15
HETATM   15  C   UNL     1      -1.285   5.626 -33.348  1.00  0.00     0.146 C 
BRANCH  15  16
HETATM   16  C   UNL     1      -1.403   7.114 -33.151  1.00  0.00     0.224 C 
HETATM   17  N   UNL     1      -1.263   7.706 -31.937  1.00  0.00    -0.327 N 
HETATM   18  H   UNL     1      -1.476   8.700 -31.984  1.00  0.00     0.169 HD
HETATM   19  O   UNL     1      -1.586   7.826 -34.150  1.00  0.00    -0.273 OA
BRANCH  17  20
HETATM   20  C   UNL     1      -0.883   7.245 -30.661  1.00  0.00     0.034 A 
HETATM   21  C   UNL     1       0.310   6.585 -30.354  1.00  0.00     0.032 A 
HETATM   22  C   UNL     1       0.592   6.200 -29.037  1.00  0.00     0.044 A 
HETATM   23  C   UNL     1      -0.314   6.477 -28.023  1.00  0.00     0.116 A 
HETATM   24  C   UNL     1      -1.499   7.137 -28.300  1.00  0.00     0.044 A 
HETATM   25  F   UNL     1      -0.034   6.110 -26.767  1.00  0.00    -0.206 F 
HETATM   26  C   UNL     1      -1.779   7.524 -29.614  1.00  0.00     0.032 A 
ENDBRANCH  17  20
ENDBRANCH  15  16
ENDBRANCH   1  15
TORSDOF 3
ENDMDL
MODEL 8
REMARK VINA RESULT:      -7.3     14.523     16.484
REMARK  3 active torsions:
REMARK  status: ('A' for Active; 'I' for Inactive)
REMARK    1  A    between atoms: C_2  and  N_3 
REMARK       I    between atoms: N_3  and  C_4 
REMARK    2  A    between atoms: C_4  and  C_5 
REMARK    3  A    between atoms: C_5  and  C_6 
ROOT
HETATM    1  C   UNL     1      -5.205 -13.278 -38.324  1.00  0.00     0.286 C 
HETATM    2  N   UNL     1      -4.493 -12.566 -37.178  1.00  0.00    -0.056 N 
HETATM    3  H   UNL     1      -4.602 -11.549 -37.381  1.00  0.00     0.278 HD
HETATM    4  H   UNL     1      -4.968 -12.729 -36.283  1.00  0.00     0.278 HD
HETATM    5  C   UNL     1      -3.021 -12.853 -37.078  1.00  0.00     0.209 C 
HETATM    6  C   UNL     1      -2.348 -12.567 -38.443  1.00  0.00     0.115 C 
HETATM    7  N   UNL     1      -3.053 -13.184 -39.567  1.00  0.00    -0.353 N 
HETATM    8  C   UNL     1      -4.426 -13.227 -39.654  1.00  0.00     0.249 C 
HETATM    9  O   UNL     1      -4.972 -13.326 -40.747  1.00  0.00    -0.271 OA
HETATM   10  C   UNL     1      -2.798 -14.282 -36.578  1.00  0.00     0.035 C 
HETATM   11  C   UNL     1      -1.312 -14.630 -36.556  1.00  0.00     0.002 C 
HETATM   12  C   UNL     1      -0.671 -14.414 -37.925  1.00  0.00     0.002 C 
HETATM   13  C   UNL     1      -0.873 -12.983 -38.424  1.00  0.00     0.027 C 
HETATM   14  H   UNL     1      -2.618 -13.120 -40.486  1.00  0.00     0.163 HD
ENDROOT
BRANCH   1  15
HETATM   15  C   UNL     1      -6.641 -12.760 -38.486  1.00  0.00     0.146 C 
BRANCH  15  16
HETATM   16  C   UNL     1      -7.527 -13.268 -37.380  1.00  0.00     0.224 C 
HETATM   17  N   UNL     1      -8.777 -13.747 -37.603  1.00  0.00    -0.327 N 
HETATM   18  H   UNL     1      -9.258 -13.948 -36.729  1.00  0.00     0.169 HD
HETATM   19  O   UNL     1      -7.070 -13.293 -36.228  1.00  0.00    -0.273 OA
BRANCH  17  20
HETATM   20  C   UNL     1      -9.526 -14.028 -38.764  1.00  0.00     0.034 A 
HETATM   21  C   UNL     1     -10.359 -13.129 -39.435  1.00  0.00     0.032 A 
HETATM   22  C   UNL     1     -11.031 -13.517 -40.602  1.00  0.00     0.044 A 
HETATM   23  C   UNL     1     -10.868 -14.800 -41.104  1.00  0.00     0.116 A 
HETATM   24  C   UNL     1     -10.041 -15.706 -40.462  1.00  0.00     0.044 A 
HETATM   25  F   UNL     1     -11.509 -15.159 -42.222  1.00  0.00    -0.206 F 
HETATM   26  C   UNL     1      -9.369 -15.319 -39.299  1.00  0.00     0.032 A 
ENDBRANCH  17  20
ENDBRANCH  15  16
ENDBRANCH   1  15
TORSDOF 3
ENDMDL
MODEL 9
REMARK VINA RESULT:      -7.3      5.918      7.799
REMARK  3 active torsions:
REMARK  status: ('A' for Active; 'I' for Inactive)
REMARK    1  A    between atoms: C_2  and  N_3 
REMARK       I    between atoms: N_3  and  C_4 
REMARK    2  A    between atoms: C_4  and  C_5 
REMARK    3  A    between atoms: C_5  and  C_6 
ROOT
HETATM    1  C   UNL     1      -5.073   3.795 -33.085  1.00  0.00     0.286 C 
HETATM    2  N   UNL     1      -6.227   3.112 -33.812  1.00  0.00    -0.056 N 
HETATM    3  H   UNL     1      -7.043   3.748 -33.684  1.00  0.00     0.278 HD
HETATM    4  H   UNL     1      -6.058   3.068 -34.824  1.00  0.00     0.278 HD
HETATM    5  C   UNL     1      -6.609   1.767 -33.261  1.00  0.00     0.209 C 
HETATM    6  C   UNL     1      -6.877   1.893 -31.741  1.00  0.00     0.115 C 
HETATM    7  N   UNL     1      -5.815   2.605 -31.031  1.00  0.00    -0.353 N 
HETATM    8  C   UNL     1      -5.185   3.713 -31.549  1.00  0.00     0.249 C 
HETATM    9  O   UNL     1      -4.654   4.527 -30.801  1.00  0.00    -0.271 OA
HETATM   10  C   UNL     1      -5.533   0.734 -33.605  1.00  0.00     0.035 C 
HETATM   11  C   UNL     1      -5.852  -0.620 -32.976  1.00  0.00     0.002 C 
HETATM   12  C   UNL     1      -6.045  -0.500 -31.466  1.00  0.00     0.002 C 
HETATM   13  C   UNL     1      -7.131   0.517 -31.115  1.00  0.00     0.027 C 
HETATM   14  H   UNL     1      -5.875   2.645 -30.015  1.00  0.00     0.163 HD
ENDROOT
BRANCH   1  15
HETATM   15  C   UNL     1      -4.898   5.243 -33.566  1.00  0.00     0.146 C 
BRANCH  15  16
HETATM   16  C   UNL     1      -3.945   5.313 -34.730  1.00  0.00     0.224 C 
HETATM   17  N   UNL     1      -2.693   5.828 -34.621  1.00  0.00    -0.327 N 
HETATM   18  H   UNL     1      -2.237   5.885 -35.529  1.00  0.00     0.169 HD
HETATM   19  O   UNL     1      -4.307   4.835 -35.815  1.00  0.00    -0.273 OA
BRANCH  17  20
HETATM   20  C   UNL     1      -1.909   6.278 -33.539  1.00  0.00     0.034 A 
HETATM   21  C   UNL     1      -1.878   7.583 -33.042  1.00  0.00     0.032 A 
HETATM   22  C   UNL     1      -1.079   7.904 -31.937  1.00  0.00     0.044 A 
HETATM   23  C   UNL     1      -0.313   6.923 -31.325  1.00  0.00     0.116 A 
HETATM   24  C   UNL     1      -0.333   5.620 -31.794  1.00  0.00     0.044 A 
HETATM   25  F   UNL     1       0.444   7.239 -30.267  1.00  0.00    -0.206 F 
HETATM   26  C   UNL     1      -1.132   5.299 -32.894  1.00  0.00     0.032 A 
ENDBRANCH  17  20
ENDBRANCH  15  16
ENDBRANCH   1  15
TORSDOF 3
ENDMDL
MODEL 10
REMARK VINA RESULT:      -7.3      4.372      6.752
REMARK  3 active torsions:
REMARK  status: ('A' for Active; 'I' for Inactive)
REMARK    1  A    between atoms: C_2  and  N_3 
REMARK       I    between atoms: N_3  and  C_4 
REMARK    2  A    between atoms: C_4  and  C_5 
REMARK    3  A    between atoms: C_5  and  C_6 
ROOT
HETATM    1  C   UNL     1      -4.702   3.812 -32.699  1.00  0.00     0.286 C 
HETATM    2  N   UNL     1      -4.798   4.972 -33.685  1.00  0.00    -0.056 N 
HETATM    3  H   UNL     1      -4.770   4.529 -34.628  1.00  0.00     0.278 HD
HETATM    4  H   UNL     1      -5.708   5.445 -33.621  1.00  0.00     0.278 HD
HETATM    5  C   UNL     1      -3.664   5.956 -33.611  1.00  0.00     0.209 C 
HETATM    6  C   UNL     1      -2.319   5.198 -33.738  1.00  0.00     0.115 C 
HETATM    7  N   UNL     1      -2.230   4.040 -32.849  1.00  0.00    -0.353 N 
HETATM    8  C   UNL     1      -3.292   3.195 -32.616  1.00  0.00     0.249 C 
HETATM    9  O   UNL     1      -3.093   2.039 -32.258  1.00  0.00    -0.271 OA
HETATM   10  C   UNL     1      -3.773   6.789 -32.332  1.00  0.00     0.035 C 
HETATM   11  C   UNL     1      -2.582   7.731 -32.187  1.00  0.00     0.002 C 
HETATM   12  C   UNL     1      -1.260   6.968 -32.241  1.00  0.00     0.002 C 
HETATM   13  C   UNL     1      -1.134   6.148 -33.525  1.00  0.00     0.027 C 
HETATM   14  H   UNL     1      -1.339   3.548 -32.808  1.00  0.00     0.163 HD
ENDROOT
BRANCH   1  15
HETATM   15  C   UNL     1      -5.772   2.751 -32.992  1.00  0.00     0.146 C 
BRANCH  15  16
HETATM   16  C   UNL     1      -6.095   1.954 -31.755  1.00  0.00     0.224 C 
HETATM   17  N   UNL     1      -6.185   0.600 -31.758  1.00  0.00    -0.327 N 
HETATM   18  H   UNL     1      -6.510   0.248 -30.860  1.00  0.00     0.169 HD
HETATM   19  O   UNL     1      -6.234   2.564 -30.685  1.00  0.00    -0.273 OA
BRANCH  17  20
HETATM   20  C   UNL     1      -5.917  -0.397 -32.718  1.00  0.00     0.034 A 
HETATM   21  C   UNL     1      -4.708  -1.081 -32.868  1.00  0.00     0.032 A 
HETATM   22  C   UNL     1      -4.571  -2.078 -33.844  1.00  0.00     0.044 A 
HETATM   23  C   UNL     1      -5.640  -2.396 -34.667  1.00  0.00     0.116 A 
HETATM   24  C   UNL     1      -6.852  -1.739 -34.533  1.00  0.00     0.044 A 
HETATM   25  F   UNL     1      -5.501  -3.353 -35.592  1.00  0.00    -0.206 F 
HETATM   26  C   UNL     1      -6.990  -0.746 -33.558  1.00  0.00     0.032 A 
ENDBRANCH  17  20
ENDBRANCH  15  16
ENDBRANCH   1  15
TORSDOF 3
ENDMDL
