MODEL 1
REMARK VINA RESULT:      -9.2      0.000      0.000
REMARK  2 active torsions:
REMARK  status: ('A' for Active; 'I' for Inactive)
REMARK       I    between atoms: N_5  and  C_6 
REMARK    1  A    between atoms: C_6  and  C_7 
REMARK    2  A    between atoms: N_11  and  C_12 
ROOT
HETATM    1  C   UNL     1     -14.857   0.707 -34.415  1.00  0.00     0.050 C 
HETATM    2  C   UNL     1     -13.392   0.756 -34.079  1.00  0.00    -0.030 A 
HETATM    3  C   UNL     1     -12.585   1.879 -34.348  1.00  0.00     0.087 A 
HETATM    4  C   UNL     1     -11.219   1.860 -34.001  1.00  0.00     0.160 A 
HETATM    5  N   UNL     1     -10.389   2.972 -34.318  1.00  0.00    -0.287 N 
HETATM    6  C   UNL     1      -9.017   3.118 -34.039  1.00  0.00     0.263 C 
HETATM    7  O   UNL     1      -8.484   4.227 -34.152  1.00  0.00    -0.267 OA
HETATM    8  C   UNL     1     -11.021   4.185 -34.826  1.00  0.00     0.237 C 
HETATM    9  C   UNL     1     -12.484   4.148 -35.215  1.00  0.00     0.240 C 
HETATM   10  O   UNL     1     -13.064   5.110 -35.714  1.00  0.00    -0.271 OA
HETATM   11  N   UNL     1     -13.165   3.001 -34.951  1.00  0.00    -0.322 N 
HETATM   12  N   UNL     1     -10.694   0.796 -33.367  1.00  0.00    -0.241 NA
HETATM   13  C   UNL     1     -11.474  -0.274 -33.108  1.00  0.00     0.119 A 
HETATM   14  C   UNL     1     -12.809  -0.342 -33.447  1.00  0.00     0.028 A 
HETATM   15  H   UNL     1     -14.148   3.019 -35.192  1.00  0.00     0.169 HD
ENDROOT
BRANCH   6  16
HETATM   16  C   UNL     1      -8.185   2.007 -33.609  1.00  0.00     0.076 C 
HETATM   17  C   UNL     1      -7.828   1.674 -32.277  1.00  0.00     0.068 C 
HETATM   18  C   UNL     1      -8.218   2.375 -31.028  1.00  0.00     0.073 C 
HETATM   19  N   UNL     1      -7.055   0.585 -32.220  1.00  0.00    -0.172 NA
HETATM   20  N   UNL     1      -6.923   0.184 -33.510  1.00  0.00    -0.244 N 
HETATM   21  C   UNL     1      -7.467   1.108 -34.374  1.00  0.00     0.138 C 
BRANCH  20  22
HETATM   22  C   UNL     1      -6.311  -1.061 -33.825  1.00  0.00     0.058 A 
HETATM   23  C   UNL     1      -7.066  -2.056 -34.468  1.00  0.00     0.031 A 
HETATM   24  C   UNL     1      -6.475  -3.268 -34.829  1.00  0.00     0.002 A 
HETATM   25  C   UNL     1      -5.130  -3.498 -34.550  1.00  0.00     0.000 A 
HETATM   26  C   UNL     1      -4.374  -2.518 -33.908  1.00  0.00     0.002 A 
HETATM   27  C   UNL     1      -4.959  -1.301 -33.544  1.00  0.00     0.031 A 
ENDBRANCH  20  22
ENDBRANCH   6  16
TORSDOF 2
ENDMDL
MODEL 2
REMARK VINA RESULT:      -9.2      1.736      2.365
REMARK  2 active torsions:
REMARK  status: ('A' for Active; 'I' for Inactive)
REMARK       I    between atoms: N_5  and  C_6 
REMARK    1  A    between atoms: C_6  and  C_7 
REMARK    2  A    between atoms: N_11  and  C_12 
ROOT
HETATM    1  C   UNL     1     -12.975   2.577 -34.228  1.00  0.00     0.050 C 
HETATM    2  C   UNL     1     -11.606   2.057 -33.885  1.00  0.00    -0.030 A 
HETATM    3  C   UNL     1     -10.452   2.864 -33.925  1.00  0.00     0.087 A 
HETATM    4  C   UNL     1      -9.200   2.314 -33.586  1.00  0.00     0.160 A 
HETATM    5  N   UNL     1      -8.024   3.111 -33.675  1.00  0.00    -0.287 N 
HETATM    6  C   UNL     1      -6.706   2.723 -33.369  1.00  0.00     0.263 C 
HETATM    7  O   UNL     1      -5.825   3.583 -33.260  1.00  0.00    -0.267 OA
HETATM    8  C   UNL     1      -8.175   4.539 -33.935  1.00  0.00     0.237 C 
HETATM    9  C   UNL     1      -9.534   5.079 -34.327  1.00  0.00     0.240 C 
HETATM   10  O   UNL     1      -9.721   6.257 -34.627  1.00  0.00    -0.271 OA
HETATM   11  N   UNL     1     -10.578   4.208 -34.296  1.00  0.00    -0.322 N 
HETATM   12  N   UNL     1      -9.108   1.036 -33.173  1.00  0.00    -0.241 NA
HETATM   13  C   UNL     1     -10.219   0.271 -33.133  1.00  0.00     0.119 A 
HETATM   14  C   UNL     1     -11.471   0.728 -33.481  1.00  0.00     0.028 A 
HETATM   15  H   UNL     1     -11.478   4.606 -34.531  1.00  0.00     0.169 HD
ENDROOT
BRANCH   6  16
HETATM   16  C   UNL     1      -6.328   1.335 -33.166  1.00  0.00     0.076 C 
HETATM   17  C   UNL     1      -6.071   0.695 -31.927  1.00  0.00     0.068 C 
HETATM   18  C   UNL     1      -6.129   1.286 -30.566  1.00  0.00     0.073 C 
HETATM   19  N   UNL     1      -5.753  -0.595 -32.083  1.00  0.00    -0.172 NA
HETATM   20  N   UNL     1      -5.825  -0.811 -33.421  1.00  0.00    -0.244 N 
HETATM   21  C   UNL     1      -6.020   0.369 -34.104  1.00  0.00     0.138 C 
BRANCH  20  22
HETATM   22  C   UNL     1      -5.727  -2.128 -33.950  1.00  0.00     0.058 A 
HETATM   23  C   UNL     1      -4.502  -2.810 -33.877  1.00  0.00     0.031 A 
HETATM   24  C   UNL     1      -4.393  -4.120 -34.348  1.00  0.00     0.002 A 
HETATM   25  C   UNL     1      -5.504  -4.758 -34.896  1.00  0.00     0.000 A 
HETATM   26  C   UNL     1      -6.723  -4.087 -34.975  1.00  0.00     0.002 A 
HETATM   27  C   UNL     1      -6.840  -2.775 -34.506  1.00  0.00     0.031 A 
ENDBRANCH  20  22
ENDBRANCH   6  16
TORSDOF 2
ENDMDL
MODEL 3
REMARK VINA RESULT:      -8.5      2.368      7.099
REMARK  2 active torsions:
REMARK  status: ('A' for Active; 'I' for Inactive)
REMARK       I    between atoms: N_5  and  C_6 
REMARK    1  A    between atoms: C_6  and  C_7 
REMARK    2  A    between atoms: N_11  and  C_12 
ROOT
HETATM    1  C   UNL     1      -4.539  -2.846 -34.373  1.00  0.00     0.050 C 
HETATM    2  C   UNL     1      -5.433  -1.655 -34.170  1.00  0.00    -0.030 A 
HETATM    3  C   UNL     1      -5.147  -0.637 -33.240  1.00  0.00     0.087 A 
HETATM    4  C   UNL     1      -6.027   0.456 -33.104  1.00  0.00     0.160 A 
HETATM    5  N   UNL     1      -5.769   1.461 -32.130  1.00  0.00    -0.287 N 
HETATM    6  C   UNL     1      -6.536   2.613 -31.869  1.00  0.00     0.263 C 
HETATM    7  O   UNL     1      -6.066   3.515 -31.168  1.00  0.00    -0.267 OA
HETATM    8  C   UNL     1      -4.492   1.429 -31.424  1.00  0.00     0.237 C 
HETATM    9  C   UNL     1      -3.594   0.219 -31.577  1.00  0.00     0.240 C 
HETATM   10  O   UNL     1      -2.538   0.093 -30.960  1.00  0.00    -0.271 OA
HETATM   11  N   UNL     1      -3.981  -0.729 -32.471  1.00  0.00    -0.322 N 
HETATM   12  N   UNL     1      -7.111   0.558 -33.895  1.00  0.00    -0.241 NA
HETATM   13  C   UNL     1      -7.376  -0.419 -34.787  1.00  0.00     0.119 A 
HETATM   14  C   UNL     1      -6.582  -1.533 -34.953  1.00  0.00     0.028 A 
HETATM   15  H   UNL     1      -3.345  -1.509 -32.574  1.00  0.00     0.169 HD
ENDROOT
BRANCH   6  16
HETATM   16  C   UNL     1      -7.875   2.797 -32.403  1.00  0.00     0.076 C 
HETATM   17  C   UNL     1      -8.301   3.802 -33.308  1.00  0.00     0.068 C 
HETATM   18  C   UNL     1      -7.489   4.887 -33.914  1.00  0.00     0.073 C 
HETATM   19  N   UNL     1      -9.599   3.690 -33.610  1.00  0.00    -0.172 NA
HETATM   20  N   UNL     1     -10.022   2.597 -32.926  1.00  0.00    -0.244 N 
HETATM   21  C   UNL     1      -9.042   2.134 -32.076  1.00  0.00     0.138 C 
BRANCH  20  22
HETATM   22  C   UNL     1     -11.320   2.057 -33.148  1.00  0.00     0.058 A 
HETATM   23  C   UNL     1     -12.438   2.904 -33.075  1.00  0.00     0.031 A 
HETATM   24  C   UNL     1     -13.718   2.407 -33.335  1.00  0.00     0.002 A 
HETATM   25  C   UNL     1     -13.891   1.066 -33.668  1.00  0.00     0.000 A 
HETATM   26  C   UNL     1     -12.786   0.218 -33.738  1.00  0.00     0.002 A 
HETATM   27  C   UNL     1     -11.502   0.708 -33.480  1.00  0.00     0.031 A 
ENDBRANCH  20  22
ENDBRANCH   6  16
TORSDOF 2
ENDMDL
MODEL 4
REMARK VINA RESULT:      -8.3      4.816      7.819
REMARK  2 active torsions:
REMARK  status: ('A' for Active; 'I' for Inactive)
REMARK       I    between atoms: N_5  and  C_6 
REMARK    1  A    between atoms: C_6  and  C_7 
REMARK    2  A    between atoms: N_11  and  C_12 
ROOT
HETATM    1  C   UNL     1      -0.250   6.630 -31.708  1.00  0.00     0.050 C 
HETATM    2  C   UNL     1      -1.476   5.818 -32.021  1.00  0.00    -0.030 A 
HETATM    3  C   UNL     1      -2.619   5.814 -31.197  1.00  0.00     0.087 A 
HETATM    4  C   UNL     1      -3.737   5.033 -31.554  1.00  0.00     0.160 A 
HETATM    5  N   UNL     1      -4.874   4.986 -30.699  1.00  0.00    -0.287 N 
HETATM    6  C   UNL     1      -6.067   4.268 -30.906  1.00  0.00     0.263 C 
HETATM    7  O   UNL     1      -7.056   4.510 -30.206  1.00  0.00    -0.267 OA
HETATM    8  C   UNL     1      -4.924   5.902 -29.564  1.00  0.00     0.237 C 
HETATM    9  C   UNL     1      -3.688   6.697 -29.201  1.00  0.00     0.240 C 
HETATM   10  O   UNL     1      -3.636   7.435 -28.219  1.00  0.00    -0.271 OA
HETATM   11  N   UNL     1      -2.621   6.599 -30.039  1.00  0.00    -0.322 N 
HETATM   12  N   UNL     1      -3.738   4.332 -32.703  1.00  0.00    -0.241 NA
HETATM   13  C   UNL     1      -2.641   4.345 -33.488  1.00  0.00     0.119 A 
HETATM   14  C   UNL     1      -1.499   5.056 -33.190  1.00  0.00     0.028 A 
HETATM   15  H   UNL     1      -1.823   7.167 -29.788  1.00  0.00     0.169 HD
ENDROOT
BRANCH   6  16
HETATM   16  C   UNL     1      -6.193   3.241 -31.926  1.00  0.00     0.076 C 
HETATM   17  C   UNL     1      -6.718   3.401 -33.235  1.00  0.00     0.068 C 
HETATM   18  C   UNL     1      -7.251   4.638 -33.858  1.00  0.00     0.073 C 
HETATM   19  N   UNL     1      -6.687   2.260 -33.932  1.00  0.00    -0.172 NA
HETATM   20  N   UNL     1      -6.120   1.356 -33.094  1.00  0.00    -0.244 N 
HETATM   21  C   UNL     1      -5.954   1.884 -31.833  1.00  0.00     0.138 C 
BRANCH  20  22
HETATM   22  C   UNL     1      -5.754   0.062 -33.560  1.00  0.00     0.058 A 
HETATM   23  C   UNL     1      -4.555  -0.516 -33.114  1.00  0.00     0.031 A 
HETATM   24  C   UNL     1      -4.197  -1.803 -33.522  1.00  0.00     0.002 A 
HETATM   25  C   UNL     1      -5.031  -2.521 -34.377  1.00  0.00     0.000 A 
HETATM   26  C   UNL     1      -6.221  -1.952 -34.827  1.00  0.00     0.002 A 
HETATM   27  C   UNL     1      -6.586  -0.664 -34.423  1.00  0.00     0.031 A 
ENDBRANCH  20  22
ENDBRANCH   6  16
TORSDOF 2
ENDMDL
MODEL 5
REMARK VINA RESULT:      -8.2      4.003      6.117
REMARK  2 active torsions:
REMARK  status: ('A' for Active; 'I' for Inactive)
REMARK       I    between atoms: N_5  and  C_6 
REMARK    1  A    between atoms: C_6  and  C_7 
REMARK    2  A    between atoms: N_11  and  C_12 
ROOT
HETATM    1  C   UNL     1      -2.340   6.555 -31.313  1.00  0.00     0.050 C 
HETATM    2  C   UNL     1      -3.093   5.304 -31.670  1.00  0.00    -0.030 A 
HETATM    3  C   UNL     1      -4.460   5.307 -32.011  1.00  0.00     0.087 A 
HETATM    4  C   UNL     1      -5.103   4.098 -32.342  1.00  0.00     0.160 A 
HETATM    5  N   UNL     1      -6.496   4.089 -32.636  1.00  0.00    -0.287 N 
HETATM    6  C   UNL     1      -7.286   2.979 -32.989  1.00  0.00     0.263 C 
HETATM    7  O   UNL     1      -8.418   3.155 -33.451  1.00  0.00    -0.267 OA
HETATM    8  C   UNL     1      -7.182   5.370 -32.773  1.00  0.00     0.237 C 
HETATM    9  C   UNL     1      -6.460   6.641 -32.376  1.00  0.00     0.240 C 
HETATM   10  O   UNL     1      -6.998   7.746 -32.399  1.00  0.00    -0.271 OA
HETATM   11  N   UNL     1      -5.152   6.524 -32.022  1.00  0.00    -0.322 N 
HETATM   12  N   UNL     1      -4.407   2.947 -32.385  1.00  0.00    -0.241 NA
HETATM   13  C   UNL     1      -3.097   2.953 -32.062  1.00  0.00     0.119 A 
HETATM   14  C   UNL     1      -2.407   4.089 -31.696  1.00  0.00     0.028 A 
HETATM   15  H   UNL     1      -4.689   7.394 -31.794  1.00  0.00     0.169 HD
ENDROOT
BRANCH   6  16
HETATM   16  C   UNL     1      -6.821   1.610 -32.839  1.00  0.00     0.076 C 
HETATM   17  C   UNL     1      -6.605   0.911 -31.624  1.00  0.00     0.068 C 
HETATM   18  C   UNL     1      -6.803   1.409 -30.239  1.00  0.00     0.073 C 
HETATM   19  N   UNL     1      -6.183  -0.340 -31.831  1.00  0.00    -0.172 NA
HETATM   20  N   UNL     1      -6.144  -0.475 -33.181  1.00  0.00    -0.244 N 
HETATM   21  C   UNL     1      -6.377   0.730 -33.807  1.00  0.00     0.138 C 
BRANCH  20  22
HETATM   22  C   UNL     1      -5.911  -1.746 -33.778  1.00  0.00     0.058 A 
HETATM   23  C   UNL     1      -7.001  -2.486 -34.265  1.00  0.00     0.031 A 
HETATM   24  C   UNL     1      -6.794  -3.715 -34.897  1.00  0.00     0.002 A 
HETATM   25  C   UNL     1      -5.502  -4.213 -35.045  1.00  0.00     0.000 A 
HETATM   26  C   UNL     1      -4.415  -3.486 -34.560  1.00  0.00     0.002 A 
HETATM   27  C   UNL     1      -4.614  -2.255 -33.927  1.00  0.00     0.031 A 
ENDBRANCH  20  22
ENDBRANCH   6  16
TORSDOF 2
ENDMDL
MODEL 6
REMARK VINA RESULT:      -8.1      4.270      6.276
REMARK  2 active torsions:
REMARK  status: ('A' for Active; 'I' for Inactive)
REMARK       I    between atoms: N_5  and  C_6 
REMARK    1  A    between atoms: C_6  and  C_7 
REMARK    2  A    between atoms: N_11  and  C_12 
ROOT
HETATM    1  C   UNL     1      -7.010  -2.022 -34.111  1.00  0.00     0.050 C 
HETATM    2  C   UNL     1      -6.652  -0.667 -33.566  1.00  0.00    -0.030 A 
HETATM    3  C   UNL     1      -7.618   0.319 -33.280  1.00  0.00     0.087 A 
HETATM    4  C   UNL     1      -7.213   1.567 -32.765  1.00  0.00     0.160 A 
HETATM    5  N   UNL     1      -8.179   2.584 -32.522  1.00  0.00    -0.287 N 
HETATM    6  C   UNL     1      -7.949   3.873 -32.008  1.00  0.00     0.263 C 
HETATM    7  O   UNL     1      -8.902   4.559 -31.624  1.00  0.00    -0.267 OA
HETATM    8  C   UNL     1      -9.592   2.236 -32.636  1.00  0.00     0.237 C 
HETATM    9  C   UNL     1      -9.978   0.896 -33.225  1.00  0.00     0.240 C 
HETATM   10  O   UNL     1     -11.147   0.564 -33.415  1.00  0.00    -0.271 OA
HETATM   11  N   UNL     1      -8.968   0.030 -33.506  1.00  0.00    -0.322 N 
HETATM   12  N   UNL     1      -5.916   1.803 -32.496  1.00  0.00    -0.241 NA
HETATM   13  C   UNL     1      -4.998   0.853 -32.769  1.00  0.00     0.119 A 
HETATM   14  C   UNL     1      -5.313  -0.378 -33.304  1.00  0.00     0.028 A 
HETATM   15  H   UNL     1      -9.260  -0.869 -33.867  1.00  0.00     0.169 HD
ENDROOT
BRANCH   6  16
HETATM   16  C   UNL     1      -6.617   4.444 -31.899  1.00  0.00     0.076 C 
HETATM   17  C   UNL     1      -5.868   4.640 -30.710  1.00  0.00     0.068 C 
HETATM   18  C   UNL     1      -6.266   4.311 -29.319  1.00  0.00     0.073 C 
HETATM   19  N   UNL     1      -4.670   5.182 -30.953  1.00  0.00    -0.172 NA
HETATM   20  N   UNL     1      -4.618   5.319 -32.303  1.00  0.00    -0.244 N 
HETATM   21  C   UNL     1      -5.834   5.024 -32.879  1.00  0.00     0.138 C 
BRANCH  20  22
HETATM   22  C   UNL     1      -3.408   5.698 -32.948  1.00  0.00     0.058 A 
HETATM   23  C   UNL     1      -2.798   4.806 -33.846  1.00  0.00     0.031 A 
HETATM   24  C   UNL     1      -1.635   5.173 -34.526  1.00  0.00     0.002 A 
HETATM   25  C   UNL     1      -1.072   6.429 -34.316  1.00  0.00     0.000 A 
HETATM   26  C   UNL     1      -1.668   7.319 -33.423  1.00  0.00     0.002 A 
HETATM   27  C   UNL     1      -2.833   6.959 -32.739  1.00  0.00     0.031 A 
ENDBRANCH  20  22
ENDBRANCH   6  16
TORSDOF 2
ENDMDL
MODEL 7
REMARK VINA RESULT:      -8.0      3.389      7.481
REMARK  2 active torsions:
REMARK  status: ('A' for Active; 'I' for Inactive)
REMARK       I    between atoms: N_5  and  C_6 
REMARK    1  A    between atoms: C_6  and  C_7 
REMARK    2  A    between atoms: N_11  and  C_12 
ROOT
HETATM    1  C   UNL     1      -5.706  -3.458 -34.648  1.00  0.00     0.050 C 
HETATM    2  C   UNL     1      -5.935  -1.981 -34.490  1.00  0.00    -0.030 A 
HETATM    3  C   UNL     1      -5.128  -1.167 -33.670  1.00  0.00     0.087 A 
HETATM    4  C   UNL     1      -5.396   0.213 -33.572  1.00  0.00     0.160 A 
HETATM    5  N   UNL     1      -4.616   1.030 -32.705  1.00  0.00    -0.287 N 
HETATM    6  C   UNL     1      -4.745   2.416 -32.495  1.00  0.00     0.263 C 
HETATM    7  O   UNL     1      -3.850   3.031 -31.905  1.00  0.00    -0.267 OA
HETATM    8  C   UNL     1      -3.433   0.445 -32.083  1.00  0.00     0.237 C 
HETATM    9  C   UNL     1      -3.204  -1.049 -32.189  1.00  0.00     0.240 C 
HETATM   10  O   UNL     1      -2.268  -1.619 -31.633  1.00  0.00    -0.271 OA
HETATM   11  N   UNL     1      -4.065  -1.752 -32.973  1.00  0.00    -0.322 N 
HETATM   12  N   UNL     1      -6.385   0.767 -34.297  1.00  0.00    -0.241 NA
HETATM   13  C   UNL     1      -7.150  -0.018 -35.084  1.00  0.00     0.119 A 
HETATM   14  C   UNL     1      -6.971  -1.379 -35.206  1.00  0.00     0.028 A 
HETATM   15  H   UNL     1      -3.867  -2.741 -33.050  1.00  0.00     0.169 HD
ENDROOT
BRANCH   6  16
HETATM   16  C   UNL     1      -5.897   3.172 -32.955  1.00  0.00     0.076 C 
HETATM   17  C   UNL     1      -5.899   4.238 -33.890  1.00  0.00     0.068 C 
HETATM   18  C   UNL     1      -4.739   4.822 -34.608  1.00  0.00     0.073 C 
HETATM   19  N   UNL     1      -7.129   4.717 -34.105  1.00  0.00    -0.172 NA
HETATM   20  N   UNL     1      -7.940   3.951 -33.332  1.00  0.00    -0.244 N 
HETATM   21  C   UNL     1      -7.207   3.117 -32.518  1.00  0.00     0.138 C 
BRANCH  20  22
HETATM   22  C   UNL     1      -9.355   4.051 -33.442  1.00  0.00     0.058 A 
HETATM   23  C   UNL     1     -10.162   3.574 -32.397  1.00  0.00     0.031 A 
HETATM   24  C   UNL     1     -11.551   3.703 -32.461  1.00  0.00     0.002 A 
HETATM   25  C   UNL     1     -12.145   4.307 -33.567  1.00  0.00     0.000 A 
HETATM   26  C   UNL     1     -11.351   4.780 -34.611  1.00  0.00     0.002 A 
HETATM   27  C   UNL     1      -9.959   4.654 -34.554  1.00  0.00     0.031 A 
ENDBRANCH  20  22
ENDBRANCH   6  16
TORSDOF 2
ENDMDL
MODEL 8
REMARK VINA RESULT:      -8.0      4.706      7.870
REMARK  2 active torsions:
REMARK  status: ('A' for Active; 'I' for Inactive)
REMARK       I    between atoms: N_5  and  C_6 
REMARK    1  A    between atoms: C_6  and  C_7 
REMARK    2  A    between atoms: N_11  and  C_12 
ROOT
HETATM    1  C   UNL     1      -6.394  -3.226 -34.972  1.00  0.00     0.050 C 
HETATM    2  C   UNL     1      -6.151  -1.829 -34.471  1.00  0.00    -0.030 A 
HETATM    3  C   UNL     1      -5.151  -1.520 -33.529  1.00  0.00     0.087 A 
HETATM    4  C   UNL     1      -4.973  -0.187 -33.107  1.00  0.00     0.160 A 
HETATM    5  N   UNL     1      -3.998   0.123 -32.118  1.00  0.00    -0.287 N 
HETATM    6  C   UNL     1      -3.690   1.392 -31.592  1.00  0.00     0.263 C 
HETATM    7  O   UNL     1      -2.662   1.544 -30.923  1.00  0.00    -0.267 OA
HETATM    8  C   UNL     1      -3.075  -0.929 -31.704  1.00  0.00     0.237 C 
HETATM    9  C   UNL     1      -3.324  -2.352 -32.157  1.00  0.00     0.240 C 
HETATM   10  O   UNL     1      -2.629  -3.298 -31.792  1.00  0.00    -0.271 OA
HETATM   11  N   UNL     1      -4.342  -2.551 -33.036  1.00  0.00    -0.322 N 
HETATM   12  N   UNL     1      -5.719   0.799 -33.638  1.00  0.00    -0.241 NA
HETATM   13  C   UNL     1      -6.672   0.495 -34.543  1.00  0.00     0.119 A 
HETATM   14  C   UNL     1      -6.927  -0.787 -34.980  1.00  0.00     0.028 A 
HETATM   15  H   UNL     1      -4.464  -3.506 -33.346  1.00  0.00     0.169 HD
ENDROOT
BRANCH   6  16
HETATM   16  C   UNL     1      -4.534   2.554 -31.811  1.00  0.00     0.076 C 
HETATM   17  C   UNL     1      -4.218   3.705 -32.578  1.00  0.00     0.068 C 
HETATM   18  C   UNL     1      -2.968   3.986 -33.327  1.00  0.00     0.073 C 
HETATM   19  N   UNL     1      -5.218   4.593 -32.587  1.00  0.00    -0.172 NA
HETATM   20  N   UNL     1      -6.201   4.018 -31.848  1.00  0.00    -0.244 N 
HETATM   21  C   UNL     1      -5.757   2.862 -31.247  1.00  0.00     0.138 C 
BRANCH  20  22
HETATM   22  C   UNL     1      -7.499   4.599 -31.788  1.00  0.00     0.058 A 
HETATM   23  C   UNL     1      -8.491   3.986 -31.006  1.00  0.00     0.031 A 
HETATM   24  C   UNL     1      -9.758   4.562 -30.894  1.00  0.00     0.002 A 
HETATM   25  C   UNL     1     -10.045   5.750 -31.562  1.00  0.00     0.000 A 
HETATM   26  C   UNL     1      -9.067   6.362 -32.345  1.00  0.00     0.002 A 
HETATM   27  C   UNL     1      -7.795   5.792 -32.461  1.00  0.00     0.031 A 
ENDBRANCH  20  22
ENDBRANCH   6  16
TORSDOF 2
ENDMDL
MODEL 9
REMARK VINA RESULT:      -8.0      5.534      7.879
REMARK  2 active torsions:
REMARK  status: ('A' for Active; 'I' for Inactive)
REMARK       I    between atoms: N_5  and  C_6 
REMARK    1  A    between atoms: C_6  and  C_7 
REMARK    2  A    between atoms: N_11  and  C_12 
ROOT
HETATM    1  C   UNL     1      -5.858  -1.429 -33.473  1.00  0.00     0.050 C 
HETATM    2  C   UNL     1      -5.273  -0.081 -33.152  1.00  0.00    -0.030 A 
HETATM    3  C   UNL     1      -5.991   1.120 -33.314  1.00  0.00     0.087 A 
HETATM    4  C   UNL     1      -5.384   2.349 -32.988  1.00  0.00     0.160 A 
HETATM    5  N   UNL     1      -6.087   3.569 -33.199  1.00  0.00    -0.287 N 
HETATM    6  C   UNL     1      -5.634   4.873 -32.924  1.00  0.00     0.263 C 
HETATM    7  O   UNL     1      -6.435   5.813 -32.929  1.00  0.00    -0.267 OA
HETATM    8  C   UNL     1      -7.496   3.499 -33.572  1.00  0.00     0.237 C 
HETATM    9  C   UNL     1      -8.096   2.160 -33.945  1.00  0.00     0.240 C 
HETATM   10  O   UNL     1      -9.256   2.036 -34.335  1.00  0.00    -0.271 OA
HETATM   11  N   UNL     1      -7.306   1.064 -33.791  1.00  0.00    -0.322 N 
HETATM   12  N   UNL     1      -4.141   2.378 -32.473  1.00  0.00    -0.241 NA
HETATM   13  C   UNL     1      -3.462   1.223 -32.316  1.00  0.00     0.119 A 
HETATM   14  C   UNL     1      -3.976  -0.014 -32.643  1.00  0.00     0.028 A 
HETATM   15  H   UNL     1      -7.745   0.181 -34.017  1.00  0.00     0.169 HD
ENDROOT
BRANCH   6  16
HETATM   16  C   UNL     1      -4.244   5.169 -32.621  1.00  0.00     0.076 C 
HETATM   17  C   UNL     1      -3.184   5.326 -33.550  1.00  0.00     0.068 C 
HETATM   18  C   UNL     1      -3.248   5.228 -35.030  1.00  0.00     0.073 C 
HETATM   19  N   UNL     1      -2.023   5.603 -32.948  1.00  0.00    -0.172 NA
HETATM   20  N   UNL     1      -2.321   5.653 -31.624  1.00  0.00    -0.244 N 
HETATM   21  C   UNL     1      -3.616   5.246 -31.393  1.00  0.00     0.138 C 
BRANCH  20  22
HETATM   22  C   UNL     1      -1.359   6.108 -30.679  1.00  0.00     0.058 A 
HETATM   23  C   UNL     1      -1.516   7.374 -30.094  1.00  0.00     0.031 A 
HETATM   24  C   UNL     1      -0.611   7.823 -29.130  1.00  0.00     0.002 A 
HETATM   25  C   UNL     1       0.456   7.015 -28.745  1.00  0.00     0.000 A 
HETATM   26  C   UNL     1       0.620   5.757 -29.324  1.00  0.00     0.002 A 
HETATM   27  C   UNL     1      -0.282   5.301 -30.290  1.00  0.00     0.031 A 
ENDBRANCH  20  22
ENDBRANCH   6  16
TORSDOF 2
ENDMDL
MODEL 10
REMARK VINA RESULT:      -7.8      3.116      7.505
REMARK  2 active torsions:
REMARK  status: ('A' for Active; 'I' for Inactive)
REMARK       I    between atoms: N_5  and  C_6 
REMARK    1  A    between atoms: C_6  and  C_7 
REMARK    2  A    between atoms: N_11  and  C_12 
ROOT
HETATM    1  C   UNL     1      -3.848   5.979 -33.058  1.00  0.00     0.050 C 
HETATM    2  C   UNL     1      -5.014   5.030 -33.099  1.00  0.00    -0.030 A 
HETATM    3  C   UNL     1      -4.948   3.718 -32.593  1.00  0.00     0.087 A 
HETATM    4  C   UNL     1      -6.081   2.883 -32.659  1.00  0.00     0.160 A 
HETATM    5  N   UNL     1      -6.004   1.539 -32.195  1.00  0.00    -0.287 N 
HETATM    6  C   UNL     1      -7.035   0.581 -32.183  1.00  0.00     0.263 C 
HETATM    7  O   UNL     1      -6.895  -0.461 -31.532  1.00  0.00    -0.267 OA
HETATM    8  C   UNL     1      -4.799   1.120 -31.486  1.00  0.00     0.237 C 
HETATM    9  C   UNL     1      -3.596   2.039 -31.469  1.00  0.00     0.240 C 
HETATM   10  O   UNL     1      -2.526   1.724 -30.951  1.00  0.00    -0.271 OA
HETATM   11  N   UNL     1      -3.750   3.271 -32.022  1.00  0.00    -0.322 N 
HETATM   12  N   UNL     1      -7.242   3.350 -33.156  1.00  0.00    -0.241 NA
HETATM   13  C   UNL     1      -7.298   4.610 -33.635  1.00  0.00     0.119 A 
HETATM   14  C   UNL     1      -6.224   5.473 -33.635  1.00  0.00     0.028 A 
HETATM   15  H   UNL     1      -2.939   3.873 -31.966  1.00  0.00     0.169 HD
ENDROOT
BRANCH   6  16
HETATM   16  C   UNL     1      -8.282   0.766 -32.905  1.00  0.00     0.076 C 
HETATM   17  C   UNL     1      -8.490   0.609 -34.300  1.00  0.00     0.068 C 
HETATM   18  C   UNL     1      -7.495   0.224 -35.332  1.00  0.00     0.073 C 
HETATM   19  N   UNL     1      -9.759   0.846 -34.649  1.00  0.00    -0.172 NA
HETATM   20  N   UNL     1     -10.393   1.132 -33.483  1.00  0.00    -0.244 N 
HETATM   21  C   UNL     1      -9.495   1.239 -32.444  1.00  0.00     0.138 C 
BRANCH  20  22
HETATM   22  C   UNL     1     -11.810   1.260 -33.439  1.00  0.00     0.058 A 
HETATM   23  C   UNL     1     -12.379   2.516 -33.171  1.00  0.00     0.031 A 
HETATM   24  C   UNL     1     -13.766   2.675 -33.168  1.00  0.00     0.002 A 
HETATM   25  C   UNL     1     -14.594   1.586 -33.429  1.00  0.00     0.000 A 
HETATM   26  C   UNL     1     -14.037   0.335 -33.691  1.00  0.00     0.002 A 
HETATM   27  C   UNL     1     -12.648   0.168 -33.697  1.00  0.00     0.031 A 
ENDBRANCH  20  22
ENDBRANCH   6  16
TORSDOF 2
ENDMDL
