MODEL 1
REMARK VINA RESULT:      -7.3      0.000      0.000
REMARK  11 active torsions:
REMARK  status: ('A' for Active; 'I' for Inactive)
REMARK    1  A    between atoms: C_5  and  C_6 
REMARK    2  A    between atoms: C_6  and  N_7 
REMARK    3  A    between atoms: N_7  and  C_10 
REMARK    4  A    between atoms: C_10  and  C_11 
REMARK    5  A    between atoms: C_13  and  O_14 
REMARK    6  A    between atoms: C_16  and  O_17 
REMARK    7  A    between atoms: O_17  and  C_18 
REMARK    8  A    between atoms: C_18  and  C_19 
REMARK    9  A    between atoms: C_19  and  O_20 
REMARK   10  A    between atoms: C_19  and  C_21 
REMARK   11  A    between atoms: C_21  and  N_22 
ROOT
HETATM    1  C   UNL     1      -5.866   2.234 -33.191  1.00  0.00    -0.030 A 
HETATM    2  C   UNL     1      -5.033   1.430 -32.395  1.00  0.00     0.048 A 
HETATM    3  C   UNL     1      -3.808   1.918 -31.919  1.00  0.00     0.102 A 
HETATM    4  C   UNL     1      -3.399   3.227 -32.249  1.00  0.00     0.102 A 
HETATM    5  C   UNL     1      -4.209   4.016 -33.067  1.00  0.00     0.040 A 
HETATM    6  C   UNL     1      -5.435   3.524 -33.532  1.00  0.00     0.012 A 
ENDROOT
BRANCH   4   7
HETATM    7  O   UNL     1      -2.213   3.630 -31.694  1.00  0.00    -0.346 OA
BRANCH   7   8
HETATM    8  C   UNL     1      -1.593   4.820 -32.162  1.00  0.00     0.209 C 
BRANCH   8   9
HETATM    9  C   UNL     1      -0.794   5.415 -30.994  1.00  0.00     0.168 C 
BRANCH   9  10
HETATM   10  O   UNL     1      -0.313   4.403 -30.096  1.00  0.00    -0.392 OA
HETATM   11  H   UNL     1       0.665   4.405 -30.132  1.00  0.00     0.210 HD
ENDBRANCH   9  10
BRANCH   9  12
HETATM   12  C   UNL     1      -1.644   6.404 -30.169  1.00  0.00     0.268 C 
BRANCH  12  13
HETATM   13  N   UNL     1      -0.974   6.617 -28.810  1.00  0.00    -0.067 N 
HETATM   14  H   UNL     1      -0.690   5.659 -28.531  1.00  0.00     0.280 HD
HETATM   15  C   UNL     1       0.286   7.464 -28.909  1.00  0.00     0.245 C 
HETATM   16  C   UNL     1       1.072   7.467 -27.599  1.00  0.00     0.101 C 
HETATM   17  S   UNL     1       0.111   8.184 -26.236  1.00  0.00    -0.166 SA
HETATM   18  C   UNL     1      -1.363   7.129 -26.367  1.00  0.00     0.101 C 
HETATM   19  C   UNL     1      -1.955   7.141 -27.775  1.00  0.00     0.245 C 
ENDBRANCH  12  13
ENDBRANCH   9  12
ENDBRANCH   8   9
ENDBRANCH   7   8
ENDBRANCH   4   7
BRANCH   3  20
HETATM   20  O   UNL     1      -2.935   1.208 -31.132  1.00  0.00    -0.353 OA
HETATM   21  C   UNL     1      -2.899  -0.206 -31.281  1.00  0.00     0.210 C 
ENDBRANCH   3  20
BRANCH   1  22
HETATM   22  C   UNL     1      -7.196   1.720 -33.673  1.00  0.00     0.271 C 
BRANCH  22  23
HETATM   23  N   UNL     1      -7.335   0.266 -33.457  1.00  0.00    -0.066 N 
HETATM   24  H   UNL     1      -8.199   0.042 -32.945  1.00  0.00     0.277 HD
HETATM   25  H   UNL     1      -6.598  -0.097 -32.832  1.00  0.00     0.277 HD
BRANCH  23  26
HETATM   26  C   UNL     1      -7.278  -0.594 -34.688  1.00  0.00     0.293 C 
BRANCH  26  27
HETATM   27  C   UNL     1      -6.324  -1.736 -34.483  1.00  0.00     0.077 A 
HETATM   28  C   UNL     1      -6.690  -3.043 -34.765  1.00  0.00     0.145 A 
HETATM   29  N   UNL     1      -5.834  -4.073 -34.612  1.00  0.00    -0.262 NA
HETATM   30  C   UNL     1      -4.587  -3.774 -34.173  1.00  0.00     0.048 A 
HETATM   31  C   UNL     1      -3.614  -4.898 -33.994  1.00  0.00     0.072 C 
HETATM   32  C   UNL     1      -4.221  -2.462 -33.895  1.00  0.00     0.143 A 
HETATM   33  N   UNL     1      -5.073  -1.411 -34.045  1.00  0.00    -0.260 NA
ENDBRANCH  26  27
ENDBRANCH  23  26
ENDBRANCH  22  23
ENDBRANCH   1  22
TORSDOF 11
ENDMDL
MODEL 2
REMARK VINA RESULT:      -7.1      5.820      8.701
REMARK  11 active torsions:
REMARK  status: ('A' for Active; 'I' for Inactive)
REMARK    1  A    between atoms: C_5  and  C_6 
REMARK    2  A    between atoms: C_6  and  N_7 
REMARK    3  A    between atoms: N_7  and  C_10 
REMARK    4  A    between atoms: C_10  and  C_11 
REMARK    5  A    between atoms: C_13  and  O_14 
REMARK    6  A    between atoms: C_16  and  O_17 
REMARK    7  A    between atoms: O_17  and  C_18 
REMARK    8  A    between atoms: C_18  and  C_19 
REMARK    9  A    between atoms: C_19  and  O_20 
REMARK   10  A    between atoms: C_19  and  C_21 
REMARK   11  A    between atoms: C_21  and  N_22 
ROOT
HETATM    1  C   UNL     1      -5.865   1.632 -30.774  1.00  0.00    -0.030 A 
HETATM    2  C   UNL     1      -6.879   0.971 -31.488  1.00  0.00     0.048 A 
HETATM    3  C   UNL     1      -8.199   1.443 -31.459  1.00  0.00     0.102 A 
HETATM    4  C   UNL     1      -8.519   2.586 -30.698  1.00  0.00     0.102 A 
HETATM    5  C   UNL     1      -7.520   3.224 -29.961  1.00  0.00     0.040 A 
HETATM    6  C   UNL     1      -6.202   2.752 -30.002  1.00  0.00     0.012 A 
ENDROOT
BRANCH   4   7
HETATM    7  O   UNL     1      -9.822   2.998 -30.775  1.00  0.00    -0.346 OA
BRANCH   7   8
HETATM    8  C   UNL     1     -10.119   4.388 -30.739  1.00  0.00     0.209 C 
BRANCH   8   9
HETATM    9  C   UNL     1     -11.641   4.533 -30.603  1.00  0.00     0.168 C 
BRANCH   9  10
HETATM   10  O   UNL     1     -12.222   3.456 -29.851  1.00  0.00    -0.392 OA
HETATM   11  H   UNL     1     -11.919   2.612 -30.245  1.00  0.00     0.210 HD
ENDBRANCH   9  10
BRANCH   9  12
HETATM   12  C   UNL     1     -12.335   4.566 -31.981  1.00  0.00     0.268 C 
BRANCH  12  13
HETATM   13  N   UNL     1     -12.919   3.181 -32.273  1.00  0.00    -0.067 N 
HETATM   14  H   UNL     1     -12.738   2.656 -31.397  1.00  0.00     0.280 HD
HETATM   15  C   UNL     1     -14.424   3.219 -32.490  1.00  0.00     0.245 C 
HETATM   16  C   UNL     1     -15.025   1.815 -32.538  1.00  0.00     0.101 C 
HETATM   17  S   UNL     1     -14.359   0.842 -33.920  1.00  0.00    -0.166 SA
HETATM   18  C   UNL     1     -12.591   1.022 -33.543  1.00  0.00     0.101 C 
HETATM   19  C   UNL     1     -12.178   2.487 -33.404  1.00  0.00     0.245 C 
ENDBRANCH  12  13
ENDBRANCH   9  12
ENDBRANCH   8   9
ENDBRANCH   7   8
ENDBRANCH   4   7
BRANCH   3  20
HETATM   20  O   UNL     1      -9.250   0.867 -32.129  1.00  0.00    -0.353 OA
HETATM   21  C   UNL     1      -8.955   0.006 -33.222  1.00  0.00     0.210 C 
ENDBRANCH   3  20
BRANCH   1  22
HETATM   22  C   UNL     1      -4.442   1.144 -30.833  1.00  0.00     0.271 C 
BRANCH  22  23
HETATM   23  N   UNL     1      -4.354  -0.233 -31.358  1.00  0.00    -0.066 N 
HETATM   24  H   UNL     1      -5.270  -0.701 -31.347  1.00  0.00     0.277 HD
HETATM   25  H   UNL     1      -3.781  -0.837 -30.746  1.00  0.00     0.277 HD
BRANCH  23  26
HETATM   26  C   UNL     1      -3.764  -0.380 -32.732  1.00  0.00     0.293 C 
BRANCH  26  27
HETATM   27  C   UNL     1      -4.458  -1.479 -33.484  1.00  0.00     0.077 A 
HETATM   28  C   UNL     1      -3.964  -2.775 -33.492  1.00  0.00     0.145 A 
HETATM   29  N   UNL     1      -4.593  -3.775 -34.140  1.00  0.00    -0.262 NA
HETATM   30  C   UNL     1      -5.743  -3.461 -34.784  1.00  0.00     0.048 A 
HETATM   31  C   UNL     1      -6.465  -4.552 -35.513  1.00  0.00     0.072 C 
HETATM   32  C   UNL     1      -6.239  -2.162 -34.771  1.00  0.00     0.143 A 
HETATM   33  N   UNL     1      -5.617  -1.141 -34.122  1.00  0.00    -0.260 NA
ENDBRANCH  26  27
ENDBRANCH  23  26
ENDBRANCH  22  23
ENDBRANCH   1  22
TORSDOF 11
ENDMDL
MODEL 3
REMARK VINA RESULT:      -7.1      1.627      2.136
REMARK  11 active torsions:
REMARK  status: ('A' for Active; 'I' for Inactive)
REMARK    1  A    between atoms: C_5  and  C_6 
REMARK    2  A    between atoms: C_6  and  N_7 
REMARK    3  A    between atoms: N_7  and  C_10 
REMARK    4  A    between atoms: C_10  and  C_11 
REMARK    5  A    between atoms: C_13  and  O_14 
REMARK    6  A    between atoms: C_16  and  O_17 
REMARK    7  A    between atoms: O_17  and  C_18 
REMARK    8  A    between atoms: C_18  and  C_19 
REMARK    9  A    between atoms: C_19  and  O_20 
REMARK   10  A    between atoms: C_19  and  C_21 
REMARK   11  A    between atoms: C_21  and  N_22 
ROOT
HETATM    1  C   UNL     1      -5.781   2.396 -33.212  1.00  0.00    -0.030 A 
HETATM    2  C   UNL     1      -4.946   1.597 -32.413  1.00  0.00     0.048 A 
HETATM    3  C   UNL     1      -3.740   2.103 -31.909  1.00  0.00     0.102 A 
HETATM    4  C   UNL     1      -3.351   3.424 -32.213  1.00  0.00     0.102 A 
HETATM    5  C   UNL     1      -4.162   4.208 -33.035  1.00  0.00     0.040 A 
HETATM    6  C   UNL     1      -5.370   3.698 -33.528  1.00  0.00     0.012 A 
ENDROOT
BRANCH   4   7
HETATM    7  O   UNL     1      -2.184   3.842 -31.633  1.00  0.00    -0.346 OA
BRANCH   7   8
HETATM    8  C   UNL     1      -1.372   4.795 -32.306  1.00  0.00     0.209 C 
BRANCH   8   9
HETATM    9  C   UNL     1      -0.365   5.347 -31.286  1.00  0.00     0.168 C 
BRANCH   9  10
HETATM   10  O   UNL     1      -0.308   4.547 -30.095  1.00  0.00    -0.392 OA
HETATM   11  H   UNL     1      -0.103   5.137 -29.342  1.00  0.00     0.210 HD
ENDBRANCH   9  10
BRANCH   9  12
HETATM   12  C   UNL     1      -0.718   6.788 -30.863  1.00  0.00     0.268 C 
BRANCH  12  13
HETATM   13  N   UNL     1      -2.221   6.868 -30.587  1.00  0.00    -0.067 N 
HETATM   14  H   UNL     1      -2.561   5.921 -30.840  1.00  0.00     0.280 HD
HETATM   15  C   UNL     1      -2.531   7.096 -29.116  1.00  0.00     0.245 C 
HETATM   16  C   UNL     1      -4.021   6.932 -28.818  1.00  0.00     0.101 C 
HETATM   17  S   UNL     1      -5.028   8.145 -29.720  1.00  0.00    -0.166 SA
HETATM   18  C   UNL     1      -4.429   7.790 -31.398  1.00  0.00     0.101 C 
HETATM   19  C   UNL     1      -2.906   7.875 -31.496  1.00  0.00     0.245 C 
ENDBRANCH  12  13
ENDBRANCH   9  12
ENDBRANCH   8   9
ENDBRANCH   7   8
ENDBRANCH   4   7
BRANCH   3  20
HETATM   20  O   UNL     1      -2.867   1.399 -31.116  1.00  0.00    -0.353 OA
HETATM   21  C   UNL     1      -2.947  -0.021 -31.131  1.00  0.00     0.210 C 
ENDBRANCH   3  20
BRANCH   1  22
HETATM   22  C   UNL     1      -7.092   1.862 -33.726  1.00  0.00     0.271 C 
BRANCH  22  23
HETATM   23  N   UNL     1      -7.190   0.398 -33.568  1.00  0.00    -0.066 N 
HETATM   24  H   UNL     1      -8.083   0.123 -33.138  1.00  0.00     0.277 HD
HETATM   25  H   UNL     1      -6.492   0.041 -32.896  1.00  0.00     0.277 HD
BRANCH  23  26
HETATM   26  C   UNL     1      -6.996  -0.415 -34.817  1.00  0.00     0.293 C 
BRANCH  26  27
HETATM   27  C   UNL     1      -6.107  -1.594 -34.540  1.00  0.00     0.077 A 
HETATM   28  C   UNL     1      -6.496  -2.885 -34.862  1.00  0.00     0.145 A 
HETATM   29  N   UNL     1      -5.696  -3.948 -34.645  1.00  0.00    -0.262 NA
HETATM   30  C   UNL     1      -4.481  -3.698 -34.099  1.00  0.00     0.048 A 
HETATM   31  C   UNL     1      -3.570  -4.859 -33.846  1.00  0.00     0.072 C 
HETATM   32  C   UNL     1      -4.091  -2.402 -33.781  1.00  0.00     0.143 A 
HETATM   33  N   UNL     1      -4.887  -1.319 -33.994  1.00  0.00    -0.260 NA
ENDBRANCH  26  27
ENDBRANCH  23  26
ENDBRANCH  22  23
ENDBRANCH   1  22
TORSDOF 11
ENDMDL
MODEL 4
REMARK VINA RESULT:      -7.1      3.565      9.210
REMARK  11 active torsions:
REMARK  status: ('A' for Active; 'I' for Inactive)
REMARK    1  A    between atoms: C_5  and  C_6 
REMARK    2  A    between atoms: C_6  and  N_7 
REMARK    3  A    between atoms: N_7  and  C_10 
REMARK    4  A    between atoms: C_10  and  C_11 
REMARK    5  A    between atoms: C_13  and  O_14 
REMARK    6  A    between atoms: C_16  and  O_17 
REMARK    7  A    between atoms: O_17  and  C_18 
REMARK    8  A    between atoms: C_18  and  C_19 
REMARK    9  A    between atoms: C_19  and  O_20 
REMARK   10  A    between atoms: C_19  and  C_21 
REMARK   11  A    between atoms: C_21  and  N_22 
ROOT
HETATM    1  C   UNL     1      -2.635   5.377 -33.877  1.00  0.00    -0.030 A 
HETATM    2  C   UNL     1      -3.963   5.393 -34.338  1.00  0.00     0.048 A 
HETATM    3  C   UNL     1      -4.899   4.467 -33.856  1.00  0.00     0.102 A 
HETATM    4  C   UNL     1      -4.506   3.502 -32.906  1.00  0.00     0.102 A 
HETATM    5  C   UNL     1      -3.181   3.463 -32.472  1.00  0.00     0.040 A 
HETATM    6  C   UNL     1      -2.253   4.395 -32.952  1.00  0.00     0.012 A 
ENDROOT
BRANCH   4   7
HETATM    7  O   UNL     1      -5.504   2.677 -32.459  1.00  0.00    -0.346 OA
BRANCH   7   8
HETATM    8  C   UNL     1      -5.842   2.675 -31.078  1.00  0.00     0.209 C 
BRANCH   8   9
HETATM    9  C   UNL     1      -6.096   1.217 -30.667  1.00  0.00     0.168 C 
BRANCH   9  10
HETATM   10  O   UNL     1      -6.324   1.087 -29.255  1.00  0.00    -0.392 OA
HETATM   11  H   UNL     1      -6.098   1.940 -28.830  1.00  0.00     0.210 HD
ENDBRANCH   9  10
BRANCH   9  12
HETATM   12  C   UNL     1      -4.906   0.307 -31.033  1.00  0.00     0.268 C 
BRANCH  12  13
HETATM   13  N   UNL     1      -5.177  -0.337 -32.395  1.00  0.00    -0.067 N 
HETATM   14  H   UNL     1      -4.877   0.393 -33.068  1.00  0.00     0.280 HD
HETATM   15  C   UNL     1      -4.321  -1.571 -32.636  1.00  0.00     0.245 C 
HETATM   16  C   UNL     1      -4.423  -2.059 -34.080  1.00  0.00     0.101 C 
HETATM   17  S   UNL     1      -6.117  -2.551 -34.509  1.00  0.00    -0.166 SA
HETATM   18  C   UNL     1      -6.966  -1.013 -34.045  1.00  0.00     0.101 C 
HETATM   19  C   UNL     1      -6.659  -0.598 -32.607  1.00  0.00     0.245 C 
ENDBRANCH  12  13
ENDBRANCH   9  12
ENDBRANCH   8   9
ENDBRANCH   7   8
ENDBRANCH   4   7
BRANCH   3  20
HETATM   20  O   UNL     1      -6.215   4.413 -34.243  1.00  0.00    -0.353 OA
HETATM   21  C   UNL     1      -7.136   5.292 -33.609  1.00  0.00     0.210 C 
ENDBRANCH   3  20
BRANCH   1  22
HETATM   22  C   UNL     1      -1.639   6.392 -34.370  1.00  0.00     0.271 C 
BRANCH  22  23
HETATM   23  N   UNL     1      -0.822   6.941 -33.270  1.00  0.00    -0.066 N 
HETATM   24  H   UNL     1       0.005   7.437 -33.626  1.00  0.00     0.277 HD
HETATM   25  H   UNL     1      -0.410   6.191 -32.692  1.00  0.00     0.277 HD
BRANCH  23  26
HETATM   26  C   UNL     1      -1.537   7.844 -32.304  1.00  0.00     0.293 C 
BRANCH  26  27
HETATM   27  C   UNL     1      -1.205   7.464 -30.890  1.00  0.00     0.077 A 
HETATM   28  C   UNL     1      -2.154   7.528 -29.881  1.00  0.00     0.145 A 
HETATM   29  N   UNL     1      -1.877   7.163 -28.614  1.00  0.00    -0.262 NA
HETATM   30  C   UNL     1      -0.620   6.720 -28.365  1.00  0.00     0.048 A 
HETATM   31  C   UNL     1      -0.282   6.306 -26.966  1.00  0.00     0.072 C 
HETATM   32  C   UNL     1       0.329   6.652 -29.379  1.00  0.00     0.143 A 
HETATM   33  N   UNL     1       0.065   7.017 -30.663  1.00  0.00    -0.260 NA
ENDBRANCH  26  27
ENDBRANCH  23  26
ENDBRANCH  22  23
ENDBRANCH   1  22
TORSDOF 11
ENDMDL
MODEL 5
REMARK VINA RESULT:      -7.0      3.632      9.008
REMARK  11 active torsions:
REMARK  status: ('A' for Active; 'I' for Inactive)
REMARK    1  A    between atoms: C_5  and  C_6 
REMARK    2  A    between atoms: C_6  and  N_7 
REMARK    3  A    between atoms: N_7  and  C_10 
REMARK    4  A    between atoms: C_10  and  C_11 
REMARK    5  A    between atoms: C_13  and  O_14 
REMARK    6  A    between atoms: C_16  and  O_17 
REMARK    7  A    between atoms: O_17  and  C_18 
REMARK    8  A    between atoms: C_18  and  C_19 
REMARK    9  A    between atoms: C_19  and  O_20 
REMARK   10  A    between atoms: C_19  and  C_21 
REMARK   11  A    between atoms: C_21  and  N_22 
ROOT
HETATM    1  C   UNL     1      -3.462   4.782 -34.085  1.00  0.00    -0.030 A 
HETATM    2  C   UNL     1      -3.157   4.027 -32.940  1.00  0.00     0.048 A 
HETATM    3  C   UNL     1      -4.172   3.397 -32.207  1.00  0.00     0.102 A 
HETATM    4  C   UNL     1      -5.516   3.528 -32.614  1.00  0.00     0.102 A 
HETATM    5  C   UNL     1      -5.825   4.305 -33.731  1.00  0.00     0.040 A 
HETATM    6  C   UNL     1      -4.804   4.925 -34.463  1.00  0.00     0.012 A 
ENDROOT
BRANCH   4   7
HETATM    7  O   UNL     1      -6.428   2.834 -31.864  1.00  0.00    -0.346 OA
BRANCH   7   8
HETATM    8  C   UNL     1      -7.811   3.136 -31.991  1.00  0.00     0.209 C 
BRANCH   8   9
HETATM    9  C   UNL     1      -8.595   1.848 -31.700  1.00  0.00     0.168 C 
BRANCH   9  10
HETATM   10  O   UNL     1      -9.557   2.027 -30.649  1.00  0.00    -0.392 OA
HETATM   11  H   UNL     1      -9.137   1.767 -29.804  1.00  0.00     0.210 HD
ENDBRANCH   9  10
BRANCH   9  12
HETATM   12  C   UNL     1      -7.658   0.695 -31.283  1.00  0.00     0.268 C 
BRANCH  12  13
HETATM   13  N   UNL     1      -6.968   0.142 -32.533  1.00  0.00    -0.067 N 
HETATM   14  H   UNL     1      -6.492   0.974 -32.929  1.00  0.00     0.280 HD
HETATM   15  C   UNL     1      -5.902  -0.890 -32.200  1.00  0.00     0.245 C 
HETATM   16  C   UNL     1      -5.060  -1.251 -33.423  1.00  0.00     0.101 C 
HETATM   17  S   UNL     1      -6.066  -1.998 -34.738  1.00  0.00    -0.166 SA
HETATM   18  C   UNL     1      -7.315  -0.688 -34.893  1.00  0.00     0.101 C 
HETATM   19  C   UNL     1      -7.975  -0.360 -33.554  1.00  0.00     0.245 C 
ENDBRANCH  12  13
ENDBRANCH   9  12
ENDBRANCH   8   9
ENDBRANCH   7   8
ENDBRANCH   4   7
BRANCH   3  20
HETATM   20  O   UNL     1      -3.968   2.636 -31.082  1.00  0.00    -0.353 OA
HETATM   21  C   UNL     1      -3.293   1.393 -31.230  1.00  0.00     0.210 C 
ENDBRANCH   3  20
BRANCH   1  22
HETATM   22  C   UNL     1      -2.368   5.431 -34.891  1.00  0.00     0.271 C 
BRANCH  22  23
HETATM   23  N   UNL     1      -1.148   5.647 -34.088  1.00  0.00    -0.066 N 
HETATM   24  H   UNL     1      -0.298   5.534 -34.655  1.00  0.00     0.277 HD
HETATM   25  H   UNL     1      -1.038   4.922 -33.361  1.00  0.00     0.277 HD
BRANCH  23  26
HETATM   26  C   UNL     1      -1.060   6.959 -33.361  1.00  0.00     0.293 C 
BRANCH  26  27
HETATM   27  C   UNL     1      -0.710   6.735 -31.918  1.00  0.00     0.077 A 
HETATM   28  C   UNL     1      -1.039   7.661 -30.940  1.00  0.00     0.145 A 
HETATM   29  N   UNL     1      -0.756   7.459 -29.638  1.00  0.00    -0.262 NA
HETATM   30  C   UNL     1      -0.134   6.297 -29.320  1.00  0.00     0.048 A 
HETATM   31  C   UNL     1       0.194   6.043 -27.882  1.00  0.00     0.072 C 
HETATM   32  C   UNL     1       0.192   5.368 -30.302  1.00  0.00     0.143 A 
HETATM   33  N   UNL     1      -0.087   5.557 -31.620  1.00  0.00    -0.260 NA
ENDBRANCH  26  27
ENDBRANCH  23  26
ENDBRANCH  22  23
ENDBRANCH   1  22
TORSDOF 11
ENDMDL
MODEL 6
REMARK VINA RESULT:      -7.0      1.626      2.090
REMARK  11 active torsions:
REMARK  status: ('A' for Active; 'I' for Inactive)
REMARK    1  A    between atoms: C_5  and  C_6 
REMARK    2  A    between atoms: C_6  and  N_7 
REMARK    3  A    between atoms: N_7  and  C_10 
REMARK    4  A    between atoms: C_10  and  C_11 
REMARK    5  A    between atoms: C_13  and  O_14 
REMARK    6  A    between atoms: C_16  and  O_17 
REMARK    7  A    between atoms: O_17  and  C_18 
REMARK    8  A    between atoms: C_18  and  C_19 
REMARK    9  A    between atoms: C_19  and  O_20 
REMARK   10  A    between atoms: C_19  and  C_21 
REMARK   11  A    between atoms: C_21  and  N_22 
ROOT
HETATM    1  C   UNL     1      -6.702   2.520 -33.549  1.00  0.00    -0.030 A 
HETATM    2  C   UNL     1      -5.722   2.198 -32.594  1.00  0.00     0.048 A 
HETATM    3  C   UNL     1      -4.665   3.079 -32.328  1.00  0.00     0.102 A 
HETATM    4  C   UNL     1      -4.573   4.298 -33.031  1.00  0.00     0.102 A 
HETATM    5  C   UNL     1      -5.526   4.605 -34.003  1.00  0.00     0.040 A 
HETATM    6  C   UNL     1      -6.584   3.723 -34.259  1.00  0.00     0.012 A 
ENDROOT
BRANCH   4   7
HETATM    7  O   UNL     1      -3.536   5.112 -32.663  1.00  0.00    -0.346 OA
BRANCH   7   8
HETATM    8  C   UNL     1      -3.527   6.468 -33.089  1.00  0.00     0.209 C 
BRANCH   8   9
HETATM    9  C   UNL     1      -2.074   6.961 -33.037  1.00  0.00     0.168 C 
BRANCH   9  10
HETATM   10  O   UNL     1      -1.672   7.587 -34.266  1.00  0.00    -0.392 OA
HETATM   11  H   UNL     1      -1.307   8.470 -34.051  1.00  0.00     0.210 HD
ENDBRANCH   9  10
BRANCH   9  12
HETATM   12  C   UNL     1      -1.091   5.804 -32.760  1.00  0.00     0.268 C 
BRANCH  12  13
HETATM   13  N   UNL     1      -0.821   5.736 -31.255  1.00  0.00    -0.067 N 
HETATM   14  H   UNL     1      -1.513   5.040 -30.920  1.00  0.00     0.280 HD
HETATM   15  C   UNL     1       0.567   5.202 -30.937  1.00  0.00     0.245 C 
HETATM   16  C   UNL     1       0.736   4.912 -29.446  1.00  0.00     0.101 C 
HETATM   17  S   UNL     1       0.550   6.412 -28.440  1.00  0.00    -0.166 SA
HETATM   18  C   UNL     1      -1.079   6.939 -29.049  1.00  0.00     0.101 C 
HETATM   19  C   UNL     1      -1.113   7.061 -30.572  1.00  0.00     0.245 C 
ENDBRANCH  12  13
ENDBRANCH   9  12
ENDBRANCH   8   9
ENDBRANCH   7   8
ENDBRANCH   4   7
BRANCH   3  20
HETATM   20  O   UNL     1      -3.670   2.851 -31.410  1.00  0.00    -0.353 OA
HETATM   21  C   UNL     1      -3.232   1.511 -31.216  1.00  0.00     0.210 C 
ENDBRANCH   3  20
BRANCH   1  22
HETATM   22  C   UNL     1      -7.855   1.588 -33.811  1.00  0.00     0.271 C 
BRANCH  22  23
HETATM   23  N   UNL     1      -7.506   0.185 -33.515  1.00  0.00    -0.066 N 
HETATM   24  H   UNL     1      -8.149  -0.226 -32.825  1.00  0.00     0.277 HD
HETATM   25  H   UNL     1      -6.589   0.112 -33.045  1.00  0.00     0.277 HD
BRANCH  23  26
HETATM   26  C   UNL     1      -7.426  -0.739 -34.696  1.00  0.00     0.293 C 
BRANCH  26  27
HETATM   27  C   UNL     1      -6.389  -1.800 -34.461  1.00  0.00     0.077 A 
HETATM   28  C   UNL     1      -6.607  -3.120 -34.827  1.00  0.00     0.145 A 
HETATM   29  N   UNL     1      -5.674  -4.075 -34.647  1.00  0.00    -0.262 NA
HETATM   30  C   UNL     1      -4.499  -3.687 -34.093  1.00  0.00     0.048 A 
HETATM   31  C   UNL     1      -3.443  -4.727 -33.880  1.00  0.00     0.072 C 
HETATM   32  C   UNL     1      -4.281  -2.363 -33.730  1.00  0.00     0.143 A 
HETATM   33  N   UNL     1      -5.212  -1.387 -33.906  1.00  0.00    -0.260 NA
ENDBRANCH  26  27
ENDBRANCH  23  26
ENDBRANCH  22  23
ENDBRANCH   1  22
TORSDOF 11
ENDMDL
MODEL 7
REMARK VINA RESULT:      -7.0      1.464      2.240
REMARK  11 active torsions:
REMARK  status: ('A' for Active; 'I' for Inactive)
REMARK    1  A    between atoms: C_5  and  C_6 
REMARK    2  A    between atoms: C_6  and  N_7 
REMARK    3  A    between atoms: N_7  and  C_10 
REMARK    4  A    between atoms: C_10  and  C_11 
REMARK    5  A    between atoms: C_13  and  O_14 
REMARK    6  A    between atoms: C_16  and  O_17 
REMARK    7  A    between atoms: O_17  and  C_18 
REMARK    8  A    between atoms: C_18  and  C_19 
REMARK    9  A    between atoms: C_19  and  O_20 
REMARK   10  A    between atoms: C_19  and  C_21 
REMARK   11  A    between atoms: C_21  and  N_22 
ROOT
HETATM    1  C   UNL     1      -5.406   3.843 -33.212  1.00  0.00    -0.030 A 
HETATM    2  C   UNL     1      -4.828   2.808 -32.458  1.00  0.00     0.048 A 
HETATM    3  C   UNL     1      -3.531   2.937 -31.941  1.00  0.00     0.102 A 
HETATM    4  C   UNL     1      -2.792   4.113 -32.186  1.00  0.00     0.102 A 
HETATM    5  C   UNL     1      -3.351   5.128 -32.963  1.00  0.00     0.040 A 
HETATM    6  C   UNL     1      -4.650   4.995 -33.470  1.00  0.00     0.012 A 
ENDROOT
BRANCH   4   7
HETATM    7  O   UNL     1      -1.558   4.164 -31.595  1.00  0.00    -0.346 OA
BRANCH   7   8
HETATM    8  C   UNL     1      -0.757   5.329 -31.752  1.00  0.00     0.209 C 
BRANCH   8   9
HETATM    9  C   UNL     1       0.333   5.290 -30.672  1.00  0.00     0.168 C 
BRANCH   9  10
HETATM   10  O   UNL     1       0.156   4.191 -29.764  1.00  0.00    -0.392 OA
HETATM   11  H   UNL     1       0.032   4.556 -28.864  1.00  0.00     0.210 HD
ENDBRANCH   9  10
BRANCH   9  12
HETATM   12  C   UNL     1       0.351   6.586 -29.835  1.00  0.00     0.268 C 
BRANCH  12  13
HETATM   13  N   UNL     1      -0.626   6.433 -28.666  1.00  0.00    -0.067 N 
HETATM   14  H   UNL     1      -1.048   5.500 -28.829  1.00  0.00     0.280 HD
HETATM   15  C   UNL     1       0.081   6.396 -27.320  1.00  0.00     0.245 C 
HETATM   16  C   UNL     1      -0.871   6.003 -26.191  1.00  0.00     0.101 C 
HETATM   17  S   UNL     1      -2.222   7.201 -25.998  1.00  0.00    -0.166 SA
HETATM   18  C   UNL     1      -2.839   7.181 -27.707  1.00  0.00     0.101 C 
HETATM   19  C   UNL     1      -1.734   7.471 -28.721  1.00  0.00     0.245 C 
ENDBRANCH  12  13
ENDBRANCH   9  12
ENDBRANCH   8   9
ENDBRANCH   7   8
ENDBRANCH   4   7
BRANCH   3  20
HETATM   20  O   UNL     1      -2.891   1.983 -31.189  1.00  0.00    -0.353 OA
HETATM   21  C   UNL     1      -3.336   0.637 -31.297  1.00  0.00     0.210 C 
ENDBRANCH   3  20
BRANCH   1  22
HETATM   22  C   UNL     1      -6.811   3.717 -33.739  1.00  0.00     0.271 C 
BRANCH  22  23
HETATM   23  N   UNL     1      -7.712   3.084 -32.756  1.00  0.00    -0.066 N 
HETATM   24  H   UNL     1      -8.300   3.781 -32.280  1.00  0.00     0.277 HD
HETATM   25  H   UNL     1      -7.186   2.657 -31.978  1.00  0.00     0.277 HD
BRANCH  23  26
HETATM   26  C   UNL     1      -8.603   1.995 -33.283  1.00  0.00     0.293 C 
BRANCH  26  27
HETATM   27  C   UNL     1      -7.796   0.772 -33.612  1.00  0.00     0.077 A 
HETATM   28  C   UNL     1      -7.116   0.068 -32.629  1.00  0.00     0.145 A 
HETATM   29  N   UNL     1      -6.411  -1.046 -32.906  1.00  0.00    -0.262 NA
HETATM   30  C   UNL     1      -6.398  -1.458 -34.198  1.00  0.00     0.048 A 
HETATM   31  C   UNL     1      -5.624  -2.693 -34.536  1.00  0.00     0.072 C 
HETATM   32  C   UNL     1      -7.084  -0.752 -35.181  1.00  0.00     0.143 A 
HETATM   33  N   UNL     1      -7.800   0.374 -34.917  1.00  0.00    -0.260 NA
ENDBRANCH  26  27
ENDBRANCH  23  26
ENDBRANCH  22  23
ENDBRANCH   1  22
TORSDOF 11
ENDMDL
MODEL 8
REMARK VINA RESULT:      -6.9      5.665      8.439
REMARK  11 active torsions:
REMARK  status: ('A' for Active; 'I' for Inactive)
REMARK    1  A    between atoms: C_5  and  C_6 
REMARK    2  A    between atoms: C_6  and  N_7 
REMARK    3  A    between atoms: N_7  and  C_10 
REMARK    4  A    between atoms: C_10  and  C_11 
REMARK    5  A    between atoms: C_13  and  O_14 
REMARK    6  A    between atoms: C_16  and  O_17 
REMARK    7  A    between atoms: O_17  and  C_18 
REMARK    8  A    between atoms: C_18  and  C_19 
REMARK    9  A    between atoms: C_19  and  O_20 
REMARK   10  A    between atoms: C_19  and  C_21 
REMARK   11  A    between atoms: C_21  and  N_22 
ROOT
HETATM    1  C   UNL     1      -5.479   2.200 -32.636  1.00  0.00    -0.030 A 
HETATM    2  C   UNL     1      -6.682   1.594 -32.234  1.00  0.00     0.048 A 
HETATM    3  C   UNL     1      -7.917   2.107 -32.653  1.00  0.00     0.102 A 
HETATM    4  C   UNL     1      -7.959   3.249 -33.479  1.00  0.00     0.102 A 
HETATM    5  C   UNL     1      -6.768   3.873 -33.852  1.00  0.00     0.040 A 
HETATM    6  C   UNL     1      -5.537   3.350 -33.436  1.00  0.00     0.012 A 
ENDROOT
BRANCH   4   7
HETATM    7  O   UNL     1      -9.209   3.642 -33.876  1.00  0.00    -0.346 OA
BRANCH   7   8
HETATM    8  C   UNL     1      -9.520   5.028 -33.935  1.00  0.00     0.209 C 
BRANCH   8   9
HETATM    9  C   UNL     1     -10.144   5.304 -35.310  1.00  0.00     0.168 C 
BRANCH   9  10
HETATM   10  O   UNL     1      -9.760   6.586 -35.831  1.00  0.00    -0.392 OA
HETATM   11  H   UNL     1     -10.482   6.909 -36.408  1.00  0.00     0.210 HD
ENDBRANCH   9  10
BRANCH   9  12
HETATM   12  C   UNL     1     -11.685   5.267 -35.253  1.00  0.00     0.268 C 
BRANCH  12  13
HETATM   13  N   UNL     1     -12.124   3.946 -34.616  1.00  0.00    -0.067 N 
HETATM   14  H   UNL     1     -11.277   3.635 -34.105  1.00  0.00     0.280 HD
HETATM   15  C   UNL     1     -13.239   4.133 -33.598  1.00  0.00     0.245 C 
HETATM   16  C   UNL     1     -13.499   2.856 -32.800  1.00  0.00     0.101 C 
HETATM   17  S   UNL     1     -14.040   1.491 -33.868  1.00  0.00    -0.166 SA
HETATM   18  C   UNL     1     -12.661   1.516 -35.050  1.00  0.00     0.101 C 
HETATM   19  C   UNL     1     -12.456   2.900 -35.667  1.00  0.00     0.245 C 
ENDBRANCH  12  13
ENDBRANCH   9  12
ENDBRANCH   8   9
ENDBRANCH   7   8
ENDBRANCH   4   7
BRANCH   3  20
HETATM   20  O   UNL     1      -9.138   1.577 -32.316  1.00  0.00    -0.353 OA
HETATM   21  C   UNL     1      -9.562   0.395 -32.984  1.00  0.00     0.210 C 
ENDBRANCH   3  20
BRANCH   1  22
HETATM   22  C   UNL     1      -4.152   1.630 -32.212  1.00  0.00     0.271 C 
BRANCH  22  23
HETATM   23  N   UNL     1      -4.241   0.184 -31.926  1.00  0.00    -0.066 N 
HETATM   24  H   UNL     1      -5.211  -0.154 -31.986  1.00  0.00     0.277 HD
HETATM   25  H   UNL     1      -3.986  -0.025 -30.947  1.00  0.00     0.277 HD
BRANCH  23  26
HETATM   26  C   UNL     1      -3.375  -0.711 -32.766  1.00  0.00     0.293 C 
BRANCH  26  27
HETATM   27  C   UNL     1      -4.217  -1.721 -33.493  1.00  0.00     0.077 A 
HETATM   28  C   UNL     1      -3.845  -3.055 -33.564  1.00  0.00     0.145 A 
HETATM   29  N   UNL     1      -4.606  -3.976 -34.188  1.00  0.00    -0.262 NA
HETATM   30  C   UNL     1      -5.764  -3.540 -34.744  1.00  0.00     0.048 A 
HETATM   31  C   UNL     1      -6.630  -4.541 -35.444  1.00  0.00     0.072 C 
HETATM   32  C   UNL     1      -6.136  -2.203 -34.667  1.00  0.00     0.143 A 
HETATM   33  N   UNL     1      -5.380  -1.261 -34.040  1.00  0.00    -0.260 NA
ENDBRANCH  26  27
ENDBRANCH  23  26
ENDBRANCH  22  23
ENDBRANCH   1  22
TORSDOF 11
ENDMDL
MODEL 9
REMARK VINA RESULT:      -6.9      5.674     12.427
REMARK  11 active torsions:
REMARK  status: ('A' for Active; 'I' for Inactive)
REMARK    1  A    between atoms: C_5  and  C_6 
REMARK    2  A    between atoms: C_6  and  N_7 
REMARK    3  A    between atoms: N_7  and  C_10 
REMARK    4  A    between atoms: C_10  and  C_11 
REMARK    5  A    between atoms: C_13  and  O_14 
REMARK    6  A    between atoms: C_16  and  O_17 
REMARK    7  A    between atoms: O_17  and  C_18 
REMARK    8  A    between atoms: C_18  and  C_19 
REMARK    9  A    between atoms: C_19  and  O_20 
REMARK   10  A    between atoms: C_19  and  C_21 
REMARK   11  A    between atoms: C_21  and  N_22 
ROOT
HETATM    1  C   UNL     1       0.958   9.502 -26.174  1.00  0.00    -0.030 A 
HETATM    2  C   UNL     1      -0.067   8.637 -25.754  1.00  0.00     0.048 A 
HETATM    3  C   UNL     1      -0.428   7.525 -26.528  1.00  0.00     0.102 A 
HETATM    4  C   UNL     1       0.236   7.273 -27.746  1.00  0.00     0.102 A 
HETATM    5  C   UNL     1       1.231   8.149 -28.182  1.00  0.00     0.040 A 
HETATM    6  C   UNL     1       1.591   9.254 -27.400  1.00  0.00     0.012 A 
ENDROOT
BRANCH   4   7
HETATM    7  O   UNL     1      -0.151   6.135 -28.403  1.00  0.00    -0.346 OA
BRANCH   7   8
HETATM    8  C   UNL     1       0.835   5.201 -28.822  1.00  0.00     0.209 C 
BRANCH   8   9
HETATM    9  C   UNL     1       0.577   4.890 -30.304  1.00  0.00     0.168 C 
BRANCH   9  10
HETATM   10  O   UNL     1       1.676   4.190 -30.908  1.00  0.00    -0.392 OA
HETATM   11  H   UNL     1       1.370   3.290 -31.143  1.00  0.00     0.210 HD
ENDBRANCH   9  10
BRANCH   9  12
HETATM   12  C   UNL     1       0.337   6.176 -31.121  1.00  0.00     0.268 C 
BRANCH  12  13
HETATM   13  N   UNL     1      -0.658   5.869 -32.244  1.00  0.00    -0.067 N 
HETATM   14  H   UNL     1      -0.062   5.448 -32.981  1.00  0.00     0.280 HD
HETATM   15  C   UNL     1      -1.695   4.834 -31.835  1.00  0.00     0.245 C 
HETATM   16  C   UNL     1      -2.524   4.360 -33.028  1.00  0.00     0.101 C 
HETATM   17  S   UNL     1      -3.464   5.720 -33.779  1.00  0.00    -0.166 SA
HETATM   18  C   UNL     1      -2.086   6.865 -34.074  1.00  0.00     0.101 C 
HETATM   19  C   UNL     1      -1.281   7.137 -32.804  1.00  0.00     0.245 C 
ENDBRANCH  12  13
ENDBRANCH   9  12
ENDBRANCH   8   9
ENDBRANCH   7   8
ENDBRANCH   4   7
BRANCH   3  20
HETATM   20  O   UNL     1      -1.409   6.625 -26.194  1.00  0.00    -0.353 OA
HETATM   21  C   UNL     1      -2.757   7.079 -26.179  1.00  0.00     0.210 C 
ENDBRANCH   3  20
BRANCH   1  22
HETATM   22  C   UNL     1       1.366  10.677 -25.327  1.00  0.00     0.271 C 
BRANCH  22  23
HETATM   23  N   UNL     1       2.640  10.431 -24.622  1.00  0.00    -0.066 N 
HETATM   24  H   UNL     1       3.192  11.294 -24.528  1.00  0.00     0.277 HD
HETATM   25  H   UNL     1       3.264   9.817 -25.169  1.00  0.00     0.277 HD
BRANCH  23  26
HETATM   26  C   UNL     1       2.532   9.789 -23.268  1.00  0.00     0.293 C 
BRANCH  26  27
HETATM   27  C   UNL     1       3.786   9.025 -22.951  1.00  0.00     0.077 A 
HETATM   28  C   UNL     1       4.988   9.316 -23.577  1.00  0.00     0.145 A 
HETATM   29  N   UNL     1       6.126   8.657 -23.281  1.00  0.00    -0.262 NA
HETATM   30  C   UNL     1       6.046   7.692 -22.332  1.00  0.00     0.048 A 
HETATM   31  C   UNL     1       7.294   6.943 -21.981  1.00  0.00     0.072 C 
HETATM   32  C   UNL     1       4.840   7.405 -21.703  1.00  0.00     0.143 A 
HETATM   33  N   UNL     1       3.684   8.061 -21.990  1.00  0.00    -0.260 NA
ENDBRANCH  26  27
ENDBRANCH  23  26
ENDBRANCH  22  23
ENDBRANCH   1  22
TORSDOF 11
ENDMDL
MODEL 10
REMARK VINA RESULT:      -6.9      2.433      3.338
REMARK  11 active torsions:
REMARK  status: ('A' for Active; 'I' for Inactive)
REMARK    1  A    between atoms: C_5  and  C_6 
REMARK    2  A    between atoms: C_6  and  N_7 
REMARK    3  A    between atoms: N_7  and  C_10 
REMARK    4  A    between atoms: C_10  and  C_11 
REMARK    5  A    between atoms: C_13  and  O_14 
REMARK    6  A    between atoms: C_16  and  O_17 
REMARK    7  A    between atoms: O_17  and  C_18 
REMARK    8  A    between atoms: C_18  and  C_19 
REMARK    9  A    between atoms: C_19  and  O_20 
REMARK   10  A    between atoms: C_19  and  C_21 
REMARK   11  A    between atoms: C_21  and  N_22 
ROOT
HETATM    1  C   UNL     1      -6.116   3.481 -33.594  1.00  0.00    -0.030 A 
HETATM    2  C   UNL     1      -5.133   4.054 -34.417  1.00  0.00     0.048 A 
HETATM    3  C   UNL     1      -4.492   5.244 -34.045  1.00  0.00     0.102 A 
HETATM    4  C   UNL     1      -4.842   5.881 -32.837  1.00  0.00     0.102 A 
HETATM    5  C   UNL     1      -5.842   5.332 -32.034  1.00  0.00     0.040 A 
HETATM    6  C   UNL     1      -6.473   4.139 -32.408  1.00  0.00     0.012 A 
ENDROOT
BRANCH   4   7
HETATM    7  O   UNL     1      -4.124   7.008 -32.537  1.00  0.00    -0.346 OA
BRANCH   7   8
HETATM    8  C   UNL     1      -4.285   7.620 -31.264  1.00  0.00     0.209 C 
BRANCH   8   9
HETATM    9  C   UNL     1      -3.085   8.553 -31.044  1.00  0.00     0.168 C 
BRANCH   9  10
HETATM   10  O   UNL     1      -3.432   9.934 -31.233  1.00  0.00    -0.392 OA
HETATM   11  H   UNL     1      -4.406  10.013 -31.173  1.00  0.00     0.210 HD
ENDBRANCH   9  10
BRANCH   9  12
HETATM   12  C   UNL     1      -1.927   8.227 -32.010  1.00  0.00     0.268 C 
BRANCH  12  13
HETATM   13  N   UNL     1      -0.820   7.512 -31.231  1.00  0.00    -0.067 N 
HETATM   14  H   UNL     1       0.049   7.935 -31.608  1.00  0.00     0.280 HD
HETATM   15  C   UNL     1      -0.874   7.809 -29.740  1.00  0.00     0.245 C 
HETATM   16  C   UNL     1       0.367   7.292 -29.013  1.00  0.00     0.101 C 
HETATM   17  S   UNL     1       0.523   5.488 -29.144  1.00  0.00    -0.166 SA
HETATM   18  C   UNL     1       0.448   5.345 -30.953  1.00  0.00     0.101 C 
HETATM   19  C   UNL     1      -0.793   6.023 -31.533  1.00  0.00     0.245 C 
ENDBRANCH  12  13
ENDBRANCH   9  12
ENDBRANCH   8   9
ENDBRANCH   7   8
ENDBRANCH   4   7
BRANCH   3  20
HETATM   20  O   UNL     1      -3.517   5.870 -34.782  1.00  0.00    -0.353 OA
HETATM   21  C   UNL     1      -2.255   5.225 -34.908  1.00  0.00     0.210 C 
ENDBRANCH   3  20
BRANCH   1  22
HETATM   22  C   UNL     1      -6.781   2.186 -33.978  1.00  0.00     0.271 C 
BRANCH  22  23
HETATM   23  N   UNL     1      -6.684   1.178 -32.904  1.00  0.00    -0.066 N 
HETATM   24  H   UNL     1      -7.480   0.527 -32.925  1.00  0.00     0.277 HD
HETATM   25  H   UNL     1      -6.764   1.609 -31.969  1.00  0.00     0.277 HD
BRANCH  23  26
HETATM   26  C   UNL     1      -5.415   0.373 -32.866  1.00  0.00     0.293 C 
BRANCH  26  27
HETATM   27  C   UNL     1      -5.622  -0.960 -33.528  1.00  0.00     0.077 A 
HETATM   28  C   UNL     1      -6.893  -1.473 -33.740  1.00  0.00     0.145 A 
HETATM   29  N   UNL     1      -7.093  -2.654 -34.358  1.00  0.00    -0.262 NA
HETATM   30  C   UNL     1      -5.989  -3.324 -34.772  1.00  0.00     0.048 A 
HETATM   31  C   UNL     1      -6.179  -4.639 -35.461  1.00  0.00     0.072 C 
HETATM   32  C   UNL     1      -4.716  -2.805 -34.561  1.00  0.00     0.143 A 
HETATM   33  N   UNL     1      -4.498  -1.614 -33.941  1.00  0.00    -0.260 NA
ENDBRANCH  26  27
ENDBRANCH  23  26
ENDBRANCH  22  23
ENDBRANCH   1  22
TORSDOF 11
ENDMDL
