MODEL 1
REMARK VINA RESULT:      -7.0      0.000      0.000
REMARK  3 active torsions:
REMARK  status: ('A' for Active; 'I' for Inactive)
REMARK    1  A    between atoms: C_8  and  N_9 
REMARK       I    between atoms: N_9  and  C_10 
REMARK       I    between atoms: C_10  and  N_11 
REMARK    2  A    between atoms: N_11  and  C_12 
REMARK    3  A    between atoms: C_13  and  O_14 
ROOT
HETATM    1  N   UNL     1      -9.614   1.909 -33.917  1.00  0.00    -0.305 N 
HETATM    2  C   UNL     1      -8.943   0.748 -33.583  1.00  0.00     0.325 C 
HETATM    3  N   UNL     1      -7.904   0.527 -34.467  1.00  0.00    -0.306 N 
HETATM    4  O   UNL     1      -9.218   0.022 -32.635  1.00  0.00    -0.247 OA
HETATM    5  H   UNL     1      -9.043   2.632 -34.329  1.00  0.00     0.171 HD
HETATM    6  H   UNL     1      -8.030   0.890 -35.404  1.00  0.00     0.171 HD
ENDROOT
BRANCH   1   7
HETATM    7  C   UNL     1     -10.826   2.308 -33.382  1.00  0.00     0.086 A 
HETATM    8  C   UNL     1     -10.928   3.104 -32.257  1.00  0.00     0.052 A 
HETATM    9  C   UNL     1      -9.920   3.684 -31.341  1.00  0.00     0.072 C 
HETATM   10  N   UNL     1     -12.267   3.289 -32.057  1.00  0.00    -0.280 N 
HETATM   11  H   UNL     1     -12.723   3.807 -31.314  1.00  0.00     0.189 HD
HETATM   12  N   UNL     1     -13.040   2.707 -32.979  1.00  0.00    -0.177 NA
HETATM   13  C   UNL     1     -12.172   2.101 -33.802  1.00  0.00     0.079 A 
HETATM   14  C   UNL     1     -12.697   1.400 -35.002  1.00  0.00     0.075 C 
ENDBRANCH   1   7
BRANCH   3  15
HETATM   15  C   UNL     1      -6.885  -0.444 -34.352  1.00  0.00     0.071 A 
HETATM   16  C   UNL     1      -5.677  -0.044 -33.748  1.00  0.00     0.095 A 
HETATM   17  C   UNL     1      -4.650  -0.971 -33.552  1.00  0.00     0.040 A 
HETATM   18  C   UNL     1      -4.812  -2.290 -33.980  1.00  0.00     0.022 A 
HETATM   19  C   UNL     1      -6.003  -2.677 -34.594  1.00  0.00     0.013 A 
HETATM   20 BR   UNL     1      -6.218  -4.471 -35.156  1.00  0.00    -0.051 Br
HETATM   21  C   UNL     1      -7.040  -1.765 -34.780  1.00  0.00     0.051 A 
BRANCH  16  22
HETATM   22  O   UNL     1      -5.596   1.271 -33.350  1.00  0.00    -0.354 OA
HETATM   23  C   UNL     1      -5.461   1.448 -31.942  1.00  0.00     0.210 C 
ENDBRANCH  16  22
ENDBRANCH   3  15
TORSDOF 3
ENDMDL
MODEL 2
REMARK VINA RESULT:      -7.0      1.423      2.153
REMARK  3 active torsions:
REMARK  status: ('A' for Active; 'I' for Inactive)
REMARK    1  A    between atoms: C_8  and  N_9 
REMARK       I    between atoms: N_9  and  C_10 
REMARK       I    between atoms: C_10  and  N_11 
REMARK    2  A    between atoms: N_11  and  C_12 
REMARK    3  A    between atoms: C_13  and  O_14 
ROOT
HETATM    1  N   UNL     1     -10.687   1.021 -33.001  1.00  0.00    -0.305 N 
HETATM    2  C   UNL     1      -9.503   0.777 -33.672  1.00  0.00     0.325 C 
HETATM    3  N   UNL     1      -8.601   0.153 -32.831  1.00  0.00    -0.306 N 
HETATM    4  O   UNL     1      -9.284   1.060 -34.842  1.00  0.00    -0.247 OA
HETATM    5  H   UNL     1     -10.929   0.343 -32.296  1.00  0.00     0.171 HD
HETATM    6  H   UNL     1      -8.692   0.362 -31.843  1.00  0.00     0.171 HD
ENDROOT
BRANCH   1   7
HETATM    7  C   UNL     1     -11.715   1.820 -33.471  1.00  0.00     0.086 A 
HETATM    8  C   UNL     1     -12.957   1.323 -33.818  1.00  0.00     0.052 A 
HETATM    9  C   UNL     1     -13.521  -0.045 -33.846  1.00  0.00     0.072 C 
HETATM   10  N   UNL     1     -13.689   2.407 -34.213  1.00  0.00    -0.280 N 
HETATM   11  H   UNL     1     -14.644   2.427 -34.554  1.00  0.00     0.189 HD
HETATM   12  N   UNL     1     -13.036   3.569 -34.119  1.00  0.00    -0.177 NA
HETATM   13  C   UNL     1     -11.821   3.228 -33.663  1.00  0.00     0.079 A 
HETATM   14  C   UNL     1     -10.840   4.306 -33.372  1.00  0.00     0.075 C 
ENDBRANCH   1   7
BRANCH   3  15
HETATM   15  C   UNL     1      -7.361  -0.420 -33.192  1.00  0.00     0.071 A 
HETATM   16  C   UNL     1      -6.196   0.287 -32.839  1.00  0.00     0.095 A 
HETATM   17  C   UNL     1      -4.937  -0.252 -33.117  1.00  0.00     0.040 A 
HETATM   18  C   UNL     1      -4.836  -1.482 -33.769  1.00  0.00     0.022 A 
HETATM   19  C   UNL     1      -5.992  -2.171 -34.132  1.00  0.00     0.013 A 
HETATM   20 BR   UNL     1      -5.843  -3.845 -35.001  1.00  0.00    -0.051 Br
HETATM   21  C   UNL     1      -7.253  -1.650 -33.846  1.00  0.00     0.051 A 
BRANCH  16  22
HETATM   22  O   UNL     1      -6.379   1.490 -32.197  1.00  0.00    -0.354 OA
HETATM   23  C   UNL     1      -6.038   2.630 -32.983  1.00  0.00     0.210 C 
ENDBRANCH  16  22
ENDBRANCH   3  15
TORSDOF 3
ENDMDL
MODEL 3
REMARK VINA RESULT:      -6.8      5.207      7.425
REMARK  3 active torsions:
REMARK  status: ('A' for Active; 'I' for Inactive)
REMARK    1  A    between atoms: C_8  and  N_9 
REMARK       I    between atoms: N_9  and  C_10 
REMARK       I    between atoms: C_10  and  N_11 
REMARK    2  A    between atoms: N_11  and  C_12 
REMARK    3  A    between atoms: C_13  and  O_14 
ROOT
HETATM    1  N   UNL     1      -2.377   4.658 -31.892  1.00  0.00    -0.305 N 
HETATM    2  C   UNL     1      -3.318   3.747 -32.335  1.00  0.00     0.325 C 
HETATM    3  N   UNL     1      -3.156   2.541 -31.680  1.00  0.00    -0.306 N 
HETATM    4  O   UNL     1      -4.178   3.974 -33.176  1.00  0.00    -0.247 OA
HETATM    5  H   UNL     1      -2.102   4.558 -30.927  1.00  0.00     0.171 HD
HETATM    6  H   UNL     1      -2.216   2.321 -31.373  1.00  0.00     0.171 HD
ENDROOT
BRANCH   1   7
HETATM    7  C   UNL     1      -2.115   5.880 -32.486  1.00  0.00     0.086 A 
HETATM    8  C   UNL     1      -2.242   7.085 -31.821  1.00  0.00     0.052 A 
HETATM    9  C   UNL     1      -2.684   7.436 -30.452  1.00  0.00     0.072 C 
HETATM   10  N   UNL     1      -1.884   8.044 -32.725  1.00  0.00    -0.280 N 
HETATM   11  H   UNL     1      -1.871   9.050 -32.598  1.00  0.00     0.189 HD
HETATM   12  N   UNL     1      -1.502   7.559 -33.911  1.00  0.00    -0.177 NA
HETATM   13  C   UNL     1      -1.636   6.231 -33.782  1.00  0.00     0.079 A 
HETATM   14  C   UNL     1      -1.225   5.360 -34.913  1.00  0.00     0.075 C 
ENDBRANCH   1   7
BRANCH   3  15
HETATM   15  C   UNL     1      -4.029   1.431 -31.720  1.00  0.00     0.071 A 
HETATM   16  C   UNL     1      -5.130   1.443 -30.842  1.00  0.00     0.095 A 
HETATM   17  C   UNL     1      -6.062   0.403 -30.871  1.00  0.00     0.040 A 
HETATM   18  C   UNL     1      -5.887  -0.664 -31.756  1.00  0.00     0.022 A 
HETATM   19  C   UNL     1      -4.786  -0.680 -32.611  1.00  0.00     0.013 A 
HETATM   20 BR   UNL     1      -4.567  -2.122 -33.816  1.00  0.00    -0.051 Br
HETATM   21  C   UNL     1      -3.858   0.360 -32.601  1.00  0.00     0.051 A 
BRANCH  16  22
HETATM   22  O   UNL     1      -5.234   2.529 -30.004  1.00  0.00    -0.354 OA
HETATM   23  C   UNL     1      -6.513   3.160 -30.022  1.00  0.00     0.210 C 
ENDBRANCH  16  22
ENDBRANCH   3  15
TORSDOF 3
ENDMDL
MODEL 4
REMARK VINA RESULT:      -6.8      0.870      2.099
REMARK  3 active torsions:
REMARK  status: ('A' for Active; 'I' for Inactive)
REMARK    1  A    between atoms: C_8  and  N_9 
REMARK       I    between atoms: N_9  and  C_10 
REMARK       I    between atoms: C_10  and  N_11 
REMARK    2  A    between atoms: N_11  and  C_12 
REMARK    3  A    between atoms: C_13  and  O_14 
ROOT
HETATM    1  N   UNL     1      -8.607   2.171 -33.260  1.00  0.00    -0.305 N 
HETATM    2  C   UNL     1      -8.137   0.881 -33.095  1.00  0.00     0.325 C 
HETATM    3  N   UNL     1      -7.152   0.612 -34.028  1.00  0.00    -0.306 N 
HETATM    4  O   UNL     1      -8.524   0.093 -32.242  1.00  0.00    -0.247 OA
HETATM    5  H   UNL     1      -7.926   2.838 -33.591  1.00  0.00     0.171 HD
HETATM    6  H   UNL     1      -7.221   1.111 -34.907  1.00  0.00     0.171 HD
ENDROOT
BRANCH   1   7
HETATM    7  C   UNL     1      -9.734   2.690 -32.647  1.00  0.00     0.086 A 
HETATM    8  C   UNL     1     -11.016   2.459 -33.107  1.00  0.00     0.052 A 
HETATM    9  C   UNL     1     -11.548   1.721 -34.275  1.00  0.00     0.072 C 
HETATM   10  N   UNL     1     -11.843   3.115 -32.239  1.00  0.00    -0.280 N 
HETATM   11  H   UNL     1     -12.854   3.185 -32.269  1.00  0.00     0.189 HD
HETATM   12  N   UNL     1     -11.204   3.723 -31.235  1.00  0.00    -0.177 NA
HETATM   13  C   UNL     1      -9.907   3.471 -31.468  1.00  0.00     0.079 A 
HETATM   14  C   UNL     1      -8.900   3.953 -30.488  1.00  0.00     0.075 C 
ENDBRANCH   1   7
BRANCH   3  15
HETATM   15  C   UNL     1      -6.308  -0.520 -34.065  1.00  0.00     0.071 A 
HETATM   16  C   UNL     1      -5.035  -0.395 -33.476  1.00  0.00     0.095 A 
HETATM   17  C   UNL     1      -4.173  -1.493 -33.428  1.00  0.00     0.040 A 
HETATM   18  C   UNL     1      -4.565  -2.710 -33.991  1.00  0.00     0.022 A 
HETATM   19  C   UNL     1      -5.819  -2.824 -34.589  1.00  0.00     0.013 A 
HETATM   20 BR   UNL     1      -6.346  -4.482 -35.333  1.00  0.00    -0.051 Br
HETATM   21  C   UNL     1      -6.693  -1.739 -34.628  1.00  0.00     0.051 A 
BRANCH  16  22
HETATM   22  O   UNL     1      -4.724   0.835 -32.941  1.00  0.00    -0.354 OA
HETATM   23  C   UNL     1      -4.489   0.818 -31.535  1.00  0.00     0.210 C 
ENDBRANCH  16  22
ENDBRANCH   3  15
TORSDOF 3
ENDMDL
MODEL 5
REMARK VINA RESULT:      -6.7      2.520      3.190
REMARK  3 active torsions:
REMARK  status: ('A' for Active; 'I' for Inactive)
REMARK    1  A    between atoms: C_8  and  N_9 
REMARK       I    between atoms: N_9  and  C_10 
REMARK       I    between atoms: C_10  and  N_11 
REMARK    2  A    between atoms: N_11  and  C_12 
REMARK    3  A    between atoms: C_13  and  O_14 
ROOT
HETATM    1  N   UNL     1     -10.287   1.418 -34.801  1.00  0.00    -0.305 N 
HETATM    2  C   UNL     1      -9.341   1.207 -33.815  1.00  0.00     0.325 C 
HETATM    3  N   UNL     1      -8.209   0.630 -34.358  1.00  0.00    -0.306 N 
HETATM    4  O   UNL     1      -9.478   1.497 -32.633  1.00  0.00    -0.247 OA
HETATM    5  H   UNL     1      -9.915   1.625 -35.716  1.00  0.00     0.171 HD
HETATM    6  H   UNL     1      -8.351   0.051 -35.177  1.00  0.00     0.171 HD
ENDROOT
BRANCH   1   7
HETATM    7  C   UNL     1     -11.605   1.773 -34.574  1.00  0.00     0.086 A 
HETATM    8  C   UNL     1     -12.123   3.007 -34.917  1.00  0.00     0.052 A 
HETATM    9  C   UNL     1     -11.522   4.219 -35.518  1.00  0.00     0.072 C 
HETATM   10  N   UNL     1     -13.440   2.968 -34.553  1.00  0.00    -0.280 N 
HETATM   11  H   UNL     1     -14.135   3.701 -34.636  1.00  0.00     0.189 HD
HETATM   12  N   UNL     1     -13.826   1.798 -34.034  1.00  0.00    -0.177 NA
HETATM   13  C   UNL     1     -12.712   1.051 -34.040  1.00  0.00     0.079 A 
HETATM   14  C   UNL     1     -12.797  -0.361 -33.584  1.00  0.00     0.075 C 
ENDBRANCH   1   7
BRANCH   3  15
HETATM   15  C   UNL     1      -6.967   0.433 -33.715  1.00  0.00     0.071 A 
HETATM   16  C   UNL     1      -6.537  -0.896 -33.534  1.00  0.00     0.095 A 
HETATM   17  C   UNL     1      -5.292  -1.159 -32.957  1.00  0.00     0.040 A 
HETATM   18  C   UNL     1      -4.484  -0.101 -32.535  1.00  0.00     0.022 A 
HETATM   19  C   UNL     1      -4.921   1.213 -32.700  1.00  0.00     0.013 A 
HETATM   20 BR   UNL     1      -3.811   2.639 -32.140  1.00  0.00    -0.051 Br
HETATM   21  C   UNL     1      -6.154   1.487 -33.289  1.00  0.00     0.051 A 
BRANCH  16  22
HETATM   22  O   UNL     1      -7.388  -1.882 -33.979  1.00  0.00    -0.354 OA
HETATM   23  C   UNL     1      -6.736  -2.958 -34.650  1.00  0.00     0.210 C 
ENDBRANCH  16  22
ENDBRANCH   3  15
TORSDOF 3
ENDMDL
MODEL 6
REMARK VINA RESULT:      -6.6      3.141      6.934
REMARK  3 active torsions:
REMARK  status: ('A' for Active; 'I' for Inactive)
REMARK    1  A    between atoms: C_8  and  N_9 
REMARK       I    between atoms: N_9  and  C_10 
REMARK       I    between atoms: C_10  and  N_11 
REMARK    2  A    between atoms: N_11  and  C_12 
REMARK    3  A    between atoms: C_13  and  O_14 
ROOT
HETATM    1  N   UNL     1      -6.666  -1.341 -34.846  1.00  0.00    -0.305 N 
HETATM    2  C   UNL     1      -7.368  -0.501 -34.002  1.00  0.00     0.325 C 
HETATM    3  N   UNL     1      -8.085   0.422 -34.739  1.00  0.00    -0.306 N 
HETATM    4  O   UNL     1      -7.366  -0.568 -32.779  1.00  0.00    -0.247 OA
HETATM    5  H   UNL     1      -7.110  -1.529 -35.732  1.00  0.00     0.171 HD
HETATM    6  H   UNL     1      -7.695   0.676 -35.639  1.00  0.00     0.171 HD
ENDROOT
BRANCH   1   7
HETATM    7  C   UNL     1      -5.684  -2.230 -34.445  1.00  0.00     0.086 A 
HETATM    8  C   UNL     1      -5.723  -3.580 -34.739  1.00  0.00     0.052 A 
HETATM    9  C   UNL     1      -6.711  -4.427 -35.445  1.00  0.00     0.072 C 
HETATM   10  N   UNL     1      -4.587  -4.108 -34.194  1.00  0.00    -0.280 N 
HETATM   11  H   UNL     1      -4.284  -5.076 -34.195  1.00  0.00     0.189 HD
HETATM   12  N   UNL     1      -3.798  -3.207 -33.601  1.00  0.00    -0.177 NA
HETATM   13  C   UNL     1      -4.455  -2.047 -33.747  1.00  0.00     0.079 A 
HETATM   14  C   UNL     1      -3.817  -0.800 -33.252  1.00  0.00     0.075 C 
ENDBRANCH   1   7
BRANCH   3  15
HETATM   15  C   UNL     1      -9.060   1.321 -34.253  1.00  0.00     0.071 A 
HETATM   16  C   UNL     1      -8.619   2.599 -33.856  1.00  0.00     0.095 A 
HETATM   17  C   UNL     1      -9.540   3.555 -33.420  1.00  0.00     0.040 A 
HETATM   18  C   UNL     1     -10.897   3.233 -33.353  1.00  0.00     0.022 A 
HETATM   19  C   UNL     1     -11.327   1.962 -33.730  1.00  0.00     0.013 A 
HETATM   20 BR   UNL     1     -13.170   1.542 -33.650  1.00  0.00    -0.051 Br
HETATM   21  C   UNL     1     -10.419   1.005 -34.181  1.00  0.00     0.051 A 
BRANCH  16  22
HETATM   22  O   UNL     1      -7.268   2.839 -33.955  1.00  0.00    -0.354 OA
HETATM   23  C   UNL     1      -6.910   4.215 -33.843  1.00  0.00     0.210 C 
ENDBRANCH  16  22
ENDBRANCH   3  15
TORSDOF 3
ENDMDL
MODEL 7
REMARK VINA RESULT:      -6.6      3.081      6.661
REMARK  3 active torsions:
REMARK  status: ('A' for Active; 'I' for Inactive)
REMARK    1  A    between atoms: C_8  and  N_9 
REMARK       I    between atoms: N_9  and  C_10 
REMARK       I    between atoms: C_10  and  N_11 
REMARK    2  A    between atoms: N_11  and  C_12 
REMARK    3  A    between atoms: C_13  and  O_14 
ROOT
HETATM    1  N   UNL     1      -6.499  -1.219 -34.955  1.00  0.00    -0.305 N 
HETATM    2  C   UNL     1      -7.315  -0.514 -34.090  1.00  0.00     0.325 C 
HETATM    3  N   UNL     1      -7.877   0.568 -34.741  1.00  0.00    -0.306 N 
HETATM    4  O   UNL     1      -7.521  -0.808 -32.919  1.00  0.00    -0.247 OA
HETATM    5  H   UNL     1      -6.790  -1.213 -35.921  1.00  0.00     0.171 HD
HETATM    6  H   UNL     1      -7.335   0.964 -35.500  1.00  0.00     0.171 HD
ENDROOT
BRANCH   1   7
HETATM    7  C   UNL     1      -5.619  -2.218 -34.580  1.00  0.00     0.086 A 
HETATM    8  C   UNL     1      -4.476  -1.978 -33.841  1.00  0.00     0.052 A 
HETATM    9  C   UNL     1      -3.863  -0.739 -33.311  1.00  0.00     0.072 C 
HETATM   10  N   UNL     1      -3.890  -3.199 -33.663  1.00  0.00    -0.280 N 
HETATM   11  H   UNL     1      -3.023  -3.413 -33.182  1.00  0.00     0.189 HD
HETATM   12  N   UNL     1      -4.576  -4.215 -34.195  1.00  0.00    -0.177 NA
HETATM   13  C   UNL     1      -5.642  -3.632 -34.762  1.00  0.00     0.079 A 
HETATM   14  C   UNL     1      -6.671  -4.493 -35.399  1.00  0.00     0.075 C 
ENDBRANCH   1   7
BRANCH   3  15
HETATM   15  C   UNL     1      -8.900   1.412 -34.255  1.00  0.00     0.071 A 
HETATM   16  C   UNL     1      -8.523   2.697 -33.817  1.00  0.00     0.095 A 
HETATM   17  C   UNL     1      -9.494   3.601 -33.378  1.00  0.00     0.040 A 
HETATM   18  C   UNL     1     -10.837   3.220 -33.349  1.00  0.00     0.022 A 
HETATM   19  C   UNL     1     -11.203   1.941 -33.767  1.00  0.00     0.013 A 
HETATM   20 BR   UNL     1     -13.028   1.441 -33.738  1.00  0.00    -0.051 Br
HETATM   21  C   UNL     1     -10.245   1.036 -34.221  1.00  0.00     0.051 A 
BRANCH  16  22
HETATM   22  O   UNL     1      -7.182   2.997 -33.880  1.00  0.00    -0.354 OA
HETATM   23  C   UNL     1      -6.563   3.175 -32.608  1.00  0.00     0.210 C 
ENDBRANCH  16  22
ENDBRANCH   3  15
TORSDOF 3
ENDMDL
MODEL 8
REMARK VINA RESULT:      -6.5      5.332      7.467
REMARK  3 active torsions:
REMARK  status: ('A' for Active; 'I' for Inactive)
REMARK    1  A    between atoms: C_8  and  N_9 
REMARK       I    between atoms: N_9  and  C_10 
REMARK       I    between atoms: C_10  and  N_11 
REMARK    2  A    between atoms: N_11  and  C_12 
REMARK    3  A    between atoms: C_13  and  O_14 
ROOT
HETATM    1  N   UNL     1      -4.511   1.826 -32.573  1.00  0.00    -0.305 N 
HETATM    2  C   UNL     1      -4.132   3.124 -32.284  1.00  0.00     0.325 C 
HETATM    3  N   UNL     1      -2.771   3.275 -32.473  1.00  0.00    -0.306 N 
HETATM    4  O   UNL     1      -4.889   4.016 -31.924  1.00  0.00    -0.247 OA
HETATM    5  H   UNL     1      -3.975   1.372 -33.297  1.00  0.00     0.171 HD
HETATM    6  H   UNL     1      -2.206   2.446 -32.332  1.00  0.00     0.171 HD
ENDROOT
BRANCH   1   7
HETATM    7  C   UNL     1      -5.748   1.277 -32.282  1.00  0.00     0.086 A 
HETATM    8  C   UNL     1      -6.701   1.015 -33.247  1.00  0.00     0.052 A 
HETATM    9  C   UNL     1      -6.741   1.241 -34.710  1.00  0.00     0.072 C 
HETATM   10  N   UNL     1      -7.761   0.470 -32.579  1.00  0.00    -0.280 N 
HETATM   11  H   UNL     1      -8.652   0.168 -32.958  1.00  0.00     0.189 HD
HETATM   12  N   UNL     1      -7.560   0.325 -31.266  1.00  0.00    -0.177 NA
HETATM   13  C   UNL     1      -6.327   0.814 -31.065  1.00  0.00     0.079 A 
HETATM   14  C   UNL     1      -5.747   0.746 -29.700  1.00  0.00     0.075 C 
ENDBRANCH   1   7
BRANCH   3  15
HETATM   15  C   UNL     1      -2.043   4.485 -32.461  1.00  0.00     0.071 A 
HETATM   16  C   UNL     1      -1.950   5.195 -33.674  1.00  0.00     0.095 A 
HETATM   17  C   UNL     1      -1.293   6.427 -33.718  1.00  0.00     0.040 A 
HETATM   18  C   UNL     1      -0.704   6.942 -32.561  1.00  0.00     0.022 A 
HETATM   19  C   UNL     1      -0.784   6.228 -31.366  1.00  0.00     0.013 A 
HETATM   20 BR   UNL     1       0.003   6.944 -29.802  1.00  0.00    -0.051 Br
HETATM   21  C   UNL     1      -1.451   5.005 -31.308  1.00  0.00     0.051 A 
BRANCH  16  22
HETATM   22  O   UNL     1      -2.558   4.622 -34.768  1.00  0.00    -0.354 OA
HETATM   23  C   UNL     1      -3.721   5.314 -35.218  1.00  0.00     0.210 C 
ENDBRANCH  16  22
ENDBRANCH   3  15
TORSDOF 3
ENDMDL
MODEL 9
REMARK VINA RESULT:      -6.5      5.228      7.569
REMARK  3 active torsions:
REMARK  status: ('A' for Active; 'I' for Inactive)
REMARK    1  A    between atoms: C_8  and  N_9 
REMARK       I    between atoms: N_9  and  C_10 
REMARK       I    between atoms: C_10  and  N_11 
REMARK    2  A    between atoms: N_11  and  C_12 
REMARK    3  A    between atoms: C_13  and  O_14 
ROOT
HETATM    1  N   UNL     1      -2.352   4.709 -31.843  1.00  0.00    -0.305 N 
HETATM    2  C   UNL     1      -3.369   3.857 -32.234  1.00  0.00     0.325 C 
HETATM    3  N   UNL     1      -3.171   2.602 -31.691  1.00  0.00    -0.306 N 
HETATM    4  O   UNL     1      -4.314   4.168 -32.947  1.00  0.00    -0.247 OA
HETATM    5  H   UNL     1      -1.968   4.529 -30.928  1.00  0.00     0.171 HD
HETATM    6  H   UNL     1      -2.209   2.336 -31.516  1.00  0.00     0.171 HD
ENDROOT
BRANCH   1   7
HETATM    7  C   UNL     1      -2.120   5.965 -32.376  1.00  0.00     0.086 A 
HETATM    8  C   UNL     1      -1.732   6.168 -33.686  1.00  0.00     0.052 A 
HETATM    9  C   UNL     1      -1.429   5.242 -34.801  1.00  0.00     0.072 C 
HETATM   10  N   UNL     1      -1.622   7.523 -33.832  1.00  0.00    -0.280 N 
HETATM   11  H   UNL     1      -1.341   8.043 -34.655  1.00  0.00     0.189 HD
HETATM   12  N   UNL     1      -1.941   8.215 -32.734  1.00  0.00    -0.177 NA
HETATM   13  C   UNL     1      -2.251   7.275 -31.829  1.00  0.00     0.079 A 
HETATM   14  C   UNL     1      -2.725   7.705 -30.488  1.00  0.00     0.075 C 
ENDBRANCH   1   7
BRANCH   3  15
HETATM   15  C   UNL     1      -4.080   1.520 -31.705  1.00  0.00     0.071 A 
HETATM   16  C   UNL     1      -5.131   1.547 -30.768  1.00  0.00     0.095 A 
HETATM   17  C   UNL     1      -6.096   0.537 -30.767  1.00  0.00     0.040 A 
HETATM   18  C   UNL     1      -6.002  -0.515 -31.679  1.00  0.00     0.022 A 
HETATM   19  C   UNL     1      -4.950  -0.548 -32.593  1.00  0.00     0.013 A 
HETATM   20 BR   UNL     1      -4.841  -1.971 -33.836  1.00  0.00    -0.051 Br
HETATM   21  C   UNL     1      -3.990   0.463 -32.614  1.00  0.00     0.051 A 
BRANCH  16  22
HETATM   22  O   UNL     1      -5.156   2.619 -29.906  1.00  0.00    -0.354 OA
HETATM   23  C   UNL     1      -6.343   3.406 -29.985  1.00  0.00     0.210 C 
ENDBRANCH  16  22
ENDBRANCH   3  15
TORSDOF 3
ENDMDL
MODEL 10
REMARK VINA RESULT:      -6.4      5.306      7.144
REMARK  3 active torsions:
REMARK  status: ('A' for Active; 'I' for Inactive)
REMARK    1  A    between atoms: C_8  and  N_9 
REMARK       I    between atoms: N_9  and  C_10 
REMARK       I    between atoms: C_10  and  N_11 
REMARK    2  A    between atoms: N_11  and  C_12 
REMARK    3  A    between atoms: C_13  and  O_14 
ROOT
HETATM    1  N   UNL     1      -4.797   1.938 -32.415  1.00  0.00    -0.305 N 
HETATM    2  C   UNL     1      -4.327   3.211 -32.151  1.00  0.00     0.325 C 
HETATM    3  N   UNL     1      -2.962   3.267 -32.359  1.00  0.00    -0.306 N 
HETATM    4  O   UNL     1      -5.018   4.157 -31.797  1.00  0.00    -0.247 OA
HETATM    5  H   UNL     1      -4.302   1.438 -33.138  1.00  0.00     0.171 HD
HETATM    6  H   UNL     1      -2.452   2.404 -32.211  1.00  0.00     0.171 HD
ENDROOT
BRANCH   1   7
HETATM    7  C   UNL     1      -6.064   1.478 -32.102  1.00  0.00     0.086 A 
HETATM    8  C   UNL     1      -6.392   0.955 -30.867  1.00  0.00     0.052 A 
HETATM    9  C   UNL     1      -5.602   0.699 -29.641  1.00  0.00     0.072 C 
HETATM   10  N   UNL     1      -7.718   0.633 -30.943  1.00  0.00    -0.280 N 
HETATM   11  H   UNL     1      -8.301   0.209 -30.230  1.00  0.00     0.189 HD
HETATM   12  N   UNL     1      -8.284   0.937 -32.114  1.00  0.00    -0.177 NA
HETATM   13  C   UNL     1      -7.284   1.458 -32.839  1.00  0.00     0.079 A 
HETATM   14  C   UNL     1      -7.583   1.975 -34.200  1.00  0.00     0.075 C 
ENDBRANCH   1   7
BRANCH   3  15
HETATM   15  C   UNL     1      -2.153   4.425 -32.374  1.00  0.00     0.071 A 
HETATM   16  C   UNL     1      -1.999   5.088 -33.607  1.00  0.00     0.095 A 
HETATM   17  C   UNL     1      -1.260   6.271 -33.680  1.00  0.00     0.040 A 
HETATM   18  C   UNL     1      -0.650   6.782 -32.531  1.00  0.00     0.022 A 
HETATM   19  C   UNL     1      -0.791   6.112 -31.316  1.00  0.00     0.013 A 
HETATM   20 BR   UNL     1       0.026   6.822 -29.764  1.00  0.00    -0.051 Br
HETATM   21  C   UNL     1      -1.540   4.940 -31.230  1.00  0.00     0.051 A 
BRANCH  16  22
HETATM   22  O   UNL     1      -2.633   4.524 -34.691  1.00  0.00    -0.354 OA
HETATM   23  C   UNL     1      -3.727   5.290 -35.191  1.00  0.00     0.210 C 
ENDBRANCH  16  22
ENDBRANCH   3  15
TORSDOF 3
ENDMDL
