MODEL 1
REMARK VINA RESULT:      -6.8      0.000      0.000
REMARK  5 active torsions:
REMARK  status: ('A' for Active; 'I' for Inactive)
REMARK    1  A    between atoms: C_2  and  O_3 
REMARK    2  A    between atoms: C_4  and  C_5 
REMARK    3  A    between atoms: C_5  and  O_6 
REMARK    4  A    between atoms: C_9  and  C_10 
REMARK    5  A    between atoms: C_22  and  O_23 
ROOT
HETATM    1  C   UNL     1      -5.202  -2.513 -34.675  1.00  0.00     0.047 C 
HETATM    2  C   UNL     1      -6.361  -1.701 -34.079  1.00  0.00     0.073 C 
HETATM    3  C   UNL     1      -6.025  -1.058 -32.687  1.00  0.00     0.133 C 
HETATM    4  C   UNL     1      -7.080  -0.040 -32.130  1.00  0.00     0.074 C 
HETATM    5  C   UNL     1      -8.063   0.405 -33.163  1.00  0.00     0.030 A 
HETATM    6  C   UNL     1      -7.944   0.133 -34.507  1.00  0.00     0.042 A 
HETATM    7  N   UNL     1      -9.034   0.675 -35.125  1.00  0.00    -0.279 N 
HETATM    8  H   UNL     1      -9.276   0.671 -36.111  1.00  0.00     0.189 HD
HETATM    9  N   UNL     1      -9.899   1.234 -34.251  1.00  0.00    -0.149 NA
HETATM   10  C   UNL     1      -9.294   1.058 -33.084  1.00  0.00     0.190 A 
HETATM   11  C   UNL     1      -6.871  -0.676 -35.134  1.00  0.00     0.097 C 
ENDROOT
BRANCH   4  12
HETATM   12  C   UNL     1      -6.536   1.246 -31.512  1.00  0.00    -0.048 A 
HETATM   13  C   UNL     1      -6.199   1.346 -30.147  1.00  0.00     0.009 A 
HETATM   14  C   UNL     1      -5.728   2.543 -29.605  1.00  0.00     0.024 A 
HETATM   15  C   UNL     1      -5.586   3.660 -30.421  1.00  0.00     0.034 A 
HETATM   16 CL   UNL     1      -5.009   5.137 -29.755  1.00  0.00    -0.084 Cl
HETATM   17  C   UNL     1      -5.912   3.589 -31.773  1.00  0.00     0.024 A 
HETATM   18  C   UNL     1      -6.387   2.390 -32.315  1.00  0.00     0.009 A 
ENDBRANCH   4  12
BRANCH   3  19
HETATM   19  C   UNL     1      -4.617  -0.500 -32.657  1.00  0.00     0.266 C 
HETATM   20  O   UNL     1      -4.153   0.283 -33.474  1.00  0.00    -0.265 OA
BRANCH  19  21
HETATM   21  O   UNL     1      -3.947  -0.997 -31.577  1.00  0.00    -0.326 OA
HETATM   22  C   UNL     1      -3.033  -2.051 -31.880  1.00  0.00     0.213 C 
ENDBRANCH  19  21
ENDBRANCH   3  19
BRANCH   2  23
HETATM   23  O   UNL     1      -7.397  -2.692 -33.860  1.00  0.00    -0.389 OA
HETATM   24  H   UNL     1      -7.765  -2.954 -34.724  1.00  0.00     0.210 HD
ENDBRANCH   2  23
BRANCH  10  25
HETATM   25  O   UNL     1      -9.963   1.489 -32.020  1.00  0.00    -0.343 OA
HETATM   26  H   UNL     1     -10.415   2.294 -32.325  1.00  0.00     0.219 HD
ENDBRANCH  10  25
TORSDOF 5
ENDMDL
MODEL 2
REMARK VINA RESULT:      -6.7      2.859      4.761
REMARK  5 active torsions:
REMARK  status: ('A' for Active; 'I' for Inactive)
REMARK    1  A    between atoms: C_2  and  O_3 
REMARK    2  A    between atoms: C_4  and  C_5 
REMARK    3  A    between atoms: C_5  and  O_6 
REMARK    4  A    between atoms: C_9  and  C_10 
REMARK    5  A    between atoms: C_22  and  O_23 
ROOT
HETATM    1  C   UNL     1      -2.990   0.816 -31.263  1.00  0.00     0.047 C 
HETATM    2  C   UNL     1      -3.920  -0.242 -31.873  1.00  0.00     0.073 C 
HETATM    3  C   UNL     1      -5.443   0.040 -31.615  1.00  0.00     0.133 C 
HETATM    4  C   UNL     1      -6.451  -0.874 -32.394  1.00  0.00     0.074 C 
HETATM    5  C   UNL     1      -5.807  -1.636 -33.507  1.00  0.00     0.030 A 
HETATM    6  C   UNL     1      -4.524  -1.413 -33.951  1.00  0.00     0.042 A 
HETATM    7  N   UNL     1      -4.283  -2.310 -34.951  1.00  0.00    -0.279 N 
HETATM    8  H   UNL     1      -3.443  -2.434 -35.509  1.00  0.00     0.189 HD
HETATM    9  N   UNL     1      -5.316  -3.158 -35.146  1.00  0.00    -0.149 NA
HETATM   10  C   UNL     1      -6.215  -2.733 -34.267  1.00  0.00     0.190 A 
HETATM   11  C   UNL     1      -3.567  -0.436 -33.377  1.00  0.00     0.097 C 
ENDROOT
BRANCH   4  12
HETATM   12  C   UNL     1      -7.659  -0.186 -33.026  1.00  0.00    -0.048 A 
HETATM   13  C   UNL     1      -7.668   0.243 -34.370  1.00  0.00     0.009 A 
HETATM   14  C   UNL     1      -8.777   0.893 -34.912  1.00  0.00     0.024 A 
HETATM   15  C   UNL     1      -9.897   1.123 -34.120  1.00  0.00     0.034 A 
HETATM   16 CL   UNL     1     -11.263   1.927 -34.786  1.00  0.00    -0.084 Cl
HETATM   17  C   UNL     1      -9.914   0.711 -32.790  1.00  0.00     0.024 A 
HETATM   18  C   UNL     1      -8.800   0.062 -32.246  1.00  0.00     0.009 A 
ENDBRANCH   4  12
BRANCH   3  19
HETATM   19  C   UNL     1      -5.770   1.512 -31.764  1.00  0.00     0.266 C 
HETATM   20  O   UNL     1      -5.543   2.186 -32.759  1.00  0.00    -0.265 OA
BRANCH  19  21
HETATM   21  O   UNL     1      -6.362   1.970 -30.623  1.00  0.00    -0.326 OA
HETATM   22  C   UNL     1      -5.703   3.082 -30.017  1.00  0.00     0.213 C 
ENDBRANCH  19  21
ENDBRANCH   3  19
BRANCH   2  23
HETATM   23  O   UNL     1      -3.576  -1.455 -31.158  1.00  0.00    -0.389 OA
HETATM   24  H   UNL     1      -2.734  -1.312 -30.689  1.00  0.00     0.210 HD
ENDBRANCH   2  23
BRANCH  10  25
HETATM   25  O   UNL     1      -7.342  -3.433 -34.216  1.00  0.00    -0.343 OA
HETATM   26  H   UNL     1      -7.071  -4.312 -33.900  1.00  0.00     0.219 HD
ENDBRANCH  10  25
TORSDOF 5
ENDMDL
MODEL 3
REMARK VINA RESULT:      -6.7      3.860      6.708
REMARK  5 active torsions:
REMARK  status: ('A' for Active; 'I' for Inactive)
REMARK    1  A    between atoms: C_2  and  O_3 
REMARK    2  A    between atoms: C_4  and  C_5 
REMARK    3  A    between atoms: C_5  and  O_6 
REMARK    4  A    between atoms: C_9  and  C_10 
REMARK    5  A    between atoms: C_22  and  O_23 
ROOT
HETATM    1  C   UNL     1      -7.164   6.032 -28.901  1.00  0.00     0.047 C 
HETATM    2  C   UNL     1      -6.135   4.984 -29.349  1.00  0.00     0.073 C 
HETATM    3  C   UNL     1      -6.782   3.637 -29.832  1.00  0.00     0.133 C 
HETATM    4  C   UNL     1      -5.806   2.613 -30.508  1.00  0.00     0.074 C 
HETATM    5  C   UNL     1      -4.494   3.218 -30.886  1.00  0.00     0.030 A 
HETATM    6  C   UNL     1      -4.230   4.569 -30.851  1.00  0.00     0.042 A 
HETATM    7  N   UNL     1      -2.932   4.735 -31.237  1.00  0.00    -0.279 N 
HETATM    8  H   UNL     1      -2.399   5.595 -31.330  1.00  0.00     0.189 HD
HETATM    9  N   UNL     1      -2.304   3.560 -31.461  1.00  0.00    -0.149 NA
HETATM   10  C   UNL     1      -3.262   2.669 -31.243  1.00  0.00     0.190 A 
HETATM   11  C   UNL     1      -5.169   5.621 -30.391  1.00  0.00     0.097 C 
ENDROOT
BRANCH   4  12
HETATM   12  C   UNL     1      -6.306   1.917 -31.772  1.00  0.00    -0.048 A 
HETATM   13  C   UNL     1      -6.100   2.451 -33.061  1.00  0.00     0.009 A 
HETATM   14  C   UNL     1      -6.591   1.805 -34.197  1.00  0.00     0.024 A 
HETATM   15  C   UNL     1      -7.296   0.614 -34.062  1.00  0.00     0.034 A 
HETATM   16 CL   UNL     1      -7.905  -0.181 -35.460  1.00  0.00    -0.084 Cl
HETATM   17  C   UNL     1      -7.515   0.066 -32.801  1.00  0.00     0.024 A 
HETATM   18  C   UNL     1      -7.025   0.714 -31.662  1.00  0.00     0.009 A 
ENDBRANCH   4  12
BRANCH   3  19
HETATM   19  C   UNL     1      -8.024   3.884 -30.664  1.00  0.00     0.266 C 
HETATM   20  O   UNL     1      -8.076   4.595 -31.658  1.00  0.00    -0.265 OA
BRANCH  19  21
HETATM   21  O   UNL     1      -9.074   3.185 -30.143  1.00  0.00    -0.326 OA
HETATM   22  C   UNL     1     -10.359   3.723 -30.456  1.00  0.00     0.213 C 
ENDBRANCH  19  21
ENDBRANCH   3  19
BRANCH   2  23
HETATM   23  O   UNL     1      -5.387   4.698 -28.140  1.00  0.00    -0.389 OA
HETATM   24  H   UNL     1      -5.807   3.944 -27.687  1.00  0.00     0.210 HD
ENDBRANCH   2  23
BRANCH  10  25
HETATM   25  O   UNL     1      -2.898   1.396 -31.358  1.00  0.00    -0.343 OA
HETATM   26  H   UNL     1      -2.399   1.358 -32.192  1.00  0.00     0.219 HD
ENDBRANCH  10  25
TORSDOF 5
ENDMDL
MODEL 4
REMARK VINA RESULT:      -6.5      3.623      5.948
REMARK  5 active torsions:
REMARK  status: ('A' for Active; 'I' for Inactive)
REMARK    1  A    between atoms: C_2  and  O_3 
REMARK    2  A    between atoms: C_4  and  C_5 
REMARK    3  A    between atoms: C_5  and  O_6 
REMARK    4  A    between atoms: C_9  and  C_10 
REMARK    5  A    between atoms: C_22  and  O_23 
ROOT
HETATM    1  C   UNL     1      -7.868   4.077 -33.862  1.00  0.00     0.047 C 
HETATM    2  C   UNL     1      -6.999   3.120 -33.033  1.00  0.00     0.073 C 
HETATM    3  C   UNL     1      -7.468   1.623 -33.110  1.00  0.00     0.133 C 
HETATM    4  C   UNL     1      -6.499   0.569 -32.471  1.00  0.00     0.074 C 
HETATM    5  C   UNL     1      -5.139   1.119 -32.193  1.00  0.00     0.030 A 
HETATM    6  C   UNL     1      -4.698   2.345 -32.638  1.00  0.00     0.042 A 
HETATM    7  N   UNL     1      -3.426   2.509 -32.169  1.00  0.00    -0.279 N 
HETATM    8  H   UNL     1      -2.793   3.292 -32.304  1.00  0.00     0.189 HD
HETATM    9  N   UNL     1      -3.028   1.486 -31.383  1.00  0.00    -0.149 NA
HETATM   10  C   UNL     1      -4.073   0.668 -31.414  1.00  0.00     0.190 A 
HETATM   11  C   UNL     1      -5.502   3.326 -33.406  1.00  0.00     0.097 C 
ENDROOT
BRANCH   4  12
HETATM   12  C   UNL     1      -6.259  -0.715 -33.262  1.00  0.00    -0.048 A 
HETATM   13  C   UNL     1      -5.002  -1.041 -33.811  1.00  0.00     0.009 A 
HETATM   14  C   UNL     1      -4.819  -2.210 -34.553  1.00  0.00     0.024 A 
HETATM   15  C   UNL     1      -5.891  -3.072 -34.755  1.00  0.00     0.034 A 
HETATM   16 CL   UNL     1      -5.668  -4.510 -35.671  1.00  0.00    -0.084 Cl
HETATM   17  C   UNL     1      -7.143  -2.774 -34.225  1.00  0.00     0.024 A 
HETATM   18  C   UNL     1      -7.327  -1.601 -33.484  1.00  0.00     0.009 A 
ENDBRANCH   4  12
BRANCH   3  19
HETATM   19  C   UNL     1      -7.884   1.243 -34.517  1.00  0.00     0.266 C 
HETATM   20  O   UNL     1      -7.132   1.176 -35.480  1.00  0.00    -0.265 OA
BRANCH  19  21
HETATM   21  O   UNL     1      -9.222   0.977 -34.545  1.00  0.00    -0.326 OA
HETATM   22  C   UNL     1      -9.847   0.940 -33.262  1.00  0.00     0.213 C 
ENDBRANCH  19  21
ENDBRANCH   3  19
BRANCH   2  23
HETATM   23  O   UNL     1      -7.201   3.567 -31.668  1.00  0.00    -0.389 OA
HETATM   24  H   UNL     1      -6.488   3.202 -31.113  1.00  0.00     0.210 HD
ENDBRANCH   2  23
BRANCH  10  25
HETATM   25  O   UNL     1      -3.963  -0.429 -30.673  1.00  0.00    -0.343 OA
HETATM   26  H   UNL     1      -4.870  -0.777 -30.615  1.00  0.00     0.219 HD
ENDBRANCH  10  25
TORSDOF 5
ENDMDL
MODEL 5
REMARK VINA RESULT:      -6.5      2.781      4.024
REMARK  5 active torsions:
REMARK  status: ('A' for Active; 'I' for Inactive)
REMARK    1  A    between atoms: C_2  and  O_3 
REMARK    2  A    between atoms: C_4  and  C_5 
REMARK    3  A    between atoms: C_5  and  O_6 
REMARK    4  A    between atoms: C_9  and  C_10 
REMARK    5  A    between atoms: C_22  and  O_23 
ROOT
HETATM    1  C   UNL     1      -9.338  -0.007 -33.195  1.00  0.00     0.047 C 
HETATM    2  C   UNL     1      -8.830   0.944 -32.102  1.00  0.00     0.073 C 
HETATM    3  C   UNL     1      -7.267   0.946 -31.951  1.00  0.00     0.133 C 
HETATM    4  C   UNL     1      -6.671   2.052 -31.012  1.00  0.00     0.074 C 
HETATM    5  C   UNL     1      -7.653   3.129 -30.683  1.00  0.00     0.030 A 
HETATM    6  C   UNL     1      -8.878   3.268 -31.295  1.00  0.00     0.042 A 
HETATM    7  N   UNL     1      -9.497   4.339 -30.717  1.00  0.00    -0.279 N 
HETATM    8  H   UNL     1     -10.410   4.734 -30.920  1.00  0.00     0.189 HD
HETATM    9  N   UNL     1      -8.773   4.873 -29.710  1.00  0.00    -0.149 NA
HETATM   10  C   UNL     1      -7.674   4.129 -29.710  1.00  0.00     0.190 A 
HETATM   11  C   UNL     1      -9.438   2.360 -32.325  1.00  0.00     0.097 C 
ENDROOT
BRANCH   4  12
HETATM   12  C   UNL     1      -5.427   2.783 -31.512  1.00  0.00    -0.048 A 
HETATM   13  C   UNL     1      -5.500   3.910 -32.355  1.00  0.00     0.009 A 
HETATM   14  C   UNL     1      -4.344   4.542 -32.817  1.00  0.00     0.024 A 
HETATM   15  C   UNL     1      -3.097   4.057 -32.442  1.00  0.00     0.034 A 
HETATM   16 CL   UNL     1      -1.672   4.832 -33.013  1.00  0.00    -0.084 Cl
HETATM   17  C   UNL     1      -2.996   2.944 -31.611  1.00  0.00     0.024 A 
HETATM   18  C   UNL     1      -4.155   2.310 -31.150  1.00  0.00     0.009 A 
ENDBRANCH   4  12
BRANCH   3  19
HETATM   19  C   UNL     1      -6.578   0.905 -33.299  1.00  0.00     0.266 C 
HETATM   20  O   UNL     1      -6.821   1.650 -34.238  1.00  0.00    -0.265 OA
BRANCH  19  21
HETATM   21  O   UNL     1      -5.638  -0.085 -33.306  1.00  0.00    -0.326 OA
HETATM   22  C   UNL     1      -5.914  -1.159 -34.205  1.00  0.00     0.213 C 
ENDBRANCH  19  21
ENDBRANCH   3  19
BRANCH   2  23
HETATM   23  O   UNL     1      -9.383   0.392 -30.881  1.00  0.00    -0.389 OA
HETATM   24  H   UNL     1      -8.654   0.231 -30.254  1.00  0.00     0.210 HD
ENDBRANCH   2  23
BRANCH  10  25
HETATM   25  O   UNL     1      -6.785   4.420 -28.767  1.00  0.00    -0.343 OA
HETATM   26  H   UNL     1      -6.264   3.606 -28.662  1.00  0.00     0.219 HD
ENDBRANCH  10  25
TORSDOF 5
ENDMDL
MODEL 6
REMARK VINA RESULT:      -6.5      2.914      4.846
REMARK  5 active torsions:
REMARK  status: ('A' for Active; 'I' for Inactive)
REMARK    1  A    between atoms: C_2  and  O_3 
REMARK    2  A    between atoms: C_4  and  C_5 
REMARK    3  A    between atoms: C_5  and  O_6 
REMARK    4  A    between atoms: C_9  and  C_10 
REMARK    5  A    between atoms: C_22  and  O_23 
ROOT
HETATM    1  C   UNL     1      -5.258   2.997 -30.079  1.00  0.00     0.047 C 
HETATM    2  C   UNL     1      -6.269   2.781 -31.214  1.00  0.00     0.073 C 
HETATM    3  C   UNL     1      -5.749   1.820 -32.342  1.00  0.00     0.133 C 
HETATM    4  C   UNL     1      -6.808   1.383 -33.412  1.00  0.00     0.074 C 
HETATM    5  C   UNL     1      -8.213   1.679 -32.998  1.00  0.00     0.030 A 
HETATM    6  C   UNL     1      -8.573   2.090 -31.735  1.00  0.00     0.042 A 
HETATM    7  N   UNL     1      -9.924   2.283 -31.744  1.00  0.00    -0.279 N 
HETATM    8  H   UNL     1     -10.531   2.583 -30.987  1.00  0.00     0.189 HD
HETATM    9  N   UNL     1     -10.466   2.085 -32.965  1.00  0.00    -0.149 NA
HETATM   10  C   UNL     1      -9.420   1.725 -33.697  1.00  0.00     0.190 A 
HETATM   11  C   UNL     1      -7.640   2.352 -30.612  1.00  0.00     0.097 C 
ENDROOT
BRANCH   4  12
HETATM   12  C   UNL     1      -6.811  -0.089 -33.818  1.00  0.00    -0.048 A 
HETATM   13  C   UNL     1      -7.832  -0.980 -33.425  1.00  0.00     0.009 A 
HETATM   14  C   UNL     1      -7.794  -2.327 -33.790  1.00  0.00     0.024 A 
HETATM   15  C   UNL     1      -6.735  -2.805 -34.554  1.00  0.00     0.034 A 
HETATM   16 CL   UNL     1      -6.685  -4.464 -35.001  1.00  0.00    -0.084 Cl
HETATM   17  C   UNL     1      -5.714  -1.947 -34.954  1.00  0.00     0.024 A 
HETATM   18  C   UNL     1      -5.751  -0.597 -34.587  1.00  0.00     0.009 A 
ENDBRANCH   4  12
BRANCH   3  19
HETATM   19  C   UNL     1      -4.997   0.639 -31.763  1.00  0.00     0.266 C 
HETATM   20  O   UNL     1      -5.473  -0.199 -31.010  1.00  0.00    -0.265 OA
BRANCH  19  21
HETATM   21  O   UNL     1      -3.709   0.647 -32.215  1.00  0.00    -0.326 OA
HETATM   22  C   UNL     1      -2.886  -0.390 -31.679  1.00  0.00     0.213 C 
ENDBRANCH  19  21
ENDBRANCH   3  19
BRANCH   2  23
HETATM   23  O   UNL     1      -6.415   4.099 -31.801  1.00  0.00    -0.389 OA
HETATM   24  H   UNL     1      -5.573   4.579 -31.699  1.00  0.00     0.210 HD
ENDBRANCH   2  23
BRANCH  10  25
HETATM   25  O   UNL     1      -9.668   1.504 -34.983  1.00  0.00    -0.343 OA
HETATM   26  H   UNL     1      -8.807   1.257 -35.361  1.00  0.00     0.219 HD
ENDBRANCH  10  25
TORSDOF 5
ENDMDL
MODEL 7
REMARK VINA RESULT:      -6.4      3.271      4.859
REMARK  5 active torsions:
REMARK  status: ('A' for Active; 'I' for Inactive)
REMARK    1  A    between atoms: C_2  and  O_3 
REMARK    2  A    between atoms: C_4  and  C_5 
REMARK    3  A    between atoms: C_5  and  O_6 
REMARK    4  A    between atoms: C_9  and  C_10 
REMARK    5  A    between atoms: C_22  and  O_23 
ROOT
HETATM    1  C   UNL     1      -3.266   0.411 -31.004  1.00  0.00     0.047 C 
HETATM    2  C   UNL     1      -3.983   1.532 -31.771  1.00  0.00     0.073 C 
HETATM    3  C   UNL     1      -5.101   1.011 -32.743  1.00  0.00     0.133 C 
HETATM    4  C   UNL     1      -6.016   2.109 -33.387  1.00  0.00     0.074 C 
HETATM    5  C   UNL     1      -5.895   3.438 -32.714  1.00  0.00     0.030 A 
HETATM    6  C   UNL     1      -5.225   3.643 -31.529  1.00  0.00     0.042 A 
HETATM    7  N   UNL     1      -5.308   4.975 -31.245  1.00  0.00    -0.279 N 
HETATM    8  H   UNL     1      -4.933   5.482 -30.449  1.00  0.00     0.189 HD
HETATM    9  N   UNL     1      -5.940   5.672 -32.214  1.00  0.00    -0.149 NA
HETATM   10  C   UNL     1      -6.280   4.727 -33.082  1.00  0.00     0.190 A 
HETATM   11  C   UNL     1      -4.483   2.610 -30.765  1.00  0.00     0.097 C 
ENDROOT
BRANCH   4  12
HETATM   12  C   UNL     1      -7.514   1.818 -33.432  1.00  0.00    -0.048 A 
HETATM   13  C   UNL     1      -8.388   2.187 -32.388  1.00  0.00     0.009 A 
HETATM   14  C   UNL     1      -9.750   1.884 -32.446  1.00  0.00     0.024 A 
HETATM   15  C   UNL     1     -10.259   1.208 -33.549  1.00  0.00     0.034 A 
HETATM   16 CL   UNL     1     -11.935   0.830 -33.620  1.00  0.00    -0.084 Cl
HETATM   17  C   UNL     1      -9.418   0.831 -34.593  1.00  0.00     0.024 A 
HETATM   18  C   UNL     1      -8.053   1.132 -34.534  1.00  0.00     0.009 A 
ENDBRANCH   4  12
BRANCH   3  19
HETATM   19  C   UNL     1      -5.904  -0.111 -32.117  1.00  0.00     0.266 C 
HETATM   20  O   UNL     1      -6.382  -0.091 -30.991  1.00  0.00    -0.265 OA
BRANCH  19  21
HETATM   21  O   UNL     1      -6.019  -1.144 -33.001  1.00  0.00    -0.326 OA
HETATM   22  C   UNL     1      -4.842  -1.406 -33.765  1.00  0.00     0.213 C 
ENDBRANCH  19  21
ENDBRANCH   3  19
BRANCH   2  23
HETATM   23  O   UNL     1      -2.935   2.114 -32.588  1.00  0.00    -0.389 OA
HETATM   24  H   UNL     1      -2.313   1.409 -32.844  1.00  0.00     0.210 HD
ENDBRANCH   2  23
BRANCH  10  25
HETATM   25  O   UNL     1      -6.896   5.152 -34.179  1.00  0.00    -0.343 OA
HETATM   26  H   UNL     1      -6.657   6.093 -34.245  1.00  0.00     0.219 HD
ENDBRANCH  10  25
TORSDOF 5
ENDMDL
MODEL 8
REMARK VINA RESULT:      -6.4      3.553      4.980
REMARK  5 active torsions:
REMARK  status: ('A' for Active; 'I' for Inactive)
REMARK    1  A    between atoms: C_2  and  O_3 
REMARK    2  A    between atoms: C_4  and  C_5 
REMARK    3  A    between atoms: C_5  and  O_6 
REMARK    4  A    between atoms: C_9  and  C_10 
REMARK    5  A    between atoms: C_22  and  O_23 
ROOT
HETATM    1  C   UNL     1      -6.894  -0.083 -31.306  1.00  0.00     0.047 C 
HETATM    2  C   UNL     1      -6.444   1.191 -30.578  1.00  0.00     0.073 C 
HETATM    3  C   UNL     1      -5.004   1.668 -30.983  1.00  0.00     0.133 C 
HETATM    4  C   UNL     1      -4.573   3.077 -30.446  1.00  0.00     0.074 C 
HETATM    5  C   UNL     1      -5.720   3.878 -29.921  1.00  0.00     0.030 A 
HETATM    6  C   UNL     1      -7.041   3.526 -30.078  1.00  0.00     0.042 A 
HETATM    7  N   UNL     1      -7.789   4.478 -29.448  1.00  0.00    -0.279 N 
HETATM    8  H   UNL     1      -8.799   4.543 -29.363  1.00  0.00     0.189 HD
HETATM    9  N   UNL     1      -7.029   5.405 -28.826  1.00  0.00    -0.149 NA
HETATM   10  C   UNL     1      -5.794   5.021 -29.125  1.00  0.00     0.190 A 
HETATM   11  C   UNL     1      -7.534   2.291 -30.736  1.00  0.00     0.097 C 
ENDROOT
BRANCH   4  12
HETATM   12  C   UNL     1      -3.857   4.000 -31.430  1.00  0.00    -0.048 A 
HETATM   13  C   UNL     1      -4.547   4.935 -32.229  1.00  0.00     0.009 A 
HETATM   14  C   UNL     1      -3.868   5.747 -33.139  1.00  0.00     0.024 A 
HETATM   15  C   UNL     1      -2.487   5.639 -33.263  1.00  0.00     0.034 A 
HETATM   16 CL   UNL     1      -1.650   6.636 -34.385  1.00  0.00    -0.084 Cl
HETATM   17  C   UNL     1      -1.781   4.724 -32.486  1.00  0.00     0.024 A 
HETATM   18  C   UNL     1      -2.462   3.907 -31.576  1.00  0.00     0.009 A 
ENDBRANCH   4  12
BRANCH   3  19
HETATM   19  C   UNL     1      -4.770   1.525 -32.473  1.00  0.00     0.266 C 
HETATM   20  O   UNL     1      -5.486   1.994 -33.347  1.00  0.00    -0.265 OA
BRANCH  19  21
HETATM   21  O   UNL     1      -3.634   0.801 -32.694  1.00  0.00    -0.326 OA
HETATM   22  C   UNL     1      -3.180   0.052 -31.566  1.00  0.00     0.213 C 
ENDBRANCH  19  21
ENDBRANCH   3  19
BRANCH   2  23
HETATM   23  O   UNL     1      -6.391   0.790 -29.185  1.00  0.00    -0.389 OA
HETATM   24  H   UNL     1      -7.119   1.230 -28.708  1.00  0.00     0.210 HD
ENDBRANCH   2  23
BRANCH  10  25
HETATM   25  O   UNL     1      -4.822   5.753 -28.592  1.00  0.00    -0.343 OA
HETATM   26  H   UNL     1      -4.278   5.116 -28.098  1.00  0.00     0.219 HD
ENDBRANCH  10  25
TORSDOF 5
ENDMDL
MODEL 9
REMARK VINA RESULT:      -6.4     15.007     16.962
REMARK  5 active torsions:
REMARK  status: ('A' for Active; 'I' for Inactive)
REMARK    1  A    between atoms: C_2  and  O_3 
REMARK    2  A    between atoms: C_4  and  C_5 
REMARK    3  A    between atoms: C_5  and  O_6 
REMARK    4  A    between atoms: C_9  and  C_10 
REMARK    5  A    between atoms: C_22  and  O_23 
ROOT
HETATM    1  C   UNL     1      -1.154 -16.008 -41.083  1.00  0.00     0.047 C 
HETATM    2  C   UNL     1      -1.744 -15.096 -39.997  1.00  0.00     0.073 C 
HETATM    3  C   UNL     1      -2.830 -14.099 -40.539  1.00  0.00     0.133 C 
HETATM    4  C   UNL     1      -3.627 -13.298 -39.452  1.00  0.00     0.074 C 
HETATM    5  C   UNL     1      -3.461 -13.856 -38.076  1.00  0.00     0.030 A 
HETATM    6  C   UNL     1      -2.856 -15.062 -37.802  1.00  0.00     0.042 A 
HETATM    7  N   UNL     1      -2.868 -15.219 -36.446  1.00  0.00    -0.279 N 
HETATM    8  H   UNL     1      -2.511 -15.990 -35.890  1.00  0.00     0.189 HD
HETATM    9  N   UNL     1      -3.389 -14.150 -35.806  1.00  0.00    -0.149 NA
HETATM   10  C   UNL     1      -3.735 -13.349 -36.806  1.00  0.00     0.190 A 
HETATM   11  C   UNL     1      -2.235 -15.965 -38.802  1.00  0.00     0.097 C 
ENDROOT
BRANCH   4  12
HETATM   12  C   UNL     1      -5.136 -13.175 -39.655  1.00  0.00    -0.048 A 
HETATM   13  C   UNL     1      -6.051 -14.087 -39.092  1.00  0.00     0.009 A 
HETATM   14  C   UNL     1      -7.424 -13.964 -39.317  1.00  0.00     0.024 A 
HETATM   15  C   UNL     1      -7.902 -12.926 -40.108  1.00  0.00     0.034 A 
HETATM   16 CL   UNL     1      -9.592 -12.775 -40.389  1.00  0.00    -0.084 Cl
HETATM   17  C   UNL     1      -7.019 -12.011 -40.677  1.00  0.00     0.024 A 
HETATM   18  C   UNL     1      -5.644 -12.136 -40.454  1.00  0.00     0.009 A 
ENDBRANCH   4  12
BRANCH   3  19
HETATM   19  C   UNL     1      -3.744 -14.766 -41.547  1.00  0.00     0.266 C 
HETATM   20  O   UNL     1      -4.384 -15.789 -41.347  1.00  0.00    -0.265 OA
BRANCH  19  21
HETATM   21  O   UNL     1      -3.751 -14.049 -42.707  1.00  0.00    -0.326 OA
HETATM   22  C   UNL     1      -4.476 -14.657 -43.777  1.00  0.00     0.213 C 
ENDBRANCH  19  21
ENDBRANCH   3  19
BRANCH   2  23
HETATM   23  O   UNL     1      -0.610 -14.306 -39.559  1.00  0.00    -0.389 OA
HETATM   24  H   UNL     1      -0.420 -14.524 -38.628  1.00  0.00     0.210 HD
ENDBRANCH   2  23
BRANCH  10  25
HETATM   25  O   UNL     1      -4.250 -12.177 -36.449  1.00  0.00    -0.343 OA
HETATM   26  H   UNL     1      -3.850 -11.537 -37.063  1.00  0.00     0.219 HD
ENDBRANCH  10  25
TORSDOF 5
ENDMDL
MODEL 10
REMARK VINA RESULT:      -6.4      3.196      5.258
REMARK  5 active torsions:
REMARK  status: ('A' for Active; 'I' for Inactive)
REMARK    1  A    between atoms: C_2  and  O_3 
REMARK    2  A    between atoms: C_4  and  C_5 
REMARK    3  A    between atoms: C_5  and  O_6 
REMARK    4  A    between atoms: C_9  and  C_10 
REMARK    5  A    between atoms: C_22  and  O_23 
ROOT
HETATM    1  C   UNL     1      -7.271   4.963 -30.440  1.00  0.00     0.047 C 
HETATM    2  C   UNL     1      -8.164   4.400 -31.555  1.00  0.00     0.073 C 
HETATM    3  C   UNL     1      -7.390   3.497 -32.581  1.00  0.00     0.133 C 
HETATM    4  C   UNL     1      -8.278   2.716 -33.611  1.00  0.00     0.074 C 
HETATM    5  C   UNL     1      -9.724   2.692 -33.236  1.00  0.00     0.030 A 
HETATM    6  C   UNL     1     -10.211   3.116 -32.021  1.00  0.00     0.042 A 
HETATM    7  N   UNL     1     -11.568   2.968 -32.058  1.00  0.00    -0.279 N 
HETATM    8  H   UNL     1     -12.252   3.178 -31.338  1.00  0.00     0.189 HD
HETATM    9  N   UNL     1     -12.008   2.532 -33.258  1.00  0.00    -0.149 NA
HETATM   10  C   UNL     1     -10.883   2.375 -33.945  1.00  0.00     0.190 A 
HETATM   11  C   UNL     1      -9.405   3.704 -30.923  1.00  0.00     0.097 C 
ENDROOT
BRANCH   4  12
HETATM   12  C   UNL     1      -7.907   1.257 -33.872  1.00  0.00    -0.048 A 
HETATM   13  C   UNL     1      -8.351   0.205 -33.045  1.00  0.00     0.009 A 
HETATM   14  C   UNL     1      -7.975  -1.116 -33.294  1.00  0.00     0.024 A 
HETATM   15  C   UNL     1      -7.150  -1.406 -34.375  1.00  0.00     0.034 A 
HETATM   16 CL   UNL     1      -6.683  -3.033 -34.680  1.00  0.00    -0.084 Cl
HETATM   17  C   UNL     1      -6.697  -0.386 -35.207  1.00  0.00     0.024 A 
HETATM   18  C   UNL     1      -7.072   0.939 -34.956  1.00  0.00     0.009 A 
ENDBRANCH   4  12
BRANCH   3  19
HETATM   19  C   UNL     1      -6.389   2.597 -31.886  1.00  0.00     0.266 C 
HETATM   20  O   UNL     1      -6.629   1.899 -30.911  1.00  0.00    -0.265 OA
BRANCH  19  21
HETATM   21  O   UNL     1      -5.182   2.677 -32.517  1.00  0.00    -0.326 OA
HETATM   22  C   UNL     1      -4.358   1.521 -32.370  1.00  0.00     0.213 C 
ENDBRANCH  19  21
ENDBRANCH   3  19
BRANCH   2  23
HETATM   23  O   UNL     1      -8.610   5.581 -32.268  1.00  0.00    -0.389 OA
HETATM   24  H   UNL     1      -9.058   5.300 -33.087  1.00  0.00     0.210 HD
ENDBRANCH   2  23
BRANCH  10  25
HETATM   25  O   UNL     1     -11.031   1.982 -35.205  1.00  0.00    -0.343 OA
HETATM   26  H   UNL     1     -10.337   1.314 -35.336  1.00  0.00     0.219 HD
ENDBRANCH  10  25
TORSDOF 5
ENDMDL
