MODEL 1
REMARK VINA RESULT:      -8.1      0.000      0.000
REMARK  5 active torsions:
REMARK  status: ('A' for Active; 'I' for Inactive)
REMARK    1  A    between atoms: C_8  and  C_9 
REMARK    2  A    between atoms: N_10  and  N_11 
REMARK       I    between atoms: N_11  and  C_12 
REMARK    3  A    between atoms: C_12  and  C_13 
REMARK    4  A    between atoms: C_13  and  N_14 
REMARK    5  A    between atoms: N_14  and  C_15 
ROOT
HETATM    1  N   UNL     1      -3.956   0.669 -32.433  1.00  0.00    -0.246 N 
HETATM    2  C   UNL     1      -3.162  -0.200 -31.672  1.00  0.00     0.250 C 
HETATM    3  O   UNL     1      -2.304   0.149 -30.863  1.00  0.00    -0.270 OA
HETATM    4  H   UNL     1      -4.159   0.365 -33.379  1.00  0.00     0.192 HD
ENDROOT
BRANCH   1   5
HETATM    5  N   UNL     1      -3.813   2.029 -32.318  1.00  0.00    -0.184 NA
HETATM    6  C   UNL     1      -4.821   2.722 -31.865  1.00  0.00     0.152 C 
BRANCH   6   7
HETATM    7  C   UNL     1      -6.185   2.257 -31.678  1.00  0.00     0.011 A 
HETATM    8  C   UNL     1      -7.126   1.741 -32.632  1.00  0.00     0.004 A 
HETATM    9  C   UNL     1      -7.114   1.537 -34.029  1.00  0.00     0.014 A 
HETATM   10  C   UNL     1      -8.285   1.400 -31.930  1.00  0.00     0.043 A 
HETATM   11  C   UNL     1      -8.225   0.966 -34.660  1.00  0.00     0.001 A 
HETATM   12  C   UNL     1      -9.351   0.610 -33.924  1.00  0.00     0.002 A 
HETATM   13  C   UNL     1      -9.405   0.828 -32.544  1.00  0.00     0.030 A 
HETATM   14  N   UNL     1      -8.075   1.735 -30.613  1.00  0.00    -0.364 N 
HETATM   15  H   UNL     1      -8.749   1.596 -29.873  1.00  0.00     0.165 HD
HETATM   16  C   UNL     1      -6.835   2.290 -30.458  1.00  0.00     0.102 A 
ENDBRANCH   6   7
ENDBRANCH   1   5
BRANCH   2  17
HETATM   17  C   UNL     1      -3.488  -1.670 -31.976  1.00  0.00     0.197 C 
BRANCH  17  18
HETATM   18  N   UNL     1      -3.502  -1.931 -33.419  1.00  0.00    -0.283 NA
HETATM   19  H   UNL     1      -3.240  -1.103 -33.961  1.00  0.00     0.128 HD
BRANCH  18  20
HETATM   20  C   UNL     1      -4.621  -2.593 -33.951  1.00  0.00     0.030 A 
HETATM   21  C   UNL     1      -4.594  -3.980 -34.203  1.00  0.00     0.055 A 
HETATM   22 CL   UNL     1      -3.145  -4.894 -33.958  1.00  0.00    -0.082 Cl
HETATM   23  C   UNL     1      -5.720  -4.653 -34.689  1.00  0.00     0.026 A 
HETATM   24  C   UNL     1      -6.906  -3.955 -34.909  1.00  0.00     0.002 A 
HETATM   25  C   UNL     1      -6.965  -2.592 -34.637  1.00  0.00     0.002 A 
HETATM   26  C   UNL     1      -5.836  -1.921 -34.156  1.00  0.00     0.025 A 
ENDBRANCH  18  20
ENDBRANCH  17  18
ENDBRANCH   2  17
TORSDOF 5
ENDMDL
MODEL 2
REMARK VINA RESULT:      -7.9      1.724      2.264
REMARK  5 active torsions:
REMARK  status: ('A' for Active; 'I' for Inactive)
REMARK    1  A    between atoms: C_8  and  C_9 
REMARK    2  A    between atoms: N_10  and  N_11 
REMARK       I    between atoms: N_11  and  C_12 
REMARK    3  A    between atoms: C_12  and  C_13 
REMARK    4  A    between atoms: C_13  and  N_14 
REMARK    5  A    between atoms: N_14  and  C_15 
ROOT
HETATM    1  N   UNL     1      -4.842  -0.040 -31.212  1.00  0.00    -0.246 N 
HETATM    2  C   UNL     1      -3.480  -0.103 -31.534  1.00  0.00     0.250 C 
HETATM    3  O   UNL     1      -2.574   0.429 -30.893  1.00  0.00    -0.270 OA
HETATM    4  H   UNL     1      -5.478   0.026 -31.999  1.00  0.00     0.192 HD
ENDROOT
BRANCH   1   5
HETATM    5  N   UNL     1      -5.269   0.657 -30.110  1.00  0.00    -0.184 NA
HETATM    6  C   UNL     1      -6.279   1.472 -30.245  1.00  0.00     0.152 C 
BRANCH   6   7
HETATM    7  C   UNL     1      -6.876   1.921 -31.492  1.00  0.00     0.011 A 
HETATM    8  C   UNL     1      -8.035   1.440 -32.189  1.00  0.00     0.004 A 
HETATM    9  C   UNL     1      -8.959   0.392 -31.977  1.00  0.00     0.014 A 
HETATM   10  C   UNL     1      -8.203   2.242 -33.320  1.00  0.00     0.043 A 
HETATM   11  C   UNL     1     -10.027   0.214 -32.863  1.00  0.00     0.001 A 
HETATM   12  C   UNL     1     -10.180   1.053 -33.964  1.00  0.00     0.002 A 
HETATM   13  C   UNL     1      -9.266   2.079 -34.217  1.00  0.00     0.030 A 
HETATM   14  N   UNL     1      -7.165   3.144 -33.336  1.00  0.00    -0.364 N 
HETATM   15  H   UNL     1      -7.034   3.853 -34.043  1.00  0.00     0.165 HD
HETATM   16  C   UNL     1      -6.339   2.932 -32.267  1.00  0.00     0.102 A 
ENDBRANCH   6   7
ENDBRANCH   1   5
BRANCH   2  17
HETATM   17  C   UNL     1      -3.242  -0.923 -32.811  1.00  0.00     0.197 C 
BRANCH  17  18
HETATM   18  N   UNL     1      -4.445  -0.977 -33.648  1.00  0.00    -0.283 NA
HETATM   19  H   UNL     1      -5.182  -0.357 -33.300  1.00  0.00     0.128 HD
BRANCH  18  20
HETATM   20  C   UNL     1      -4.931  -2.245 -34.010  1.00  0.00     0.030 A 
HETATM   21  C   UNL     1      -6.188  -2.392 -34.631  1.00  0.00     0.055 A 
HETATM   22 CL   UNL     1      -7.218  -1.023 -34.877  1.00  0.00    -0.082 Cl
HETATM   23  C   UNL     1      -6.656  -3.646 -35.036  1.00  0.00     0.026 A 
HETATM   24  C   UNL     1      -5.865  -4.778 -34.849  1.00  0.00     0.002 A 
HETATM   25  C   UNL     1      -4.607  -4.652 -34.267  1.00  0.00     0.002 A 
HETATM   26  C   UNL     1      -4.143  -3.397 -33.860  1.00  0.00     0.025 A 
ENDBRANCH  18  20
ENDBRANCH  17  18
ENDBRANCH   2  17
TORSDOF 5
ENDMDL
MODEL 3
REMARK VINA RESULT:      -7.8      2.556      4.144
REMARK  5 active torsions:
REMARK  status: ('A' for Active; 'I' for Inactive)
REMARK    1  A    between atoms: C_8  and  C_9 
REMARK    2  A    between atoms: N_10  and  N_11 
REMARK       I    between atoms: N_11  and  C_12 
REMARK    3  A    between atoms: C_12  and  C_13 
REMARK    4  A    between atoms: C_13  and  N_14 
REMARK    5  A    between atoms: N_14  and  C_15 
ROOT
HETATM    1  N   UNL     1      -4.496   1.026 -31.737  1.00  0.00    -0.246 N 
HETATM    2  C   UNL     1      -3.329   0.251 -31.786  1.00  0.00     0.250 C 
HETATM    3  O   UNL     1      -2.448   0.242 -30.928  1.00  0.00    -0.270 OA
HETATM    4  H   UNL     1      -4.814   1.400 -32.625  1.00  0.00     0.192 HD
ENDROOT
BRANCH   1   5
HETATM    5  N   UNL     1      -4.735   1.866 -30.679  1.00  0.00    -0.184 NA
HETATM    6  C   UNL     1      -5.046   3.107 -30.930  1.00  0.00     0.152 C 
BRANCH   6   7
HETATM    7  C   UNL     1      -4.944   3.789 -32.210  1.00  0.00     0.011 A 
HETATM    8  C   UNL     1      -3.790   4.281 -32.908  1.00  0.00     0.004 A 
HETATM    9  C   UNL     1      -2.406   4.331 -32.629  1.00  0.00     0.014 A 
HETATM   10  C   UNL     1      -4.234   4.820 -34.118  1.00  0.00     0.043 A 
HETATM   11  C   UNL     1      -1.523   4.868 -33.573  1.00  0.00     0.001 A 
HETATM   12  C   UNL     1      -1.999   5.368 -34.781  1.00  0.00     0.002 A 
HETATM   13  C   UNL     1      -3.366   5.361 -35.074  1.00  0.00     0.030 A 
HETATM   14  N   UNL     1      -5.603   4.703 -34.136  1.00  0.00    -0.364 N 
HETATM   15  H   UNL     1      -6.194   5.009 -34.896  1.00  0.00     0.165 HD
HETATM   16  C   UNL     1      -6.045   4.125 -32.977  1.00  0.00     0.102 A 
ENDBRANCH   6   7
ENDBRANCH   1   5
BRANCH   2  17
HETATM   17  C   UNL     1      -3.272  -0.597 -33.066  1.00  0.00     0.197 C 
BRANCH  17  18
HETATM   18  N   UNL     1      -4.604  -0.777 -33.653  1.00  0.00    -0.283 NA
HETATM   19  H   UNL     1      -5.325  -0.276 -33.127  1.00  0.00     0.128 HD
BRANCH  18  20
HETATM   20  C   UNL     1      -4.994  -2.082 -33.996  1.00  0.00     0.030 A 
HETATM   21  C   UNL     1      -6.234  -2.330 -34.620  1.00  0.00     0.055 A 
HETATM   22 CL   UNL     1      -7.359  -1.044 -34.892  1.00  0.00    -0.082 Cl
HETATM   23  C   UNL     1      -6.607  -3.622 -35.006  1.00  0.00     0.026 A 
HETATM   24  C   UNL     1      -5.736  -4.690 -34.799  1.00  0.00     0.002 A 
HETATM   25  C   UNL     1      -4.494  -4.463 -34.214  1.00  0.00     0.002 A 
HETATM   26  C   UNL     1      -4.125  -3.171 -33.824  1.00  0.00     0.025 A 
ENDBRANCH  18  20
ENDBRANCH  17  18
ENDBRANCH   2  17
TORSDOF 5
ENDMDL
MODEL 4
REMARK VINA RESULT:      -7.8      2.462      5.437
REMARK  5 active torsions:
REMARK  status: ('A' for Active; 'I' for Inactive)
REMARK    1  A    between atoms: C_8  and  C_9 
REMARK    2  A    between atoms: N_10  and  N_11 
REMARK       I    between atoms: N_11  and  C_12 
REMARK    3  A    between atoms: C_12  and  C_13 
REMARK    4  A    between atoms: C_13  and  N_14 
REMARK    5  A    between atoms: N_14  and  C_15 
ROOT
HETATM    1  N   UNL     1      -4.481   0.033 -30.969  1.00  0.00    -0.246 N 
HETATM    2  C   UNL     1      -5.024   1.294 -30.690  1.00  0.00     0.250 C 
HETATM    3  O   UNL     1      -4.537   2.369 -31.037  1.00  0.00    -0.270 OA
HETATM    4  H   UNL     1      -4.575  -0.660 -30.234  1.00  0.00     0.192 HD
ENDROOT
BRANCH   1   5
HETATM    5  N   UNL     1      -3.312  -0.084 -31.679  1.00  0.00    -0.184 NA
HETATM    6  C   UNL     1      -3.377  -0.492 -32.916  1.00  0.00     0.152 C 
BRANCH   6   7
HETATM    7  C   UNL     1      -4.530  -1.072 -33.584  1.00  0.00     0.011 A 
HETATM    8  C   UNL     1      -4.795  -2.432 -33.960  1.00  0.00     0.004 A 
HETATM    9  C   UNL     1      -4.075  -3.645 -33.876  1.00  0.00     0.014 A 
HETATM   10  C   UNL     1      -6.065  -2.464 -34.539  1.00  0.00     0.043 A 
HETATM   11  C   UNL     1      -4.660  -4.835 -34.323  1.00  0.00     0.001 A 
HETATM   12  C   UNL     1      -5.941  -4.833 -34.866  1.00  0.00     0.002 A 
HETATM   13  C   UNL     1      -6.666  -3.644 -34.992  1.00  0.00     0.030 A 
HETATM   14  N   UNL     1      -6.536  -1.172 -34.556  1.00  0.00    -0.364 N 
HETATM   15  H   UNL     1      -7.438  -0.896 -34.917  1.00  0.00     0.165 HD
HETATM   16  C   UNL     1      -5.605  -0.322 -34.024  1.00  0.00     0.102 A 
ENDBRANCH   6   7
ENDBRANCH   1   5
BRANCH   2  17
HETATM   17  C   UNL     1      -6.321   1.179 -29.875  1.00  0.00     0.197 C 
BRANCH  17  18
HETATM   18  N   UNL     1      -7.358   2.084 -30.382  1.00  0.00    -0.283 NA
HETATM   19  H   UNL     1      -7.982   2.406 -29.637  1.00  0.00     0.128 HD
BRANCH  18  20
HETATM   20  C   UNL     1      -8.053   1.696 -31.539  1.00  0.00     0.030 A 
HETATM   21  C   UNL     1      -7.954   2.440 -32.732  1.00  0.00     0.055 A 
HETATM   22 CL   UNL     1      -7.050   3.915 -32.780  1.00  0.00    -0.082 Cl
HETATM   23  C   UNL     1      -8.607   2.033 -33.900  1.00  0.00     0.026 A 
HETATM   24  C   UNL     1      -9.353   0.856 -33.906  1.00  0.00     0.002 A 
HETATM   25  C   UNL     1      -9.439   0.088 -32.748  1.00  0.00     0.002 A 
HETATM   26  C   UNL     1      -8.788   0.500 -31.581  1.00  0.00     0.025 A 
ENDBRANCH  18  20
ENDBRANCH  17  18
ENDBRANCH   2  17
TORSDOF 5
ENDMDL
MODEL 5
REMARK VINA RESULT:      -7.5      3.723      6.736
REMARK  5 active torsions:
REMARK  status: ('A' for Active; 'I' for Inactive)
REMARK    1  A    between atoms: C_8  and  C_9 
REMARK    2  A    between atoms: N_10  and  N_11 
REMARK       I    between atoms: N_11  and  C_12 
REMARK    3  A    between atoms: C_12  and  C_13 
REMARK    4  A    between atoms: C_13  and  N_14 
REMARK    5  A    between atoms: N_14  and  C_15 
ROOT
HETATM    1  N   UNL     1      -5.037   2.446 -30.870  1.00  0.00    -0.246 N 
HETATM    2  C   UNL     1      -3.747   2.315 -31.405  1.00  0.00     0.250 C 
HETATM    3  O   UNL     1      -2.889   1.532 -31.002  1.00  0.00    -0.270 OA
HETATM    4  H   UNL     1      -5.407   3.390 -30.841  1.00  0.00     0.192 HD
ENDROOT
BRANCH   1   5
HETATM    5  N   UNL     1      -5.435   1.674 -29.808  1.00  0.00    -0.184 NA
HETATM    6  C   UNL     1      -6.109   0.584 -30.054  1.00  0.00     0.152 C 
BRANCH   6   7
HETATM    7  C   UNL     1      -6.704   0.193 -31.321  1.00  0.00     0.011 A 
HETATM    8  C   UNL     1      -6.163  -0.589 -32.396  1.00  0.00     0.004 A 
HETATM    9  C   UNL     1      -4.917  -1.205 -32.647  1.00  0.00     0.014 A 
HETATM   10  C   UNL     1      -7.159  -0.706 -33.368  1.00  0.00     0.043 A 
HETATM   11  C   UNL     1      -4.728  -1.943 -33.821  1.00  0.00     0.001 A 
HETATM   12  C   UNL     1      -5.754  -2.064 -34.753  1.00  0.00     0.002 A 
HETATM   13  C   UNL     1      -6.988  -1.440 -34.548  1.00  0.00     0.030 A 
HETATM   14  N   UNL     1      -8.244   0.012 -32.925  1.00  0.00    -0.364 N 
HETATM   15  H   UNL     1      -9.116   0.100 -33.428  1.00  0.00     0.165 HD
HETATM   16  C   UNL     1      -7.968   0.592 -31.717  1.00  0.00     0.102 A 
ENDBRANCH   6   7
ENDBRANCH   1   5
BRANCH   2  17
HETATM   17  C   UNL     1      -3.523   3.288 -32.573  1.00  0.00     0.197 C 
BRANCH  17  18
HETATM   18  N   UNL     1      -2.160   3.829 -32.569  1.00  0.00    -0.283 NA
HETATM   19  H   UNL     1      -1.539   3.297 -31.953  1.00  0.00     0.128 HD
BRANCH  18  20
HETATM   20  C   UNL     1      -2.010   5.218 -32.420  1.00  0.00     0.030 A 
HETATM   21  C   UNL     1      -1.621   6.028 -33.505  1.00  0.00     0.055 A 
HETATM   22 CL   UNL     1      -1.218   5.324 -35.034  1.00  0.00    -0.082 Cl
HETATM   23  C   UNL     1      -1.516   7.417 -33.374  1.00  0.00     0.026 A 
HETATM   24  C   UNL     1      -1.823   8.027 -32.159  1.00  0.00     0.002 A 
HETATM   25  C   UNL     1      -2.240   7.249 -31.083  1.00  0.00     0.002 A 
HETATM   26  C   UNL     1      -2.340   5.860 -31.216  1.00  0.00     0.025 A 
ENDBRANCH  18  20
ENDBRANCH  17  18
ENDBRANCH   2  17
TORSDOF 5
ENDMDL
MODEL 6
REMARK VINA RESULT:      -7.4      2.420      4.141
REMARK  5 active torsions:
REMARK  status: ('A' for Active; 'I' for Inactive)
REMARK    1  A    between atoms: C_8  and  C_9 
REMARK    2  A    between atoms: N_10  and  N_11 
REMARK       I    between atoms: N_11  and  C_12 
REMARK    3  A    between atoms: C_12  and  C_13 
REMARK    4  A    between atoms: C_13  and  N_14 
REMARK    5  A    between atoms: N_14  and  C_15 
ROOT
HETATM    1  N   UNL     1      -6.999   1.857 -33.187  1.00  0.00    -0.246 N 
HETATM    2  C   UNL     1      -6.651   0.553 -32.806  1.00  0.00     0.250 C 
HETATM    3  O   UNL     1      -6.752   0.097 -31.668  1.00  0.00    -0.270 OA
HETATM    4  H   UNL     1      -6.396   2.289 -33.879  1.00  0.00     0.192 HD
ENDROOT
BRANCH   1   5
HETATM    5  N   UNL     1      -7.494   2.746 -32.267  1.00  0.00    -0.184 NA
HETATM    6  C   UNL     1      -6.689   3.653 -31.787  1.00  0.00     0.152 C 
BRANCH   6   7
HETATM    7  C   UNL     1      -5.243   3.698 -31.929  1.00  0.00     0.011 A 
HETATM    8  C   UNL     1      -4.434   4.224 -32.992  1.00  0.00     0.004 A 
HETATM    9  C   UNL     1      -4.702   4.821 -34.244  1.00  0.00     0.014 A 
HETATM   10  C   UNL     1      -3.098   4.056 -32.620  1.00  0.00     0.043 A 
HETATM   11  C   UNL     1      -3.645   5.264 -35.046  1.00  0.00     0.001 A 
HETATM   12  C   UNL     1      -2.326   5.107 -34.629  1.00  0.00     0.002 A 
HETATM   13  C   UNL     1      -2.027   4.493 -33.410  1.00  0.00     0.030 A 
HETATM   14  N   UNL     1      -3.093   3.415 -31.404  1.00  0.00    -0.364 N 
HETATM   15  H   UNL     1      -2.259   3.166 -30.891  1.00  0.00     0.165 HD
HETATM   16  C   UNL     1      -4.374   3.156 -31.000  1.00  0.00     0.102 A 
ENDBRANCH   6   7
ENDBRANCH   1   5
BRANCH   2  17
HETATM   17  C   UNL     1      -6.109  -0.254 -33.995  1.00  0.00     0.197 C 
BRANCH  17  18
HETATM   18  N   UNL     1      -4.833  -0.900 -33.671  1.00  0.00    -0.283 NA
HETATM   19  H   UNL     1      -4.035  -0.385 -34.055  1.00  0.00     0.128 HD
BRANCH  18  20
HETATM   20  C   UNL     1      -4.732  -2.286 -33.878  1.00  0.00     0.030 A 
HETATM   21  C   UNL     1      -3.880  -3.079 -33.084  1.00  0.00     0.055 A 
HETATM   22 CL   UNL     1      -2.852  -2.356 -31.894  1.00  0.00    -0.082 Cl
HETATM   23  C   UNL     1      -3.811  -4.466 -33.254  1.00  0.00     0.026 A 
HETATM   24  C   UNL     1      -4.614  -5.091 -34.206  1.00  0.00     0.002 A 
HETATM   25  C   UNL     1      -5.487  -4.331 -34.979  1.00  0.00     0.002 A 
HETATM   26  C   UNL     1      -5.550  -2.944 -34.810  1.00  0.00     0.025 A 
ENDBRANCH  18  20
ENDBRANCH  17  18
ENDBRANCH   2  17
TORSDOF 5
ENDMDL
MODEL 7
REMARK VINA RESULT:      -7.3      3.720      6.686
REMARK  5 active torsions:
REMARK  status: ('A' for Active; 'I' for Inactive)
REMARK    1  A    between atoms: C_8  and  C_9 
REMARK    2  A    between atoms: N_10  and  N_11 
REMARK       I    between atoms: N_11  and  C_12 
REMARK    3  A    between atoms: C_12  and  C_13 
REMARK    4  A    between atoms: C_13  and  N_14 
REMARK    5  A    between atoms: N_14  and  C_15 
ROOT
HETATM    1  N   UNL     1      -5.995   2.520 -32.189  1.00  0.00    -0.246 N 
HETATM    2  C   UNL     1      -6.766   3.421 -32.938  1.00  0.00     0.250 C 
HETATM    3  O   UNL     1      -7.915   3.765 -32.667  1.00  0.00    -0.270 OA
HETATM    4  H   UNL     1      -5.398   1.900 -32.726  1.00  0.00     0.192 HD
ENDROOT
BRANCH   1   5
HETATM    5  N   UNL     1      -6.504   1.936 -31.057  1.00  0.00    -0.184 NA
HETATM    6  C   UNL     1      -6.070   0.752 -30.721  1.00  0.00     0.152 C 
BRANCH   6   7
HETATM    7  C   UNL     1      -5.270  -0.146 -31.537  1.00  0.00     0.011 A 
HETATM    8  C   UNL     1      -5.638  -0.938 -32.676  1.00  0.00     0.004 A 
HETATM    9  C   UNL     1      -6.842  -1.172 -33.377  1.00  0.00     0.014 A 
HETATM   10  C   UNL     1      -4.486  -1.594 -33.117  1.00  0.00     0.043 A 
HETATM   11  C   UNL     1      -6.844  -2.004 -34.502  1.00  0.00     0.001 A 
HETATM   12  C   UNL     1      -5.670  -2.617 -34.930  1.00  0.00     0.002 A 
HETATM   13  C   UNL     1      -4.469  -2.429 -34.240  1.00  0.00     0.030 A 
HETATM   14  N   UNL     1      -3.470  -1.252 -32.255  1.00  0.00    -0.364 N 
HETATM   15  H   UNL     1      -2.518  -1.580 -32.335  1.00  0.00     0.165 HD
HETATM   16  C   UNL     1      -3.939  -0.418 -31.278  1.00  0.00     0.102 A 
ENDBRANCH   6   7
ENDBRANCH   1   5
BRANCH   2  17
HETATM   17  C   UNL     1      -5.997   3.933 -34.164  1.00  0.00     0.197 C 
BRANCH  17  18
HETATM   18  N   UNL     1      -5.404   5.251 -33.917  1.00  0.00    -0.283 NA
HETATM   19  H   UNL     1      -5.793   5.968 -34.537  1.00  0.00     0.128 HD
BRANCH  18  20
HETATM   20  C   UNL     1      -4.006   5.328 -33.811  1.00  0.00     0.030 A 
HETATM   21  C   UNL     1      -3.372   5.360 -32.553  1.00  0.00     0.055 A 
HETATM   22 CL   UNL     1      -4.304   5.405 -31.095  1.00  0.00    -0.082 Cl
HETATM   23  C   UNL     1      -1.978   5.389 -32.441  1.00  0.00     0.026 A 
HETATM   24  C   UNL     1      -1.188   5.362 -33.588  1.00  0.00     0.002 A 
HETATM   25  C   UNL     1      -1.791   5.299 -34.841  1.00  0.00     0.002 A 
HETATM   26  C   UNL     1      -3.185   5.274 -34.949  1.00  0.00     0.025 A 
ENDBRANCH  18  20
ENDBRANCH  17  18
ENDBRANCH   2  17
TORSDOF 5
ENDMDL
MODEL 8
REMARK VINA RESULT:      -7.1      3.820      7.084
REMARK  5 active torsions:
REMARK  status: ('A' for Active; 'I' for Inactive)
REMARK    1  A    between atoms: C_8  and  C_9 
REMARK    2  A    between atoms: N_10  and  N_11 
REMARK       I    between atoms: N_11  and  C_12 
REMARK    3  A    between atoms: C_12  and  C_13 
REMARK    4  A    between atoms: C_13  and  N_14 
REMARK    5  A    between atoms: N_14  and  C_15 
ROOT
HETATM    1  N   UNL     1      -4.975   2.526 -31.888  1.00  0.00    -0.246 N 
HETATM    2  C   UNL     1      -5.205   3.837 -32.329  1.00  0.00     0.250 C 
HETATM    3  O   UNL     1      -6.114   4.567 -31.936  1.00  0.00    -0.270 OA
HETATM    4  H   UNL     1      -4.654   1.874 -32.597  1.00  0.00     0.192 HD
ENDROOT
BRANCH   1   5
HETATM    5  N   UNL     1      -5.792   1.949 -30.949  1.00  0.00    -0.184 NA
HETATM    6  C   UNL     1      -5.704   0.662 -30.758  1.00  0.00     0.152 C 
BRANCH   6   7
HETATM    7  C   UNL     1      -4.998  -0.297 -31.591  1.00  0.00     0.011 A 
HETATM    8  C   UNL     1      -5.452  -1.044 -32.731  1.00  0.00     0.004 A 
HETATM    9  C   UNL     1      -6.683  -1.165 -33.413  1.00  0.00     0.014 A 
HETATM   10  C   UNL     1      -4.370  -1.796 -33.193  1.00  0.00     0.043 A 
HETATM   11  C   UNL     1      -6.775  -1.985 -34.544  1.00  0.00     0.001 A 
HETATM   12  C   UNL     1      -5.667  -2.695 -34.995  1.00  0.00     0.002 A 
HETATM   13  C   UNL     1      -4.444  -2.620 -34.323  1.00  0.00     0.030 A 
HETATM   14  N   UNL     1      -3.315  -1.552 -32.346  1.00  0.00    -0.364 N 
HETATM   15  H   UNL     1      -2.396  -1.962 -32.443  1.00  0.00     0.165 HD
HETATM   16  C   UNL     1      -3.693  -0.688 -31.356  1.00  0.00     0.102 A 
ENDBRANCH   6   7
ENDBRANCH   1   5
BRANCH   2  17
HETATM   17  C   UNL     1      -4.176   4.263 -33.387  1.00  0.00     0.197 C 
BRANCH  17  18
HETATM   18  N   UNL     1      -2.813   3.897 -32.990  1.00  0.00    -0.283 NA
HETATM   19  H   UNL     1      -2.790   3.021 -32.461  1.00  0.00     0.128 HD
BRANCH  18  20
HETATM   20  C   UNL     1      -2.010   4.896 -32.416  1.00  0.00     0.030 A 
HETATM   21  C   UNL     1      -1.232   5.754 -33.219  1.00  0.00     0.055 A 
HETATM   22 CL   UNL     1      -1.164   5.539 -34.935  1.00  0.00    -0.082 Cl
HETATM   23  C   UNL     1      -0.467   6.782 -32.656  1.00  0.00     0.026 A 
HETATM   24  C   UNL     1      -0.485   6.987 -31.278  1.00  0.00     0.002 A 
HETATM   25  C   UNL     1      -1.271   6.172 -30.469  1.00  0.00     0.002 A 
HETATM   26  C   UNL     1      -2.031   5.143 -31.034  1.00  0.00     0.025 A 
ENDBRANCH  18  20
ENDBRANCH  17  18
ENDBRANCH   2  17
TORSDOF 5
ENDMDL
MODEL 9
REMARK VINA RESULT:      -7.1      4.718      7.115
REMARK  5 active torsions:
REMARK  status: ('A' for Active; 'I' for Inactive)
REMARK    1  A    between atoms: C_8  and  C_9 
REMARK    2  A    between atoms: N_10  and  N_11 
REMARK       I    between atoms: N_11  and  C_12 
REMARK    3  A    between atoms: C_12  and  C_13 
REMARK    4  A    between atoms: C_13  and  N_14 
REMARK    5  A    between atoms: N_14  and  C_15 
ROOT
HETATM    1  N   UNL     1      -2.999   4.401 -33.725  1.00  0.00    -0.246 N 
HETATM    2  C   UNL     1      -4.392   4.441 -33.880  1.00  0.00     0.250 C 
HETATM    3  O   UNL     1      -4.984   4.918 -34.847  1.00  0.00    -0.270 OA
HETATM    4  H   UNL     1      -2.657   4.546 -32.781  1.00  0.00     0.192 HD
ENDROOT
BRANCH   1   5
HETATM    5  N   UNL     1      -2.173   4.922 -34.689  1.00  0.00    -0.184 NA
HETATM    6  C   UNL     1      -1.324   5.849 -34.341  1.00  0.00     0.152 C 
BRANCH   6   7
HETATM    7  C   UNL     1      -1.299   6.582 -33.086  1.00  0.00     0.011 A 
HETATM    8  C   UNL     1      -0.665   6.262 -31.839  1.00  0.00     0.004 A 
HETATM    9  C   UNL     1       0.092   5.169 -31.361  1.00  0.00     0.014 A 
HETATM   10  C   UNL     1      -0.915   7.319 -30.961  1.00  0.00     0.043 A 
HETATM   11  C   UNL     1       0.604   5.192 -30.059  1.00  0.00     0.001 A 
HETATM   12  C   UNL     1       0.362   6.278 -29.223  1.00  0.00     0.002 A 
HETATM   13  C   UNL     1      -0.410   7.360 -29.656  1.00  0.00     0.030 A 
HETATM   14  N   UNL     1      -1.704   8.224 -31.630  1.00  0.00    -0.364 N 
HETATM   15  H   UNL     1      -2.038   9.093 -31.238  1.00  0.00     0.165 HD
HETATM   16  C   UNL     1      -1.977   7.772 -32.892  1.00  0.00     0.102 A 
ENDBRANCH   6   7
ENDBRANCH   1   5
BRANCH   2  17
HETATM   17  C   UNL     1      -5.109   3.814 -32.675  1.00  0.00     0.197 C 
BRANCH  17  18
HETATM   18  N   UNL     1      -6.012   2.733 -33.087  1.00  0.00    -0.283 NA
HETATM   19  H   UNL     1      -6.940   2.830 -32.667  1.00  0.00     0.128 HD
BRANCH  18  20
HETATM   20  C   UNL     1      -5.524   1.418 -33.025  1.00  0.00     0.030 A 
HETATM   21  C   UNL     1      -5.992   0.426 -33.911  1.00  0.00     0.055 A 
HETATM   22 CL   UNL     1      -7.257   0.776 -35.040  1.00  0.00    -0.082 Cl
HETATM   23  C   UNL     1      -5.477  -0.874 -33.885  1.00  0.00     0.026 A 
HETATM   24  C   UNL     1      -4.463  -1.203 -32.987  1.00  0.00     0.002 A 
HETATM   25  C   UNL     1      -3.964  -0.231 -32.124  1.00  0.00     0.002 A 
HETATM   26  C   UNL     1      -4.484   1.067 -32.150  1.00  0.00     0.025 A 
ENDBRANCH  18  20
ENDBRANCH  17  18
ENDBRANCH   2  17
TORSDOF 5
ENDMDL
MODEL 10
REMARK VINA RESULT:      -7.0      3.606      5.545
REMARK  5 active torsions:
REMARK  status: ('A' for Active; 'I' for Inactive)
REMARK    1  A    between atoms: C_8  and  C_9 
REMARK    2  A    between atoms: N_10  and  N_11 
REMARK       I    between atoms: N_11  and  C_12 
REMARK    3  A    between atoms: C_12  and  C_13 
REMARK    4  A    between atoms: C_13  and  N_14 
REMARK    5  A    between atoms: N_14  and  C_15 
ROOT
HETATM    1  N   UNL     1      -5.604   3.508 -32.181  1.00  0.00    -0.246 N 
HETATM    2  C   UNL     1      -5.730   2.332 -32.934  1.00  0.00     0.250 C 
HETATM    3  O   UNL     1      -6.523   2.164 -33.859  1.00  0.00    -0.270 OA
HETATM    4  H   UNL     1      -5.411   3.380 -31.194  1.00  0.00     0.192 HD
ENDROOT
BRANCH   1   5
HETATM    5  N   UNL     1      -6.402   4.594 -32.441  1.00  0.00    -0.184 NA
HETATM    6  C   UNL     1      -5.959   5.506 -33.262  1.00  0.00     0.152 C 
BRANCH   6   7
HETATM    7  C   UNL     1      -4.604   5.638 -33.770  1.00  0.00     0.011 A 
HETATM    8  C   UNL     1      -3.471   6.327 -33.218  1.00  0.00     0.004 A 
HETATM    9  C   UNL     1      -3.255   7.124 -32.072  1.00  0.00     0.014 A 
HETATM   10  C   UNL     1      -2.393   6.111 -34.080  1.00  0.00     0.043 A 
HETATM   11  C   UNL     1      -1.978   7.631 -31.807  1.00  0.00     0.001 A 
HETATM   12  C   UNL     1      -0.919   7.370 -32.673  1.00  0.00     0.002 A 
HETATM   13  C   UNL     1      -1.109   6.610 -33.831  1.00  0.00     0.030 A 
HETATM   14  N   UNL     1      -2.860   5.361 -35.133  1.00  0.00    -0.364 N 
HETATM   15  H   UNL     1      -2.293   5.051 -35.910  1.00  0.00     0.165 HD
HETATM   16  C   UNL     1      -4.195   5.108 -34.980  1.00  0.00     0.102 A 
ENDBRANCH   6   7
ENDBRANCH   1   5
BRANCH   2  17
HETATM   17  C   UNL     1      -4.747   1.253 -32.456  1.00  0.00     0.197 C 
BRANCH  17  18
HETATM   18  N   UNL     1      -5.443   0.011 -32.099  1.00  0.00    -0.283 NA
HETATM   19  H   UNL     1      -5.220  -0.292 -31.147  1.00  0.00     0.128 HD
BRANCH  18  20
HETATM   20  C   UNL     1      -5.409  -1.044 -33.025  1.00  0.00     0.030 A 
HETATM   21  C   UNL     1      -4.330  -1.951 -33.056  1.00  0.00     0.055 A 
HETATM   22 CL   UNL     1      -2.962  -1.732 -32.019  1.00  0.00    -0.082 Cl
HETATM   23  C   UNL     1      -4.314  -3.031 -33.944  1.00  0.00     0.026 A 
HETATM   24  C   UNL     1      -5.390  -3.242 -34.804  1.00  0.00     0.002 A 
HETATM   25  C   UNL     1      -6.481  -2.378 -34.768  1.00  0.00     0.002 A 
HETATM   26  C   UNL     1      -6.492  -1.296 -33.882  1.00  0.00     0.025 A 
ENDBRANCH  18  20
ENDBRANCH  17  18
ENDBRANCH   2  17
TORSDOF 5
ENDMDL
