MODEL 1
REMARK VINA RESULT:     -11.0      0.000      0.000
REMARK  6 active torsions:
REMARK  status: ('A' for Active; 'I' for Inactive)
REMARK    1  A    between atoms: C_4  and  C_5 
REMARK    2  A    between atoms: C_5  and  N_6 
REMARK       I    between atoms: N_6  and  C_7 
REMARK    3  A    between atoms: C_7  and  C_8 
REMARK    4  A    between atoms: C_9  and  N_10 
REMARK    5  A    between atoms: N_11  and  N_12 
REMARK    6  A    between atoms: C_13  and  C_14 
ROOT
HETATM    1  C   UNL     1      -7.463   3.137 -33.184  1.00  0.00     0.104 C 
HETATM    2  C   UNL     1      -6.844   2.267 -32.293  1.00  0.00     0.123 C 
HETATM    3  N   UNL     1      -7.446   1.022 -32.474  1.00  0.00    -0.202 N 
HETATM    4  C   UNL     1      -8.733   1.261 -32.911  1.00  0.00     0.183 A 
HETATM    5  C   UNL     1      -8.734   2.552 -33.447  1.00  0.00     0.124 A 
HETATM    6  N   UNL     1      -9.816   3.024 -34.117  1.00  0.00    -0.242 NA
HETATM    7  C   UNL     1     -10.875   2.195 -34.138  1.00  0.00     0.086 A 
HETATM    8  C   UNL     1     -10.854   0.903 -33.547  1.00  0.00     0.088 A 
HETATM    9  N   UNL     1      -9.766   0.391 -32.952  1.00  0.00    -0.225 NA
HETATM   10  C   UNL     1     -12.041   2.629 -34.755  1.00  0.00     0.034 A 
HETATM   11  C   UNL     1     -13.190   1.837 -34.786  1.00  0.00     0.002 A 
HETATM   12  C   UNL     1     -13.176   0.584 -34.191  1.00  0.00     0.002 A 
HETATM   13  C   UNL     1     -12.006   0.127 -33.583  1.00  0.00     0.034 A 
ENDROOT
BRANCH   3  14
HETATM   14  N   UNL     1      -6.843  -0.211 -32.353  1.00  0.00    -0.176 NA
HETATM   15  C   UNL     1      -5.822  -0.317 -33.145  1.00  0.00     0.153 C 
BRANCH  15  16
HETATM   16  C   UNL     1      -5.040  -1.522 -33.263  1.00  0.00     0.011 A 
HETATM   17  C   UNL     1      -5.420  -2.691 -33.996  1.00  0.00     0.004 A 
HETATM   18  C   UNL     1      -4.455  -3.665 -33.752  1.00  0.00     0.043 A 
HETATM   19  C   UNL     1      -6.514  -3.018 -34.830  1.00  0.00     0.014 A 
HETATM   20  C   UNL     1      -4.538  -4.958 -34.284  1.00  0.00     0.030 A 
HETATM   21  N   UNL     1      -3.504  -3.096 -32.934  1.00  0.00    -0.364 N 
HETATM   22  C   UNL     1      -5.631  -5.258 -35.101  1.00  0.00     0.002 A 
HETATM   23  C   UNL     1      -6.604  -4.301 -35.379  1.00  0.00     0.001 A 
HETATM   24  H   UNL     1      -2.689  -3.577 -32.582  1.00  0.00     0.165 HD
HETATM   25  C   UNL     1      -3.836  -1.797 -32.649  1.00  0.00     0.102 A 
ENDBRANCH  15  16
ENDBRANCH   3  14
BRANCH   2  26
HETATM   26  N   UNL     1      -5.747   2.428 -31.488  1.00  0.00    -0.286 NA
HETATM   27  H   UNL     1      -5.875   3.020 -30.662  1.00  0.00     0.125 HD
HETATM   28  H   UNL     1      -5.263   1.568 -31.210  1.00  0.00     0.125 HD
ENDBRANCH   2  26
BRANCH   1  29
HETATM   29  C   UNL     1      -6.870   4.362 -33.714  1.00  0.00     0.257 C 
HETATM   30  N   UNL     1      -5.490   4.329 -33.681  1.00  0.00    -0.352 N 
HETATM   31  H   UNL     1      -5.091   3.432 -33.441  1.00  0.00     0.163 HD
HETATM   32  O   UNL     1      -7.508   5.276 -34.219  1.00  0.00    -0.267 OA
BRANCH  30  33
HETATM   33  C   UNL     1      -4.656   5.220 -34.448  1.00  0.00     0.161 C 
BRANCH  33  34
HETATM   34  C   UNL     1      -3.280   5.443 -33.850  1.00  0.00    -0.041 A 
HETATM   35  C   UNL     1      -2.390   6.447 -34.270  1.00  0.00     0.009 A 
HETATM   36  C   UNL     1      -1.140   6.606 -33.664  1.00  0.00     0.001 A 
HETATM   37  C   UNL     1      -0.761   5.771 -32.618  1.00  0.00     0.000 A 
HETATM   38  C   UNL     1      -1.635   4.783 -32.172  1.00  0.00     0.001 A 
HETATM   39  C   UNL     1      -2.884   4.623 -32.779  1.00  0.00     0.009 A 
ENDBRANCH  33  34
ENDBRANCH  30  33
ENDBRANCH   1  29
TORSDOF 6
ENDMDL
MODEL 2
REMARK VINA RESULT:     -11.0      1.781      6.306
REMARK  6 active torsions:
REMARK  status: ('A' for Active; 'I' for Inactive)
REMARK    1  A    between atoms: C_4  and  C_5 
REMARK    2  A    between atoms: C_5  and  N_6 
REMARK       I    between atoms: N_6  and  C_7 
REMARK    3  A    between atoms: C_7  and  C_8 
REMARK    4  A    between atoms: C_9  and  N_10 
REMARK    5  A    between atoms: N_11  and  N_12 
REMARK    6  A    between atoms: C_13  and  C_14 
ROOT
HETATM    1  C   UNL     1      -4.819   1.072 -32.851  1.00  0.00     0.104 C 
HETATM    2  C   UNL     1      -5.886   1.856 -33.272  1.00  0.00     0.123 C 
HETATM    3  N   UNL     1      -6.969   0.993 -33.439  1.00  0.00    -0.202 N 
HETATM    4  C   UNL     1      -6.447  -0.244 -33.757  1.00  0.00     0.183 A 
HETATM    5  C   UNL     1      -5.125  -0.242 -33.307  1.00  0.00     0.124 A 
HETATM    6  N   UNL     1      -4.386  -1.381 -33.319  1.00  0.00    -0.242 NA
HETATM    7  C   UNL     1      -4.997  -2.446 -33.866  1.00  0.00     0.086 A 
HETATM    8  C   UNL     1      -6.333  -2.404 -34.352  1.00  0.00     0.088 A 
HETATM    9  N   UNL     1      -7.102  -1.308 -34.274  1.00  0.00    -0.225 NA
HETATM   10  C   UNL     1      -4.288  -3.636 -33.968  1.00  0.00     0.034 A 
HETATM   11  C   UNL     1      -4.845  -4.773 -34.555  1.00  0.00     0.002 A 
HETATM   12  C   UNL     1      -6.140  -4.724 -35.048  1.00  0.00     0.002 A 
HETATM   13  C   UNL     1      -6.873  -3.543 -34.937  1.00  0.00     0.034 A 
ENDROOT
BRANCH   3  14
HETATM   14  N   UNL     1      -8.297   1.284 -33.217  1.00  0.00    -0.176 NA
HETATM   15  C   UNL     1      -8.843   1.832 -34.258  1.00  0.00     0.153 C 
BRANCH  15  16
HETATM   16  C   UNL     1     -10.209   2.287 -34.282  1.00  0.00     0.011 A 
HETATM   17  C   UNL     1     -11.360   1.480 -34.013  1.00  0.00     0.004 A 
HETATM   18  C   UNL     1     -12.484   2.263 -34.266  1.00  0.00     0.043 A 
HETATM   19  C   UNL     1     -11.548   0.142 -33.598  1.00  0.00     0.014 A 
HETATM   20  C   UNL     1     -13.789   1.769 -34.143  1.00  0.00     0.030 A 
HETATM   21  N   UNL     1     -12.033   3.511 -34.635  1.00  0.00    -0.364 N 
HETATM   22  C   UNL     1     -13.948   0.442 -33.736  1.00  0.00     0.002 A 
HETATM   23  C   UNL     1     -12.846  -0.361 -33.458  1.00  0.00     0.001 A 
HETATM   24  H   UNL     1     -12.631   4.283 -34.892  1.00  0.00     0.165 HD
HETATM   25  C   UNL     1     -10.663   3.543 -34.630  1.00  0.00     0.102 A 
ENDBRANCH  15  16
ENDBRANCH   3  14
BRANCH   2  26
HETATM   26  N   UNL     1      -6.026   3.216 -33.366  1.00  0.00    -0.286 NA
HETATM   27  H   UNL     1      -6.913   3.604 -33.033  1.00  0.00     0.125 HD
HETATM   28  H   UNL     1      -5.254   3.774 -32.985  1.00  0.00     0.125 HD
ENDBRANCH   2  26
BRANCH   1  29
HETATM   29  C   UNL     1      -3.669   1.552 -32.088  1.00  0.00     0.257 C 
HETATM   30  N   UNL     1      -3.377   2.873 -32.364  1.00  0.00    -0.352 N 
HETATM   31  H   UNL     1      -4.067   3.353 -32.926  1.00  0.00     0.163 HD
HETATM   32  O   UNL     1      -3.087   0.900 -31.232  1.00  0.00    -0.267 OA
BRANCH  30  33
HETATM   33  C   UNL     1      -2.548   3.696 -31.520  1.00  0.00     0.161 C 
BRANCH  33  34
HETATM   34  C   UNL     1      -1.966   4.908 -32.223  1.00  0.00    -0.041 A 
HETATM   35  C   UNL     1      -1.343   5.981 -31.560  1.00  0.00     0.009 A 
HETATM   36  C   UNL     1      -0.814   7.061 -32.272  1.00  0.00     0.001 A 
HETATM   37  C   UNL     1      -0.887   7.084 -33.661  1.00  0.00     0.000 A 
HETATM   38  C   UNL     1      -1.481   6.022 -34.339  1.00  0.00     0.001 A 
HETATM   39  C   UNL     1      -2.011   4.943 -33.627  1.00  0.00     0.009 A 
ENDBRANCH  33  34
ENDBRANCH  30  33
ENDBRANCH   1  29
TORSDOF 6
ENDMDL
MODEL 3
REMARK VINA RESULT:     -10.9      2.136      8.286
REMARK  6 active torsions:
REMARK  status: ('A' for Active; 'I' for Inactive)
REMARK    1  A    between atoms: C_4  and  C_5 
REMARK    2  A    between atoms: C_5  and  N_6 
REMARK       I    between atoms: N_6  and  C_7 
REMARK    3  A    between atoms: C_7  and  C_8 
REMARK    4  A    between atoms: C_9  and  N_10 
REMARK    5  A    between atoms: N_11  and  N_12 
REMARK    6  A    between atoms: C_13  and  C_14 
ROOT
HETATM    1  C   UNL     1      -4.030   1.916 -31.210  1.00  0.00     0.104 C 
HETATM    2  C   UNL     1      -5.323   2.124 -30.743  1.00  0.00     0.123 C 
HETATM    3  N   UNL     1      -5.743   3.344 -31.273  1.00  0.00    -0.202 N 
HETATM    4  C   UNL     1      -4.610   4.108 -31.460  1.00  0.00     0.183 A 
HETATM    5  C   UNL     1      -3.537   3.216 -31.518  1.00  0.00     0.124 A 
HETATM    6  N   UNL     1      -2.296   3.644 -31.864  1.00  0.00    -0.242 NA
HETATM    7  C   UNL     1      -2.187   4.971 -32.053  1.00  0.00     0.086 A 
HETATM    8  C   UNL     1      -3.292   5.858 -31.947  1.00  0.00     0.088 A 
HETATM    9  N   UNL     1      -4.540   5.440 -31.684  1.00  0.00    -0.225 NA
HETATM   10  C   UNL     1      -0.937   5.496 -32.354  1.00  0.00     0.034 A 
HETATM   11  C   UNL     1      -0.742   6.867 -32.529  1.00  0.00     0.002 A 
HETATM   12  C   UNL     1      -1.817   7.733 -32.405  1.00  0.00     0.002 A 
HETATM   13  C   UNL     1      -3.082   7.220 -32.120  1.00  0.00     0.034 A 
ENDROOT
BRANCH   3  14
HETATM   14  N   UNL     1      -7.025   3.682 -31.649  1.00  0.00    -0.176 NA
HETATM   15  C   UNL     1      -7.284   3.289 -32.857  1.00  0.00     0.153 C 
BRANCH  15  16
HETATM   16  C   UNL     1      -8.533   3.560 -33.522  1.00  0.00     0.011 A 
HETATM   17  C   UNL     1      -9.629   2.647 -33.635  1.00  0.00     0.004 A 
HETATM   18  C   UNL     1     -10.584   3.245 -34.455  1.00  0.00     0.043 A 
HETATM   19  C   UNL     1      -9.888   1.351 -33.132  1.00  0.00     0.014 A 
HETATM   20  C   UNL     1     -11.777   2.605 -34.813  1.00  0.00     0.030 A 
HETATM   21  N   UNL     1     -10.103   4.491 -34.793  1.00  0.00    -0.364 N 
HETATM   22  C   UNL     1     -12.007   1.323 -34.306  1.00  0.00     0.002 A 
HETATM   23  C   UNL     1     -11.081   0.705 -33.471  1.00  0.00     0.001 A 
HETATM   24  H   UNL     1     -10.581   5.146 -35.394  1.00  0.00     0.165 HD
HETATM   25  C   UNL     1      -8.875   4.699 -34.220  1.00  0.00     0.102 A 
ENDBRANCH  15  16
ENDBRANCH   3  14
BRANCH   2  26
HETATM   26  N   UNL     1      -6.178   1.303 -30.056  1.00  0.00    -0.286 NA
HETATM   27  H   UNL     1      -6.161   0.313 -30.318  1.00  0.00     0.125 HD
HETATM   28  H   UNL     1      -6.149   1.378 -29.034  1.00  0.00     0.125 HD
ENDBRANCH   2  26
BRANCH   1  29
HETATM   29  C   UNL     1      -3.384   0.614 -31.349  1.00  0.00     0.257 C 
HETATM   30  N   UNL     1      -4.073  -0.220 -32.207  1.00  0.00    -0.352 N 
HETATM   31  H   UNL     1      -4.824   0.223 -32.719  1.00  0.00     0.163 HD
HETATM   32  O   UNL     1      -2.307   0.319 -30.847  1.00  0.00    -0.267 OA
BRANCH  30  33
HETATM   33  C   UNL     1      -3.497  -1.400 -32.801  1.00  0.00     0.161 C 
BRANCH  33  34
HETATM   34  C   UNL     1      -4.492  -2.254 -33.564  1.00  0.00    -0.041 A 
HETATM   35  C   UNL     1      -4.273  -3.597 -33.916  1.00  0.00     0.009 A 
HETATM   36  C   UNL     1      -5.241  -4.331 -34.608  1.00  0.00     0.001 A 
HETATM   37  C   UNL     1      -6.451  -3.738 -34.952  1.00  0.00     0.000 A 
HETATM   38  C   UNL     1      -6.698  -2.415 -34.596  1.00  0.00     0.001 A 
HETATM   39  C   UNL     1      -5.729  -1.681 -33.905  1.00  0.00     0.009 A 
ENDBRANCH  33  34
ENDBRANCH  30  33
ENDBRANCH   1  29
TORSDOF 6
ENDMDL
MODEL 4
REMARK VINA RESULT:     -10.9      1.752      6.251
REMARK  6 active torsions:
REMARK  status: ('A' for Active; 'I' for Inactive)
REMARK    1  A    between atoms: C_4  and  C_5 
REMARK    2  A    between atoms: C_5  and  N_6 
REMARK       I    between atoms: N_6  and  C_7 
REMARK    3  A    between atoms: C_7  and  C_8 
REMARK    4  A    between atoms: C_9  and  N_10 
REMARK    5  A    between atoms: N_11  and  N_12 
REMARK    6  A    between atoms: C_13  and  C_14 
ROOT
HETATM    1  C   UNL     1      -6.024   3.207 -33.073  1.00  0.00     0.104 C 
HETATM    2  C   UNL     1      -7.058   3.786 -33.800  1.00  0.00     0.123 C 
HETATM    3  N   UNL     1      -7.959   2.763 -34.091  1.00  0.00    -0.202 N 
HETATM    4  C   UNL     1      -7.229   1.593 -34.144  1.00  0.00     0.183 A 
HETATM    5  C   UNL     1      -6.054   1.828 -33.427  1.00  0.00     0.124 A 
HETATM    6  N   UNL     1      -5.196   0.813 -33.150  1.00  0.00    -0.242 NA
HETATM    7  C   UNL     1      -5.530  -0.374 -33.686  1.00  0.00     0.086 A 
HETATM    8  C   UNL     1      -6.715  -0.570 -34.446  1.00  0.00     0.088 A 
HETATM    9  N   UNL     1      -7.613   0.404 -34.660  1.00  0.00    -0.225 NA
HETATM   10  C   UNL     1      -4.674  -1.451 -33.496  1.00  0.00     0.034 A 
HETATM   11  C   UNL     1      -4.939  -2.704 -34.051  1.00  0.00     0.002 A 
HETATM   12  C   UNL     1      -6.084  -2.888 -34.810  1.00  0.00     0.002 A 
HETATM   13  C   UNL     1      -6.964  -1.822 -34.995  1.00  0.00     0.034 A 
ENDROOT
BRANCH   3  14
HETATM   14  N   UNL     1      -9.329   2.874 -34.191  1.00  0.00    -0.176 NA
HETATM   15  C   UNL     1      -9.882   2.970 -33.022  1.00  0.00     0.153 C 
BRANCH  15  16
HETATM   16  C   UNL     1     -11.308   3.043 -32.831  1.00  0.00     0.011 A 
HETATM   17  C   UNL     1     -12.247   2.023 -33.183  1.00  0.00     0.004 A 
HETATM   18  C   UNL     1     -13.523   2.536 -32.955  1.00  0.00     0.043 A 
HETATM   19  C   UNL     1     -12.130   0.711 -33.698  1.00  0.00     0.014 A 
HETATM   20  C   UNL     1     -14.688   1.811 -33.235  1.00  0.00     0.030 A 
HETATM   21  N   UNL     1     -13.362   3.806 -32.446  1.00  0.00    -0.364 N 
HETATM   22  C   UNL     1     -14.544   0.519 -33.747  1.00  0.00     0.002 A 
HETATM   23  C   UNL     1     -13.284  -0.029 -33.970  1.00  0.00     0.001 A 
HETATM   24  H   UNL     1     -14.121   4.424 -32.199  1.00  0.00     0.165 HD
HETATM   25  C   UNL     1     -12.031   4.115 -32.348  1.00  0.00     0.102 A 
ENDBRANCH  15  16
ENDBRANCH   3  14
BRANCH   2  26
HETATM   26  N   UNL     1      -7.340   5.098 -34.079  1.00  0.00    -0.286 NA
HETATM   27  H   UNL     1      -8.330   5.361 -34.062  1.00  0.00     0.125 HD
HETATM   28  H   UNL     1      -6.801   5.795 -33.555  1.00  0.00     0.125 HD
ENDBRANCH   2  26
BRANCH   1  29
HETATM   29  C   UNL     1      -5.146   3.914 -32.145  1.00  0.00     0.257 C 
HETATM   30  N   UNL     1      -3.929   3.278 -31.993  1.00  0.00    -0.352 N 
HETATM   31  H   UNL     1      -3.764   2.517 -32.637  1.00  0.00     0.163 HD
HETATM   32  O   UNL     1      -5.408   4.994 -31.633  1.00  0.00    -0.267 OA
BRANCH  30  33
HETATM   33  C   UNL     1      -2.763   3.918 -31.438  1.00  0.00     0.161 C 
BRANCH  33  34
HETATM   34  C   UNL     1      -2.071   4.871 -32.393  1.00  0.00    -0.041 A 
HETATM   35  C   UNL     1      -1.985   4.673 -33.783  1.00  0.00     0.009 A 
HETATM   36  C   UNL     1      -1.344   5.601 -34.609  1.00  0.00     0.001 A 
HETATM   37  C   UNL     1      -0.785   6.751 -34.061  1.00  0.00     0.000 A 
HETATM   38  C   UNL     1      -0.875   6.977 -32.690  1.00  0.00     0.001 A 
HETATM   39  C   UNL     1      -1.515   6.049 -31.865  1.00  0.00     0.009 A 
ENDBRANCH  33  34
ENDBRANCH  30  33
ENDBRANCH   1  29
TORSDOF 6
ENDMDL
MODEL 5
REMARK VINA RESULT:     -10.7      1.817      6.677
REMARK  6 active torsions:
REMARK  status: ('A' for Active; 'I' for Inactive)
REMARK    1  A    between atoms: C_4  and  C_5 
REMARK    2  A    between atoms: C_5  and  N_6 
REMARK       I    between atoms: N_6  and  C_7 
REMARK    3  A    between atoms: C_7  and  C_8 
REMARK    4  A    between atoms: C_9  and  N_10 
REMARK    5  A    between atoms: N_11  and  N_12 
REMARK    6  A    between atoms: C_13  and  C_14 
ROOT
HETATM    1  C   UNL     1      -6.610   1.929 -32.298  1.00  0.00     0.104 C 
HETATM    2  C   UNL     1      -7.925   2.253 -32.614  1.00  0.00     0.123 C 
HETATM    3  N   UNL     1      -8.592   1.046 -32.817  1.00  0.00    -0.202 N 
HETATM    4  C   UNL     1      -7.650   0.139 -33.257  1.00  0.00     0.183 A 
HETATM    5  C   UNL     1      -6.407   0.634 -32.853  1.00  0.00     0.124 A 
HETATM    6  N   UNL     1      -5.284  -0.118 -32.988  1.00  0.00    -0.242 NA
HETATM    7  C   UNL     1      -5.464  -1.300 -33.602  1.00  0.00     0.086 A 
HETATM    8  C   UNL     1      -6.738  -1.757 -34.037  1.00  0.00     0.088 A 
HETATM    9  N   UNL     1      -7.868  -1.061 -33.839  1.00  0.00    -0.225 NA
HETATM   10  C   UNL     1      -4.354  -2.103 -33.830  1.00  0.00     0.034 A 
HETATM   11  C   UNL     1      -4.459  -3.327 -34.491  1.00  0.00     0.002 A 
HETATM   12  C   UNL     1      -5.699  -3.762 -34.934  1.00  0.00     0.002 A 
HETATM   13  C   UNL     1      -6.826  -2.976 -34.698  1.00  0.00     0.034 A 
ENDROOT
BRANCH   3  14
HETATM   14  N   UNL     1      -9.911   0.774 -32.525  1.00  0.00    -0.176 NA
HETATM   15  C   UNL     1     -10.672   0.961 -33.558  1.00  0.00     0.153 C 
BRANCH  15  16
HETATM   16  C   UNL     1     -12.104   0.803 -33.518  1.00  0.00     0.011 A 
HETATM   17  C   UNL     1     -13.040   1.805 -33.110  1.00  0.00     0.004 A 
HETATM   18  C   UNL     1     -14.301   1.213 -33.094  1.00  0.00     0.043 A 
HETATM   19  C   UNL     1     -12.927   3.162 -32.729  1.00  0.00     0.014 A 
HETATM   20  C   UNL     1     -15.453   1.904 -32.697  1.00  0.00     0.030 A 
HETATM   21  N   UNL     1     -14.142  -0.088 -33.516  1.00  0.00    -0.364 N 
HETATM   22  C   UNL     1     -15.313   3.242 -32.320  1.00  0.00     0.002 A 
HETATM   23  C   UNL     1     -14.070   3.868 -32.342  1.00  0.00     0.001 A 
HETATM   24  H   UNL     1     -14.890  -0.763 -33.591  1.00  0.00     0.165 HD
HETATM   25  C   UNL     1     -12.824  -0.341 -33.794  1.00  0.00     0.102 A 
ENDBRANCH  15  16
ENDBRANCH   3  14
BRANCH   2  26
HETATM   26  N   UNL     1      -8.591   3.451 -32.587  1.00  0.00    -0.286 NA
HETATM   27  H   UNL     1      -8.259   4.167 -33.240  1.00  0.00     0.125 HD
HETATM   28  H   UNL     1      -9.613   3.398 -32.642  1.00  0.00     0.125 HD
ENDBRANCH   2  26
BRANCH   1  29
HETATM   29  C   UNL     1      -5.693   2.774 -31.537  1.00  0.00     0.257 C 
HETATM   30  N   UNL     1      -4.372   2.433 -31.752  1.00  0.00    -0.352 N 
HETATM   31  H   UNL     1      -4.221   1.766 -32.496  1.00  0.00     0.163 HD
HETATM   32  O   UNL     1      -6.038   3.734 -30.861  1.00  0.00    -0.267 OA
BRANCH  30  33
HETATM   33  C   UNL     1      -3.266   3.298 -31.427  1.00  0.00     0.161 C 
BRANCH  33  34
HETATM   34  C   UNL     1      -2.824   4.188 -32.574  1.00  0.00    -0.041 A 
HETATM   35  C   UNL     1      -3.612   4.470 -33.703  1.00  0.00     0.009 A 
HETATM   36  C   UNL     1      -3.146   5.312 -34.718  1.00  0.00     0.001 A 
HETATM   37  C   UNL     1      -1.888   5.896 -34.617  1.00  0.00     0.000 A 
HETATM   38  C   UNL     1      -1.099   5.646 -33.497  1.00  0.00     0.001 A 
HETATM   39  C   UNL     1      -1.563   4.803 -32.484  1.00  0.00     0.009 A 
ENDBRANCH  33  34
ENDBRANCH  30  33
ENDBRANCH   1  29
TORSDOF 6
ENDMDL
MODEL 6
REMARK VINA RESULT:     -10.5      1.546      8.176
REMARK  6 active torsions:
REMARK  status: ('A' for Active; 'I' for Inactive)
REMARK    1  A    between atoms: C_4  and  C_5 
REMARK    2  A    between atoms: C_5  and  N_6 
REMARK       I    between atoms: N_6  and  C_7 
REMARK    3  A    between atoms: C_7  and  C_8 
REMARK    4  A    between atoms: C_9  and  N_10 
REMARK    5  A    between atoms: N_11  and  N_12 
REMARK    6  A    between atoms: C_13  and  C_14 
ROOT
HETATM    1  C   UNL     1      -7.268   2.324 -32.633  1.00  0.00     0.104 C 
HETATM    2  C   UNL     1      -6.240   2.877 -31.877  1.00  0.00     0.123 C 
HETATM    3  N   UNL     1      -5.058   2.294 -32.330  1.00  0.00    -0.202 N 
HETATM    4  C   UNL     1      -5.388   1.042 -32.809  1.00  0.00     0.183 A 
HETATM    5  C   UNL     1      -6.755   1.078 -33.094  1.00  0.00     0.124 A 
HETATM    6  N   UNL     1      -7.356   0.047 -33.742  1.00  0.00    -0.242 NA
HETATM    7  C   UNL     1      -6.558  -1.005 -33.994  1.00  0.00     0.086 A 
HETATM    8  C   UNL     1      -5.178  -1.025 -33.655  1.00  0.00     0.088 A 
HETATM    9  N   UNL     1      -4.552   0.017 -33.087  1.00  0.00    -0.225 NA
HETATM   10  C   UNL     1      -7.111  -2.124 -34.604  1.00  0.00     0.034 A 
HETATM   11  C   UNL     1      -6.351  -3.265 -34.866  1.00  0.00     0.002 A 
HETATM   12  C   UNL     1      -5.010  -3.291 -34.516  1.00  0.00     0.002 A 
HETATM   13  C   UNL     1      -4.435  -2.169 -33.919  1.00  0.00     0.034 A 
ENDROOT
BRANCH   3  14
HETATM   14  N   UNL     1      -3.817   2.890 -32.398  1.00  0.00    -0.176 NA
HETATM   15  C   UNL     1      -3.854   3.983 -33.094  1.00  0.00     0.153 C 
BRANCH  15  16
HETATM   16  C   UNL     1      -2.686   4.779 -33.371  1.00  0.00     0.011 A 
HETATM   17  C   UNL     1      -1.832   5.373 -32.388  1.00  0.00     0.004 A 
HETATM   18  C   UNL     1      -0.903   6.159 -33.066  1.00  0.00     0.043 A 
HETATM   19  C   UNL     1      -1.778   5.331 -30.976  1.00  0.00     0.014 A 
HETATM   20  C   UNL     1       0.066   6.922 -32.402  1.00  0.00     0.030 A 
HETATM   21  N   UNL     1      -1.158   6.016 -34.412  1.00  0.00    -0.364 N 
HETATM   22  C   UNL     1       0.095   6.867 -31.006  1.00  0.00     0.002 A 
HETATM   23  C   UNL     1      -0.808   6.078 -30.300  1.00  0.00     0.001 A 
HETATM   24  H   UNL     1      -0.646   6.485 -35.146  1.00  0.00     0.165 HD
HETATM   25  C   UNL     1      -2.219   5.171 -34.609  1.00  0.00     0.102 A 
ENDBRANCH  15  16
ENDBRANCH   3  14
BRANCH   2  26
HETATM   26  N   UNL     1      -6.237   3.911 -30.978  1.00  0.00    -0.286 NA
HETATM   27  H   UNL     1      -5.341   4.389 -30.843  1.00  0.00     0.125 HD
HETATM   28  H   UNL     1      -6.975   4.614 -31.098  1.00  0.00     0.125 HD
ENDBRANCH   2  26
BRANCH   1  29
HETATM   29  C   UNL     1      -8.563   2.951 -32.881  1.00  0.00     0.257 C 
HETATM   30  N   UNL     1      -9.029   2.696 -34.156  1.00  0.00    -0.352 N 
HETATM   31  H   UNL     1      -8.497   2.011 -34.674  1.00  0.00     0.163 HD
HETATM   32  O   UNL     1      -9.214   3.551 -32.035  1.00  0.00    -0.267 OA
BRANCH  30  33
HETATM   33  C   UNL     1     -10.404   2.877 -34.550  1.00  0.00     0.161 C 
BRANCH  33  34
HETATM   34  C   UNL     1     -11.297   1.696 -34.223  1.00  0.00    -0.041 A 
HETATM   35  C   UNL     1     -10.896   0.591 -33.451  1.00  0.00     0.009 A 
HETATM   36  C   UNL     1     -11.777  -0.459 -33.176  1.00  0.00     0.001 A 
HETATM   37  C   UNL     1     -13.081  -0.418 -33.658  1.00  0.00     0.000 A 
HETATM   38  C   UNL     1     -13.506   0.675 -34.409  1.00  0.00     0.001 A 
HETATM   39  C   UNL     1     -12.625   1.723 -34.685  1.00  0.00     0.009 A 
ENDBRANCH  33  34
ENDBRANCH  30  33
ENDBRANCH   1  29
TORSDOF 6
ENDMDL
MODEL 7
REMARK VINA RESULT:     -10.4      2.156      8.373
REMARK  6 active torsions:
REMARK  status: ('A' for Active; 'I' for Inactive)
REMARK    1  A    between atoms: C_4  and  C_5 
REMARK    2  A    between atoms: C_5  and  N_6 
REMARK       I    between atoms: N_6  and  C_7 
REMARK    3  A    between atoms: C_7  and  C_8 
REMARK    4  A    between atoms: C_9  and  N_10 
REMARK    5  A    between atoms: N_11  and  N_12 
REMARK    6  A    between atoms: C_13  and  C_14 
ROOT
HETATM    1  C   UNL     1      -8.944   1.213 -32.541  1.00  0.00     0.104 C 
HETATM    2  C   UNL     1      -8.576   1.757 -31.316  1.00  0.00     0.123 C 
HETATM    3  N   UNL     1      -7.190   1.634 -31.228  1.00  0.00    -0.202 N 
HETATM    4  C   UNL     1      -6.840   0.531 -31.980  1.00  0.00     0.183 A 
HETATM    5  C   UNL     1      -7.891   0.314 -32.874  1.00  0.00     0.124 A 
HETATM    6  N   UNL     1      -7.776  -0.601 -33.871  1.00  0.00    -0.242 NA
HETATM    7  C   UNL     1      -6.634  -1.310 -33.859  1.00  0.00     0.086 A 
HETATM    8  C   UNL     1      -5.600  -1.091 -32.910  1.00  0.00     0.088 A 
HETATM    9  N   UNL     1      -5.665  -0.136 -31.969  1.00  0.00    -0.225 NA
HETATM   10  C   UNL     1      -6.465  -2.306 -34.812  1.00  0.00     0.034 A 
HETATM   11  C   UNL     1      -5.320  -3.104 -34.841  1.00  0.00     0.002 A 
HETATM   12  C   UNL     1      -4.321  -2.904 -33.901  1.00  0.00     0.002 A 
HETATM   13  C   UNL     1      -4.468  -1.895 -32.948  1.00  0.00     0.034 A 
ENDROOT
BRANCH   3  14
HETATM   14  N   UNL     1      -6.322   2.507 -30.609  1.00  0.00    -0.176 NA
HETATM   15  C   UNL     1      -5.911   3.425 -31.427  1.00  0.00     0.153 C 
BRANCH  15  16
HETATM   16  C   UNL     1      -4.953   4.436 -31.058  1.00  0.00     0.011 A 
HETATM   17  C   UNL     1      -3.715   4.693 -31.729  1.00  0.00     0.004 A 
HETATM   18  C   UNL     1      -3.033   5.654 -30.986  1.00  0.00     0.043 A 
HETATM   19  C   UNL     1      -3.101   4.177 -32.893  1.00  0.00     0.014 A 
HETATM   20  C   UNL     1      -1.756   6.111 -31.337  1.00  0.00     0.030 A 
HETATM   21  N   UNL     1      -3.843   5.996 -29.926  1.00  0.00    -0.364 N 
HETATM   22  C   UNL     1      -1.169   5.582 -32.490  1.00  0.00     0.002 A 
HETATM   23  C   UNL     1      -1.832   4.634 -33.263  1.00  0.00     0.001 A 
HETATM   24  H   UNL     1      -3.598   6.665 -29.210  1.00  0.00     0.165 HD
HETATM   25  C   UNL     1      -5.012   5.282 -29.970  1.00  0.00     0.102 A 
ENDBRANCH  15  16
ENDBRANCH   3  14
BRANCH   2  26
HETATM   26  N   UNL     1      -9.299   2.459 -30.386  1.00  0.00    -0.286 NA
HETATM   27  H   UNL     1     -10.162   2.897 -30.722  1.00  0.00     0.125 HD
HETATM   28  H   UNL     1      -9.494   1.970 -29.506  1.00  0.00     0.125 HD
ENDBRANCH   2  26
BRANCH   1  29
HETATM   29  C   UNL     1     -10.155   1.550 -33.284  1.00  0.00     0.257 C 
HETATM   30  N   UNL     1     -10.887   2.543 -32.662  1.00  0.00    -0.352 N 
HETATM   31  H   UNL     1     -10.423   2.989 -31.883  1.00  0.00     0.163 HD
HETATM   32  O   UNL     1     -10.448   1.084 -34.377  1.00  0.00    -0.267 OA
BRANCH  30  33
HETATM   33  C   UNL     1     -11.909   3.311 -33.328  1.00  0.00     0.161 C 
BRANCH  33  34
HETATM   34  C   UNL     1     -13.313   2.777 -33.121  1.00  0.00    -0.041 A 
HETATM   35  C   UNL     1     -13.893   1.758 -33.897  1.00  0.00     0.009 A 
HETATM   36  C   UNL     1     -15.190   1.302 -33.641  1.00  0.00     0.001 A 
HETATM   37  C   UNL     1     -15.928   1.849 -32.597  1.00  0.00     0.000 A 
HETATM   38  C   UNL     1     -15.366   2.846 -31.802  1.00  0.00     0.001 A 
HETATM   39  C   UNL     1     -14.070   3.302 -32.059  1.00  0.00     0.009 A 
ENDBRANCH  33  34
ENDBRANCH  30  33
ENDBRANCH   1  29
TORSDOF 6
ENDMDL
MODEL 8
REMARK VINA RESULT:     -10.3      1.710      7.899
REMARK  6 active torsions:
REMARK  status: ('A' for Active; 'I' for Inactive)
REMARK    1  A    between atoms: C_4  and  C_5 
REMARK    2  A    between atoms: C_5  and  N_6 
REMARK       I    between atoms: N_6  and  C_7 
REMARK    3  A    between atoms: C_7  and  C_8 
REMARK    4  A    between atoms: C_9  and  N_10 
REMARK    5  A    between atoms: N_11  and  N_12 
REMARK    6  A    between atoms: C_13  and  C_14 
ROOT
HETATM    1  C   UNL     1      -7.449   1.503 -32.057  1.00  0.00     0.104 C 
HETATM    2  C   UNL     1      -6.379   2.164 -31.465  1.00  0.00     0.123 C 
HETATM    3  N   UNL     1      -5.242   1.801 -32.186  1.00  0.00    -0.202 N 
HETATM    4  C   UNL     1      -5.482   0.544 -32.702  1.00  0.00     0.183 A 
HETATM    5  C   UNL     1      -6.869   0.382 -32.716  1.00  0.00     0.124 A 
HETATM    6  N   UNL     1      -7.436  -0.690 -33.326  1.00  0.00    -0.242 NA
HETATM    7  C   UNL     1      -6.565  -1.587 -33.819  1.00  0.00     0.086 A 
HETATM    8  C   UNL     1      -5.156  -1.411 -33.753  1.00  0.00     0.088 A 
HETATM    9  N   UNL     1      -4.583  -0.319 -33.225  1.00  0.00    -0.225 NA
HETATM   10  C   UNL     1      -7.066  -2.741 -34.409  1.00  0.00     0.034 A 
HETATM   11  C   UNL     1      -6.221  -3.732 -34.912  1.00  0.00     0.002 A 
HETATM   12  C   UNL     1      -4.847  -3.568 -34.828  1.00  0.00     0.002 A 
HETATM   13  C   UNL     1      -4.328  -2.407 -34.255  1.00  0.00     0.034 A 
ENDROOT
BRANCH   3  14
HETATM   14  N   UNL     1      -4.138   2.587 -32.436  1.00  0.00    -0.176 NA
HETATM   15  C   UNL     1      -4.461   3.664 -33.083  1.00  0.00     0.153 C 
BRANCH  15  16
HETATM   16  C   UNL     1      -3.493   4.637 -33.522  1.00  0.00     0.011 A 
HETATM   17  C   UNL     1      -2.400   5.133 -32.743  1.00  0.00     0.004 A 
HETATM   18  C   UNL     1      -1.788   6.143 -33.483  1.00  0.00     0.043 A 
HETATM   19  C   UNL     1      -1.887   4.829 -31.461  1.00  0.00     0.014 A 
HETATM   20  C   UNL     1      -0.701   6.879 -32.996  1.00  0.00     0.030 A 
HETATM   21  N   UNL     1      -2.460   6.229 -34.682  1.00  0.00    -0.364 N 
HETATM   22  C   UNL     1      -0.215   6.563 -31.725  1.00  0.00     0.002 A 
HETATM   23  C   UNL     1      -0.793   5.547 -30.968  1.00  0.00     0.001 A 
HETATM   24  H   UNL     1      -2.242   6.889 -35.415  1.00  0.00     0.165 HD
HETATM   25  C   UNL     1      -3.478   5.312 -34.725  1.00  0.00     0.102 A 
ENDBRANCH  15  16
ENDBRANCH   3  14
BRANCH   2  26
HETATM   26  N   UNL     1      -6.340   3.131 -30.495  1.00  0.00    -0.286 NA
HETATM   27  H   UNL     1      -7.242   3.411 -30.099  1.00  0.00     0.125 HD
HETATM   28  H   UNL     1      -5.675   2.974 -29.730  1.00  0.00     0.125 HD
ENDBRANCH   2  26
BRANCH   1  29
HETATM   29  C   UNL     1      -8.844   1.932 -31.995  1.00  0.00     0.257 C 
HETATM   30  N   UNL     1      -9.522   1.666 -33.168  1.00  0.00    -0.352 N 
HETATM   31  H   UNL     1      -9.017   1.095 -33.832  1.00  0.00     0.163 HD
HETATM   32  O   UNL     1      -9.383   2.386 -30.995  1.00  0.00    -0.267 OA
BRANCH  30  33
HETATM   33  C   UNL     1     -10.960   1.649 -33.268  1.00  0.00     0.161 C 
BRANCH  33  34
HETATM   34  C   UNL     1     -11.550   2.911 -33.868  1.00  0.00    -0.041 A 
HETATM   35  C   UNL     1     -12.818   3.423 -33.541  1.00  0.00     0.009 A 
HETATM   36  C   UNL     1     -13.295   4.601 -34.123  1.00  0.00     0.001 A 
HETATM   37  C   UNL     1     -12.509   5.296 -35.035  1.00  0.00     0.000 A 
HETATM   38  C   UNL     1     -11.241   4.818 -35.359  1.00  0.00     0.001 A 
HETATM   39  C   UNL     1     -10.765   3.640 -34.778  1.00  0.00     0.009 A 
ENDBRANCH  33  34
ENDBRANCH  30  33
ENDBRANCH   1  29
TORSDOF 6
ENDMDL
MODEL 9
REMARK VINA RESULT:      -9.8      2.571      3.302
REMARK  6 active torsions:
REMARK  status: ('A' for Active; 'I' for Inactive)
REMARK    1  A    between atoms: C_4  and  C_5 
REMARK    2  A    between atoms: C_5  and  N_6 
REMARK       I    between atoms: N_6  and  C_7 
REMARK    3  A    between atoms: C_7  and  C_8 
REMARK    4  A    between atoms: C_9  and  N_10 
REMARK    5  A    between atoms: N_11  and  N_12 
REMARK    6  A    between atoms: C_13  and  C_14 
ROOT
HETATM    1  C   UNL     1      -4.290   3.686 -31.994  1.00  0.00     0.104 C 
HETATM    2  C   UNL     1      -3.849   2.532 -31.355  1.00  0.00     0.123 C 
HETATM    3  N   UNL     1      -4.936   1.660 -31.319  1.00  0.00    -0.202 N 
HETATM    4  C   UNL     1      -6.074   2.442 -31.305  1.00  0.00     0.183 A 
HETATM    5  C   UNL     1      -5.703   3.687 -31.816  1.00  0.00     0.124 A 
HETATM    6  N   UNL     1      -6.639   4.631 -32.091  1.00  0.00    -0.242 NA
HETATM    7  C   UNL     1      -7.896   4.296 -31.754  1.00  0.00     0.086 A 
HETATM    8  C   UNL     1      -8.235   3.033 -31.198  1.00  0.00     0.088 A 
HETATM    9  N   UNL     1      -7.333   2.061 -30.995  1.00  0.00    -0.225 NA
HETATM   10  C   UNL     1      -8.905   5.231 -31.950  1.00  0.00     0.034 A 
HETATM   11  C   UNL     1     -10.228   4.966 -31.593  1.00  0.00     0.002 A 
HETATM   12  C   UNL     1     -10.554   3.741 -31.031  1.00  0.00     0.002 A 
HETATM   13  C   UNL     1      -9.556   2.785 -30.844  1.00  0.00     0.034 A 
ENDROOT
BRANCH   3  14
HETATM   14  N   UNL     1      -4.894   0.285 -31.400  1.00  0.00    -0.176 NA
HETATM   15  C   UNL     1      -4.250  -0.107 -32.456  1.00  0.00     0.153 C 
BRANCH  15  16
HETATM   16  C   UNL     1      -4.102  -1.494 -32.816  1.00  0.00     0.011 A 
HETATM   17  C   UNL     1      -4.963  -2.221 -33.698  1.00  0.00     0.004 A 
HETATM   18  C   UNL     1      -4.550  -3.551 -33.677  1.00  0.00     0.043 A 
HETATM   19  C   UNL     1      -6.074  -1.871 -34.499  1.00  0.00     0.014 A 
HETATM   20  C   UNL     1      -5.206  -4.555 -34.402  1.00  0.00     0.030 A 
HETATM   21  N   UNL     1      -3.455  -3.622 -32.845  1.00  0.00    -0.364 N 
HETATM   22  C   UNL     1      -6.304  -4.184 -35.182  1.00  0.00     0.002 A 
HETATM   23  C   UNL     1      -6.731  -2.860 -35.238  1.00  0.00     0.001 A 
HETATM   24  H   UNL     1      -2.953  -4.472 -32.629  1.00  0.00     0.165 HD
HETATM   25  C   UNL     1      -3.163  -2.384 -32.335  1.00  0.00     0.102 A 
ENDBRANCH  15  16
ENDBRANCH   3  14
BRANCH   2  26
HETATM   26  N   UNL     1      -2.596   2.140 -30.962  1.00  0.00    -0.286 NA
HETATM   27  H   UNL     1      -1.824   2.412 -31.578  1.00  0.00     0.125 HD
HETATM   28  H   UNL     1      -2.341   2.356 -29.992  1.00  0.00     0.125 HD
ENDBRANCH   2  26
BRANCH   1  29
HETATM   29  C   UNL     1      -3.435   4.639 -32.697  1.00  0.00     0.257 C 
HETATM   30  N   UNL     1      -3.695   5.943 -32.324  1.00  0.00    -0.352 N 
HETATM   31  H   UNL     1      -4.316   6.044 -31.533  1.00  0.00     0.163 HD
HETATM   32  O   UNL     1      -2.528   4.325 -33.455  1.00  0.00    -0.267 OA
BRANCH  30  33
HETATM   33  C   UNL     1      -2.788   7.036 -32.574  1.00  0.00     0.161 C 
BRANCH  33  34
HETATM   34  C   UNL     1      -1.628   7.108 -31.601  1.00  0.00    -0.041 A 
HETATM   35  C   UNL     1      -0.326   6.659 -31.889  1.00  0.00     0.009 A 
HETATM   36  C   UNL     1       0.702   6.769 -30.948  1.00  0.00     0.001 A 
HETATM   37  C   UNL     1       0.451   7.340 -29.705  1.00  0.00     0.000 A 
HETATM   38  C   UNL     1      -0.825   7.810 -29.406  1.00  0.00     0.001 A 
HETATM   39  C   UNL     1      -1.853   7.698 -30.345  1.00  0.00     0.009 A 
ENDBRANCH  33  34
ENDBRANCH  30  33
ENDBRANCH   1  29
TORSDOF 6
ENDMDL
MODEL 10
REMARK VINA RESULT:      -9.8      2.542      7.429
REMARK  6 active torsions:
REMARK  status: ('A' for Active; 'I' for Inactive)
REMARK    1  A    between atoms: C_4  and  C_5 
REMARK    2  A    between atoms: C_5  and  N_6 
REMARK       I    between atoms: N_6  and  C_7 
REMARK    3  A    between atoms: C_7  and  C_8 
REMARK    4  A    between atoms: C_9  and  N_10 
REMARK    5  A    between atoms: N_11  and  N_12 
REMARK    6  A    between atoms: C_13  and  C_14 
ROOT
HETATM    1  C   UNL     1      -7.350   1.471 -31.959  1.00  0.00     0.104 C 
HETATM    2  C   UNL     1      -6.240   2.120 -31.431  1.00  0.00     0.123 C 
HETATM    3  N   UNL     1      -5.152   1.747 -32.220  1.00  0.00    -0.202 N 
HETATM    4  C   UNL     1      -5.435   0.493 -32.722  1.00  0.00     0.183 A 
HETATM    5  C   UNL     1      -6.823   0.345 -32.653  1.00  0.00     0.124 A 
HETATM    6  N   UNL     1      -7.436  -0.720 -33.230  1.00  0.00    -0.242 NA
HETATM    7  C   UNL     1      -6.605  -1.625 -33.775  1.00  0.00     0.086 A 
HETATM    8  C   UNL     1      -5.193  -1.463 -33.794  1.00  0.00     0.088 A 
HETATM    9  N   UNL     1      -4.578  -0.378 -33.299  1.00  0.00    -0.225 NA
HETATM   10  C   UNL     1      -7.152  -2.772 -34.335  1.00  0.00     0.034 A 
HETATM   11  C   UNL     1      -6.350  -3.771 -34.889  1.00  0.00     0.002 A 
HETATM   12  C   UNL     1      -4.971  -3.621 -34.888  1.00  0.00     0.002 A 
HETATM   13  C   UNL     1      -4.407  -2.467 -34.345  1.00  0.00     0.034 A 
ENDROOT
BRANCH   3  14
HETATM   14  N   UNL     1      -4.057   2.522 -32.534  1.00  0.00    -0.176 NA
HETATM   15  C   UNL     1      -4.414   3.676 -33.004  1.00  0.00     0.153 C 
BRANCH  15  16
HETATM   16  C   UNL     1      -3.471   4.663 -33.465  1.00  0.00     0.011 A 
HETATM   17  C   UNL     1      -2.382   5.193 -32.701  1.00  0.00     0.004 A 
HETATM   18  C   UNL     1      -1.798   6.206 -33.459  1.00  0.00     0.043 A 
HETATM   19  C   UNL     1      -1.852   4.918 -31.420  1.00  0.00     0.014 A 
HETATM   20  C   UNL     1      -0.723   6.972 -32.992  1.00  0.00     0.030 A 
HETATM   21  N   UNL     1      -2.481   6.261 -34.655  1.00  0.00    -0.364 N 
HETATM   22  C   UNL     1      -0.220   6.683 -31.721  1.00  0.00     0.002 A 
HETATM   23  C   UNL     1      -0.770   5.666 -30.946  1.00  0.00     0.001 A 
HETATM   24  H   UNL     1      -2.283   6.916 -35.398  1.00  0.00     0.165 HD
HETATM   25  C   UNL     1      -3.479   5.322 -34.677  1.00  0.00     0.102 A 
ENDBRANCH  15  16
ENDBRANCH   3  14
BRANCH   2  26
HETATM   26  N   UNL     1      -6.133   3.085 -30.464  1.00  0.00    -0.286 NA
HETATM   27  H   UNL     1      -6.195   4.055 -30.785  1.00  0.00     0.125 HD
HETATM   28  H   UNL     1      -6.736   2.966 -29.642  1.00  0.00     0.125 HD
ENDBRANCH   2  26
BRANCH   1  29
HETATM   29  C   UNL     1      -8.734   1.915 -31.813  1.00  0.00     0.257 C 
HETATM   30  N   UNL     1      -8.956   2.534 -30.599  1.00  0.00    -0.352 N 
HETATM   31  H   UNL     1      -8.123   2.722 -30.058  1.00  0.00     0.163 HD
HETATM   32  O   UNL     1      -9.580   1.839 -32.694  1.00  0.00    -0.267 OA
BRANCH  30  33
HETATM   33  C   UNL     1     -10.099   3.371 -30.332  1.00  0.00     0.161 C 
BRANCH  33  34
HETATM   34  C   UNL     1      -9.793   4.856 -30.349  1.00  0.00    -0.041 A 
HETATM   35  C   UNL     1     -10.569   5.815 -31.023  1.00  0.00     0.009 A 
HETATM   36  C   UNL     1     -10.237   7.172 -30.985  1.00  0.00     0.001 A 
HETATM   37  C   UNL     1      -9.127   7.598 -30.263  1.00  0.00     0.000 A 
HETATM   38  C   UNL     1      -8.355   6.668 -29.571  1.00  0.00     0.001 A 
HETATM   39  C   UNL     1      -8.687   5.311 -29.611  1.00  0.00     0.009 A 
ENDBRANCH  33  34
ENDBRANCH  30  33
ENDBRANCH   1  29
TORSDOF 6
ENDMDL
