MODEL 1
REMARK VINA RESULT:      -8.9      0.000      0.000
REMARK  8 active torsions:
REMARK  status: ('A' for Active; 'I' for Inactive)
REMARK    1  A    between atoms: N_4  and  C_5 
REMARK    2  A    between atoms: C_11  and  O_12 
REMARK    3  A    between atoms: C_13  and  C_14 
REMARK    4  A    between atoms: N_15  and  N_16 
REMARK       I    between atoms: N_16  and  C_17 
REMARK    5  A    between atoms: C_17  and  C_18 
REMARK    6  A    between atoms: C_18  and  C_19 
REMARK    7  A    between atoms: C_19  and  N_20 
REMARK       I    between atoms: N_20  and  C_21 
REMARK    8  A    between atoms: C_21  and  C_22 
ROOT
HETATM    1  C   UNL     1      -4.421   4.004 -33.048  1.00  0.00     0.156 C 
HETATM    2  N   UNL     1      -4.935   3.153 -32.217  1.00  0.00    -0.184 NA
ENDROOT
BRANCH   2   3
HETATM    3  N   UNL     1      -6.056   2.468 -32.627  1.00  0.00    -0.247 N 
HETATM    4  C   UNL     1      -7.085   2.064 -31.778  1.00  0.00     0.239 C 
HETATM    5  O   UNL     1      -7.093   2.199 -30.558  1.00  0.00    -0.272 OA
HETATM    6  H   UNL     1      -6.286   2.617 -33.606  1.00  0.00     0.192 HD
BRANCH   4   7
HETATM    7  C   UNL     1      -8.198   1.368 -32.532  1.00  0.00     0.124 C 
BRANCH   7   8
HETATM    8  C   UNL     1      -7.731   0.930 -33.916  1.00  0.00     0.132 C 
BRANCH   8   9
HETATM    9  N   UNL     1      -7.360  -0.474 -33.988  1.00  0.00    -0.356 N 
HETATM   10  C   UNL     1      -6.042  -0.883 -33.975  1.00  0.00     0.251 C 
HETATM   11  O   UNL     1      -5.103  -0.116 -33.789  1.00  0.00    -0.268 OA
HETATM   12  H   UNL     1      -8.043  -1.095 -34.400  1.00  0.00     0.162 HD
BRANCH  10  13
HETATM   13  C   UNL     1      -5.788  -2.330 -34.239  1.00  0.00     0.032 A 
HETATM   14  C   UNL     1      -6.781  -3.190 -34.734  1.00  0.00     0.017 A 
HETATM   15  C   UNL     1      -6.486  -4.535 -34.974  1.00  0.00     0.001 A 
HETATM   16  C   UNL     1      -5.210  -5.031 -34.710  1.00  0.00     0.000 A 
HETATM   17  C   UNL     1      -4.225  -4.187 -34.199  1.00  0.00     0.001 A 
HETATM   18  C   UNL     1      -4.514  -2.841 -33.961  1.00  0.00     0.017 A 
ENDBRANCH  10  13
ENDBRANCH   8   9
ENDBRANCH   7   8
ENDBRANCH   4   7
ENDBRANCH   2   3
BRANCH   1  19
HETATM   19  C   UNL     1      -3.230   4.730 -32.677  1.00  0.00     0.062 C 
HETATM   20  C   UNL     1      -2.123   5.157 -33.450  1.00  0.00     0.067 C 
HETATM   21  C   UNL     1      -1.887   4.967 -34.903  1.00  0.00     0.073 C 
HETATM   22  N   UNL     1      -1.237   5.844 -32.719  1.00  0.00    -0.169 NA
HETATM   23  N   UNL     1      -1.697   5.766 -31.443  1.00  0.00    -0.210 N 
HETATM   24  C   UNL     1      -2.982   5.221 -31.410  1.00  0.00     0.177 C 
BRANCH  23  25
HETATM   25  C   UNL     1      -0.879   6.205 -30.361  1.00  0.00     0.061 A 
HETATM   26  C   UNL     1      -0.013   5.290 -29.742  1.00  0.00     0.031 A 
HETATM   27  C   UNL     1       0.801   5.695 -28.683  1.00  0.00     0.002 A 
HETATM   28  C   UNL     1       0.746   7.009 -28.222  1.00  0.00     0.000 A 
HETATM   29  C   UNL     1      -0.133   7.916 -28.810  1.00  0.00     0.002 A 
HETATM   30  C   UNL     1      -0.949   7.517 -29.873  1.00  0.00     0.031 A 
ENDBRANCH  23  25
BRANCH  24  31
HETATM   31  O   UNL     1      -3.788   5.217 -30.344  1.00  0.00    -0.344 OA
HETATM   32  H   UNL     1      -3.845   6.128 -30.000  1.00  0.00     0.219 HD
ENDBRANCH  24  31
ENDBRANCH   1  19
TORSDOF 8
ENDMDL
MODEL 2
REMARK VINA RESULT:      -8.3      1.663     10.441
REMARK  8 active torsions:
REMARK  status: ('A' for Active; 'I' for Inactive)
REMARK    1  A    between atoms: N_4  and  C_5 
REMARK    2  A    between atoms: C_11  and  O_12 
REMARK    3  A    between atoms: C_13  and  C_14 
REMARK    4  A    between atoms: N_15  and  N_16 
REMARK       I    between atoms: N_16  and  C_17 
REMARK    5  A    between atoms: C_17  and  C_18 
REMARK    6  A    between atoms: C_18  and  C_19 
REMARK    7  A    between atoms: C_19  and  N_20 
REMARK       I    between atoms: N_20  and  C_21 
REMARK    8  A    between atoms: C_21  and  C_22 
ROOT
HETATM    1  C   UNL     1      -5.750   2.343 -32.550  1.00  0.00     0.156 C 
HETATM    2  N   UNL     1      -4.768   3.067 -32.988  1.00  0.00    -0.184 NA
ENDROOT
BRANCH   2   3
HETATM    3  N   UNL     1      -4.444   4.193 -32.267  1.00  0.00    -0.247 N 
HETATM    4  C   UNL     1      -3.195   4.427 -31.693  1.00  0.00     0.239 C 
HETATM    5  O   UNL     1      -2.255   3.637 -31.693  1.00  0.00    -0.272 OA
HETATM    6  H   UNL     1      -5.011   5.003 -32.503  1.00  0.00     0.192 HD
BRANCH   4   7
HETATM    7  C   UNL     1      -3.136   5.771 -30.998  1.00  0.00     0.124 C 
BRANCH   7   8
HETATM    8  C   UNL     1      -1.914   6.566 -31.446  1.00  0.00     0.132 C 
BRANCH   8   9
HETATM    9  N   UNL     1      -1.154   7.133 -30.343  1.00  0.00    -0.356 N 
HETATM   10  C   UNL     1      -0.212   6.399 -29.651  1.00  0.00     0.251 C 
HETATM   11  O   UNL     1       0.133   5.270 -29.981  1.00  0.00    -0.268 OA
HETATM   12  H   UNL     1      -1.572   7.926 -29.876  1.00  0.00     0.162 HD
BRANCH  10  13
HETATM   13  C   UNL     1       0.364   7.034 -28.430  1.00  0.00     0.032 A 
HETATM   14  C   UNL     1       0.125   6.537 -27.140  1.00  0.00     0.017 A 
HETATM   15  C   UNL     1       0.700   7.164 -26.030  1.00  0.00     0.001 A 
HETATM   16  C   UNL     1       1.501   8.293 -26.200  1.00  0.00     0.000 A 
HETATM   17  C   UNL     1       1.724   8.805 -27.477  1.00  0.00     0.001 A 
HETATM   18  C   UNL     1       1.156   8.179 -28.589  1.00  0.00     0.017 A 
ENDBRANCH  10  13
ENDBRANCH   8   9
ENDBRANCH   7   8
ENDBRANCH   4   7
ENDBRANCH   2   3
BRANCH   1  19
HETATM   19  C   UNL     1      -6.114   1.137 -33.256  1.00  0.00     0.062 C 
HETATM   20  C   UNL     1      -7.285   0.800 -33.977  1.00  0.00     0.067 C 
HETATM   21  C   UNL     1      -8.494   1.629 -34.210  1.00  0.00     0.073 C 
HETATM   22  N   UNL     1      -7.205  -0.421 -34.519  1.00  0.00    -0.169 NA
HETATM   23  N   UNL     1      -6.035  -0.935 -34.057  1.00  0.00    -0.210 N 
HETATM   24  C   UNL     1      -5.283   0.044 -33.407  1.00  0.00     0.177 C 
BRANCH  23  25
HETATM   25  C   UNL     1      -5.732  -2.314 -34.261  1.00  0.00     0.061 A 
HETATM   26  C   UNL     1      -6.738  -3.175 -34.724  1.00  0.00     0.031 A 
HETATM   27  C   UNL     1      -6.467  -4.528 -34.935  1.00  0.00     0.002 A 
HETATM   28  C   UNL     1      -5.196  -5.036 -34.669  1.00  0.00     0.000 A 
HETATM   29  C   UNL     1      -4.200  -4.194 -34.179  1.00  0.00     0.002 A 
HETATM   30  C   UNL     1      -4.464  -2.837 -33.968  1.00  0.00     0.031 A 
ENDBRANCH  23  25
BRANCH  24  31
HETATM   31  O   UNL     1      -4.004  -0.085 -33.040  1.00  0.00    -0.344 OA
HETATM   32  H   UNL     1      -3.800  -1.036 -32.973  1.00  0.00     0.219 HD
ENDBRANCH  24  31
ENDBRANCH   1  19
TORSDOF 8
ENDMDL
MODEL 3
REMARK VINA RESULT:      -8.0      2.418      8.802
REMARK  8 active torsions:
REMARK  status: ('A' for Active; 'I' for Inactive)
REMARK    1  A    between atoms: N_4  and  C_5 
REMARK    2  A    between atoms: C_11  and  O_12 
REMARK    3  A    between atoms: C_13  and  C_14 
REMARK    4  A    between atoms: N_15  and  N_16 
REMARK       I    between atoms: N_16  and  C_17 
REMARK    5  A    between atoms: C_17  and  C_18 
REMARK    6  A    between atoms: C_18  and  C_19 
REMARK    7  A    between atoms: C_19  and  N_20 
REMARK       I    between atoms: N_20  and  C_21 
REMARK    8  A    between atoms: C_21  and  C_22 
ROOT
HETATM    1  C   UNL     1      -4.959   2.591 -31.142  1.00  0.00     0.156 C 
HETATM    2  N   UNL     1      -5.849   2.884 -30.246  1.00  0.00    -0.184 NA
ENDROOT
BRANCH   2   3
HETATM    3  N   UNL     1      -5.476   3.755 -29.249  1.00  0.00    -0.247 N 
HETATM    4  C   UNL     1      -5.786   5.114 -29.234  1.00  0.00     0.239 C 
HETATM    5  O   UNL     1      -6.360   5.721 -30.134  1.00  0.00    -0.272 OA
HETATM    6  H   UNL     1      -5.317   3.301 -28.353  1.00  0.00     0.192 HD
BRANCH   4   7
HETATM    7  C   UNL     1      -5.272   5.797 -27.985  1.00  0.00     0.124 C 
BRANCH   7   8
HETATM    8  C   UNL     1      -4.148   6.772 -28.317  1.00  0.00     0.132 C 
BRANCH   8   9
HETATM    9  N   UNL     1      -3.388   6.403 -29.501  1.00  0.00    -0.356 N 
HETATM   10  C   UNL     1      -3.271   7.247 -30.586  1.00  0.00     0.251 C 
HETATM   11  O   UNL     1      -3.693   8.399 -30.589  1.00  0.00    -0.268 OA
HETATM   12  H   UNL     1      -3.261   5.413 -29.656  1.00  0.00     0.162 HD
BRANCH  10  13
HETATM   13  C   UNL     1      -2.624   6.681 -31.806  1.00  0.00     0.032 A 
HETATM   14  C   UNL     1      -2.730   5.327 -32.154  1.00  0.00     0.017 A 
HETATM   15  C   UNL     1      -2.113   4.852 -33.315  1.00  0.00     0.001 A 
HETATM   16  C   UNL     1      -1.378   5.718 -34.123  1.00  0.00     0.000 A 
HETATM   17  C   UNL     1      -1.250   7.061 -33.771  1.00  0.00     0.001 A 
HETATM   18  C   UNL     1      -1.869   7.541 -32.615  1.00  0.00     0.017 A 
ENDBRANCH  10  13
ENDBRANCH   8   9
ENDBRANCH   7   8
ENDBRANCH   4   7
ENDBRANCH   2   3
BRANCH   1  19
HETATM   19  C   UNL     1      -5.307   1.702 -32.226  1.00  0.00     0.062 C 
HETATM   20  C   UNL     1      -6.060   1.923 -33.404  1.00  0.00     0.067 C 
HETATM   21  C   UNL     1      -6.715   3.176 -33.856  1.00  0.00     0.073 C 
HETATM   22  N   UNL     1      -6.116   0.831 -34.176  1.00  0.00    -0.169 NA
HETATM   23  N   UNL     1      -5.503  -0.142 -33.452  1.00  0.00    -0.210 N 
HETATM   24  C   UNL     1      -4.874   0.394 -32.328  1.00  0.00     0.177 C 
BRANCH  23  25
HETATM   25  C   UNL     1      -5.574  -1.501 -33.880  1.00  0.00     0.061 A 
HETATM   26  C   UNL     1      -4.398  -2.266 -33.927  1.00  0.00     0.031 A 
HETATM   27  C   UNL     1      -4.440  -3.599 -34.340  1.00  0.00     0.002 A 
HETATM   28  C   UNL     1      -5.650  -4.174 -34.725  1.00  0.00     0.000 A 
HETATM   29  C   UNL     1      -6.817  -3.412 -34.711  1.00  0.00     0.002 A 
HETATM   30  C   UNL     1      -6.782  -2.077 -34.297  1.00  0.00     0.031 A 
ENDBRANCH  23  25
BRANCH  24  31
HETATM   31  O   UNL     1      -4.010  -0.259 -31.545  1.00  0.00    -0.344 OA
HETATM   32  H   UNL     1      -3.927   0.230 -30.705  1.00  0.00     0.219 HD
ENDBRANCH  24  31
ENDBRANCH   1  19
TORSDOF 8
ENDMDL
MODEL 4
REMARK VINA RESULT:      -8.0      3.634      9.547
REMARK  8 active torsions:
REMARK  status: ('A' for Active; 'I' for Inactive)
REMARK    1  A    between atoms: N_4  and  C_5 
REMARK    2  A    between atoms: C_11  and  O_12 
REMARK    3  A    between atoms: C_13  and  C_14 
REMARK    4  A    between atoms: N_15  and  N_16 
REMARK       I    between atoms: N_16  and  C_17 
REMARK    5  A    between atoms: C_17  and  C_18 
REMARK    6  A    between atoms: C_18  and  C_19 
REMARK    7  A    between atoms: C_19  and  N_20 
REMARK       I    between atoms: N_20  and  C_21 
REMARK    8  A    between atoms: C_21  and  C_22 
ROOT
HETATM    1  C   UNL     1      -7.903   1.478 -32.648  1.00  0.00     0.156 C 
HETATM    2  N   UNL     1      -7.789   0.257 -32.227  1.00  0.00    -0.184 NA
ENDROOT
BRANCH   2   3
HETATM    3  N   UNL     1      -6.552  -0.142 -31.776  1.00  0.00    -0.247 N 
HETATM    4  C   UNL     1      -5.582  -0.749 -32.572  1.00  0.00     0.239 C 
HETATM    5  O   UNL     1      -5.729  -1.071 -33.748  1.00  0.00    -0.272 OA
HETATM    6  H   UNL     1      -6.234   0.372 -30.959  1.00  0.00     0.192 HD
BRANCH   4   7
HETATM    7  C   UNL     1      -4.314  -1.034 -31.797  1.00  0.00     0.124 C 
BRANCH   7   8
HETATM    8  C   UNL     1      -3.868   0.190 -31.006  1.00  0.00     0.132 C 
BRANCH   8   9
HETATM    9  N   UNL     1      -3.499   1.321 -31.843  1.00  0.00    -0.356 N 
HETATM   10  C   UNL     1      -4.181   2.520 -31.793  1.00  0.00     0.251 C 
HETATM   11  O   UNL     1      -5.060   2.759 -30.971  1.00  0.00    -0.268 OA
HETATM   12  H   UNL     1      -2.991   1.102 -32.688  1.00  0.00     0.162 HD
BRANCH  10  13
HETATM   13  C   UNL     1      -3.825   3.535 -32.828  1.00  0.00     0.032 A 
HETATM   14  C   UNL     1      -2.504   3.949 -33.052  1.00  0.00     0.017 A 
HETATM   15  C   UNL     1      -2.225   4.895 -34.042  1.00  0.00     0.001 A 
HETATM   16  C   UNL     1      -3.259   5.440 -34.802  1.00  0.00     0.000 A 
HETATM   17  C   UNL     1      -4.576   5.049 -34.571  1.00  0.00     0.001 A 
HETATM   18  C   UNL     1      -4.860   4.101 -33.585  1.00  0.00     0.017 A 
ENDBRANCH  10  13
ENDBRANCH   8   9
ENDBRANCH   7   8
ENDBRANCH   4   7
ENDBRANCH   2   3
BRANCH   1  19
HETATM   19  C   UNL     1      -9.185   1.955 -33.108  1.00  0.00     0.062 C 
HETATM   20  C   UNL     1      -9.560   3.182 -33.707  1.00  0.00     0.067 C 
HETATM   21  C   UNL     1      -8.701   4.347 -34.035  1.00  0.00     0.073 C 
HETATM   22  N   UNL     1     -10.861   3.209 -34.022  1.00  0.00    -0.169 NA
HETATM   23  N   UNL     1     -11.367   2.051 -33.523  1.00  0.00    -0.210 N 
HETATM   24  C   UNL     1     -10.345   1.204 -33.093  1.00  0.00     0.177 C 
BRANCH  23  25
HETATM   25  C   UNL     1     -12.779   1.847 -33.487  1.00  0.00     0.061 A 
HETATM   26  C   UNL     1     -13.549   2.555 -32.551  1.00  0.00     0.031 A 
HETATM   27  C   UNL     1     -14.933   2.376 -32.497  1.00  0.00     0.002 A 
HETATM   28  C   UNL     1     -15.556   1.478 -33.362  1.00  0.00     0.000 A 
HETATM   29  C   UNL     1     -14.795   0.748 -34.272  1.00  0.00     0.002 A 
HETATM   30  C   UNL     1     -13.409   0.924 -34.333  1.00  0.00     0.031 A 
ENDBRANCH  23  25
BRANCH  24  31
HETATM   31  O   UNL     1     -10.499  -0.081 -32.762  1.00  0.00    -0.344 OA
HETATM   32  H   UNL     1     -11.237  -0.148 -32.128  1.00  0.00     0.219 HD
ENDBRANCH  24  31
ENDBRANCH   1  19
TORSDOF 8
ENDMDL
MODEL 5
REMARK VINA RESULT:      -7.9      1.697      2.312
REMARK  8 active torsions:
REMARK  status: ('A' for Active; 'I' for Inactive)
REMARK    1  A    between atoms: N_4  and  C_5 
REMARK    2  A    between atoms: C_11  and  O_12 
REMARK    3  A    between atoms: C_13  and  C_14 
REMARK    4  A    between atoms: N_15  and  N_16 
REMARK       I    between atoms: N_16  and  C_17 
REMARK    5  A    between atoms: C_17  and  C_18 
REMARK    6  A    between atoms: C_18  and  C_19 
REMARK    7  A    between atoms: C_19  and  N_20 
REMARK       I    between atoms: N_20  and  C_21 
REMARK    8  A    between atoms: C_21  and  C_22 
ROOT
HETATM    1  C   UNL     1      -6.429   4.773 -31.951  1.00  0.00     0.156 C 
HETATM    2  N   UNL     1      -6.683   3.710 -31.255  1.00  0.00    -0.184 NA
ENDROOT
BRANCH   2   3
HETATM    3  N   UNL     1      -7.636   2.847 -31.745  1.00  0.00    -0.247 N 
HETATM    4  C   UNL     1      -7.645   1.472 -31.515  1.00  0.00     0.239 C 
HETATM    5  O   UNL     1      -6.775   0.847 -30.915  1.00  0.00    -0.272 OA
HETATM    6  H   UNL     1      -8.527   3.296 -31.940  1.00  0.00     0.192 HD
BRANCH   4   7
HETATM    7  C   UNL     1      -8.843   0.801 -32.153  1.00  0.00     0.124 C 
BRANCH   7   8
HETATM    8  C   UNL     1      -8.524   0.347 -33.573  1.00  0.00     0.132 C 
BRANCH   8   9
HETATM    9  N   UNL     1      -7.801  -0.914 -33.631  1.00  0.00    -0.356 N 
HETATM   10  C   UNL     1      -6.489  -0.985 -34.053  1.00  0.00     0.251 C 
HETATM   11  O   UNL     1      -5.807   0.006 -34.295  1.00  0.00    -0.268 OA
HETATM   12  H   UNL     1      -8.366  -1.748 -33.705  1.00  0.00     0.162 HD
BRANCH  10  13
HETATM   13  C   UNL     1      -5.920  -2.352 -34.243  1.00  0.00     0.032 A 
HETATM   14  C   UNL     1      -4.583  -2.657 -33.950  1.00  0.00     0.017 A 
HETATM   15  C   UNL     1      -4.106  -3.958 -34.135  1.00  0.00     0.001 A 
HETATM   16  C   UNL     1      -4.952  -4.952 -34.625  1.00  0.00     0.000 A 
HETATM   17  C   UNL     1      -6.276  -4.650 -34.938  1.00  0.00     0.001 A 
HETATM   18  C   UNL     1      -6.759  -3.353 -34.750  1.00  0.00     0.017 A 
ENDBRANCH  10  13
ENDBRANCH   8   9
ENDBRANCH   7   8
ENDBRANCH   4   7
ENDBRANCH   2   3
BRANCH   1  19
HETATM   19  C   UNL     1      -5.418   5.698 -31.494  1.00  0.00     0.062 C 
HETATM   20  C   UNL     1      -5.450   7.104 -31.334  1.00  0.00     0.067 C 
HETATM   21  C   UNL     1      -6.573   8.036 -31.603  1.00  0.00     0.073 C 
HETATM   22  N   UNL     1      -4.299   7.578 -30.842  1.00  0.00    -0.169 NA
HETATM   23  N   UNL     1      -3.470   6.503 -30.790  1.00  0.00    -0.210 N 
HETATM   24  C   UNL     1      -4.168   5.322 -31.041  1.00  0.00     0.177 C 
BRANCH  23  25
HETATM   25  C   UNL     1      -2.082   6.686 -30.516  1.00  0.00     0.061 A 
HETATM   26  C   UNL     1      -1.142   6.391 -31.516  1.00  0.00     0.031 A 
HETATM   27  C   UNL     1       0.222   6.564 -31.275  1.00  0.00     0.002 A 
HETATM   28  C   UNL     1       0.661   7.015 -30.031  1.00  0.00     0.000 A 
HETATM   29  C   UNL     1      -0.264   7.281 -29.023  1.00  0.00     0.002 A 
HETATM   30  C   UNL     1      -1.631   7.112 -29.259  1.00  0.00     0.031 A 
ENDBRANCH  23  25
BRANCH  24  31
HETATM   31  O   UNL     1      -3.690   4.089 -30.847  1.00  0.00    -0.344 OA
HETATM   32  H   UNL     1      -3.160   3.840 -31.626  1.00  0.00     0.219 HD
ENDBRANCH  24  31
ENDBRANCH   1  19
TORSDOF 8
ENDMDL
MODEL 6
REMARK VINA RESULT:      -7.8      4.043      8.515
REMARK  8 active torsions:
REMARK  status: ('A' for Active; 'I' for Inactive)
REMARK    1  A    between atoms: N_4  and  C_5 
REMARK    2  A    between atoms: C_11  and  O_12 
REMARK    3  A    between atoms: C_13  and  C_14 
REMARK    4  A    between atoms: N_15  and  N_16 
REMARK       I    between atoms: N_16  and  C_17 
REMARK    5  A    between atoms: C_17  and  C_18 
REMARK    6  A    between atoms: C_18  and  C_19 
REMARK    7  A    between atoms: C_19  and  N_20 
REMARK       I    between atoms: N_20  and  C_21 
REMARK    8  A    between atoms: C_21  and  C_22 
ROOT
HETATM    1  C   UNL     1      -8.025   3.075 -32.699  1.00  0.00     0.156 C 
HETATM    2  N   UNL     1      -7.796   2.394 -31.620  1.00  0.00    -0.184 NA
ENDROOT
BRANCH   2   3
HETATM    3  N   UNL     1      -6.490   2.307 -31.194  1.00  0.00    -0.247 N 
HETATM    4  C   UNL     1      -5.397   2.128 -32.041  1.00  0.00     0.239 C 
HETATM    5  O   UNL     1      -5.460   1.953 -33.255  1.00  0.00    -0.272 OA
HETATM    6  H   UNL     1      -6.323   2.766 -30.303  1.00  0.00     0.192 HD
BRANCH   4   7
HETATM    7  C   UNL     1      -4.090   2.111 -31.278  1.00  0.00     0.124 C 
BRANCH   7   8
HETATM    8  C   UNL     1      -3.464   0.721 -31.294  1.00  0.00     0.132 C 
BRANCH   8   9
HETATM    9  N   UNL     1      -4.227  -0.251 -32.062  1.00  0.00    -0.356 N 
HETATM   10  C   UNL     1      -3.725  -1.501 -32.361  1.00  0.00     0.251 C 
HETATM   11  O   UNL     1      -2.665  -1.924 -31.911  1.00  0.00    -0.268 OA
HETATM   12  H   UNL     1      -4.950   0.123 -32.661  1.00  0.00     0.162 HD
BRANCH  10  13
HETATM   13  C   UNL     1      -4.525  -2.334 -33.307  1.00  0.00     0.032 A 
HETATM   14  C   UNL     1      -4.112  -3.609 -33.720  1.00  0.00     0.017 A 
HETATM   15  C   UNL     1      -4.906  -4.351 -34.600  1.00  0.00     0.001 A 
HETATM   16  C   UNL     1      -6.103  -3.822 -35.080  1.00  0.00     0.000 A 
HETATM   17  C   UNL     1      -6.508  -2.546 -34.690  1.00  0.00     0.001 A 
HETATM   18  C   UNL     1      -5.721  -1.803 -33.808  1.00  0.00     0.017 A 
ENDBRANCH  10  13
ENDBRANCH   8   9
ENDBRANCH   7   8
ENDBRANCH   4   7
ENDBRANCH   2   3
BRANCH   1  19
HETATM   19  C   UNL     1      -9.381   3.219 -33.174  1.00  0.00     0.062 C 
HETATM   20  C   UNL     1      -9.995   4.242 -33.936  1.00  0.00     0.067 C 
HETATM   21  C   UNL     1      -9.384   5.485 -34.471  1.00  0.00     0.073 C 
HETATM   22  N   UNL     1     -11.279   3.969 -34.199  1.00  0.00    -0.169 NA
HETATM   23  N   UNL     1     -11.544   2.828 -33.511  1.00  0.00    -0.210 N 
HETATM   24  C   UNL     1     -10.371   2.271 -32.998  1.00  0.00     0.177 C 
BRANCH  23  25
HETATM   25  C   UNL     1     -12.887   2.365 -33.387  1.00  0.00     0.061 A 
HETATM   26  C   UNL     1     -13.369   1.409 -34.295  1.00  0.00     0.031 A 
HETATM   27  C   UNL     1     -14.679   0.938 -34.195  1.00  0.00     0.002 A 
HETATM   28  C   UNL     1     -15.523   1.427 -33.200  1.00  0.00     0.000 A 
HETATM   29  C   UNL     1     -15.063   2.399 -32.313  1.00  0.00     0.002 A 
HETATM   30  C   UNL     1     -13.752   2.874 -32.408  1.00  0.00     0.031 A 
ENDBRANCH  23  25
BRANCH  24  31
HETATM   31  O   UNL     1     -10.267   1.048 -32.472  1.00  0.00    -0.344 OA
HETATM   32  H   UNL     1     -10.018   0.428 -33.183  1.00  0.00     0.219 HD
ENDBRANCH  24  31
ENDBRANCH   1  19
TORSDOF 8
ENDMDL
MODEL 7
REMARK VINA RESULT:      -7.7      2.564      3.266
REMARK  8 active torsions:
REMARK  status: ('A' for Active; 'I' for Inactive)
REMARK    1  A    between atoms: N_4  and  C_5 
REMARK    2  A    between atoms: C_11  and  O_12 
REMARK    3  A    between atoms: C_13  and  C_14 
REMARK    4  A    between atoms: N_15  and  N_16 
REMARK       I    between atoms: N_16  and  C_17 
REMARK    5  A    between atoms: C_17  and  C_18 
REMARK    6  A    between atoms: C_18  and  C_19 
REMARK    7  A    between atoms: C_19  and  N_20 
REMARK       I    between atoms: N_20  and  C_21 
REMARK    8  A    between atoms: C_21  and  C_22 
ROOT
HETATM    1  C   UNL     1      -5.971   4.030 -31.850  1.00  0.00     0.156 C 
HETATM    2  N   UNL     1      -6.698   5.098 -31.950  1.00  0.00    -0.184 NA
ENDROOT
BRANCH   2   3
HETATM    3  N   UNL     1      -8.057   4.927 -32.088  1.00  0.00    -0.247 N 
HETATM    4  C   UNL     1      -8.729   4.923 -33.309  1.00  0.00     0.239 C 
HETATM    5  O   UNL     1      -8.216   5.144 -34.403  1.00  0.00    -0.272 OA
HETATM    6  H   UNL     1      -8.481   4.417 -31.318  1.00  0.00     0.192 HD
BRANCH   4   7
HETATM    7  C   UNL     1     -10.212   4.672 -33.137  1.00  0.00     0.124 C 
BRANCH   7   8
HETATM    8  C   UNL     1     -10.589   3.274 -33.614  1.00  0.00     0.132 C 
BRANCH   8   9
HETATM    9  N   UNL     1      -9.445   2.399 -33.815  1.00  0.00    -0.356 N 
HETATM   10  C   UNL     1      -9.528   1.033 -33.633  1.00  0.00     0.251 C 
HETATM   11  O   UNL     1     -10.583   0.450 -33.405  1.00  0.00    -0.268 OA
HETATM   12  H   UNL     1      -8.535   2.831 -33.736  1.00  0.00     0.162 HD
BRANCH  10  13
HETATM   13  C   UNL     1      -8.246   0.272 -33.690  1.00  0.00     0.032 A 
HETATM   14  C   UNL     1      -7.460   0.036 -32.552  1.00  0.00     0.017 A 
HETATM   15  C   UNL     1      -6.273  -0.694 -32.660  1.00  0.00     0.001 A 
HETATM   16  C   UNL     1      -5.858  -1.178 -33.901  1.00  0.00     0.000 A 
HETATM   17  C   UNL     1      -6.624  -0.929 -35.038  1.00  0.00     0.001 A 
HETATM   18  C   UNL     1      -7.813  -0.204 -34.934  1.00  0.00     0.017 A 
ENDBRANCH  10  13
ENDBRANCH   8   9
ENDBRANCH   7   8
ENDBRANCH   4   7
ENDBRANCH   2   3
BRANCH   1  19
HETATM   19  C   UNL     1      -4.543   4.156 -31.676  1.00  0.00     0.062 C 
HETATM   20  C   UNL     1      -3.511   3.189 -31.739  1.00  0.00     0.067 C 
HETATM   21  C   UNL     1      -3.627   1.734 -32.012  1.00  0.00     0.073 C 
HETATM   22  N   UNL     1      -2.303   3.734 -31.555  1.00  0.00    -0.169 NA
HETATM   23  N   UNL     1      -2.546   5.036 -31.252  1.00  0.00    -0.210 N 
HETATM   24  C   UNL     1      -3.889   5.354 -31.463  1.00  0.00     0.177 C 
BRANCH  23  25
HETATM   25  C   UNL     1      -1.489   5.868 -30.779  1.00  0.00     0.061 A 
HETATM   26  C   UNL     1      -0.255   5.855 -31.449  1.00  0.00     0.031 A 
HETATM   27  C   UNL     1       0.795   6.663 -31.008  1.00  0.00     0.002 A 
HETATM   28  C   UNL     1       0.629   7.475 -29.887  1.00  0.00     0.000 A 
HETATM   29  C   UNL     1      -0.582   7.470 -29.198  1.00  0.00     0.002 A 
HETATM   30  C   UNL     1      -1.638   6.665 -29.636  1.00  0.00     0.031 A 
ENDBRANCH  23  25
BRANCH  24  31
HETATM   31  O   UNL     1      -4.394   6.590 -31.470  1.00  0.00    -0.344 OA
HETATM   32  H   UNL     1      -4.112   7.032 -32.293  1.00  0.00     0.219 HD
ENDBRANCH  24  31
ENDBRANCH   1  19
TORSDOF 8
ENDMDL
MODEL 8
REMARK VINA RESULT:      -7.5      2.123      2.889
REMARK  8 active torsions:
REMARK  status: ('A' for Active; 'I' for Inactive)
REMARK    1  A    between atoms: N_4  and  C_5 
REMARK    2  A    between atoms: C_11  and  O_12 
REMARK    3  A    between atoms: C_13  and  C_14 
REMARK    4  A    between atoms: N_15  and  N_16 
REMARK       I    between atoms: N_16  and  C_17 
REMARK    5  A    between atoms: C_17  and  C_18 
REMARK    6  A    between atoms: C_18  and  C_19 
REMARK    7  A    between atoms: C_19  and  N_20 
REMARK       I    between atoms: N_20  and  C_21 
REMARK    8  A    between atoms: C_21  and  C_22 
ROOT
HETATM    1  C   UNL     1      -4.695   6.068 -30.973  1.00  0.00     0.156 C 
HETATM    2  N   UNL     1      -4.686   4.773 -31.029  1.00  0.00    -0.184 NA
ENDROOT
BRANCH   2   3
HETATM    3  N   UNL     1      -5.384   4.181 -32.056  1.00  0.00    -0.247 N 
HETATM    4  C   UNL     1      -5.111   2.913 -32.565  1.00  0.00     0.239 C 
HETATM    5  O   UNL     1      -4.177   2.195 -32.219  1.00  0.00    -0.272 OA
HETATM    6  H   UNL     1      -6.333   4.532 -32.156  1.00  0.00     0.192 HD
BRANCH   4   7
HETATM    7  C   UNL     1      -6.077   2.525 -33.664  1.00  0.00     0.124 C 
BRANCH   7   8
HETATM    8  C   UNL     1      -6.955   1.355 -33.234  1.00  0.00     0.132 C 
BRANCH   8   9
HETATM    9  N   UNL     1      -6.338   0.055 -33.448  1.00  0.00    -0.356 N 
HETATM   10  C   UNL     1      -6.709  -0.766 -34.493  1.00  0.00     0.251 C 
HETATM   11  O   UNL     1      -7.489  -0.420 -35.374  1.00  0.00    -0.268 OA
HETATM   12  H   UNL     1      -5.912  -0.374 -32.638  1.00  0.00     0.162 HD
BRANCH  10  13
HETATM   13  C   UNL     1      -6.135  -2.144 -34.496  1.00  0.00     0.032 A 
HETATM   14  C   UNL     1      -6.892  -3.273 -34.841  1.00  0.00     0.017 A 
HETATM   15  C   UNL     1      -6.301  -4.540 -34.839  1.00  0.00     0.001 A 
HETATM   16  C   UNL     1      -4.962  -4.688 -34.480  1.00  0.00     0.000 A 
HETATM   17  C   UNL     1      -4.210  -3.572 -34.116  1.00  0.00     0.001 A 
HETATM   18  C   UNL     1      -4.794  -2.304 -34.121  1.00  0.00     0.017 A 
ENDBRANCH  10  13
ENDBRANCH   8   9
ENDBRANCH   7   8
ENDBRANCH   4   7
ENDBRANCH   2   3
BRANCH   1  19
HETATM   19  C   UNL     1      -3.956   6.739 -29.929  1.00  0.00     0.062 C 
HETATM   20  C   UNL     1      -4.373   7.667 -28.945  1.00  0.00     0.067 C 
HETATM   21  C   UNL     1      -5.733   8.215 -28.714  1.00  0.00     0.073 C 
HETATM   22  N   UNL     1      -3.370   8.022 -28.134  1.00  0.00    -0.169 NA
HETATM   23  N   UNL     1      -2.267   7.424 -28.656  1.00  0.00    -0.210 N 
HETATM   24  C   UNL     1      -2.619   6.521 -29.660  1.00  0.00     0.177 C 
BRANCH  23  25
HETATM   25  C   UNL     1      -0.971   7.765 -28.167  1.00  0.00     0.061 A 
HETATM   26  C   UNL     1      -0.057   6.740 -27.877  1.00  0.00     0.031 A 
HETATM   27  C   UNL     1       1.219   7.047 -27.400  1.00  0.00     0.002 A 
HETATM   28  C   UNL     1       1.586   8.375 -27.193  1.00  0.00     0.000 A 
HETATM   29  C   UNL     1       0.674   9.397 -27.449  1.00  0.00     0.002 A 
HETATM   30  C   UNL     1      -0.604   9.097 -27.929  1.00  0.00     0.031 A 
ENDBRANCH  23  25
BRANCH  24  31
HETATM   31  O   UNL     1      -1.796   5.622 -30.209  1.00  0.00    -0.344 OA
HETATM   32  H   UNL     1      -0.898   5.774 -29.859  1.00  0.00     0.219 HD
ENDBRANCH  24  31
ENDBRANCH   1  19
TORSDOF 8
ENDMDL
MODEL 9
REMARK VINA RESULT:      -7.5      4.371      8.776
REMARK  8 active torsions:
REMARK  status: ('A' for Active; 'I' for Inactive)
REMARK    1  A    between atoms: N_4  and  C_5 
REMARK    2  A    between atoms: C_11  and  O_12 
REMARK    3  A    between atoms: C_13  and  C_14 
REMARK    4  A    between atoms: N_15  and  N_16 
REMARK       I    between atoms: N_16  and  C_17 
REMARK    5  A    between atoms: C_17  and  C_18 
REMARK    6  A    between atoms: C_18  and  C_19 
REMARK    7  A    between atoms: C_19  and  N_20 
REMARK       I    between atoms: N_20  and  C_21 
REMARK    8  A    between atoms: C_21  and  C_22 
ROOT
HETATM    1  C   UNL     1      -6.935   2.541 -34.089  1.00  0.00     0.156 C 
HETATM    2  N   UNL     1      -7.754   3.087 -33.246  1.00  0.00    -0.184 NA
ENDROOT
BRANCH   2   3
HETATM    3  N   UNL     1      -8.348   4.271 -33.618  1.00  0.00    -0.247 N 
HETATM    4  C   UNL     1      -9.138   5.053 -32.778  1.00  0.00     0.239 C 
HETATM    5  O   UNL     1      -9.466   4.756 -31.632  1.00  0.00    -0.272 OA
HETATM    6  H   UNL     1      -7.872   4.739 -34.385  1.00  0.00     0.192 HD
BRANCH   4   7
HETATM    7  C   UNL     1      -9.615   6.315 -33.465  1.00  0.00     0.124 C 
BRANCH   7   8
HETATM    8  C   UNL     1     -10.742   6.012 -34.446  1.00  0.00     0.132 C 
BRANCH   8   9
HETATM    9  N   UNL     1     -11.716   5.059 -33.936  1.00  0.00    -0.356 N 
HETATM   10  C   UNL     1     -11.786   3.763 -34.407  1.00  0.00     0.251 C 
HETATM   11  O   UNL     1     -10.971   3.290 -35.193  1.00  0.00    -0.268 OA
HETATM   12  H   UNL     1     -12.545   5.453 -33.513  1.00  0.00     0.162 HD
BRANCH  10  13
HETATM   13  C   UNL     1     -12.942   2.944 -33.939  1.00  0.00     0.032 A 
HETATM   14  C   UNL     1     -13.442   1.860 -34.675  1.00  0.00     0.017 A 
HETATM   15  C   UNL     1     -14.520   1.118 -34.184  1.00  0.00     0.001 A 
HETATM   16  C   UNL     1     -15.111   1.460 -32.968  1.00  0.00     0.000 A 
HETATM   17  C   UNL     1     -14.632   2.549 -32.242  1.00  0.00     0.001 A 
HETATM   18  C   UNL     1     -13.552   3.290 -32.726  1.00  0.00     0.017 A 
ENDBRANCH  10  13
ENDBRANCH   8   9
ENDBRANCH   7   8
ENDBRANCH   4   7
ENDBRANCH   2   3
BRANCH   1  19
HETATM   19  C   UNL     1      -6.306   1.285 -33.758  1.00  0.00     0.062 C 
HETATM   20  C   UNL     1      -5.211   0.989 -32.911  1.00  0.00     0.067 C 
HETATM   21  C   UNL     1      -4.390   1.928 -32.105  1.00  0.00     0.073 C 
HETATM   22  N   UNL     1      -4.966  -0.326 -32.849  1.00  0.00    -0.169 NA
HETATM   23  N   UNL     1      -5.819  -0.885 -33.746  1.00  0.00    -0.210 N 
HETATM   24  C   UNL     1      -6.745   0.053 -34.205  1.00  0.00     0.177 C 
BRANCH  23  25
HETATM   25  C   UNL     1      -5.680  -2.259 -34.102  1.00  0.00     0.061 A 
HETATM   26  C   UNL     1      -4.426  -2.876 -33.976  1.00  0.00     0.031 A 
HETATM   27  C   UNL     1      -4.263  -4.220 -34.314  1.00  0.00     0.002 A 
HETATM   28  C   UNL     1      -5.345  -4.955 -34.797  1.00  0.00     0.000 A 
HETATM   29  C   UNL     1      -6.587  -4.342 -34.954  1.00  0.00     0.002 A 
HETATM   30  C   UNL     1      -6.756  -2.997 -34.615  1.00  0.00     0.031 A 
ENDBRANCH  23  25
BRANCH  24  31
HETATM   31  O   UNL     1      -7.840  -0.231 -34.916  1.00  0.00    -0.344 OA
HETATM   32  H   UNL     1      -7.785   0.243 -35.767  1.00  0.00     0.219 HD
ENDBRANCH  24  31
ENDBRANCH   1  19
TORSDOF 8
ENDMDL
MODEL 10
REMARK VINA RESULT:      -7.5      1.861     10.165
REMARK  8 active torsions:
REMARK  status: ('A' for Active; 'I' for Inactive)
REMARK    1  A    between atoms: N_4  and  C_5 
REMARK    2  A    between atoms: C_11  and  O_12 
REMARK    3  A    between atoms: C_13  and  C_14 
REMARK    4  A    between atoms: N_15  and  N_16 
REMARK       I    between atoms: N_16  and  C_17 
REMARK    5  A    between atoms: C_17  and  C_18 
REMARK    6  A    between atoms: C_18  and  C_19 
REMARK    7  A    between atoms: C_19  and  N_20 
REMARK       I    between atoms: N_20  and  C_21 
REMARK    8  A    between atoms: C_21  and  C_22 
ROOT
HETATM    1  C   UNL     1      -5.812   2.866 -32.508  1.00  0.00     0.156 C 
HETATM    2  N   UNL     1      -4.710   3.487 -32.229  1.00  0.00    -0.184 NA
ENDROOT
BRANCH   2   3
HETATM    3  N   UNL     1      -4.717   4.860 -32.322  1.00  0.00    -0.247 N 
HETATM    4  C   UNL     1      -4.575   5.723 -31.237  1.00  0.00     0.239 C 
HETATM    5  O   UNL     1      -4.500   5.379 -30.061  1.00  0.00    -0.272 OA
HETATM    6  H   UNL     1      -4.436   5.205 -33.236  1.00  0.00     0.192 HD
BRANCH   4   7
HETATM    7  C   UNL     1      -4.584   7.175 -31.666  1.00  0.00     0.124 C 
BRANCH   7   8
HETATM    8  C   UNL     1      -3.165   7.695 -31.869  1.00  0.00     0.132 C 
BRANCH   8   9
HETATM    9  N   UNL     1      -2.268   7.382 -30.768  1.00  0.00    -0.356 N 
HETATM   10  C   UNL     1      -1.752   8.363 -29.946  1.00  0.00     0.251 C 
HETATM   11  O   UNL     1      -2.096   9.539 -30.006  1.00  0.00    -0.268 OA
HETATM   12  H   UNL     1      -1.760   6.512 -30.841  1.00  0.00     0.162 HD
BRANCH  10  13
HETATM   13  C   UNL     1      -0.703   7.937 -28.973  1.00  0.00     0.032 A 
HETATM   14  C   UNL     1      -0.235   6.616 -28.903  1.00  0.00     0.017 A 
HETATM   15  C   UNL     1       0.757   6.273 -27.981  1.00  0.00     0.001 A 
HETATM   16  C   UNL     1       1.276   7.238 -27.118  1.00  0.00     0.000 A 
HETATM   17  C   UNL     1       0.800   8.547 -27.168  1.00  0.00     0.001 A 
HETATM   18  C   UNL     1      -0.188   8.895 -28.091  1.00  0.00     0.017 A 
ENDBRANCH  10  13
ENDBRANCH   8   9
ENDBRANCH   7   8
ENDBRANCH   4   7
ENDBRANCH   2   3
BRANCH   1  19
HETATM   19  C   UNL     1      -5.865   1.427 -32.400  1.00  0.00     0.062 C 
HETATM   20  C   UNL     1      -5.817   0.578 -31.268  1.00  0.00     0.067 C 
HETATM   21  C   UNL     1      -5.695   0.956 -29.838  1.00  0.00     0.073 C 
HETATM   22  N   UNL     1      -5.937  -0.712 -31.605  1.00  0.00    -0.169 NA
HETATM   23  N   UNL     1      -5.943  -0.722 -32.963  1.00  0.00    -0.210 N 
HETATM   24  C   UNL     1      -6.049   0.574 -33.471  1.00  0.00     0.177 C 
BRANCH  23  25
HETATM   25  C   UNL     1      -5.839  -1.957 -33.668  1.00  0.00     0.061 A 
HETATM   26  C   UNL     1      -4.573  -2.534 -33.855  1.00  0.00     0.031 A 
HETATM   27  C   UNL     1      -4.443  -3.745 -34.539  1.00  0.00     0.002 A 
HETATM   28  C   UNL     1      -5.571  -4.379 -35.056  1.00  0.00     0.000 A 
HETATM   29  C   UNL     1      -6.828  -3.798 -34.902  1.00  0.00     0.002 A 
HETATM   30  C   UNL     1      -6.965  -2.587 -34.217  1.00  0.00     0.031 A 
ENDBRANCH  23  25
BRANCH  24  31
HETATM   31  O   UNL     1      -6.302   0.882 -34.746  1.00  0.00    -0.344 OA
HETATM   32  H   UNL     1      -7.138   0.451 -35.005  1.00  0.00     0.219 HD
ENDBRANCH  24  31
ENDBRANCH   1  19
TORSDOF 8
ENDMDL
