MODEL 1
REMARK VINA RESULT:      -8.2      0.000      0.000
REMARK  4 active torsions:
REMARK  status: ('A' for Active; 'I' for Inactive)
REMARK    1  A    between atoms: C_5  and  C_6 
REMARK    2  A    between atoms: N_7  and  N_8 
REMARK       I    between atoms: N_8  and  C_9 
REMARK    3  A    between atoms: C_9  and  C_10 
REMARK    4  A    between atoms: C_21  and  O_22 
ROOT
HETATM    1  N   UNL     1      -7.578   0.365 -33.313  1.00  0.00    -0.242 N 
HETATM    2  C   UNL     1      -6.954  -0.091 -34.464  1.00  0.00     0.292 C 
HETATM    3  O   UNL     1      -7.298   0.191 -35.609  1.00  0.00    -0.264 OA
HETATM    4  H   UNL     1      -7.188   0.054 -32.426  1.00  0.00     0.192 HD
ENDROOT
BRANCH   1   5
HETATM    5  N   UNL     1      -8.648   1.200 -33.382  1.00  0.00    -0.183 NA
HETATM    6  C   UNL     1      -9.803   0.648 -33.189  1.00  0.00     0.153 C 
BRANCH   6   7
HETATM    7  C   UNL     1     -11.037   1.458 -33.234  1.00  0.00     0.017 A 
HETATM    8  C   UNL     1     -12.218   0.836 -33.655  1.00  0.00     0.034 A 
HETATM    9  C   UNL     1     -13.401   1.576 -33.705  1.00  0.00     0.012 A 
HETATM   10  C   UNL     1     -13.418   2.923 -33.340  1.00  0.00     0.022 A 
HETATM   11 BR   UNL     1     -14.999   0.742 -34.274  1.00  0.00    -0.051 Br
HETATM   12  C   UNL     1     -12.239   3.540 -32.921  1.00  0.00     0.039 A 
HETATM   13  C   UNL     1     -11.053   2.811 -32.868  1.00  0.00     0.077 A 
BRANCH  13  14
HETATM   14  O   UNL     1      -9.944   3.491 -32.445  1.00  0.00    -0.360 OA
HETATM   15  H   UNL     1      -9.740   4.195 -33.104  1.00  0.00     0.217 HD
ENDBRANCH  13  14
ENDBRANCH   6   7
ENDBRANCH   1   5
BRANCH   2  16
HETATM   16  C   UNL     1      -5.807  -0.965 -34.163  1.00  0.00     0.154 A 
HETATM   17  N   UNL     1      -4.671  -0.482 -33.603  1.00  0.00    -0.169 NA
HETATM   18  N   UNL     1      -3.875  -1.564 -33.476  1.00  0.00    -0.281 N 
HETATM   19  H   UNL     1      -2.951  -1.442 -33.074  1.00  0.00     0.189 HD
HETATM   20  C   UNL     1      -4.452  -2.707 -33.928  1.00  0.00     0.036 A 
HETATM   21  C   UNL     1      -5.701  -2.361 -34.388  1.00  0.00     0.002 A 
HETATM   22  C   UNL     1      -3.846  -4.060 -33.950  1.00  0.00     0.059 C 
HETATM   23  C   UNL     1      -6.657  -3.350 -34.956  1.00  0.00     0.043 C 
HETATM   24  C   UNL     1      -5.937  -4.670 -35.302  1.00  0.00     0.005 C 
HETATM   25  C   UNL     1      -4.947  -5.109 -34.203  1.00  0.00     0.006 C 
ENDBRANCH   2  16
TORSDOF 4
ENDMDL
MODEL 2
REMARK VINA RESULT:      -8.1      6.373      7.917
REMARK  4 active torsions:
REMARK  status: ('A' for Active; 'I' for Inactive)
REMARK    1  A    between atoms: C_5  and  C_6 
REMARK    2  A    between atoms: N_7  and  N_8 
REMARK       I    between atoms: N_8  and  C_9 
REMARK    3  A    between atoms: C_9  and  C_10 
REMARK    4  A    between atoms: C_21  and  O_22 
ROOT
HETATM    1  N   UNL     1      -4.465   2.163 -32.669  1.00  0.00    -0.242 N 
HETATM    2  C   UNL     1      -4.508   0.903 -32.091  1.00  0.00     0.292 C 
HETATM    3  O   UNL     1      -3.787   0.527 -31.170  1.00  0.00    -0.264 OA
HETATM    4  H   UNL     1      -5.120   2.342 -33.426  1.00  0.00     0.192 HD
ENDROOT
BRANCH   1   5
HETATM    5  N   UNL     1      -3.593   3.106 -32.224  1.00  0.00    -0.183 NA
HETATM    6  C   UNL     1      -3.225   3.986 -33.099  1.00  0.00     0.153 C 
BRANCH   6   7
HETATM    7  C   UNL     1      -2.285   5.064 -32.729  1.00  0.00     0.017 A 
HETATM    8  C   UNL     1      -1.527   4.905 -31.564  1.00  0.00     0.034 A 
HETATM    9  C   UNL     1      -0.628   5.906 -31.190  1.00  0.00     0.012 A 
HETATM   10  C   UNL     1      -0.479   7.058 -31.963  1.00  0.00     0.022 A 
HETATM   11 BR   UNL     1       0.399   5.697 -29.617  1.00  0.00    -0.051 Br
HETATM   12  C   UNL     1      -1.237   7.213 -33.124  1.00  0.00     0.039 A 
HETATM   13  C   UNL     1      -2.137   6.220 -33.505  1.00  0.00     0.077 A 
BRANCH  13  14
HETATM   14  O   UNL     1      -2.839   6.452 -34.656  1.00  0.00    -0.360 OA
HETATM   15  H   UNL     1      -3.304   7.317 -34.571  1.00  0.00     0.217 HD
ENDBRANCH  13  14
ENDBRANCH   6   7
ENDBRANCH   1   5
BRANCH   2  16
HETATM   16  C   UNL     1      -5.534   0.045 -32.709  1.00  0.00     0.154 A 
HETATM   17  N   UNL     1      -6.851   0.364 -32.661  1.00  0.00    -0.169 NA
HETATM   18  N   UNL     1      -7.461  -0.636 -33.330  1.00  0.00    -0.281 N 
HETATM   19  H   UNL     1      -8.472  -0.613 -33.423  1.00  0.00     0.189 HD
HETATM   20  C   UNL     1      -6.594  -1.572 -33.798  1.00  0.00     0.036 A 
HETATM   21  C   UNL     1      -5.337  -1.171 -33.411  1.00  0.00     0.002 A 
HETATM   22  C   UNL     1      -6.936  -2.801 -34.554  1.00  0.00     0.059 C 
HETATM   23  C   UNL     1      -4.104  -1.933 -33.747  1.00  0.00     0.043 C 
HETATM   24  C   UNL     1      -4.456  -3.360 -34.220  1.00  0.00     0.005 C 
HETATM   25  C   UNL     1      -5.656  -3.383 -35.189  1.00  0.00     0.006 C 
ENDBRANCH   2  16
TORSDOF 4
ENDMDL
MODEL 3
REMARK VINA RESULT:      -8.0      8.054     10.229
REMARK  4 active torsions:
REMARK  status: ('A' for Active; 'I' for Inactive)
REMARK    1  A    between atoms: C_5  and  C_6 
REMARK    2  A    between atoms: N_7  and  N_8 
REMARK       I    between atoms: N_8  and  C_9 
REMARK    3  A    between atoms: C_9  and  C_10 
REMARK    4  A    between atoms: C_21  and  O_22 
ROOT
HETATM    1  N   UNL     1      -2.818   4.106 -31.085  1.00  0.00    -0.242 N 
HETATM    2  C   UNL     1      -1.729   4.952 -31.236  1.00  0.00     0.292 C 
HETATM    3  O   UNL     1      -0.695   4.667 -31.834  1.00  0.00    -0.264 OA
HETATM    4  H   UNL     1      -3.613   4.471 -30.564  1.00  0.00     0.192 HD
ENDROOT
BRANCH   1   5
HETATM    5  N   UNL     1      -2.814   2.859 -31.625  1.00  0.00    -0.183 NA
HETATM    6  C   UNL     1      -3.896   2.170 -31.450  1.00  0.00     0.153 C 
BRANCH   6   7
HETATM    7  C   UNL     1      -4.010   0.803 -31.998  1.00  0.00     0.017 A 
HETATM    8  C   UNL     1      -5.049   0.538 -32.896  1.00  0.00     0.034 A 
HETATM    9  C   UNL     1      -5.180  -0.744 -33.433  1.00  0.00     0.012 A 
HETATM   10  C   UNL     1      -4.289  -1.760 -33.084  1.00  0.00     0.022 A 
HETATM   11 BR   UNL     1      -6.583  -1.109 -34.646  1.00  0.00    -0.051 Br
HETATM   12  C   UNL     1      -3.254  -1.492 -32.188  1.00  0.00     0.039 A 
HETATM   13  C   UNL     1      -3.114  -0.216 -31.647  1.00  0.00     0.077 A 
BRANCH  13  14
HETATM   14  O   UNL     1      -2.073  -0.039 -30.778  1.00  0.00    -0.360 OA
HETATM   15  H   UNL     1      -2.413  -0.136 -29.858  1.00  0.00     0.217 HD
ENDBRANCH  13  14
ENDBRANCH   6   7
ENDBRANCH   1   5
BRANCH   2  16
HETATM   16  C   UNL     1      -1.950   6.259 -30.592  1.00  0.00     0.154 A 
HETATM   17  N   UNL     1      -3.097   6.957 -30.773  1.00  0.00    -0.169 NA
HETATM   18  N   UNL     1      -2.931   8.071 -30.031  1.00  0.00    -0.281 N 
HETATM   19  H   UNL     1      -3.676   8.760 -30.014  1.00  0.00     0.189 HD
HETATM   20  C   UNL     1      -1.734   8.111 -29.389  1.00  0.00     0.036 A 
HETATM   21  C   UNL     1      -1.066   6.960 -29.732  1.00  0.00     0.002 A 
HETATM   22  C   UNL     1      -1.231   9.197 -28.514  1.00  0.00     0.059 C 
HETATM   23  C   UNL     1       0.289   6.625 -29.216  1.00  0.00     0.043 C 
HETATM   24  C   UNL     1       0.960   7.869 -28.597  1.00  0.00     0.005 C 
HETATM   25  C   UNL     1      -0.009   8.690 -27.722  1.00  0.00     0.006 C 
ENDBRANCH   2  16
TORSDOF 4
ENDMDL
MODEL 4
REMARK VINA RESULT:      -7.9      6.535      8.080
REMARK  4 active torsions:
REMARK  status: ('A' for Active; 'I' for Inactive)
REMARK    1  A    between atoms: C_5  and  C_6 
REMARK    2  A    between atoms: N_7  and  N_8 
REMARK       I    between atoms: N_8  and  C_9 
REMARK    3  A    between atoms: C_9  and  C_10 
REMARK    4  A    between atoms: C_21  and  O_22 
ROOT
HETATM    1  N   UNL     1      -3.429   1.840 -32.677  1.00  0.00    -0.242 N 
HETATM    2  C   UNL     1      -3.229   0.689 -31.929  1.00  0.00     0.292 C 
HETATM    3  O   UNL     1      -2.633   0.643 -30.856  1.00  0.00    -0.264 OA
HETATM    4  H   UNL     1      -3.942   1.736 -33.550  1.00  0.00     0.192 HD
ENDROOT
BRANCH   1   5
HETATM    5  N   UNL     1      -2.969   3.043 -32.244  1.00  0.00    -0.183 NA
HETATM    6  C   UNL     1      -2.592   3.865 -33.170  1.00  0.00     0.153 C 
BRANCH   6   7
HETATM    7  C   UNL     1      -2.080   5.206 -32.819  1.00  0.00     0.017 A 
HETATM    8  C   UNL     1      -1.326   5.337 -31.648  1.00  0.00     0.034 A 
HETATM    9  C   UNL     1      -0.827   6.592 -31.293  1.00  0.00     0.012 A 
HETATM   10  C   UNL     1      -1.071   7.710 -32.090  1.00  0.00     0.022 A 
HETATM   11 BR   UNL     1       0.192   6.776 -29.711  1.00  0.00    -0.051 Br
HETATM   12  C   UNL     1      -1.823   7.576 -33.257  1.00  0.00     0.039 A 
HETATM   13  C   UNL     1      -2.326   6.329 -33.620  1.00  0.00     0.077 A 
BRANCH  13  14
HETATM   14  O   UNL     1      -3.052   6.284 -34.779  1.00  0.00    -0.360 OA
HETATM   15  H   UNL     1      -2.598   5.679 -35.410  1.00  0.00     0.217 HD
ENDBRANCH  13  14
ENDBRANCH   6   7
ENDBRANCH   1   5
BRANCH   2  16
HETATM   16  C   UNL     1      -3.823  -0.497 -32.569  1.00  0.00     0.154 A 
HETATM   17  N   UNL     1      -3.276  -1.730 -32.432  1.00  0.00    -0.169 NA
HETATM   18  N   UNL     1      -4.092  -2.538 -33.138  1.00  0.00    -0.281 N 
HETATM   19  H   UNL     1      -3.874  -3.529 -33.183  1.00  0.00     0.189 HD
HETATM   20  C   UNL     1      -5.128  -1.878 -33.717  1.00  0.00     0.036 A 
HETATM   21  C   UNL     1      -4.987  -0.553 -33.378  1.00  0.00     0.002 A 
HETATM   22  C   UNL     1      -6.189  -2.463 -34.571  1.00  0.00     0.059 C 
HETATM   23  C   UNL     1      -5.943   0.501 -33.813  1.00  0.00     0.043 C 
HETATM   24  C   UNL     1      -6.837  -0.014 -34.961  1.00  0.00     0.005 C 
HETATM   25  C   UNL     1      -7.343  -1.450 -34.718  1.00  0.00     0.006 C 
ENDBRANCH   2  16
TORSDOF 4
ENDMDL
MODEL 5
REMARK VINA RESULT:      -7.8      6.807      8.950
REMARK  4 active torsions:
REMARK  status: ('A' for Active; 'I' for Inactive)
REMARK    1  A    between atoms: C_5  and  C_6 
REMARK    2  A    between atoms: N_7  and  N_8 
REMARK       I    between atoms: N_8  and  C_9 
REMARK    3  A    between atoms: C_9  and  C_10 
REMARK    4  A    between atoms: C_21  and  O_22 
ROOT
HETATM    1  N   UNL     1      -3.404   2.690 -31.820  1.00  0.00    -0.242 N 
HETATM    2  C   UNL     1      -2.800   3.811 -32.368  1.00  0.00     0.292 C 
HETATM    3  O   UNL     1      -2.404   3.900 -33.527  1.00  0.00    -0.264 OA
HETATM    4  H   UNL     1      -3.685   2.751 -30.844  1.00  0.00     0.192 HD
ENDROOT
BRANCH   1   5
HETATM    5  N   UNL     1      -3.617   1.575 -32.568  1.00  0.00    -0.183 NA
HETATM    6  C   UNL     1      -4.818   1.093 -32.525  1.00  0.00     0.153 C 
BRANCH   6   7
HETATM    7  C   UNL     1      -5.169  -0.113 -33.302  1.00  0.00     0.017 A 
HETATM    8  C   UNL     1      -4.413  -1.272 -33.098  1.00  0.00     0.034 A 
HETATM    9  C   UNL     1      -4.724  -2.428 -33.816  1.00  0.00     0.012 A 
HETATM   10  C   UNL     1      -5.777  -2.440 -34.731  1.00  0.00     0.022 A 
HETATM   11 BR   UNL     1      -3.705  -3.997 -33.545  1.00  0.00    -0.051 Br
HETATM   12  C   UNL     1      -6.529  -1.282 -34.933  1.00  0.00     0.039 A 
HETATM   13  C   UNL     1      -6.227  -0.124 -34.222  1.00  0.00     0.077 A 
BRANCH  13  14
HETATM   14  O   UNL     1      -7.014   0.966 -34.479  1.00  0.00    -0.360 OA
HETATM   15  H   UNL     1      -7.148   1.032 -35.453  1.00  0.00     0.217 HD
ENDBRANCH  13  14
ENDBRANCH   6   7
ENDBRANCH   1   5
BRANCH   2  16
HETATM   16  C   UNL     1      -2.685   4.910 -31.394  1.00  0.00     0.154 A 
HETATM   17  N   UNL     1      -3.757   5.358 -30.695  1.00  0.00    -0.169 NA
HETATM   18  N   UNL     1      -3.261   6.341 -29.916  1.00  0.00    -0.281 N 
HETATM   19  H   UNL     1      -3.894   6.835 -29.295  1.00  0.00     0.189 HD
HETATM   20  C   UNL     1      -1.927   6.536 -30.087  1.00  0.00     0.036 A 
HETATM   21  C   UNL     1      -1.518   5.634 -31.041  1.00  0.00     0.002 A 
HETATM   22  C   UNL     1      -1.082   7.544 -29.403  1.00  0.00     0.059 C 
HETATM   23  C   UNL     1      -0.106   5.525 -31.499  1.00  0.00     0.043 C 
HETATM   24  C   UNL     1       0.705   6.765 -31.068  1.00  0.00     0.005 C 
HETATM   25  C   UNL     1       0.405   7.193 -29.617  1.00  0.00     0.006 C 
ENDBRANCH   2  16
TORSDOF 4
ENDMDL
MODEL 6
REMARK VINA RESULT:      -7.6      2.005      2.339
REMARK  4 active torsions:
REMARK  status: ('A' for Active; 'I' for Inactive)
REMARK    1  A    between atoms: C_5  and  C_6 
REMARK    2  A    between atoms: N_7  and  N_8 
REMARK       I    between atoms: N_8  and  C_9 
REMARK    3  A    between atoms: C_9  and  C_10 
REMARK    4  A    between atoms: C_21  and  O_22 
ROOT
HETATM    1  N   UNL     1      -8.454   0.653 -33.873  1.00  0.00    -0.242 N 
HETATM    2  C   UNL     1      -7.700   0.239 -32.785  1.00  0.00     0.292 C 
HETATM    3  O   UNL     1      -8.017   0.398 -31.609  1.00  0.00    -0.264 OA
HETATM    4  H   UNL     1      -8.073   0.457 -34.796  1.00  0.00     0.192 HD
ENDROOT
BRANCH   1   5
HETATM    5  N   UNL     1      -9.650   1.275 -33.698  1.00  0.00    -0.183 NA
HETATM    6  C   UNL     1     -10.690   0.505 -33.718  1.00  0.00     0.153 C 
BRANCH   6   7
HETATM    7  C   UNL     1     -12.043   1.069 -33.533  1.00  0.00     0.017 A 
HETATM    8  C   UNL     1     -12.163   2.452 -33.366  1.00  0.00     0.034 A 
HETATM    9  C   UNL     1     -13.429   3.014 -33.192  1.00  0.00     0.012 A 
HETATM   10  C   UNL     1     -14.571   2.212 -33.183  1.00  0.00     0.022 A 
HETATM   11 BR   UNL     1     -13.598   4.883 -32.966  1.00  0.00    -0.051 Br
HETATM   12  C   UNL     1     -14.448   0.833 -33.348  1.00  0.00     0.039 A 
HETATM   13  C   UNL     1     -13.189   0.263 -33.523  1.00  0.00     0.077 A 
BRANCH  13  14
HETATM   14  O   UNL     1     -13.157  -1.096 -33.679  1.00  0.00    -0.360 OA
HETATM   15  H   UNL     1     -13.264  -1.516 -32.794  1.00  0.00     0.217 HD
ENDBRANCH  13  14
ENDBRANCH   6   7
ENDBRANCH   1   5
BRANCH   2  16
HETATM   16  C   UNL     1      -6.454  -0.429 -33.197  1.00  0.00     0.154 A 
HETATM   17  N   UNL     1      -5.242   0.153 -33.023  1.00  0.00    -0.169 NA
HETATM   18  N   UNL     1      -4.364  -0.750 -33.505  1.00  0.00    -0.281 N 
HETATM   19  H   UNL     1      -3.374  -0.526 -33.482  1.00  0.00     0.189 HD
HETATM   20  C   UNL     1      -4.961  -1.877 -33.975  1.00  0.00     0.036 A 
HETATM   21  C   UNL     1      -6.314  -1.705 -33.801  1.00  0.00     0.002 A 
HETATM   22  C   UNL     1      -4.290  -3.050 -34.585  1.00  0.00     0.059 C 
HETATM   23  C   UNL     1      -7.317  -2.736 -34.184  1.00  0.00     0.043 C 
HETATM   24  C   UNL     1      -6.686  -3.791 -35.116  1.00  0.00     0.005 C 
HETATM   25  C   UNL     1      -5.282  -4.229 -34.650  1.00  0.00     0.006 C 
ENDBRANCH   2  16
TORSDOF 4
ENDMDL
MODEL 7
REMARK VINA RESULT:      -7.4      7.117      8.618
REMARK  4 active torsions:
REMARK  status: ('A' for Active; 'I' for Inactive)
REMARK    1  A    between atoms: C_5  and  C_6 
REMARK    2  A    between atoms: N_7  and  N_8 
REMARK       I    between atoms: N_8  and  C_9 
REMARK    3  A    between atoms: C_9  and  C_10 
REMARK    4  A    between atoms: C_21  and  O_22 
ROOT
HETATM    1  N   UNL     1      -3.195   2.638 -32.112  1.00  0.00    -0.242 N 
HETATM    2  C   UNL     1      -4.381   2.120 -31.615  1.00  0.00     0.292 C 
HETATM    3  O   UNL     1      -4.829   2.341 -30.493  1.00  0.00    -0.264 OA
HETATM    4  H   UNL     1      -2.941   2.373 -33.061  1.00  0.00     0.192 HD
ENDROOT
BRANCH   1   5
HETATM    5  N   UNL     1      -2.426   3.470 -31.360  1.00  0.00    -0.183 NA
HETATM    6  C   UNL     1      -2.423   4.712 -31.724  1.00  0.00     0.153 C 
BRANCH   6   7
HETATM    7  C   UNL     1      -1.629   5.709 -30.978  1.00  0.00     0.017 A 
HETATM    8  C   UNL     1      -2.300   6.807 -30.429  1.00  0.00     0.034 A 
HETATM    9  C   UNL     1      -1.576   7.765 -29.716  1.00  0.00     0.012 A 
HETATM   10  C   UNL     1      -0.197   7.639 -29.546  1.00  0.00     0.022 A 
HETATM   11 BR   UNL     1      -2.477   9.252 -28.972  1.00  0.00    -0.051 Br
HETATM   12  C   UNL     1       0.469   6.543 -30.096  1.00  0.00     0.039 A 
HETATM   13  C   UNL     1      -0.244   5.582 -30.809  1.00  0.00     0.077 A 
BRANCH  13  14
HETATM   14  O   UNL     1       0.485   4.540 -31.313  1.00  0.00    -0.360 OA
HETATM   15  H   UNL     1       1.294   4.903 -31.742  1.00  0.00     0.217 HD
ENDBRANCH  13  14
ENDBRANCH   6   7
ENDBRANCH   1   5
BRANCH   2  16
HETATM   16  C   UNL     1      -5.065   1.262 -32.598  1.00  0.00     0.154 A 
HETATM   17  N   UNL     1      -6.127   1.705 -33.314  1.00  0.00    -0.169 NA
HETATM   18  N   UNL     1      -6.463   0.659 -34.096  1.00  0.00    -0.281 N 
HETATM   19  H   UNL     1      -7.251   0.759 -34.729  1.00  0.00     0.189 HD
HETATM   20  C   UNL     1      -5.666  -0.425 -33.909  1.00  0.00     0.036 A 
HETATM   21  C   UNL     1      -4.753  -0.078 -32.942  1.00  0.00     0.002 A 
HETATM   22  C   UNL     1      -5.776  -1.737 -34.591  1.00  0.00     0.059 C 
HETATM   23  C   UNL     1      -3.689  -1.002 -32.464  1.00  0.00     0.043 C 
HETATM   24  C   UNL     1      -3.991  -2.453 -32.896  1.00  0.00     0.005 C 
HETATM   25  C   UNL     1      -4.484  -2.545 -34.355  1.00  0.00     0.006 C 
ENDBRANCH   2  16
TORSDOF 4
ENDMDL
MODEL 8
REMARK VINA RESULT:      -7.4      1.744      1.953
REMARK  4 active torsions:
REMARK  status: ('A' for Active; 'I' for Inactive)
REMARK    1  A    between atoms: C_5  and  C_6 
REMARK    2  A    between atoms: N_7  and  N_8 
REMARK       I    between atoms: N_8  and  C_9 
REMARK    3  A    between atoms: C_9  and  C_10 
REMARK    4  A    between atoms: C_21  and  O_22 
ROOT
HETATM    1  N   UNL     1      -7.359   0.780 -32.476  1.00  0.00    -0.242 N 
HETATM    2  C   UNL     1      -6.068   1.180 -32.786  1.00  0.00     0.292 C 
HETATM    3  O   UNL     1      -5.778   2.198 -33.408  1.00  0.00    -0.264 OA
HETATM    4  H   UNL     1      -7.458  -0.088 -31.954  1.00  0.00     0.192 HD
ENDROOT
BRANCH   1   5
HETATM    5  N   UNL     1      -8.431   1.531 -32.845  1.00  0.00    -0.183 NA
HETATM    6  C   UNL     1      -9.393   0.887 -33.424  1.00  0.00     0.153 C 
BRANCH   6   7
HETATM    7  C   UNL     1     -10.612   1.597 -33.864  1.00  0.00     0.017 A 
HETATM    8  C   UNL     1     -11.828   0.907 -33.821  1.00  0.00     0.034 A 
HETATM    9  C   UNL     1     -12.997   1.553 -34.227  1.00  0.00     0.012 A 
HETATM   10  C   UNL     1     -12.964   2.874 -34.674  1.00  0.00     0.022 A 
HETATM   11 BR   UNL     1     -14.643   0.625 -34.172  1.00  0.00    -0.051 Br
HETATM   12  C   UNL     1     -11.750   3.559 -34.717  1.00  0.00     0.039 A 
HETATM   13  C   UNL     1     -10.578   2.923 -34.313  1.00  0.00     0.077 A 
BRANCH  13  14
HETATM   14  O   UNL     1      -9.432   3.667 -34.385  1.00  0.00    -0.360 OA
HETATM   15  H   UNL     1      -8.866   3.301 -35.104  1.00  0.00     0.217 HD
ENDBRANCH  13  14
ENDBRANCH   6   7
ENDBRANCH   1   5
BRANCH   2  16
HETATM   16  C   UNL     1      -5.059   0.235 -32.276  1.00  0.00     0.154 A 
HETATM   17  N   UNL     1      -4.315   0.512 -31.177  1.00  0.00    -0.169 NA
HETATM   18  N   UNL     1      -3.529  -0.573 -31.023  1.00  0.00    -0.281 N 
HETATM   19  H   UNL     1      -2.872  -0.591 -30.250  1.00  0.00     0.189 HD
HETATM   20  C   UNL     1      -3.740  -1.524 -31.971  1.00  0.00     0.036 A 
HETATM   21  C   UNL     1      -4.718  -1.035 -32.805  1.00  0.00     0.002 A 
HETATM   22  C   UNL     1      -3.034  -2.821 -32.101  1.00  0.00     0.059 C 
HETATM   23  C   UNL     1      -5.241  -1.797 -33.972  1.00  0.00     0.043 C 
HETATM   24  C   UNL     1      -4.302  -2.970 -34.324  1.00  0.00     0.005 C 
HETATM   25  C   UNL     1      -3.811  -3.730 -33.075  1.00  0.00     0.006 C 
ENDBRANCH   2  16
TORSDOF 4
ENDMDL
MODEL 9
REMARK VINA RESULT:      -7.4      6.023      7.318
REMARK  4 active torsions:
REMARK  status: ('A' for Active; 'I' for Inactive)
REMARK    1  A    between atoms: C_5  and  C_6 
REMARK    2  A    between atoms: N_7  and  N_8 
REMARK       I    between atoms: N_8  and  C_9 
REMARK    3  A    between atoms: C_9  and  C_10 
REMARK    4  A    between atoms: C_21  and  O_22 
ROOT
HETATM    1  N   UNL     1      -3.235   1.246 -31.824  1.00  0.00    -0.242 N 
HETATM    2  C   UNL     1      -4.052   0.273 -31.270  1.00  0.00     0.292 C 
HETATM    3  O   UNL     1      -4.691   0.400 -30.229  1.00  0.00    -0.264 OA
HETATM    4  H   UNL     1      -2.763   1.008 -32.694  1.00  0.00     0.192 HD
ENDROOT
BRANCH   1   5
HETATM    5  N   UNL     1      -3.095   2.461 -31.231  1.00  0.00    -0.183 NA
HETATM    6  C   UNL     1      -2.855   3.451 -32.031  1.00  0.00     0.153 C 
BRANCH   6   7
HETATM    7  C   UNL     1      -2.690   4.820 -31.501  1.00  0.00     0.017 A 
HETATM    8  C   UNL     1      -3.832   5.615 -31.363  1.00  0.00     0.034 A 
HETATM    9  C   UNL     1      -3.707   6.912 -30.862  1.00  0.00     0.012 A 
HETATM   10  C   UNL     1      -2.460   7.421 -30.498  1.00  0.00     0.022 A 
HETATM   11 BR   UNL     1      -5.247   7.992 -30.674  1.00  0.00    -0.051 Br
HETATM   12  C   UNL     1      -1.323   6.625 -30.637  1.00  0.00     0.039 A 
HETATM   13  C   UNL     1      -1.437   5.330 -31.136  1.00  0.00     0.077 A 
BRANCH  13  14
HETATM   14  O   UNL     1      -0.273   4.617 -31.240  1.00  0.00    -0.360 OA
HETATM   15  H   UNL     1      -0.477   3.744 -31.648  1.00  0.00     0.217 HD
ENDBRANCH  13  14
ENDBRANCH   6   7
ENDBRANCH   1   5
BRANCH   2  16
HETATM   16  C   UNL     1      -4.077  -0.957 -32.082  1.00  0.00     0.154 A 
HETATM   17  N   UNL     1      -3.125  -1.914 -31.954  1.00  0.00    -0.169 NA
HETATM   18  N   UNL     1      -3.489  -2.866 -32.837  1.00  0.00    -0.281 N 
HETATM   19  H   UNL     1      -2.911  -3.696 -32.922  1.00  0.00     0.189 HD
HETATM   20  C   UNL     1      -4.624  -2.558 -33.518  1.00  0.00     0.036 A 
HETATM   21  C   UNL     1      -5.032  -1.326 -33.063  1.00  0.00     0.002 A 
HETATM   22  C   UNL     1      -5.279  -3.375 -34.567  1.00  0.00     0.059 C 
HETATM   23  C   UNL     1      -6.258  -0.645 -33.561  1.00  0.00     0.043 C 
HETATM   24  C   UNL     1      -6.753  -1.298 -34.868  1.00  0.00     0.005 C 
HETATM   25  C   UNL     1      -6.704  -2.839 -34.815  1.00  0.00     0.006 C 
ENDBRANCH   2  16
TORSDOF 4
ENDMDL
MODEL 10
REMARK VINA RESULT:      -7.3      3.795      8.200
REMARK  4 active torsions:
REMARK  status: ('A' for Active; 'I' for Inactive)
REMARK    1  A    between atoms: C_5  and  C_6 
REMARK    2  A    between atoms: N_7  and  N_8 
REMARK       I    between atoms: N_8  and  C_9 
REMARK    3  A    between atoms: C_9  and  C_10 
REMARK    4  A    between atoms: C_21  and  O_22 
ROOT
HETATM    1  N   UNL     1      -9.907   1.900 -31.932  1.00  0.00    -0.242 N 
HETATM    2  C   UNL     1     -10.431   2.952 -32.668  1.00  0.00     0.292 C 
HETATM    3  O   UNL     1      -9.765   3.779 -33.285  1.00  0.00    -0.264 OA
HETATM    4  H   UNL     1     -10.574   1.287 -31.469  1.00  0.00     0.192 HD
ENDROOT
BRANCH   1   5
HETATM    5  N   UNL     1      -8.564   1.701 -31.856  1.00  0.00    -0.183 NA
HETATM    6  C   UNL     1      -8.191   0.486 -31.613  1.00  0.00     0.153 C 
BRANCH   6   7
HETATM    7  C   UNL     1      -6.756   0.148 -31.514  1.00  0.00     0.017 A 
HETATM    8  C   UNL     1      -6.214  -0.712 -32.474  1.00  0.00     0.034 A 
HETATM    9  C   UNL     1      -4.860  -1.047 -32.408  1.00  0.00     0.012 A 
HETATM   10  C   UNL     1      -4.046  -0.534 -31.398  1.00  0.00     0.022 A 
HETATM   11 BR   UNL     1      -4.122  -2.211 -33.703  1.00  0.00    -0.051 Br
HETATM   12  C   UNL     1      -4.589   0.324 -30.442  1.00  0.00     0.039 A 
HETATM   13  C   UNL     1      -5.939   0.664 -30.499  1.00  0.00     0.077 A 
BRANCH  13  14
HETATM   14  O   UNL     1      -6.391   1.511 -29.524  1.00  0.00    -0.360 OA
HETATM   15  H   UNL     1      -5.638   1.730 -28.927  1.00  0.00     0.217 HD
ENDBRANCH  13  14
ENDBRANCH   6   7
ENDBRANCH   1   5
BRANCH   2  16
HETATM   16  C   UNL     1     -11.903   2.972 -32.634  1.00  0.00     0.154 A 
HETATM   17  N   UNL     1     -12.589   4.002 -32.079  1.00  0.00    -0.169 NA
HETATM   18  N   UNL     1     -13.885   3.668 -32.246  1.00  0.00    -0.281 N 
HETATM   19  H   UNL     1     -14.599   4.302 -31.899  1.00  0.00     0.189 HD
HETATM   20  C   UNL     1     -14.053   2.477 -32.878  1.00  0.00     0.036 A 
HETATM   21  C   UNL     1     -12.794   1.991 -33.139  1.00  0.00     0.002 A 
HETATM   22  C   UNL     1     -15.341   1.815 -33.198  1.00  0.00     0.059 C 
HETATM   23  C   UNL     1     -12.554   0.700 -33.841  1.00  0.00     0.043 C 
HETATM   24  C   UNL     1     -13.840  -0.152 -33.872  1.00  0.00     0.005 C 
HETATM   25  C   UNL     1     -15.093   0.681 -34.214  1.00  0.00     0.006 C 
ENDBRANCH   2  16
TORSDOF 4
ENDMDL
