MODEL 1
REMARK VINA RESULT:      -9.7      0.000      0.000
REMARK  6 active torsions:
REMARK  status: ('A' for Active; 'I' for Inactive)
REMARK    1  A    between atoms: C_6  and  O_7 
REMARK    2  A    between atoms: C_12  and  C_13 
REMARK    3  A    between atoms: C_13  and  C_14 
REMARK       I    between atoms: C_14  and  N_15 
REMARK    4  A    between atoms: N_15  and  C_16 
REMARK    5  A    between atoms: C_16  and  C_17 
REMARK    6  A    between atoms: C_17  and  C_18 
ROOT
HETATM    1  C   UNL     1      -9.470   2.920 -31.787  1.00  0.00     0.222 C 
HETATM    2  N   UNL     1      -8.883   1.789 -31.255  1.00  0.00    -0.360 N 
HETATM    3  O   UNL     1     -10.533   2.888 -32.405  1.00  0.00    -0.273 OA
HETATM    4  H   UNL     1      -7.934   1.875 -30.912  1.00  0.00     0.162 HD
ENDROOT
BRANCH   1   5
HETATM    5  C   UNL     1      -8.667   4.211 -31.645  1.00  0.00     0.148 C 
BRANCH   5   6
HETATM    6  C   UNL     1      -7.284   4.335 -32.251  1.00  0.00     0.033 C 
HETATM    7  C   UNL     1      -7.351   4.836 -33.659  1.00  0.00     0.295 C 
HETATM    8  O   UNL     1      -6.183   5.308 -34.224  1.00  0.00    -0.274 OA
HETATM    9  O   UNL     1      -8.411   4.903 -34.272  1.00  0.00    -0.259 OA
HETATM   10  C   UNL     1      -4.940   4.953 -33.683  1.00  0.00     0.093 A 
HETATM   11  C   UNL     1      -3.827   5.283 -34.464  1.00  0.00     0.045 A 
HETATM   12  C   UNL     1      -4.842   4.278 -32.469  1.00  0.00     0.038 A 
HETATM   13  C   UNL     1      -2.552   4.901 -34.050  1.00  0.00    -0.057 A 
HETATM   14  C   UNL     1      -1.335   5.254 -34.853  1.00  0.00     0.048 C 
HETATM   15  C   UNL     1      -2.427   4.150 -32.877  1.00  0.00     0.044 A 
HETATM   16  C   UNL     1      -3.557   3.838 -32.107  1.00  0.00     0.079 A 
HETATM   17  C   UNL     1      -6.083   4.120 -31.668  1.00  0.00    -0.034 C 
HETATM   18  C   UNL     1      -5.912   3.823 -30.204  1.00  0.00     0.050 C 
BRANCH  16  19
HETATM   19  O   UNL     1      -3.380   3.055 -30.997  1.00  0.00    -0.360 OA
HETATM   20  H   UNL     1      -2.687   3.435 -30.434  1.00  0.00     0.217 HD
ENDBRANCH  16  19
ENDBRANCH   5   6
ENDBRANCH   1   5
BRANCH   2  21
HETATM   21  C   UNL     1      -9.331   0.471 -31.688  1.00  0.00     0.127 C 
BRANCH  21  22
HETATM   22  C   UNL     1      -8.759   0.033 -33.031  1.00  0.00     0.060 C 
BRANCH  22  23
HETATM   23  C   UNL     1      -7.282  -0.241 -33.145  1.00  0.00    -0.029 A 
HETATM   24  C   UNL     1      -6.543  -1.329 -33.733  1.00  0.00    -0.000 A 
HETATM   25  C   UNL     1      -5.182  -1.057 -33.550  1.00  0.00     0.043 A 
HETATM   26  C   UNL     1      -6.875  -2.526 -34.407  1.00  0.00     0.038 A 
HETATM   27  C   UNL     1      -4.157  -1.907 -33.986  1.00  0.00     0.032 A 
HETATM   28  N   UNL     1      -5.090   0.149 -32.899  1.00  0.00    -0.365 N 
HETATM   29  C   UNL     1      -4.521  -3.087 -34.631  1.00  0.00     0.026 A 
HETATM   30  C   UNL     1      -5.862  -3.390 -34.838  1.00  0.00     0.035 A 
HETATM   31 CL   UNL     1      -6.280  -4.861 -35.631  1.00  0.00    -0.084 Cl
HETATM   32  H   UNL     1      -4.222   0.600 -32.646  1.00  0.00     0.165 HD
HETATM   33  C   UNL     1      -6.337   0.642 -32.648  1.00  0.00     0.096 A 
ENDBRANCH  22  23
ENDBRANCH  21  22
ENDBRANCH   2  21
TORSDOF 6
ENDMDL
MODEL 2
REMARK VINA RESULT:      -9.5      5.316      9.348
REMARK  6 active torsions:
REMARK  status: ('A' for Active; 'I' for Inactive)
REMARK    1  A    between atoms: C_6  and  O_7 
REMARK    2  A    between atoms: C_12  and  C_13 
REMARK    3  A    between atoms: C_13  and  C_14 
REMARK       I    between atoms: C_14  and  N_15 
REMARK    4  A    between atoms: N_15  and  C_16 
REMARK    5  A    between atoms: C_16  and  C_17 
REMARK    6  A    between atoms: C_17  and  C_18 
ROOT
HETATM    1  C   UNL     1      -3.019   3.588 -31.781  1.00  0.00     0.222 C 
HETATM    2  N   UNL     1      -2.863   4.730 -31.021  1.00  0.00    -0.360 N 
HETATM    3  O   UNL     1      -2.592   3.492 -32.930  1.00  0.00    -0.273 OA
HETATM    4  H   UNL     1      -3.385   4.789 -30.156  1.00  0.00     0.162 HD
ENDROOT
BRANCH   1   5
HETATM    5  C   UNL     1      -3.847   2.476 -31.140  1.00  0.00     0.148 C 
BRANCH   5   6
HETATM    6  C   UNL     1      -4.305   1.282 -31.953  1.00  0.00     0.033 C 
HETATM    7  C   UNL     1      -3.468   0.077 -31.664  1.00  0.00     0.295 C 
HETATM    8  O   UNL     1      -3.956  -1.150 -32.068  1.00  0.00    -0.274 OA
HETATM    9  O   UNL     1      -2.424   0.151 -31.024  1.00  0.00    -0.259 OA
HETATM   10  C   UNL     1      -4.950  -1.228 -33.053  1.00  0.00     0.093 A 
HETATM   11  C   UNL     1      -5.201  -2.509 -33.557  1.00  0.00     0.045 A 
HETATM   12  C   UNL     1      -5.603  -0.089 -33.517  1.00  0.00     0.038 A 
HETATM   13  C   UNL     1      -6.114  -2.679 -34.595  1.00  0.00    -0.057 A 
HETATM   14  C   UNL     1      -6.420  -4.040 -35.147  1.00  0.00     0.048 C 
HETATM   15  C   UNL     1      -6.726  -1.546 -35.140  1.00  0.00     0.044 A 
HETATM   16  C   UNL     1      -6.465  -0.272 -34.613  1.00  0.00     0.079 A 
HETATM   17  C   UNL     1      -5.356   1.187 -32.798  1.00  0.00    -0.034 C 
HETATM   18  C   UNL     1      -6.371   2.279 -32.986  1.00  0.00     0.050 C 
BRANCH  16  19
HETATM   19  O   UNL     1      -7.052   0.805 -35.221  1.00  0.00    -0.360 OA
HETATM   20  H   UNL     1      -7.655   1.245 -34.600  1.00  0.00     0.217 HD
ENDBRANCH  16  19
ENDBRANCH   5   6
ENDBRANCH   1   5
BRANCH   2  21
HETATM   21  C   UNL     1      -2.473   5.979 -31.664  1.00  0.00     0.127 C 
BRANCH  21  22
HETATM   22  C   UNL     1      -0.978   6.267 -31.603  1.00  0.00     0.060 C 
BRANCH  22  23
HETATM   23  C   UNL     1      -0.261   6.146 -30.283  1.00  0.00    -0.029 A 
HETATM   24  C   UNL     1      -0.126   7.050 -29.170  1.00  0.00    -0.000 A 
HETATM   25  C   UNL     1       0.654   6.407 -28.201  1.00  0.00     0.043 A 
HETATM   26  C   UNL     1      -0.582   8.353 -28.869  1.00  0.00     0.038 A 
HETATM   27  C   UNL     1       1.006   6.991 -26.977  1.00  0.00     0.032 A 
HETATM   28  N   UNL     1       0.966   5.162 -28.689  1.00  0.00    -0.365 N 
HETATM   29  C   UNL     1       0.554   8.285 -26.720  1.00  0.00     0.026 A 
HETATM   30  C   UNL     1      -0.229   8.954 -27.654  1.00  0.00     0.035 A 
HETATM   31 CL   UNL     1      -0.765  10.555 -27.311  1.00  0.00    -0.084 Cl
HETATM   32  H   UNL     1       1.514   4.473 -28.193  1.00  0.00     0.165 HD
HETATM   33  C   UNL     1       0.430   4.998 -29.932  1.00  0.00     0.096 A 
ENDBRANCH  22  23
ENDBRANCH  21  22
ENDBRANCH   2  21
TORSDOF 6
ENDMDL
MODEL 3
REMARK VINA RESULT:      -9.3      4.452      6.247
REMARK  6 active torsions:
REMARK  status: ('A' for Active; 'I' for Inactive)
REMARK    1  A    between atoms: C_6  and  O_7 
REMARK    2  A    between atoms: C_12  and  C_13 
REMARK    3  A    between atoms: C_13  and  C_14 
REMARK       I    between atoms: C_14  and  N_15 
REMARK    4  A    between atoms: N_15  and  C_16 
REMARK    5  A    between atoms: C_16  and  C_17 
REMARK    6  A    between atoms: C_17  and  C_18 
ROOT
HETATM    1  C   UNL     1      -2.639   4.399 -32.019  1.00  0.00     0.222 C 
HETATM    2  N   UNL     1      -2.907   3.457 -31.046  1.00  0.00    -0.360 N 
HETATM    3  O   UNL     1      -3.434   4.670 -32.917  1.00  0.00    -0.273 OA
HETATM    4  H   UNL     1      -2.140   3.175 -30.448  1.00  0.00     0.162 HD
ENDROOT
BRANCH   1   5
HETATM    5  C   UNL     1      -1.246   5.022 -31.971  1.00  0.00     0.148 C 
BRANCH   5   6
HETATM    6  C   UNL     1      -0.843   5.938 -30.832  1.00  0.00     0.033 C 
HETATM    7  C   UNL     1       0.233   5.322 -29.996  1.00  0.00     0.295 C 
HETATM    8  O   UNL     1       0.925   6.152 -29.137  1.00  0.00    -0.274 OA
HETATM    9  O   UNL     1       0.552   4.143 -30.116  1.00  0.00    -0.259 OA
HETATM   10  C   UNL     1       0.385   7.387 -28.755  1.00  0.00     0.093 A 
HETATM   11  C   UNL     1       1.046   8.036 -27.706  1.00  0.00     0.045 A 
HETATM   12  C   UNL     1      -0.760   7.897 -29.361  1.00  0.00     0.038 A 
HETATM   13  C   UNL     1       0.538   9.231 -27.201  1.00  0.00    -0.057 A 
HETATM   14  C   UNL     1       1.230   9.962 -26.089  1.00  0.00     0.048 C 
HETATM   15  C   UNL     1      -0.656   9.727 -27.732  1.00  0.00     0.044 A 
HETATM   16  C   UNL     1      -1.297   9.064 -28.789  1.00  0.00     0.079 A 
HETATM   17  C   UNL     1      -1.278   7.188 -30.559  1.00  0.00    -0.034 C 
HETATM   18  C   UNL     1      -2.196   7.964 -31.463  1.00  0.00     0.050 C 
BRANCH  16  19
HETATM   19  O   UNL     1      -2.490   9.568 -29.233  1.00  0.00    -0.360 OA
HETATM   20  H   UNL     1      -2.890  10.121 -28.543  1.00  0.00     0.217 HD
ENDBRANCH  16  19
ENDBRANCH   5   6
ENDBRANCH   1   5
BRANCH   2  21
HETATM   21  C   UNL     1      -4.003   2.514 -31.235  1.00  0.00     0.127 C 
BRANCH  21  22
HETATM   22  C   UNL     1      -3.635   1.301 -32.081  1.00  0.00     0.060 C 
BRANCH  22  23
HETATM   23  C   UNL     1      -4.700   0.638 -32.916  1.00  0.00    -0.029 A 
HETATM   24  C   UNL     1      -4.838  -0.704 -33.420  1.00  0.00    -0.000 A 
HETATM   25  C   UNL     1      -6.039  -0.759 -34.138  1.00  0.00     0.043 A 
HETATM   26  C   UNL     1      -4.075  -1.890 -33.349  1.00  0.00     0.038 A 
HETATM   27  C   UNL     1      -6.502  -1.912 -34.786  1.00  0.00     0.032 A 
HETATM   28  N   UNL     1      -6.619   0.484 -34.061  1.00  0.00    -0.365 N 
HETATM   29  C   UNL     1      -5.715  -3.061 -34.710  1.00  0.00     0.026 A 
HETATM   30  C   UNL     1      -4.520  -3.048 -34.001  1.00  0.00     0.035 A 
HETATM   31 CL   UNL     1      -3.565  -4.480 -33.933  1.00  0.00    -0.084 Cl
HETATM   32  H   UNL     1      -7.505   0.730 -34.481  1.00  0.00     0.165 HD
HETATM   33  C   UNL     1      -5.826   1.326 -33.339  1.00  0.00     0.096 A 
ENDBRANCH  22  23
ENDBRANCH  21  22
ENDBRANCH   2  21
TORSDOF 6
ENDMDL
MODEL 4
REMARK VINA RESULT:      -9.2      4.395      8.403
REMARK  6 active torsions:
REMARK  status: ('A' for Active; 'I' for Inactive)
REMARK    1  A    between atoms: C_6  and  O_7 
REMARK    2  A    between atoms: C_12  and  C_13 
REMARK    3  A    between atoms: C_13  and  C_14 
REMARK       I    between atoms: C_14  and  N_15 
REMARK    4  A    between atoms: N_15  and  C_16 
REMARK    5  A    between atoms: C_16  and  C_17 
REMARK    6  A    between atoms: C_17  and  C_18 
ROOT
HETATM    1  C   UNL     1      -4.593   5.162 -33.210  1.00  0.00     0.222 C 
HETATM    2  N   UNL     1      -3.450   4.884 -33.934  1.00  0.00    -0.360 N 
HETATM    3  O   UNL     1      -5.140   6.263 -33.231  1.00  0.00    -0.273 OA
HETATM    4  H   UNL     1      -2.972   4.015 -33.732  1.00  0.00     0.162 HD
ENDROOT
BRANCH   1   5
HETATM    5  C   UNL     1      -5.086   4.043 -32.297  1.00  0.00     0.148 C 
BRANCH   5   6
HETATM    6  C   UNL     1      -5.197   2.619 -32.804  1.00  0.00     0.033 C 
HETATM    7  C   UNL     1      -3.980   1.823 -32.458  1.00  0.00     0.295 C 
HETATM    8  O   UNL     1      -4.068   0.449 -32.558  1.00  0.00    -0.274 OA
HETATM    9  O   UNL     1      -2.961   2.352 -32.025  1.00  0.00    -0.259 OA
HETATM   10  C   UNL     1      -5.074  -0.144 -33.333  1.00  0.00     0.093 A 
HETATM   11  C   UNL     1      -4.930  -1.516 -33.561  1.00  0.00     0.045 A 
HETATM   12  C   UNL     1      -6.115   0.610 -33.869  1.00  0.00     0.038 A 
HETATM   13  C   UNL     1      -5.836  -2.181 -34.386  1.00  0.00    -0.057 A 
HETATM   14  C   UNL     1      -5.723  -3.655 -34.637  1.00  0.00     0.048 C 
HETATM   15  C   UNL     1      -6.845  -1.437 -35.005  1.00  0.00     0.044 A 
HETATM   16  C   UNL     1      -6.974  -0.063 -34.756  1.00  0.00     0.079 A 
HETATM   17  C   UNL     1      -6.237   2.024 -33.431  1.00  0.00    -0.034 C 
HETATM   18  C   UNL     1      -7.574   2.683 -33.629  1.00  0.00     0.050 C 
BRANCH  16  19
HETATM   19  O   UNL     1      -7.947   0.623 -35.432  1.00  0.00    -0.360 OA
HETATM   20  H   UNL     1      -7.605   0.918 -36.291  1.00  0.00     0.217 HD
ENDBRANCH  16  19
ENDBRANCH   5   6
ENDBRANCH   1   5
BRANCH   2  21
HETATM   21  C   UNL     1      -2.665   5.977 -34.494  1.00  0.00     0.127 C 
BRANCH  21  22
HETATM   22  C   UNL     1      -1.304   6.162 -33.832  1.00  0.00     0.060 C 
BRANCH  22  23
HETATM   23  C   UNL     1      -1.215   6.172 -32.328  1.00  0.00    -0.029 A 
HETATM   24  C   UNL     1      -1.552   7.170 -31.346  1.00  0.00    -0.000 A 
HETATM   25  C   UNL     1      -1.263   6.630 -30.086  1.00  0.00     0.043 A 
HETATM   26  C   UNL     1      -2.076   8.481 -31.380  1.00  0.00     0.038 A 
HETATM   27  C   UNL     1      -1.455   7.325 -28.884  1.00  0.00     0.032 A 
HETATM   28  N   UNL     1      -0.789   5.358 -30.286  1.00  0.00    -0.365 N 
HETATM   29  C   UNL     1      -1.957   8.623 -28.956  1.00  0.00     0.026 A 
HETATM   30  C   UNL     1      -2.263   9.191 -30.187  1.00  0.00     0.035 A 
HETATM   31 CL   UNL     1      -2.874  10.801 -30.244  1.00  0.00    -0.084 Cl
HETATM   32  H   UNL     1      -0.512   4.727 -29.547  1.00  0.00     0.165 HD
HETATM   33  C   UNL     1      -0.751   5.075 -31.619  1.00  0.00     0.096 A 
ENDBRANCH  22  23
ENDBRANCH  21  22
ENDBRANCH   2  21
TORSDOF 6
ENDMDL
MODEL 5
REMARK VINA RESULT:      -9.2      3.535      6.676
REMARK  6 active torsions:
REMARK  status: ('A' for Active; 'I' for Inactive)
REMARK    1  A    between atoms: C_6  and  O_7 
REMARK    2  A    between atoms: C_12  and  C_13 
REMARK    3  A    between atoms: C_13  and  C_14 
REMARK       I    between atoms: C_14  and  N_15 
REMARK    4  A    between atoms: N_15  and  C_16 
REMARK    5  A    between atoms: C_16  and  C_17 
REMARK    6  A    between atoms: C_17  and  C_18 
ROOT
HETATM    1  C   UNL     1      -7.296   3.552 -31.393  1.00  0.00     0.222 C 
HETATM    2  N   UNL     1      -8.616   3.946 -31.489  1.00  0.00    -0.360 N 
HETATM    3  O   UNL     1      -6.371   4.214 -31.858  1.00  0.00    -0.273 OA
HETATM    4  H   UNL     1      -9.324   3.269 -31.232  1.00  0.00     0.162 HD
ENDROOT
BRANCH   1   5
HETATM    5  C   UNL     1      -7.059   2.184 -30.756  1.00  0.00     0.148 C 
BRANCH   5   6
HETATM    6  C   UNL     1      -6.839   0.955 -31.615  1.00  0.00     0.033 C 
HETATM    7  C   UNL     1      -8.137   0.391 -32.097  1.00  0.00     0.295 C 
HETATM    8  O   UNL     1      -8.091  -0.514 -33.139  1.00  0.00    -0.274 OA
HETATM    9  O   UNL     1      -9.214   0.768 -31.647  1.00  0.00    -0.259 OA
HETATM   10  C   UNL     1      -6.899  -1.185 -33.443  1.00  0.00     0.093 A 
HETATM   11  C   UNL     1      -7.017  -2.244 -34.349  1.00  0.00     0.045 A 
HETATM   12  C   UNL     1      -5.694  -0.834 -32.840  1.00  0.00     0.038 A 
HETATM   13  C   UNL     1      -5.903  -3.024 -34.654  1.00  0.00    -0.057 A 
HETATM   14  C   UNL     1      -5.990  -4.156 -35.634  1.00  0.00     0.048 C 
HETATM   15  C   UNL     1      -4.697  -2.750 -34.002  1.00  0.00     0.044 A 
HETATM   16  C   UNL     1      -4.600  -1.677 -33.104  1.00  0.00     0.079 A 
HETATM   17  C   UNL     1      -5.672   0.400 -32.014  1.00  0.00    -0.034 C 
HETATM   18  C   UNL     1      -4.327   1.020 -31.754  1.00  0.00     0.050 C 
BRANCH  16  19
HETATM   19  O   UNL     1      -3.408  -1.489 -32.456  1.00  0.00    -0.360 OA
HETATM   20  H   UNL     1      -2.762  -2.146 -32.760  1.00  0.00     0.217 HD
ENDBRANCH  16  19
ENDBRANCH   5   6
ENDBRANCH   1   5
BRANCH   2  21
HETATM   21  C   UNL     1      -8.991   4.996 -32.428  1.00  0.00     0.127 C 
BRANCH  21  22
HETATM   22  C   UNL     1     -10.387   4.829 -33.018  1.00  0.00     0.060 C 
BRANCH  22  23
HETATM   23  C   UNL     1     -10.809   3.478 -33.534  1.00  0.00    -0.029 A 
HETATM   24  C   UNL     1     -12.031   2.728 -33.396  1.00  0.00    -0.000 A 
HETATM   25  C   UNL     1     -11.864   1.525 -34.093  1.00  0.00     0.043 A 
HETATM   26  C   UNL     1     -13.272   2.934 -32.754  1.00  0.00     0.038 A 
HETATM   27  C   UNL     1     -12.849   0.532 -34.171  1.00  0.00     0.032 A 
HETATM   28  N   UNL     1     -10.608   1.545 -34.648  1.00  0.00    -0.365 N 
HETATM   29  C   UNL     1     -14.056   0.761 -33.511  1.00  0.00     0.026 A 
HETATM   30  C   UNL     1     -14.262   1.945 -32.813  1.00  0.00     0.035 A 
HETATM   31 CL   UNL     1     -15.761   2.194 -32.000  1.00  0.00    -0.084 Cl
HETATM   32  H   UNL     1     -10.222   0.806 -35.218  1.00  0.00     0.165 HD
HETATM   33  C   UNL     1      -9.968   2.703 -34.317  1.00  0.00     0.096 A 
ENDBRANCH  22  23
ENDBRANCH  21  22
ENDBRANCH   2  21
TORSDOF 6
ENDMDL
MODEL 6
REMARK VINA RESULT:      -9.1      4.715      6.440
REMARK  6 active torsions:
REMARK  status: ('A' for Active; 'I' for Inactive)
REMARK    1  A    between atoms: C_6  and  O_7 
REMARK    2  A    between atoms: C_12  and  C_13 
REMARK    3  A    between atoms: C_13  and  C_14 
REMARK       I    between atoms: C_14  and  N_15 
REMARK    4  A    between atoms: N_15  and  C_16 
REMARK    5  A    between atoms: C_16  and  C_17 
REMARK    6  A    between atoms: C_17  and  C_18 
ROOT
HETATM    1  C   UNL     1      -2.853   5.129 -32.268  1.00  0.00     0.222 C 
HETATM    2  N   UNL     1      -2.614   3.806 -31.954  1.00  0.00    -0.360 N 
HETATM    3  O   UNL     1      -3.966   5.547 -32.581  1.00  0.00    -0.273 OA
HETATM    4  H   UNL     1      -1.648   3.514 -31.873  1.00  0.00     0.162 HD
ENDROOT
BRANCH   1   5
HETATM    5  C   UNL     1      -1.623   6.033 -32.299  1.00  0.00     0.148 C 
BRANCH   5   6
HETATM    6  C   UNL     1      -1.054   6.615 -31.021  1.00  0.00     0.033 C 
HETATM    7  C   UNL     1      -0.008   5.721 -30.436  1.00  0.00     0.295 C 
HETATM    8  O   UNL     1       0.822   6.257 -29.472  1.00  0.00    -0.274 OA
HETATM    9  O   UNL     1       0.168   4.577 -30.844  1.00  0.00    -0.259 OA
HETATM   10  C   UNL     1       0.448   7.415 -28.778  1.00  0.00     0.093 A 
HETATM   11  C   UNL     1       1.237   7.735 -27.668  1.00  0.00     0.045 A 
HETATM   12  C   UNL     1      -0.666   8.161 -29.157  1.00  0.00     0.038 A 
HETATM   13  C   UNL     1       0.897   8.823 -26.866  1.00  0.00    -0.057 A 
HETATM   14  C   UNL     1       1.731   9.204 -25.679  1.00  0.00     0.048 C 
HETATM   15  C   UNL     1      -0.262   9.542 -27.172  1.00  0.00     0.044 A 
HETATM   16  C   UNL     1      -1.033   9.209 -28.295  1.00  0.00     0.079 A 
HETATM   17  C   UNL     1      -1.329   7.804 -30.438  1.00  0.00    -0.034 C 
HETATM   18  C   UNL     1      -2.204   8.853 -31.065  1.00  0.00     0.050 C 
BRANCH  16  19
HETATM   19  O   UNL     1      -2.185   9.915 -28.514  1.00  0.00    -0.360 OA
HETATM   20  H   UNL     1      -1.984  10.862 -28.575  1.00  0.00     0.217 HD
ENDBRANCH  16  19
ENDBRANCH   5   6
ENDBRANCH   1   5
BRANCH   2  21
HETATM   21  C   UNL     1      -3.603   2.791 -32.299  1.00  0.00     0.127 C 
BRANCH  21  22
HETATM   22  C   UNL     1      -3.564   1.560 -31.401  1.00  0.00     0.060 C 
BRANCH  22  23
HETATM   23  C   UNL     1      -3.727   0.196 -32.020  1.00  0.00    -0.029 A 
HETATM   24  C   UNL     1      -4.669  -0.326 -32.975  1.00  0.00    -0.000 A 
HETATM   25  C   UNL     1      -4.343  -1.671 -33.192  1.00  0.00     0.043 A 
HETATM   26  C   UNL     1      -5.772   0.192 -33.689  1.00  0.00     0.038 A 
HETATM   27  C   UNL     1      -5.055  -2.510 -34.059  1.00  0.00     0.032 A 
HETATM   28  N   UNL     1      -3.242  -1.954 -32.422  1.00  0.00    -0.365 N 
HETATM   29  C   UNL     1      -6.149  -1.970 -34.735  1.00  0.00     0.026 A 
HETATM   30  C   UNL     1      -6.500  -0.638 -34.551  1.00  0.00     0.035 A 
HETATM   31 CL   UNL     1      -7.863  -0.003 -35.393  1.00  0.00    -0.084 Cl
HETATM   32  H   UNL     1      -2.781  -2.852 -32.390  1.00  0.00     0.165 HD
HETATM   33  C   UNL     1      -2.869  -0.849 -31.714  1.00  0.00     0.096 A 
ENDBRANCH  22  23
ENDBRANCH  21  22
ENDBRANCH   2  21
TORSDOF 6
ENDMDL
MODEL 7
REMARK VINA RESULT:      -9.1      2.045      3.077
REMARK  6 active torsions:
REMARK  status: ('A' for Active; 'I' for Inactive)
REMARK    1  A    between atoms: C_6  and  O_7 
REMARK    2  A    between atoms: C_12  and  C_13 
REMARK    3  A    between atoms: C_13  and  C_14 
REMARK       I    between atoms: C_14  and  N_15 
REMARK    4  A    between atoms: N_15  and  C_16 
REMARK    5  A    between atoms: C_16  and  C_17 
REMARK    6  A    between atoms: C_17  and  C_18 
ROOT
HETATM    1  C   UNL     1      -7.119   2.906 -33.891  1.00  0.00     0.222 C 
HETATM    2  N   UNL     1      -8.254   2.654 -33.147  1.00  0.00    -0.360 N 
HETATM    3  O   UNL     1      -6.527   2.028 -34.516  1.00  0.00    -0.273 OA
HETATM    4  H   UNL     1      -8.580   3.390 -32.532  1.00  0.00     0.162 HD
ENDROOT
BRANCH   1   5
HETATM    5  C   UNL     1      -6.581   4.333 -33.814  1.00  0.00     0.148 C 
BRANCH   5   6
HETATM    6  C   UNL     1      -5.216   4.617 -33.221  1.00  0.00     0.033 C 
HETATM    7  C   UNL     1      -5.181   4.296 -31.761  1.00  0.00     0.295 C 
HETATM    8  O   UNL     1      -3.942   4.188 -31.161  1.00  0.00    -0.274 OA
HETATM    9  O   UNL     1      -6.203   4.056 -31.126  1.00  0.00    -0.259 OA
HETATM   10  C   UNL     1      -2.811   4.757 -31.763  1.00  0.00     0.093 A 
HETATM   11  C   UNL     1      -1.662   4.802 -30.966  1.00  0.00     0.045 A 
HETATM   12  C   UNL     1      -2.861   5.279 -33.053  1.00  0.00     0.038 A 
HETATM   13  C   UNL     1      -0.509   5.420 -31.446  1.00  0.00    -0.057 A 
HETATM   14  C   UNL     1       0.745   5.470 -30.626  1.00  0.00     0.048 C 
HETATM   15  C   UNL     1      -0.551   6.027 -32.705  1.00  0.00     0.044 A 
HETATM   16  C   UNL     1      -1.712   5.962 -33.489  1.00  0.00     0.079 A 
HETATM   17  C   UNL     1      -4.093   5.037 -33.846  1.00  0.00    -0.034 C 
HETATM   18  C   UNL     1      -3.978   5.180 -35.338  1.00  0.00     0.050 C 
BRANCH  16  19
HETATM   19  O   UNL     1      -1.711   6.620 -34.691  1.00  0.00    -0.360 OA
HETATM   20  H   UNL     1      -1.811   7.574 -34.543  1.00  0.00     0.217 HD
ENDBRANCH  16  19
ENDBRANCH   5   6
ENDBRANCH   1   5
BRANCH   2  21
HETATM   21  C   UNL     1      -8.606   1.280 -32.807  1.00  0.00     0.127 C 
BRANCH  21  22
HETATM   22  C   UNL     1      -8.041   0.809 -31.472  1.00  0.00     0.060 C 
BRANCH  22  23
HETATM   23  C   UNL     1      -6.625   0.298 -31.413  1.00  0.00    -0.029 A 
HETATM   24  C   UNL     1      -5.891  -0.616 -32.251  1.00  0.00    -0.000 A 
HETATM   25  C   UNL     1      -4.599  -0.721 -31.722  1.00  0.00     0.043 A 
HETATM   26  C   UNL     1      -6.177  -1.373 -33.408  1.00  0.00     0.038 A 
HETATM   27  C   UNL     1      -3.601  -1.537 -32.272  1.00  0.00     0.032 A 
HETATM   28  N   UNL     1      -4.538   0.103 -30.625  1.00  0.00    -0.365 N 
HETATM   29  C   UNL     1      -3.923  -2.284 -33.404  1.00  0.00     0.026 A 
HETATM   30  C   UNL     1      -5.193  -2.201 -33.963  1.00  0.00     0.035 A 
HETATM   31 CL   UNL     1      -5.563  -3.143 -35.357  1.00  0.00    -0.084 Cl
HETATM   32  H   UNL     1      -3.716   0.235 -30.052  1.00  0.00     0.165 HD
HETATM   33  C   UNL     1      -5.742   0.712 -30.429  1.00  0.00     0.096 A 
ENDBRANCH  22  23
ENDBRANCH  21  22
ENDBRANCH   2  21
TORSDOF 6
ENDMDL
MODEL 8
REMARK VINA RESULT:      -9.1      5.106      8.861
REMARK  6 active torsions:
REMARK  status: ('A' for Active; 'I' for Inactive)
REMARK    1  A    between atoms: C_6  and  O_7 
REMARK    2  A    between atoms: C_12  and  C_13 
REMARK    3  A    between atoms: C_13  and  C_14 
REMARK       I    between atoms: C_14  and  N_15 
REMARK    4  A    between atoms: N_15  and  C_16 
REMARK    5  A    between atoms: C_16  and  C_17 
REMARK    6  A    between atoms: C_17  and  C_18 
ROOT
HETATM    1  C   UNL     1      -4.579   3.523 -31.477  1.00  0.00     0.222 C 
HETATM    2  N   UNL     1      -3.249   3.845 -31.288  1.00  0.00    -0.360 N 
HETATM    3  O   UNL     1      -5.364   4.264 -32.065  1.00  0.00    -0.273 OA
HETATM    4  H   UNL     1      -2.715   3.264 -30.654  1.00  0.00     0.162 HD
ENDROOT
BRANCH   1   5
HETATM    5  C   UNL     1      -5.044   2.225 -30.822  1.00  0.00     0.148 C 
BRANCH   5   6
HETATM    6  C   UNL     1      -5.244   0.968 -31.645  1.00  0.00     0.033 C 
HETATM    7  C   UNL     1      -6.611   0.928 -32.249  1.00  0.00     0.295 C 
HETATM    8  O   UNL     1      -6.828   0.029 -33.274  1.00  0.00    -0.274 OA
HETATM    9  O   UNL     1      -7.492   1.712 -31.912  1.00  0.00    -0.259 OA
HETATM   10  C   UNL     1      -5.970  -1.064 -33.453  1.00  0.00     0.093 A 
HETATM   11  C   UNL     1      -6.410  -2.036 -34.358  1.00  0.00     0.045 A 
HETATM   12  C   UNL     1      -4.782  -1.179 -32.735  1.00  0.00     0.038 A 
HETATM   13  C   UNL     1      -5.665  -3.199 -34.544  1.00  0.00    -0.057 A 
HETATM   14  C   UNL     1      -6.099  -4.253 -35.519  1.00  0.00     0.048 C 
HETATM   15  C   UNL     1      -4.511  -3.382 -33.777  1.00  0.00     0.044 A 
HETATM   16  C   UNL     1      -4.084  -2.390 -32.882  1.00  0.00     0.079 A 
HETATM   17  C   UNL     1      -4.355  -0.013 -31.920  1.00  0.00    -0.034 C 
HETATM   18  C   UNL     1      -2.904   0.050 -31.533  1.00  0.00     0.050 C 
BRANCH  16  19
HETATM   19  O   UNL     1      -2.976  -2.649 -32.120  1.00  0.00    -0.360 OA
HETATM   20  H   UNL     1      -2.205  -2.192 -32.494  1.00  0.00     0.217 HD
ENDBRANCH  16  19
ENDBRANCH   5   6
ENDBRANCH   1   5
BRANCH   2  21
HETATM   21  C   UNL     1      -2.802   5.218 -31.491  1.00  0.00     0.127 C 
BRANCH  21  22
HETATM   22  C   UNL     1      -1.291   5.361 -31.633  1.00  0.00     0.060 C 
BRANCH  22  23
HETATM   23  C   UNL     1      -0.451   5.541 -30.396  1.00  0.00    -0.029 A 
HETATM   24  C   UNL     1      -0.350   6.616 -29.443  1.00  0.00    -0.000 A 
HETATM   25  C   UNL     1       0.597   6.236 -28.484  1.00  0.00     0.043 A 
HETATM   26  C   UNL     1      -0.960   7.880 -29.281  1.00  0.00     0.038 A 
HETATM   27  C   UNL     1       0.968   7.044 -27.401  1.00  0.00     0.032 A 
HETATM   28  N   UNL     1       1.042   4.982 -28.822  1.00  0.00    -0.365 N 
HETATM   29  C   UNL     1       0.359   8.292 -27.281  1.00  0.00     0.026 A 
HETATM   30  C   UNL     1      -0.591   8.702 -28.209  1.00  0.00     0.035 A 
HETATM   31 CL   UNL     1      -1.319  10.254 -28.040  1.00  0.00    -0.084 Cl
HETATM   32  H   UNL     1       1.724   4.454 -28.296  1.00  0.00     0.165 HD
HETATM   33  C   UNL     1       0.426   4.559 -29.964  1.00  0.00     0.096 A 
ENDBRANCH  22  23
ENDBRANCH  21  22
ENDBRANCH   2  21
TORSDOF 6
ENDMDL
MODEL 9
REMARK VINA RESULT:      -9.0      3.092      6.389
REMARK  6 active torsions:
REMARK  status: ('A' for Active; 'I' for Inactive)
REMARK    1  A    between atoms: C_6  and  O_7 
REMARK    2  A    between atoms: C_12  and  C_13 
REMARK    3  A    between atoms: C_13  and  C_14 
REMARK       I    between atoms: C_14  and  N_15 
REMARK    4  A    between atoms: N_15  and  C_16 
REMARK    5  A    between atoms: C_16  and  C_17 
REMARK    6  A    between atoms: C_17  and  C_18 
ROOT
HETATM    1  C   UNL     1      -7.791   2.823 -32.701  1.00  0.00     0.222 C 
HETATM    2  N   UNL     1      -8.400   4.040 -32.934  1.00  0.00    -0.360 N 
HETATM    3  O   UNL     1      -7.864   2.241 -31.620  1.00  0.00    -0.273 OA
HETATM    4  H   UNL     1      -8.154   4.528 -33.786  1.00  0.00     0.162 HD
ENDROOT
BRANCH   1   5
HETATM    5  C   UNL     1      -6.932   2.284 -33.842  1.00  0.00     0.148 C 
BRANCH   5   6
HETATM    6  C   UNL     1      -6.286   0.916 -33.750  1.00  0.00     0.033 C 
HETATM    7  C   UNL     1      -6.980  -0.071 -34.634  1.00  0.00     0.295 C 
HETATM    8  O   UNL     1      -6.321  -1.253 -34.909  1.00  0.00    -0.274 OA
HETATM    9  O   UNL     1      -8.056   0.180 -35.165  1.00  0.00    -0.259 OA
HETATM   10  C   UNL     1      -5.275  -1.690 -34.085  1.00  0.00     0.093 A 
HETATM   11  C   UNL     1      -4.841  -3.001 -34.306  1.00  0.00     0.045 A 
HETATM   12  C   UNL     1      -4.747  -0.874 -33.088  1.00  0.00     0.038 A 
HETATM   13  C   UNL     1      -3.860  -3.554 -33.485  1.00  0.00    -0.057 A 
HETATM   14  C   UNL     1      -3.358  -4.950 -33.705  1.00  0.00     0.048 C 
HETATM   15  C   UNL     1      -3.368  -2.790 -32.423  1.00  0.00     0.044 A 
HETATM   16  C   UNL     1      -3.812  -1.474 -32.226  1.00  0.00     0.079 A 
HETATM   17  C   UNL     1      -5.189   0.544 -33.054  1.00  0.00    -0.034 C 
HETATM   18  C   UNL     1      -4.310   1.512 -32.311  1.00  0.00     0.050 C 
BRANCH  16  19
HETATM   19  O   UNL     1      -3.334  -0.792 -31.139  1.00  0.00    -0.360 OA
HETATM   20  H   UNL     1      -2.568  -0.256 -31.398  1.00  0.00     0.217 HD
ENDBRANCH  16  19
ENDBRANCH   5   6
ENDBRANCH   1   5
BRANCH   2  21
HETATM   21  C   UNL     1      -8.879   4.836 -31.810  1.00  0.00     0.127 C 
BRANCH  21  22
HETATM   22  C   UNL     1      -7.917   5.936 -31.377  1.00  0.00     0.060 C 
BRANCH  22  23
HETATM   23  C   UNL     1      -6.498   5.572 -31.024  1.00  0.00    -0.029 A 
HETATM   24  C   UNL     1      -5.316   5.397 -31.828  1.00  0.00    -0.000 A 
HETATM   25  C   UNL     1      -4.268   5.063 -30.961  1.00  0.00     0.043 A 
HETATM   26  C   UNL     1      -5.011   5.485 -33.204  1.00  0.00     0.038 A 
HETATM   27  C   UNL     1      -2.960   4.805 -31.392  1.00  0.00     0.032 A 
HETATM   28  N   UNL     1      -4.778   5.052 -29.687  1.00  0.00    -0.365 N 
HETATM   29  C   UNL     1      -2.698   4.883 -32.759  1.00  0.00     0.026 A 
HETATM   30  C   UNL     1      -3.710   5.219 -33.650  1.00  0.00     0.035 A 
HETATM   31 CL   UNL     1      -3.357   5.299 -35.335  1.00  0.00    -0.084 Cl
HETATM   32  H   UNL     1      -4.240   4.853 -28.855  1.00  0.00     0.165 HD
HETATM   33  C   UNL     1      -6.109   5.350 -29.713  1.00  0.00     0.096 A 
ENDBRANCH  22  23
ENDBRANCH  21  22
ENDBRANCH   2  21
TORSDOF 6
ENDMDL
MODEL 10
REMARK VINA RESULT:      -8.9      3.163      6.827
REMARK  6 active torsions:
REMARK  status: ('A' for Active; 'I' for Inactive)
REMARK    1  A    between atoms: C_6  and  O_7 
REMARK    2  A    between atoms: C_12  and  C_13 
REMARK    3  A    between atoms: C_13  and  C_14 
REMARK       I    between atoms: C_14  and  N_15 
REMARK    4  A    between atoms: N_15  and  C_16 
REMARK    5  A    between atoms: C_16  and  C_17 
REMARK    6  A    between atoms: C_17  and  C_18 
ROOT
HETATM    1  C   UNL     1      -7.543   3.745 -31.860  1.00  0.00     0.222 C 
HETATM    2  N   UNL     1      -6.645   4.294 -32.753  1.00  0.00    -0.360 N 
HETATM    3  O   UNL     1      -8.619   4.276 -31.590  1.00  0.00    -0.273 OA
HETATM    4  H   UNL     1      -5.719   3.886 -32.791  1.00  0.00     0.162 HD
ENDROOT
BRANCH   1   5
HETATM    5  C   UNL     1      -7.076   2.479 -31.146  1.00  0.00     0.148 C 
BRANCH   5   6
HETATM    6  C   UNL     1      -6.859   1.190 -31.912  1.00  0.00     0.033 C 
HETATM    7  C   UNL     1      -8.145   0.454 -32.109  1.00  0.00     0.295 C 
HETATM    8  O   UNL     1      -8.166  -0.551 -33.056  1.00  0.00    -0.274 OA
HETATM    9  O   UNL     1      -9.171   0.772 -31.517  1.00  0.00    -0.259 OA
HETATM   10  C   UNL     1      -6.970  -1.134 -33.498  1.00  0.00     0.093 A 
HETATM   11  C   UNL     1      -7.112  -2.293 -34.268  1.00  0.00     0.045 A 
HETATM   12  C   UNL     1      -5.731  -0.604 -33.146  1.00  0.00     0.038 A 
HETATM   13  C   UNL     1      -5.981  -2.990 -34.687  1.00  0.00    -0.057 A 
HETATM   14  C   UNL     1      -6.096  -4.226 -35.529  1.00  0.00     0.048 C 
HETATM   15  C   UNL     1      -4.725  -2.530 -34.282  1.00  0.00     0.044 A 
HETATM   16  C   UNL     1      -4.606  -1.361 -33.516  1.00  0.00     0.079 A 
HETATM   17  C   UNL     1      -5.717   0.710 -32.453  1.00  0.00    -0.034 C 
HETATM   18  C   UNL     1      -4.427   1.481 -32.488  1.00  0.00     0.050 C 
BRANCH  16  19
HETATM   19  O   UNL     1      -3.354  -0.989 -33.104  1.00  0.00    -0.360 OA
HETATM   20  H   UNL     1      -3.366  -0.064 -32.811  1.00  0.00     0.217 HD
ENDBRANCH  16  19
ENDBRANCH   5   6
ENDBRANCH   1   5
BRANCH   2  21
HETATM   21  C   UNL     1      -6.791   5.685 -33.163  1.00  0.00     0.127 C 
BRANCH  21  22
HETATM   22  C   UNL     1      -6.168   6.684 -32.194  1.00  0.00     0.060 C 
BRANCH  22  23
HETATM   23  C   UNL     1      -4.854   6.349 -31.539  1.00  0.00    -0.029 A 
HETATM   24  C   UNL     1      -3.567   5.995 -32.080  1.00  0.00    -0.000 A 
HETATM   25  C   UNL     1      -2.701   5.793 -30.998  1.00  0.00     0.043 A 
HETATM   26  C   UNL     1      -3.031   5.820 -33.375  1.00  0.00     0.038 A 
HETATM   27  C   UNL     1      -1.357   5.422 -31.141  1.00  0.00     0.032 A 
HETATM   28  N   UNL     1      -3.416   6.032 -29.851  1.00  0.00    -0.365 N 
HETATM   29  C   UNL     1      -0.866   5.241 -32.434  1.00  0.00     0.026 A 
HETATM   30  C   UNL     1      -1.693   5.438 -33.533  1.00  0.00     0.035 A 
HETATM   31 CL   UNL     1      -1.059   5.198 -35.117  1.00  0.00    -0.084 Cl
HETATM   32  H   UNL     1      -3.038   5.972 -28.916  1.00  0.00     0.165 HD
HETATM   33  C   UNL     1      -4.703   6.359 -30.162  1.00  0.00     0.096 A 
ENDBRANCH  22  23
ENDBRANCH  21  22
ENDBRANCH   2  21
TORSDOF 6
ENDMDL
