MODEL 1
REMARK VINA RESULT:      -7.8      0.000      0.000
REMARK  8 active torsions:
REMARK  status: ('A' for Active; 'I' for Inactive)
REMARK    1  A    between atoms: C_2  and  N_3 
REMARK    2  A    between atoms: N_3  and  C_5 
REMARK    3  A    between atoms: N_3  and  C_29 
REMARK    4  A    between atoms: C_5  and  C_6 
REMARK    5  A    between atoms: C_6  and  N_7 
REMARK       I    between atoms: N_7  and  C_8 
REMARK    6  A    between atoms: C_8  and  C_9 
REMARK    7  A    between atoms: C_9  and  O_10 
REMARK    8  A    between atoms: N_11  and  C_12 
ROOT
HETATM    1  C   UNL     1      -5.011   2.058 -32.248  1.00  0.00     0.256 C 
HETATM    2  N   UNL     1      -4.769   3.339 -32.924  1.00  0.00    -0.254 N 
HETATM    3  C   UNL     1      -5.688   3.793 -33.857  1.00  0.00     0.330 C 
HETATM    4  O   UNL     1      -5.829   4.972 -34.182  1.00  0.00    -0.246 OA
HETATM    5  N   UNL     1      -6.498   2.862 -34.443  1.00  0.00    -0.308 N 
HETATM    6  C   UNL     1      -6.400   1.490 -34.242  1.00  0.00     0.048 A 
HETATM    7  C   UNL     1      -5.631   1.031 -33.175  1.00  0.00     0.034 A 
HETATM    8  C   UNL     1      -7.092   0.611 -35.072  1.00  0.00     0.030 A 
HETATM    9  C   UNL     1      -7.004  -0.761 -34.840  1.00  0.00     0.002 A 
HETATM   10  C   UNL     1      -6.235  -1.242 -33.781  1.00  0.00     0.001 A 
HETATM   11  C   UNL     1      -5.555  -0.353 -32.948  1.00  0.00     0.015 A 
HETATM   12  H   UNL     1      -7.047   3.218 -35.218  1.00  0.00     0.170 HD
ENDROOT
BRANCH   1  13
HETATM   13  C   UNL     1      -5.961   2.321 -30.996  1.00  0.00     0.279 C 
HETATM   14  N   UNL     1      -6.936   3.308 -31.098  1.00  0.00    -0.355 N 
HETATM   15  H   UNL     1      -7.195   3.572 -32.046  1.00  0.00     0.162 HD
HETATM   16  O   UNL     1      -5.799   1.735 -29.922  1.00  0.00    -0.268 OA
BRANCH  14  17
HETATM   17  C   UNL     1      -8.007   3.368 -30.107  1.00  0.00     0.150 C 
BRANCH  17  18
HETATM   18  C   UNL     1      -9.375   2.896 -30.628  1.00  0.00     0.254 C 
BRANCH  18  19
HETATM   19  N   UNL     1      -9.233   2.125 -31.939  1.00  0.00    -0.070 N 
HETATM   20  H   UNL     1      -8.313   2.415 -32.307  1.00  0.00     0.279 HD
BRANCH  19  21
HETATM   21  C   UNL     1     -10.255   2.546 -32.978  1.00  0.00     0.230 C 
HETATM   22  C   UNL     1      -9.788   3.785 -33.723  1.00  0.00     0.034 C 
ENDBRANCH  19  21
BRANCH  19  23
HETATM   23  C   UNL     1      -9.138   0.620 -31.796  1.00  0.00     0.230 C 
HETATM   24  C   UNL     1     -10.018  -0.119 -32.788  1.00  0.00     0.034 C 
ENDBRANCH  19  23
ENDBRANCH  18  19
ENDBRANCH  17  18
ENDBRANCH  14  17
ENDBRANCH   1  13
BRANCH   1  25
HETATM   25  O   UNL     1      -3.776   1.495 -31.813  1.00  0.00    -0.359 OA
HETATM   26  H   UNL     1      -3.841   0.535 -31.948  1.00  0.00     0.213 HD
ENDBRANCH   1  25
BRANCH   2  27
HETATM   27  C   UNL     1      -3.622   4.146 -32.638  1.00  0.00     0.043 A 
HETATM   28  C   UNL     1      -2.506   4.212 -33.482  1.00  0.00     0.031 A 
HETATM   29  C   UNL     1      -1.434   5.066 -33.186  1.00  0.00     0.026 A 
HETATM   30  C   UNL     1      -1.474   5.869 -32.049  1.00  0.00     0.034 A 
HETATM   31 CL   UNL     1      -0.168   6.931 -31.706  1.00  0.00    -0.084 Cl
HETATM   32  C   UNL     1      -2.566   5.810 -31.192  1.00  0.00     0.026 A 
HETATM   33  C   UNL     1      -3.626   4.944 -31.480  1.00  0.00     0.031 A 
ENDBRANCH   2  27
TORSDOF 8
ENDMDL
MODEL 2
REMARK VINA RESULT:      -7.7      3.406      5.986
REMARK  8 active torsions:
REMARK  status: ('A' for Active; 'I' for Inactive)
REMARK    1  A    between atoms: C_2  and  N_3 
REMARK    2  A    between atoms: N_3  and  C_5 
REMARK    3  A    between atoms: N_3  and  C_29 
REMARK    4  A    between atoms: C_5  and  C_6 
REMARK    5  A    between atoms: C_6  and  N_7 
REMARK       I    between atoms: N_7  and  C_8 
REMARK    6  A    between atoms: C_8  and  C_9 
REMARK    7  A    between atoms: C_9  and  O_10 
REMARK    8  A    between atoms: N_11  and  C_12 
ROOT
HETATM    1  C   UNL     1      -6.423   1.719 -33.487  1.00  0.00     0.256 C 
HETATM    2  N   UNL     1      -5.773   0.543 -32.896  1.00  0.00    -0.254 N 
HETATM    3  C   UNL     1      -5.049   0.690 -31.724  1.00  0.00     0.330 C 
HETATM    4  O   UNL     1      -4.809  -0.220 -30.931  1.00  0.00    -0.246 OA
HETATM    5  N   UNL     1      -4.580   1.940 -31.430  1.00  0.00    -0.308 N 
HETATM    6  C   UNL     1      -4.696   3.044 -32.265  1.00  0.00     0.048 A 
HETATM    7  C   UNL     1      -5.580   2.971 -33.340  1.00  0.00     0.034 A 
HETATM    8  C   UNL     1      -3.970   4.203 -31.998  1.00  0.00     0.030 A 
HETATM    9  C   UNL     1      -4.118   5.311 -32.831  1.00  0.00     0.002 A 
HETATM   10  C   UNL     1      -4.993   5.257 -33.915  1.00  0.00     0.001 A 
HETATM   11  C   UNL     1      -5.726   4.097 -34.167  1.00  0.00     0.015 A 
HETATM   12  H   UNL     1      -3.938   1.969 -30.645  1.00  0.00     0.170 HD
ENDROOT
BRANCH   1  13
HETATM   13  C   UNL     1      -7.839   1.918 -32.786  1.00  0.00     0.279 C 
HETATM   14  N   UNL     1      -8.989   1.720 -33.545  1.00  0.00    -0.355 N 
HETATM   15  H   UNL     1      -8.869   1.160 -34.385  1.00  0.00     0.162 HD
HETATM   16  O   UNL     1      -7.939   2.319 -31.624  1.00  0.00    -0.268 OA
BRANCH  14  17
HETATM   17  C   UNL     1     -10.281   1.591 -32.875  1.00  0.00     0.150 C 
BRANCH  17  18
HETATM   18  C   UNL     1     -11.426   2.353 -33.564  1.00  0.00     0.254 C 
BRANCH  18  19
HETATM   19  N   UNL     1     -12.787   1.902 -33.039  1.00  0.00    -0.070 N 
HETATM   20  H   UNL     1     -12.564   1.334 -32.207  1.00  0.00     0.279 HD
BRANCH  19  21
HETATM   21  C   UNL     1     -13.507   0.975 -34.002  1.00  0.00     0.230 C 
HETATM   22  C   UNL     1     -13.313  -0.476 -33.600  1.00  0.00     0.034 C 
ENDBRANCH  19  21
BRANCH  19  23
HETATM   23  C   UNL     1     -13.681   3.010 -32.525  1.00  0.00     0.230 C 
HETATM   24  C   UNL     1     -14.997   2.494 -31.972  1.00  0.00     0.034 C 
ENDBRANCH  19  23
ENDBRANCH  18  19
ENDBRANCH  17  18
ENDBRANCH  14  17
ENDBRANCH   1  13
BRANCH   1  25
HETATM   25  O   UNL     1      -6.595   1.529 -34.890  1.00  0.00    -0.359 OA
HETATM   26  H   UNL     1      -5.977   2.133 -35.334  1.00  0.00     0.213 HD
ENDBRANCH   1  25
BRANCH   2  27
HETATM   27  C   UNL     1      -5.878  -0.759 -33.481  1.00  0.00     0.043 A 
HETATM   28  C   UNL     1      -7.103  -1.398 -33.708  1.00  0.00     0.031 A 
HETATM   29  C   UNL     1      -7.153  -2.648 -34.340  1.00  0.00     0.026 A 
HETATM   30  C   UNL     1      -5.978  -3.266 -34.760  1.00  0.00     0.034 A 
HETATM   31 CL   UNL     1      -6.048  -4.787 -35.557  1.00  0.00    -0.084 Cl
HETATM   32  C   UNL     1      -4.750  -2.655 -34.534  1.00  0.00     0.026 A 
HETATM   33  C   UNL     1      -4.702  -1.416 -33.887  1.00  0.00     0.031 A 
ENDBRANCH   2  27
TORSDOF 8
ENDMDL
MODEL 3
REMARK VINA RESULT:      -7.1     16.382     18.227
REMARK  8 active torsions:
REMARK  status: ('A' for Active; 'I' for Inactive)
REMARK    1  A    between atoms: C_2  and  N_3 
REMARK    2  A    between atoms: N_3  and  C_5 
REMARK    3  A    between atoms: N_3  and  C_29 
REMARK    4  A    between atoms: C_5  and  C_6 
REMARK    5  A    between atoms: C_6  and  N_7 
REMARK       I    between atoms: N_7  and  C_8 
REMARK    6  A    between atoms: C_8  and  C_9 
REMARK    7  A    between atoms: C_9  and  O_10 
REMARK    8  A    between atoms: N_11  and  C_12 
ROOT
HETATM    1  C   UNL     1      -4.398 -13.362 -37.784  1.00  0.00     0.256 C 
HETATM    2  N   UNL     1      -5.361 -14.169 -38.543  1.00  0.00    -0.254 N 
HETATM    3  C   UNL     1      -5.020 -15.462 -38.908  1.00  0.00     0.330 C 
HETATM    4  O   UNL     1      -5.830 -16.351 -39.168  1.00  0.00    -0.246 OA
HETATM    5  N   UNL     1      -3.689 -15.765 -38.970  1.00  0.00    -0.308 N 
HETATM    6  C   UNL     1      -2.661 -14.848 -38.787  1.00  0.00     0.048 A 
HETATM    7  C   UNL     1      -2.970 -13.608 -38.231  1.00  0.00     0.034 A 
HETATM    8  C   UNL     1      -1.352 -15.189 -39.120  1.00  0.00     0.030 A 
HETATM    9  C   UNL     1      -0.328 -14.268 -38.907  1.00  0.00     0.002 A 
HETATM   10  C   UNL     1      -0.617 -13.019 -38.357  1.00  0.00     0.001 A 
HETATM   11  C   UNL     1      -1.929 -12.690 -38.015  1.00  0.00     0.015 A 
HETATM   12  H   UNL     1      -3.488 -16.671 -39.379  1.00  0.00     0.170 HD
ENDROOT
BRANCH   1  13
HETATM   13  C   UNL     1      -4.562 -13.706 -36.237  1.00  0.00     0.279 C 
HETATM   14  N   UNL     1      -5.133 -12.751 -35.402  1.00  0.00    -0.355 N 
HETATM   15  H   UNL     1      -5.695 -12.042 -35.866  1.00  0.00     0.162 HD
HETATM   16  O   UNL     1      -4.123 -14.753 -35.753  1.00  0.00    -0.268 OA
BRANCH  14  17
HETATM   17  C   UNL     1      -5.576 -13.137 -34.064  1.00  0.00     0.150 C 
BRANCH  17  18
HETATM   18  C   UNL     1      -6.993 -13.736 -34.019  1.00  0.00     0.254 C 
BRANCH  18  19
HETATM   19  N   UNL     1      -7.064 -14.918 -33.055  1.00  0.00    -0.070 N 
HETATM   20  H   UNL     1      -7.868 -14.702 -32.445  1.00  0.00     0.279 HD
BRANCH  19  21
HETATM   21  C   UNL     1      -5.854 -15.002 -32.143  1.00  0.00     0.230 C 
HETATM   22  C   UNL     1      -5.743 -16.383 -31.520  1.00  0.00     0.034 C 
ENDBRANCH  19  21
BRANCH  19  23
HETATM   23  C   UNL     1      -7.405 -16.250 -33.690  1.00  0.00     0.230 C 
HETATM   24  C   UNL     1      -7.222 -16.245 -35.197  1.00  0.00     0.034 C 
ENDBRANCH  19  23
ENDBRANCH  18  19
ENDBRANCH  17  18
ENDBRANCH  14  17
ENDBRANCH   1  13
BRANCH   1  25
HETATM   25  O   UNL     1      -4.642 -11.975 -38.004  1.00  0.00    -0.359 OA
HETATM   26  H   UNL     1      -5.167 -11.907 -38.819  1.00  0.00     0.213 HD
ENDBRANCH   1  25
BRANCH   2  27
HETATM   27  C   UNL     1      -6.654 -13.670 -38.906  1.00  0.00     0.043 A 
HETATM   28  C   UNL     1      -7.763 -13.731 -38.053  1.00  0.00     0.031 A 
HETATM   29  C   UNL     1      -8.990 -13.173 -38.433  1.00  0.00     0.026 A 
HETATM   30  C   UNL     1      -9.118 -12.540 -39.666  1.00  0.00     0.034 A 
HETATM   31 CL   UNL     1     -10.619 -11.835 -40.116  1.00  0.00    -0.084 Cl
HETATM   32  C   UNL     1      -8.033 -12.478 -40.534  1.00  0.00     0.026 A 
HETATM   33  C   UNL     1      -6.814 -13.052 -40.159  1.00  0.00     0.031 A 
ENDBRANCH   2  27
TORSDOF 8
ENDMDL
MODEL 4
REMARK VINA RESULT:      -6.8      1.513      2.854
REMARK  8 active torsions:
REMARK  status: ('A' for Active; 'I' for Inactive)
REMARK    1  A    between atoms: C_2  and  N_3 
REMARK    2  A    between atoms: N_3  and  C_5 
REMARK    3  A    between atoms: N_3  and  C_29 
REMARK    4  A    between atoms: C_5  and  C_6 
REMARK    5  A    between atoms: C_6  and  N_7 
REMARK       I    between atoms: N_7  and  C_8 
REMARK    6  A    between atoms: C_8  and  C_9 
REMARK    7  A    between atoms: C_9  and  O_10 
REMARK    8  A    between atoms: N_11  and  C_12 
ROOT
HETATM    1  C   UNL     1      -5.128   1.970 -32.240  1.00  0.00     0.256 C 
HETATM    2  N   UNL     1      -4.872   3.254 -32.906  1.00  0.00    -0.254 N 
HETATM    3  C   UNL     1      -5.759   3.703 -33.871  1.00  0.00     0.330 C 
HETATM    4  O   UNL     1      -5.897   4.881 -34.200  1.00  0.00    -0.246 OA
HETATM    5  N   UNL     1      -6.540   2.767 -34.488  1.00  0.00    -0.308 N 
HETATM    6  C   UNL     1      -6.439   1.395 -34.285  1.00  0.00     0.048 A 
HETATM    7  C   UNL     1      -5.706   0.940 -33.191  1.00  0.00     0.034 A 
HETATM    8  C   UNL     1      -7.094   0.512 -35.141  1.00  0.00     0.030 A 
HETATM    9  C   UNL     1      -7.004  -0.859 -34.908  1.00  0.00     0.002 A 
HETATM   10  C   UNL     1      -6.271  -1.336 -33.822  1.00  0.00     0.001 A 
HETATM   11  C   UNL     1      -5.629  -0.443 -32.963  1.00  0.00     0.015 A 
HETATM   12  H   UNL     1      -7.063   3.120 -35.282  1.00  0.00     0.170 HD
ENDROOT
BRANCH   1  13
HETATM   13  C   UNL     1      -6.125   2.224 -31.024  1.00  0.00     0.279 C 
HETATM   14  N   UNL     1      -6.947   3.346 -31.062  1.00  0.00    -0.355 N 
HETATM   15  H   UNL     1      -7.096   3.750 -31.984  1.00  0.00     0.162 HD
HETATM   16  O   UNL     1      -6.126   1.504 -30.022  1.00  0.00    -0.268 OA
BRANCH  14  17
HETATM   17  C   UNL     1      -8.072   3.447 -30.135  1.00  0.00     0.150 C 
BRANCH  17  18
HETATM   18  C   UNL     1      -8.434   4.889 -29.739  1.00  0.00     0.254 C 
BRANCH  18  19
HETATM   19  N   UNL     1      -7.324   5.865 -30.121  1.00  0.00    -0.070 N 
HETATM   20  H   UNL     1      -6.595   5.269 -30.545  1.00  0.00     0.279 HD
BRANCH  19  21
HETATM   21  C   UNL     1      -6.681   6.521 -28.913  1.00  0.00     0.230 C 
HETATM   22  C   UNL     1      -5.666   5.592 -28.271  1.00  0.00     0.034 C 
ENDBRANCH  19  21
BRANCH  19  23
HETATM   23  C   UNL     1      -7.684   6.865 -31.200  1.00  0.00     0.230 C 
HETATM   24  C   UNL     1      -6.467   7.545 -31.800  1.00  0.00     0.034 C 
ENDBRANCH  19  23
ENDBRANCH  18  19
ENDBRANCH  17  18
ENDBRANCH  14  17
ENDBRANCH   1  13
BRANCH   1  25
HETATM   25  O   UNL     1      -3.906   1.416 -31.761  1.00  0.00    -0.359 OA
HETATM   26  H   UNL     1      -4.060   1.149 -30.840  1.00  0.00     0.213 HD
ENDBRANCH   1  25
BRANCH   2  27
HETATM   27  C   UNL     1      -3.742   4.069 -32.577  1.00  0.00     0.043 A 
HETATM   28  C   UNL     1      -2.582   4.118 -33.361  1.00  0.00     0.031 A 
HETATM   29  C   UNL     1      -1.529   4.980 -33.028  1.00  0.00     0.026 A 
HETATM   30  C   UNL     1      -1.629   5.808 -31.912  1.00  0.00     0.034 A 
HETATM   31 CL   UNL     1      -0.344   6.880 -31.524  1.00  0.00    -0.084 Cl
HETATM   32  C   UNL     1      -2.766   5.767 -31.114  1.00  0.00     0.026 A 
HETATM   33  C   UNL     1      -3.809   4.893 -31.438  1.00  0.00     0.031 A 
ENDBRANCH   2  27
TORSDOF 8
ENDMDL
MODEL 5
REMARK VINA RESULT:      -6.8     16.398     17.936
REMARK  8 active torsions:
REMARK  status: ('A' for Active; 'I' for Inactive)
REMARK    1  A    between atoms: C_2  and  N_3 
REMARK    2  A    between atoms: N_3  and  C_5 
REMARK    3  A    between atoms: N_3  and  C_29 
REMARK    4  A    between atoms: C_5  and  C_6 
REMARK    5  A    between atoms: C_6  and  N_7 
REMARK       I    between atoms: N_7  and  C_8 
REMARK    6  A    between atoms: C_8  and  C_9 
REMARK    7  A    between atoms: C_9  and  O_10 
REMARK    8  A    between atoms: N_11  and  C_12 
ROOT
HETATM    1  C   UNL     1      -4.879 -14.555 -37.475  1.00  0.00     0.256 C 
HETATM    2  N   UNL     1      -3.904 -13.655 -38.103  1.00  0.00    -0.254 N 
HETATM    3  C   UNL     1      -4.249 -12.331 -38.320  1.00  0.00     0.330 C 
HETATM    4  O   UNL     1      -3.443 -11.410 -38.447  1.00  0.00    -0.246 OA
HETATM    5  N   UNL     1      -5.582 -12.034 -38.385  1.00  0.00    -0.308 N 
HETATM    6  C   UNL     1      -6.604 -12.975 -38.345  1.00  0.00     0.048 A 
HETATM    7  C   UNL     1      -6.296 -14.270 -37.932  1.00  0.00     0.034 A 
HETATM    8  C   UNL     1      -7.907 -12.607 -38.674  1.00  0.00     0.030 A 
HETATM    9  C   UNL     1      -8.925 -13.555 -38.603  1.00  0.00     0.002 A 
HETATM   10  C   UNL     1      -8.638 -14.858 -38.198  1.00  0.00     0.001 A 
HETATM   11  C   UNL     1      -7.332 -15.215 -37.858  1.00  0.00     0.015 A 
HETATM   12  H   UNL     1      -5.782 -11.087 -38.689  1.00  0.00     0.170 HD
ENDROOT
BRANCH   1  13
HETATM   13  C   UNL     1      -4.764 -14.398 -35.894  1.00  0.00     0.279 C 
HETATM   14  N   UNL     1      -5.365 -13.298 -35.290  1.00  0.00    -0.355 N 
HETATM   15  H   UNL     1      -6.098 -12.847 -35.832  1.00  0.00     0.162 HD
HETATM   16  O   UNL     1      -4.091 -15.175 -35.210  1.00  0.00    -0.268 OA
BRANCH  14  17
HETATM   17  C   UNL     1      -5.545 -13.281 -33.840  1.00  0.00     0.150 C 
BRANCH  17  18
HETATM   18  C   UNL     1      -6.845 -13.946 -33.359  1.00  0.00     0.254 C 
BRANCH  18  19
HETATM   19  N   UNL     1      -6.560 -15.054 -32.347  1.00  0.00    -0.070 N 
HETATM   20  H   UNL     1      -7.236 -14.884 -31.586  1.00  0.00     0.279 HD
BRANCH  19  21
HETATM   21  C   UNL     1      -5.182 -14.935 -31.723  1.00  0.00     0.230 C 
HETATM   22  C   UNL     1      -5.051 -15.858 -30.525  1.00  0.00     0.034 C 
ENDBRANCH  19  21
BRANCH  19  23
HETATM   23  C   UNL     1      -6.860 -16.459 -32.826  1.00  0.00     0.230 C 
HETATM   24  C   UNL     1      -7.418 -16.491 -34.238  1.00  0.00     0.034 C 
ENDBRANCH  19  23
ENDBRANCH  18  19
ENDBRANCH  17  18
ENDBRANCH  14  17
ENDBRANCH   1  13
BRANCH   1  25
HETATM   25  O   UNL     1      -4.613 -15.904 -37.852  1.00  0.00    -0.359 OA
HETATM   26  H   UNL     1      -3.698 -16.095 -37.587  1.00  0.00     0.213 HD
ENDBRANCH   1  25
BRANCH   2  27
HETATM   27  C   UNL     1      -2.596 -14.096 -38.483  1.00  0.00     0.043 A 
HETATM   28  C   UNL     1      -2.247 -14.401 -39.805  1.00  0.00     0.031 A 
HETATM   29  C   UNL     1      -0.935 -14.769 -40.133  1.00  0.00     0.026 A 
HETATM   30  C   UNL     1       0.042 -14.827 -39.143  1.00  0.00     0.034 A 
HETATM   31 CL   UNL     1       1.654 -15.256 -39.556  1.00  0.00    -0.084 Cl
HETATM   32  C   UNL     1      -0.285 -14.541 -37.823  1.00  0.00     0.026 A 
HETATM   33  C   UNL     1      -1.599 -14.191 -37.495  1.00  0.00     0.031 A 
ENDBRANCH   2  27
TORSDOF 8
ENDMDL
MODEL 6
REMARK VINA RESULT:      -6.7      4.108      7.062
REMARK  8 active torsions:
REMARK  status: ('A' for Active; 'I' for Inactive)
REMARK    1  A    between atoms: C_2  and  N_3 
REMARK    2  A    between atoms: N_3  and  C_5 
REMARK    3  A    between atoms: N_3  and  C_29 
REMARK    4  A    between atoms: C_5  and  C_6 
REMARK    5  A    between atoms: C_6  and  N_7 
REMARK       I    between atoms: N_7  and  C_8 
REMARK    6  A    between atoms: C_8  and  C_9 
REMARK    7  A    between atoms: C_9  and  O_10 
REMARK    8  A    between atoms: N_11  and  C_12 
ROOT
HETATM    1  C   UNL     1      -9.026   2.539 -31.398  1.00  0.00     0.256 C 
HETATM    2  N   UNL     1      -9.732   2.936 -32.622  1.00  0.00    -0.254 N 
HETATM    3  C   UNL     1      -9.052   3.659 -33.589  1.00  0.00     0.330 C 
HETATM    4  O   UNL     1      -9.366   3.703 -34.778  1.00  0.00    -0.246 OA
HETATM    5  N   UNL     1      -7.951   4.361 -33.187  1.00  0.00    -0.308 N 
HETATM    6  C   UNL     1      -7.524   4.476 -31.870  1.00  0.00     0.048 A 
HETATM    7  C   UNL     1      -8.064   3.610 -30.921  1.00  0.00     0.034 A 
HETATM    8  C   UNL     1      -6.551   5.413 -31.529  1.00  0.00     0.030 A 
HETATM    9  C   UNL     1      -6.115   5.498 -30.208  1.00  0.00     0.002 A 
HETATM   10  C   UNL     1      -6.647   4.645 -29.241  1.00  0.00     0.001 A 
HETATM   11  C   UNL     1      -7.612   3.701 -29.595  1.00  0.00     0.015 A 
HETATM   12  H   UNL     1      -7.576   4.986 -33.893  1.00  0.00     0.170 HD
ENDROOT
BRANCH   1  13
HETATM   13  C   UNL     1      -8.246   1.180 -31.684  1.00  0.00     0.279 C 
HETATM   14  N   UNL     1      -6.876   1.238 -31.922  1.00  0.00    -0.355 N 
HETATM   15  H   UNL     1      -6.408   2.076 -31.587  1.00  0.00     0.162 HD
HETATM   16  O   UNL     1      -8.835   0.100 -31.782  1.00  0.00    -0.268 OA
BRANCH  14  17
HETATM   17  C   UNL     1      -6.086   0.010 -31.883  1.00  0.00     0.150 C 
BRANCH  17  18
HETATM   18  C   UNL     1      -5.203  -0.211 -33.123  1.00  0.00     0.254 C 
BRANCH  18  19
HETATM   19  N   UNL     1      -6.033  -0.668 -34.321  1.00  0.00    -0.070 N 
HETATM   20  H   UNL     1      -5.339  -1.061 -34.976  1.00  0.00     0.279 HD
BRANCH  19  21
HETATM   21  C   UNL     1      -6.693   0.488 -35.049  1.00  0.00     0.230 C 
HETATM   22  C   UNL     1      -8.172   0.215 -35.264  1.00  0.00     0.034 C 
ENDBRANCH  19  21
BRANCH  19  23
HETATM   23  C   UNL     1      -6.994  -1.804 -34.045  1.00  0.00     0.230 C 
HETATM   24  C   UNL     1      -6.542  -3.118 -34.658  1.00  0.00     0.034 C 
ENDBRANCH  19  23
ENDBRANCH  18  19
ENDBRANCH  17  18
ENDBRANCH  14  17
ENDBRANCH   1  13
BRANCH   1  25
HETATM   25  O   UNL     1      -9.958   2.352 -30.335  1.00  0.00    -0.359 OA
HETATM   26  H   UNL     1     -10.668   3.002 -30.466  1.00  0.00     0.213 HD
ENDBRANCH   1  25
BRANCH   2  27
HETATM   27  C   UNL     1     -11.099   2.584 -32.860  1.00  0.00     0.043 A 
HETATM   28  C   UNL     1     -11.483   1.394 -33.490  1.00  0.00     0.031 A 
HETATM   29  C   UNL     1     -12.838   1.069 -33.644  1.00  0.00     0.026 A 
HETATM   30  C   UNL     1     -13.821   1.928 -33.161  1.00  0.00     0.034 A 
HETATM   31 CL   UNL     1     -15.480   1.513 -33.331  1.00  0.00    -0.084 Cl
HETATM   32  C   UNL     1     -13.463   3.121 -32.543  1.00  0.00     0.026 A 
HETATM   33  C   UNL     1     -12.110   3.451 -32.407  1.00  0.00     0.031 A 
ENDBRANCH   2  27
TORSDOF 8
ENDMDL
MODEL 7
REMARK VINA RESULT:      -6.7      3.432      6.991
REMARK  8 active torsions:
REMARK  status: ('A' for Active; 'I' for Inactive)
REMARK    1  A    between atoms: C_2  and  N_3 
REMARK    2  A    between atoms: N_3  and  C_5 
REMARK    3  A    between atoms: N_3  and  C_29 
REMARK    4  A    between atoms: C_5  and  C_6 
REMARK    5  A    between atoms: C_6  and  N_7 
REMARK       I    between atoms: N_7  and  C_8 
REMARK    6  A    between atoms: C_8  and  C_9 
REMARK    7  A    between atoms: C_9  and  O_10 
REMARK    8  A    between atoms: N_11  and  C_12 
ROOT
HETATM    1  C   UNL     1      -8.821   2.542 -33.834  1.00  0.00     0.256 C 
HETATM    2  N   UNL     1      -9.630   2.760 -32.629  1.00  0.00    -0.254 N 
HETATM    3  C   UNL     1      -9.122   2.381 -31.397  1.00  0.00     0.330 C 
HETATM    4  O   UNL     1      -9.483   2.850 -30.318  1.00  0.00    -0.246 OA
HETATM    5  N   UNL     1      -8.144   1.427 -31.390  1.00  0.00    -0.308 N 
HETATM    6  C   UNL     1      -7.694   0.747 -32.515  1.00  0.00     0.048 A 
HETATM    7  C   UNL     1      -8.041   1.243 -33.771  1.00  0.00     0.034 A 
HETATM    8  C   UNL     1      -6.885  -0.378 -32.376  1.00  0.00     0.030 A 
HETATM    9  C   UNL     1      -6.421  -1.033 -33.516  1.00  0.00     0.002 A 
HETATM   10  C   UNL     1      -6.761  -0.557 -34.781  1.00  0.00     0.001 A 
HETATM   11  C   UNL     1      -7.562   0.579 -34.911  1.00  0.00     0.015 A 
HETATM   12  H   UNL     1      -7.909   1.080 -30.466  1.00  0.00     0.170 HD
ENDROOT
BRANCH   1  13
HETATM   13  C   UNL     1      -7.830   3.777 -34.006  1.00  0.00     0.279 C 
HETATM   14  N   UNL     1      -6.477   3.584 -33.745  1.00  0.00    -0.355 N 
HETATM   15  H   UNL     1      -6.157   2.619 -33.778  1.00  0.00     0.162 HD
HETATM   16  O   UNL     1      -8.242   4.908 -34.279  1.00  0.00    -0.268 OA
BRANCH  14  17
HETATM   17  C   UNL     1      -5.509   4.588 -34.180  1.00  0.00     0.150 C 
BRANCH  17  18
HETATM   18  C   UNL     1      -4.480   4.978 -33.105  1.00  0.00     0.254 C 
BRANCH  18  19
HETATM   19  N   UNL     1      -3.308   3.999 -33.079  1.00  0.00    -0.070 N 
HETATM   20  H   UNL     1      -3.481   3.374 -33.882  1.00  0.00     0.279 HD
BRANCH  19  21
HETATM   21  C   UNL     1      -3.314   3.114 -31.846  1.00  0.00     0.230 C 
HETATM   22  C   UNL     1      -3.654   1.680 -32.213  1.00  0.00     0.034 C 
ENDBRANCH  19  21
BRANCH  19  23
HETATM   23  C   UNL     1      -1.949   4.610 -33.347  1.00  0.00     0.230 C 
HETATM   24  C   UNL     1      -1.819   5.157 -34.757  1.00  0.00     0.034 C 
ENDBRANCH  19  23
ENDBRANCH  18  19
ENDBRANCH  17  18
ENDBRANCH  14  17
ENDBRANCH   1  13
BRANCH   1  25
HETATM   25  O   UNL     1      -9.666   2.432 -34.977  1.00  0.00    -0.359 OA
HETATM   26  H   UNL     1      -9.592   3.270 -35.464  1.00  0.00     0.213 HD
ENDBRANCH   1  25
BRANCH   2  27
HETATM   27  C   UNL     1     -10.925   3.370 -32.682  1.00  0.00     0.043 A 
HETATM   28  C   UNL     1     -12.099   2.649 -32.931  1.00  0.00     0.031 A 
HETATM   29  C   UNL     1     -13.348   3.284 -32.911  1.00  0.00     0.026 A 
HETATM   30  C   UNL     1     -13.435   4.646 -32.631  1.00  0.00     0.034 A 
HETATM   31 CL   UNL     1     -14.971   5.414 -32.583  1.00  0.00    -0.084 Cl
HETATM   32  C   UNL     1     -12.281   5.383 -32.392  1.00  0.00     0.026 A 
HETATM   33  C   UNL     1     -11.034   4.750 -32.431  1.00  0.00     0.031 A 
ENDBRANCH   2  27
TORSDOF 8
ENDMDL
MODEL 8
REMARK VINA RESULT:      -6.6      3.894      7.431
REMARK  8 active torsions:
REMARK  status: ('A' for Active; 'I' for Inactive)
REMARK    1  A    between atoms: C_2  and  N_3 
REMARK    2  A    between atoms: N_3  and  C_5 
REMARK    3  A    between atoms: N_3  and  C_29 
REMARK    4  A    between atoms: C_5  and  C_6 
REMARK    5  A    between atoms: C_6  and  N_7 
REMARK       I    between atoms: N_7  and  C_8 
REMARK    6  A    between atoms: C_8  and  C_9 
REMARK    7  A    between atoms: C_9  and  O_10 
REMARK    8  A    between atoms: N_11  and  C_12 
ROOT
HETATM    1  C   UNL     1      -8.765   2.161 -31.959  1.00  0.00     0.256 C 
HETATM    2  N   UNL     1      -9.660   2.787 -32.940  1.00  0.00    -0.254 N 
HETATM    3  C   UNL     1      -9.157   3.757 -33.792  1.00  0.00     0.330 C 
HETATM    4  O   UNL     1      -9.649   4.057 -34.879  1.00  0.00    -0.246 OA
HETATM    5  N   UNL     1      -8.026   4.414 -33.394  1.00  0.00    -0.308 N 
HETATM    6  C   UNL     1      -7.407   4.245 -32.161  1.00  0.00     0.048 A 
HETATM    7  C   UNL     1      -7.771   3.150 -31.381  1.00  0.00     0.034 A 
HETATM    8  C   UNL     1      -6.419   5.136 -31.747  1.00  0.00     0.030 A 
HETATM    9  C   UNL     1      -5.789   4.938 -30.520  1.00  0.00     0.002 A 
HETATM   10  C   UNL     1      -6.144   3.852 -29.721  1.00  0.00     0.001 A 
HETATM   11  C   UNL     1      -7.125   2.957 -30.149  1.00  0.00     0.015 A 
HETATM   12  H   UNL     1      -7.781   5.208 -33.975  1.00  0.00     0.170 HD
ENDROOT
BRANCH   1  13
HETATM   13  C   UNL     1      -8.001   0.958 -32.671  1.00  0.00     0.279 C 
HETATM   14  N   UNL     1      -6.731   1.191 -33.188  1.00  0.00    -0.355 N 
HETATM   15  H   UNL     1      -6.243   1.998 -32.806  1.00  0.00     0.162 HD
HETATM   16  O   UNL     1      -8.537  -0.140 -32.847  1.00  0.00    -0.268 OA
BRANCH  14  17
HETATM   17  C   UNL     1      -5.887   0.060 -33.565  1.00  0.00     0.150 C 
BRANCH  17  18
HETATM   18  C   UNL     1      -5.115  -0.569 -32.391  1.00  0.00     0.254 C 
BRANCH  18  19
HETATM   19  N   UNL     1      -3.734   0.062 -32.235  1.00  0.00    -0.070 N 
HETATM   20  H   UNL     1      -3.518   0.438 -33.172  1.00  0.00     0.279 HD
BRANCH  19  21
HETATM   21  C   UNL     1      -2.655  -0.962 -31.933  1.00  0.00     0.230 C 
HETATM   22  C   UNL     1      -3.221  -2.370 -31.976  1.00  0.00     0.034 C 
ENDBRANCH  19  21
BRANCH  19  23
HETATM   23  C   UNL     1      -3.671   1.259 -31.310  1.00  0.00     0.230 C 
HETATM   24  C   UNL     1      -3.382   2.555 -32.047  1.00  0.00     0.034 C 
ENDBRANCH  19  23
ENDBRANCH  18  19
ENDBRANCH  17  18
ENDBRANCH  14  17
ENDBRANCH   1  13
BRANCH   1  25
HETATM   25  O   UNL     1      -9.518   1.673 -30.851  1.00  0.00    -0.359 OA
HETATM   26  H   UNL     1      -9.025   1.911 -30.049  1.00  0.00     0.213 HD
ENDBRANCH   1  25
BRANCH   2  27
HETATM   27  C   UNL     1     -11.038   2.415 -33.059  1.00  0.00     0.043 A 
HETATM   28  C   UNL     1     -12.087   3.205 -32.573  1.00  0.00     0.031 A 
HETATM   29  C   UNL     1     -13.421   2.825 -32.770  1.00  0.00     0.026 A 
HETATM   30  C   UNL     1     -13.719   1.655 -33.464  1.00  0.00     0.034 A 
HETATM   31 CL   UNL     1     -15.357   1.207 -33.724  1.00  0.00    -0.084 Cl
HETATM   32  C   UNL     1     -12.693   0.849 -33.945  1.00  0.00     0.026 A 
HETATM   33  C   UNL     1     -11.362   1.222 -33.731  1.00  0.00     0.031 A 
ENDBRANCH   2  27
TORSDOF 8
ENDMDL
MODEL 9
REMARK VINA RESULT:      -6.6      2.419      4.393
REMARK  8 active torsions:
REMARK  status: ('A' for Active; 'I' for Inactive)
REMARK    1  A    between atoms: C_2  and  N_3 
REMARK    2  A    between atoms: N_3  and  C_5 
REMARK    3  A    between atoms: N_3  and  C_29 
REMARK    4  A    between atoms: C_5  and  C_6 
REMARK    5  A    between atoms: C_6  and  N_7 
REMARK       I    between atoms: N_7  and  C_8 
REMARK    6  A    between atoms: C_8  and  C_9 
REMARK    7  A    between atoms: C_9  and  O_10 
REMARK    8  A    between atoms: N_11  and  C_12 
ROOT
HETATM    1  C   UNL     1      -4.925   3.132 -31.532  1.00  0.00     0.256 C 
HETATM    2  N   UNL     1      -4.415   4.164 -32.443  1.00  0.00    -0.254 N 
HETATM    3  C   UNL     1      -5.117   4.448 -33.603  1.00  0.00     0.330 C 
HETATM    4  O   UNL     1      -5.046   5.510 -34.221  1.00  0.00    -0.246 OA
HETATM    5  N   UNL     1      -5.954   3.480 -34.082  1.00  0.00    -0.308 N 
HETATM    6  C   UNL     1      -6.076   2.204 -33.543  1.00  0.00     0.048 A 
HETATM    7  C   UNL     1      -5.540   1.965 -32.280  1.00  0.00     0.034 A 
HETATM    8  C   UNL     1      -6.755   1.211 -34.245  1.00  0.00     0.030 A 
HETATM    9  C   UNL     1      -6.891  -0.056 -33.680  1.00  0.00     0.002 A 
HETATM   10  C   UNL     1      -6.357  -0.318 -32.419  1.00  0.00     0.001 A 
HETATM   11  C   UNL     1      -5.690   0.686 -31.718  1.00  0.00     0.015 A 
HETATM   12  H   UNL     1      -6.331   3.674 -35.003  1.00  0.00     0.170 HD
ENDROOT
BRANCH   1  13
HETATM   13  C   UNL     1      -6.001   3.801 -30.566  1.00  0.00     0.279 C 
HETATM   14  N   UNL     1      -5.602   4.177 -29.287  1.00  0.00    -0.355 N 
HETATM   15  H   UNL     1      -4.600   4.302 -29.159  1.00  0.00     0.162 HD
HETATM   16  O   UNL     1      -7.186   3.914 -30.891  1.00  0.00    -0.268 OA
BRANCH  14  17
HETATM   17  C   UNL     1      -6.457   5.057 -28.495  1.00  0.00     0.150 C 
BRANCH  17  18
HETATM   18  C   UNL     1      -6.191   6.557 -28.713  1.00  0.00     0.254 C 
BRANCH  18  19
HETATM   19  N   UNL     1      -4.795   6.948 -28.233  1.00  0.00    -0.070 N 
HETATM   20  H   UNL     1      -4.160   6.342 -28.777  1.00  0.00     0.279 HD
BRANCH  19  21
HETATM   21  C   UNL     1      -4.560   6.603 -26.774  1.00  0.00     0.230 C 
HETATM   22  C   UNL     1      -3.215   7.127 -26.306  1.00  0.00     0.034 C 
ENDBRANCH  19  21
BRANCH  19  23
HETATM   23  C   UNL     1      -4.368   8.361 -28.570  1.00  0.00     0.230 C 
HETATM   24  C   UNL     1      -5.105   8.926 -29.771  1.00  0.00     0.034 C 
ENDBRANCH  19  23
ENDBRANCH  18  19
ENDBRANCH  17  18
ENDBRANCH  14  17
ENDBRANCH   1  13
BRANCH   1  25
HETATM   25  O   UNL     1      -3.856   2.584 -30.766  1.00  0.00    -0.359 OA
HETATM   26  H   UNL     1      -3.137   2.383 -31.389  1.00  0.00     0.213 HD
ENDBRANCH   1  25
BRANCH   2  27
HETATM   27  C   UNL     1      -3.220   4.903 -32.163  1.00  0.00     0.043 A 
HETATM   28  C   UNL     1      -3.174   5.962 -31.248  1.00  0.00     0.031 A 
HETATM   29  C   UNL     1      -1.965   6.613 -30.966  1.00  0.00     0.026 A 
HETATM   30  C   UNL     1      -0.790   6.203 -31.589  1.00  0.00     0.034 A 
HETATM   31 CL   UNL     1       0.693   6.989 -31.219  1.00  0.00    -0.084 Cl
HETATM   32  C   UNL     1      -0.814   5.161 -32.509  1.00  0.00     0.026 A 
HETATM   33  C   UNL     1      -2.025   4.526 -32.803  1.00  0.00     0.031 A 
ENDBRANCH   2  27
TORSDOF 8
ENDMDL
MODEL 10
REMARK VINA RESULT:      -6.4      2.607      6.300
REMARK  8 active torsions:
REMARK  status: ('A' for Active; 'I' for Inactive)
REMARK    1  A    between atoms: C_2  and  N_3 
REMARK    2  A    between atoms: N_3  and  C_5 
REMARK    3  A    between atoms: N_3  and  C_29 
REMARK    4  A    between atoms: C_5  and  C_6 
REMARK    5  A    between atoms: C_6  and  N_7 
REMARK       I    between atoms: N_7  and  C_8 
REMARK    6  A    between atoms: C_8  and  C_9 
REMARK    7  A    between atoms: C_9  and  O_10 
REMARK    8  A    between atoms: N_11  and  C_12 
ROOT
HETATM    1  C   UNL     1      -6.862   2.607 -31.567  1.00  0.00     0.256 C 
HETATM    2  N   UNL     1      -6.536   1.704 -32.677  1.00  0.00    -0.254 N 
HETATM    3  C   UNL     1      -7.144   1.898 -33.907  1.00  0.00     0.330 C 
HETATM    4  O   UNL     1      -6.690   1.506 -34.981  1.00  0.00    -0.246 OA
HETATM    5  N   UNL     1      -8.326   2.584 -33.919  1.00  0.00    -0.308 N 
HETATM    6  C   UNL     1      -9.003   3.013 -32.784  1.00  0.00     0.048 A 
HETATM    7  C   UNL     1      -8.325   3.006 -31.567  1.00  0.00     0.034 A 
HETATM    8  C   UNL     1     -10.314   3.472 -32.883  1.00  0.00     0.030 A 
HETATM    9  C   UNL     1     -10.970   3.924 -31.739  1.00  0.00     0.002 A 
HETATM   10  C   UNL     1     -10.312   3.920 -30.510  1.00  0.00     0.001 A 
HETATM   11  C   UNL     1      -8.994   3.470 -30.422  1.00  0.00     0.015 A 
HETATM   12  H   UNL     1      -8.803   2.574 -34.815  1.00  0.00     0.170 HD
ENDROOT
BRANCH   1  13
HETATM   13  C   UNL     1      -5.934   3.897 -31.679  1.00  0.00     0.279 C 
HETATM   14  N   UNL     1      -4.796   3.968 -30.882  1.00  0.00    -0.355 N 
HETATM   15  H   UNL     1      -4.454   3.079 -30.526  1.00  0.00     0.162 HD
HETATM   16  O   UNL     1      -6.243   4.861 -32.386  1.00  0.00    -0.268 OA
BRANCH  14  17
HETATM   17  C   UNL     1      -3.774   4.971 -31.173  1.00  0.00     0.150 C 
BRANCH  17  18
HETATM   18  C   UNL     1      -2.484   4.397 -31.783  1.00  0.00     0.254 C 
BRANCH  18  19
HETATM   19  N   UNL     1      -1.464   5.498 -32.062  1.00  0.00    -0.070 N 
HETATM   20  H   UNL     1      -1.886   6.346 -31.652  1.00  0.00     0.279 HD
BRANCH  19  21
HETATM   21  C   UNL     1      -1.301   5.782 -33.544  1.00  0.00     0.230 C 
HETATM   22  C   UNL     1      -2.060   7.036 -33.939  1.00  0.00     0.034 C 
ENDBRANCH  19  21
BRANCH  19  23
HETATM   23  C   UNL     1      -0.135   5.343 -31.352  1.00  0.00     0.230 C 
HETATM   24  C   UNL     1       0.517   6.677 -31.031  1.00  0.00     0.034 C 
ENDBRANCH  19  23
ENDBRANCH  18  19
ENDBRANCH  17  18
ENDBRANCH  14  17
ENDBRANCH   1  13
BRANCH   1  25
HETATM   25  O   UNL     1      -6.637   1.951 -30.321  1.00  0.00    -0.359 OA
HETATM   26  H   UNL     1      -6.497   2.647 -29.658  1.00  0.00     0.213 HD
ENDBRANCH   1  25
BRANCH   2  27
HETATM   27  C   UNL     1      -5.593   0.635 -32.537  1.00  0.00     0.043 A 
HETATM   28  C   UNL     1      -4.217   0.846 -32.385  1.00  0.00     0.031 A 
HETATM   29  C   UNL     1      -3.344  -0.234 -32.190  1.00  0.00     0.026 A 
HETATM   30  C   UNL     1      -3.841  -1.533 -32.137  1.00  0.00     0.034 A 
HETATM   31 CL   UNL     1      -2.769  -2.849 -31.873  1.00  0.00    -0.084 Cl
HETATM   32  C   UNL     1      -5.202  -1.766 -32.298  1.00  0.00     0.026 A 
HETATM   33  C   UNL     1      -6.069  -0.689 -32.510  1.00  0.00     0.031 A 
ENDBRANCH   2  27
TORSDOF 8
ENDMDL
