MODEL 1
REMARK VINA RESULT:      -8.2      0.000      0.000
REMARK  4 active torsions:
REMARK  status: ('A' for Active; 'I' for Inactive)
REMARK    1  A    between atoms: N_8  and  C_10 
REMARK    2  A    between atoms: C_10  and  C_11 
REMARK    3  A    between atoms: C_14  and  C_15 
REMARK    4  A    between atoms: C_22  and  C_23 
ROOT
HETATM    1  C   UNL     1     -11.151   6.337 -31.278  1.00  0.00     0.269 C 
HETATM    2  N   UNL     1     -11.157   5.146 -32.215  1.00  0.00    -0.073 N 
HETATM    3  H   UNL     1     -11.658   4.406 -31.707  1.00  0.00     0.279 HD
HETATM    4  C   UNL     1      -9.760   4.674 -32.512  1.00  0.00     0.244 C 
HETATM    5  C   UNL     1      -9.765   3.385 -33.376  1.00  0.00    -0.013 C 
HETATM    6  C   UNL     1      -8.299   3.108 -33.824  1.00  0.00     0.039 C 
HETATM    7  C   UNL     1      -8.101   1.765 -34.528  1.00  0.00     0.236 C 
HETATM    8  N   UNL     1      -8.614   0.637 -33.675  1.00  0.00    -0.064 N 
HETATM    9  H   UNL     1      -8.584  -0.194 -34.292  1.00  0.00     0.280 HD
HETATM   10  C   UNL     1     -10.039   0.813 -33.245  1.00  0.00     0.236 C 
HETATM   11  C   UNL     1     -10.220   2.158 -32.537  1.00  0.00     0.039 C 
HETATM   12  C   UNL     1     -10.649   3.636 -34.634  1.00  0.00     0.022 C 
HETATM   13  C   UNL     1     -12.065   4.216 -34.369  1.00  0.00     0.045 C 
HETATM   14  C   UNL     1     -11.944   5.464 -33.475  1.00  0.00     0.243 C 
ENDROOT
BRANCH  13  15
HETATM   15  C   UNL     1     -13.077   3.157 -33.939  1.00  0.00    -0.052 A 
HETATM   16  C   UNL     1     -13.938   3.294 -32.839  1.00  0.00     0.007 A 
HETATM   17  C   UNL     1     -14.842   2.282 -32.499  1.00  0.00     0.001 A 
HETATM   18  C   UNL     1     -14.924   1.126 -33.268  1.00  0.00     0.000 A 
HETATM   19  C   UNL     1     -14.117   0.988 -34.390  1.00  0.00     0.001 A 
HETATM   20  C   UNL     1     -13.214   1.997 -34.728  1.00  0.00     0.007 A 
ENDBRANCH  13  15
BRANCH   8  21
HETATM   21  C   UNL     1      -7.663   0.203 -32.547  1.00  0.00     0.317 C 
BRANCH  21  22
HETATM   22  C   UNL     1      -6.657  -0.804 -32.986  1.00  0.00     0.181 A 
HETATM   23  N   UNL     1      -5.436  -0.885 -32.459  1.00  0.00    -0.109 NA
HETATM   24  O   UNL     1      -4.844  -1.912 -33.202  1.00  0.00    -0.196 OA
HETATM   25  C   UNL     1      -5.771  -2.320 -34.126  1.00  0.00     0.177 A 
HETATM   26  N   UNL     1      -6.901  -1.638 -34.047  1.00  0.00    -0.207 NA
BRANCH  25  27
HETATM   27  C   UNL     1      -5.494  -3.424 -35.132  1.00  0.00     0.065 A 
HETATM   28  C   UNL     1      -5.243  -4.829 -34.621  1.00  0.00     0.013 A 
HETATM   29  C   UNL     1      -6.525  -4.521 -35.314  1.00  0.00     0.013 A 
ENDBRANCH  25  27
ENDBRANCH  21  22
ENDBRANCH   8  21
TORSDOF 4
ENDMDL
MODEL 2
REMARK VINA RESULT:      -7.9      4.934      7.359
REMARK  4 active torsions:
REMARK  status: ('A' for Active; 'I' for Inactive)
REMARK    1  A    between atoms: N_8  and  C_10 
REMARK    2  A    between atoms: C_10  and  C_11 
REMARK    3  A    between atoms: C_14  and  C_15 
REMARK    4  A    between atoms: C_22  and  C_23 
ROOT
HETATM    1  C   UNL     1      -7.204   8.054 -31.977  1.00  0.00     0.269 C 
HETATM    2  N   UNL     1      -6.141   7.012 -31.699  1.00  0.00    -0.073 N 
HETATM    3  H   UNL     1      -5.591   6.949 -32.565  1.00  0.00     0.279 HD
HETATM    4  C   UNL     1      -6.752   5.668 -31.409  1.00  0.00     0.244 C 
HETATM    5  C   UNL     1      -5.666   4.572 -31.238  1.00  0.00    -0.013 C 
HETATM    6  C   UNL     1      -6.369   3.283 -30.717  1.00  0.00     0.039 C 
HETATM    7  C   UNL     1      -5.467   2.049 -30.675  1.00  0.00     0.236 C 
HETATM    8  N   UNL     1      -4.843   1.802 -32.021  1.00  0.00    -0.064 N 
HETATM    9  H   UNL     1      -4.141   1.059 -31.853  1.00  0.00     0.280 HD
HETATM   10  C   UNL     1      -4.105   2.988 -32.565  1.00  0.00     0.236 C 
HETATM   11  C   UNL     1      -5.023   4.213 -32.607  1.00  0.00     0.039 C 
HETATM   12  C   UNL     1      -4.633   5.060 -30.179  1.00  0.00     0.022 C 
HETATM   13  C   UNL     1      -4.055   6.485 -30.395  1.00  0.00     0.045 C 
HETATM   14  C   UNL     1      -5.214   7.480 -30.590  1.00  0.00     0.243 C 
ENDROOT
BRANCH  13  15
HETATM   15  C   UNL     1      -2.931   6.527 -31.426  1.00  0.00    -0.052 A 
HETATM   16  C   UNL     1      -2.827   7.497 -32.435  1.00  0.00     0.007 A 
HETATM   17  C   UNL     1      -1.769   7.476 -33.351  1.00  0.00     0.001 A 
HETATM   18  C   UNL     1      -0.780   6.503 -33.259  1.00  0.00     0.000 A 
HETATM   19  C   UNL     1      -0.833   5.561 -32.239  1.00  0.00     0.001 A 
HETATM   20  C   UNL     1      -1.890   5.581 -31.326  1.00  0.00     0.007 A 
ENDBRANCH  13  15
BRANCH   8  21
HETATM   21  C   UNL     1      -5.767   1.111 -33.038  1.00  0.00     0.317 C 
BRANCH  21  22
HETATM   22  C   UNL     1      -5.388  -0.304 -33.305  1.00  0.00     0.181 A 
HETATM   23  N   UNL     1      -4.430  -0.938 -32.629  1.00  0.00    -0.109 NA
HETATM   24  O   UNL     1      -4.389  -2.191 -33.248  1.00  0.00    -0.196 OA
HETATM   25  C   UNL     1      -5.312  -2.165 -34.261  1.00  0.00     0.177 A 
HETATM   26  N   UNL     1      -5.934  -1.002 -34.352  1.00  0.00    -0.207 NA
BRANCH  25  27
HETATM   27  C   UNL     1      -5.557  -3.352 -35.178  1.00  0.00     0.065 A 
HETATM   28  C   UNL     1      -5.386  -4.751 -34.618  1.00  0.00     0.013 A 
HETATM   29  C   UNL     1      -6.755  -4.242 -34.914  1.00  0.00     0.013 A 
ENDBRANCH  25  27
ENDBRANCH  21  22
ENDBRANCH   8  21
TORSDOF 4
ENDMDL
MODEL 3
REMARK VINA RESULT:      -7.8      4.858      7.424
REMARK  4 active torsions:
REMARK  status: ('A' for Active; 'I' for Inactive)
REMARK    1  A    between atoms: N_8  and  C_10 
REMARK    2  A    between atoms: C_10  and  C_11 
REMARK    3  A    between atoms: C_14  and  C_15 
REMARK    4  A    between atoms: C_22  and  C_23 
ROOT
HETATM    1  C   UNL     1      -6.220  -1.901 -34.277  1.00  0.00     0.269 C 
HETATM    2  N   UNL     1      -6.527  -0.570 -33.623  1.00  0.00    -0.073 N 
HETATM    3  H   UNL     1      -7.231  -0.128 -34.228  1.00  0.00     0.279 HD
HETATM    4  C   UNL     1      -5.307   0.311 -33.572  1.00  0.00     0.244 C 
HETATM    5  C   UNL     1      -5.643   1.718 -33.009  1.00  0.00    -0.013 C 
HETATM    6  C   UNL     1      -4.298   2.469 -32.776  1.00  0.00     0.039 C 
HETATM    7  C   UNL     1      -4.459   3.943 -32.400  1.00  0.00     0.236 C 
HETATM    8  N   UNL     1      -5.295   4.663 -33.423  1.00  0.00    -0.064 N 
HETATM    9  H   UNL     1      -5.477   5.592 -33.005  1.00  0.00     0.280 HD
HETATM   10  C   UNL     1      -6.628   4.021 -33.664  1.00  0.00     0.236 C 
HETATM   11  C   UNL     1      -6.451   2.549 -34.045  1.00  0.00     0.039 C 
HETATM   12  C   UNL     1      -6.379   1.544 -31.648  1.00  0.00     0.022 C 
HETATM   13  C   UNL     1      -7.585   0.565 -31.643  1.00  0.00     0.045 C 
HETATM   14  C   UNL     1      -7.150  -0.780 -32.254  1.00  0.00     0.243 C 
ENDROOT
BRANCH  13  15
HETATM   15  C   UNL     1      -8.866   1.189 -32.190  1.00  0.00    -0.052 A 
HETATM   16  C   UNL     1      -9.315   2.478 -31.861  1.00  0.00     0.007 A 
HETATM   17  C   UNL     1     -10.501   2.988 -32.400  1.00  0.00     0.001 A 
HETATM   18  C   UNL     1     -11.247   2.233 -33.298  1.00  0.00     0.000 A 
HETATM   19  C   UNL     1     -10.798   0.974 -33.677  1.00  0.00     0.001 A 
HETATM   20  C   UNL     1      -9.615   0.464 -33.139  1.00  0.00     0.007 A 
ENDBRANCH  13  15
BRANCH   8  21
HETATM   21  C   UNL     1      -4.541   5.055 -34.704  1.00  0.00     0.317 C 
BRANCH  21  22
HETATM   22  C   UNL     1      -3.168   5.568 -34.441  1.00  0.00     0.181 A 
HETATM   23  N   UNL     1      -2.101   5.169 -35.133  1.00  0.00    -0.109 NA
HETATM   24  O   UNL     1      -1.053   5.857 -34.512  1.00  0.00    -0.196 OA
HETATM   25  C   UNL     1      -1.603   6.576 -33.483  1.00  0.00     0.177 A 
HETATM   26  N   UNL     1      -2.910   6.403 -33.383  1.00  0.00    -0.207 NA
BRANCH  25  27
HETATM   27  C   UNL     1      -0.773   7.453 -32.561  1.00  0.00     0.065 A 
HETATM   28  C   UNL     1      -1.190   7.583 -31.109  1.00  0.00     0.013 A 
HETATM   29  C   UNL     1       0.027   6.795 -31.453  1.00  0.00     0.013 A 
ENDBRANCH  25  27
ENDBRANCH  21  22
ENDBRANCH   8  21
TORSDOF 4
ENDMDL
MODEL 4
REMARK VINA RESULT:      -7.8      3.480      7.742
REMARK  4 active torsions:
REMARK  status: ('A' for Active; 'I' for Inactive)
REMARK    1  A    between atoms: N_8  and  C_10 
REMARK    2  A    between atoms: C_10  and  C_11 
REMARK    3  A    between atoms: C_14  and  C_15 
REMARK    4  A    between atoms: C_22  and  C_23 
ROOT
HETATM    1  C   UNL     1      -2.402   4.749 -33.273  1.00  0.00     0.269 C 
HETATM    2  N   UNL     1      -3.572   3.906 -32.810  1.00  0.00    -0.073 N 
HETATM    3  H   UNL     1      -3.689   3.186 -33.535  1.00  0.00     0.279 HD
HETATM    4  C   UNL     1      -4.835   4.719 -32.723  1.00  0.00     0.244 C 
HETATM    5  C   UNL     1      -6.059   3.836 -32.362  1.00  0.00    -0.013 C 
HETATM    6  C   UNL     1      -7.259   4.785 -32.067  1.00  0.00     0.039 C 
HETATM    7  C   UNL     1      -8.596   4.067 -31.879  1.00  0.00     0.236 C 
HETATM    8  N   UNL     1      -8.897   3.188 -33.062  1.00  0.00    -0.064 N 
HETATM    9  H   UNL     1      -9.723   2.634 -32.774  1.00  0.00     0.280 HD
HETATM   10  C   UNL     1      -7.803   2.212 -33.376  1.00  0.00     0.236 C 
HETATM   11  C   UNL     1      -6.473   2.947 -33.568  1.00  0.00     0.039 C 
HETATM   12  C   UNL     1      -5.720   3.020 -31.080  1.00  0.00     0.022 C 
HETATM   13  C   UNL     1      -4.374   2.245 -31.099  1.00  0.00     0.045 C 
HETATM   14  C   UNL     1      -3.240   3.206 -31.504  1.00  0.00     0.243 C 
ENDROOT
BRANCH  13  15
HETATM   15  C   UNL     1      -4.456   0.920 -31.852  1.00  0.00    -0.052 A 
HETATM   16  C   UNL     1      -3.436   0.423 -32.680  1.00  0.00     0.007 A 
HETATM   17  C   UNL     1      -3.577  -0.801 -33.342  1.00  0.00     0.001 A 
HETATM   18  C   UNL     1      -4.725  -1.566 -33.169  1.00  0.00     0.000 A 
HETATM   19  C   UNL     1      -5.726  -1.120 -32.316  1.00  0.00     0.001 A 
HETATM   20  C   UNL     1      -5.587   0.102 -31.656  1.00  0.00     0.007 A 
ENDBRANCH  13  15
BRANCH   8  21
HETATM   21  C   UNL     1      -9.452   3.932 -34.288  1.00  0.00     0.317 C 
BRANCH  21  22
HETATM   22  C   UNL     1     -10.775   3.416 -34.735  1.00  0.00     0.181 A 
HETATM   23  N   UNL     1     -11.616   4.129 -35.484  1.00  0.00    -0.109 NA
HETATM   24  O   UNL     1     -12.722   3.282 -35.604  1.00  0.00    -0.196 OA
HETATM   25  C   UNL     1     -12.438   2.152 -34.881  1.00  0.00     0.177 A 
HETATM   26  N   UNL     1     -11.252   2.205 -34.300  1.00  0.00    -0.207 NA
BRANCH  25  27
HETATM   27  C   UNL     1     -13.410   0.990 -34.762  1.00  0.00     0.065 A 
HETATM   28  C   UNL     1     -13.259   0.032 -33.597  1.00  0.00     0.013 A 
HETATM   29  C   UNL     1     -14.404   0.985 -33.617  1.00  0.00     0.013 A 
ENDBRANCH  25  27
ENDBRANCH  21  22
ENDBRANCH   8  21
TORSDOF 4
ENDMDL
MODEL 5
REMARK VINA RESULT:      -7.7      5.587      8.201
REMARK  4 active torsions:
REMARK  status: ('A' for Active; 'I' for Inactive)
REMARK    1  A    between atoms: N_8  and  C_10 
REMARK    2  A    between atoms: C_10  and  C_11 
REMARK    3  A    between atoms: C_14  and  C_15 
REMARK    4  A    between atoms: C_22  and  C_23 
ROOT
HETATM    1  C   UNL     1      -4.268  -1.423 -33.521  1.00  0.00     0.269 C 
HETATM    2  N   UNL     1      -5.042  -0.260 -32.935  1.00  0.00    -0.073 N 
HETATM    3  H   UNL     1      -5.588   0.122 -33.718  1.00  0.00     0.279 HD
HETATM    4  C   UNL     1      -4.118   0.809 -32.416  1.00  0.00     0.244 C 
HETATM    5  C   UNL     1      -4.905   2.052 -31.922  1.00  0.00    -0.013 C 
HETATM    6  C   UNL     1      -3.898   2.994 -31.197  1.00  0.00     0.039 C 
HETATM    7  C   UNL     1      -4.477   4.356 -30.813  1.00  0.00     0.236 C 
HETATM    8  N   UNL     1      -5.067   5.040 -32.016  1.00  0.00    -0.064 N 
HETATM    9  H   UNL     1      -5.565   5.862 -31.633  1.00  0.00     0.280 HD
HETATM   10  C   UNL     1      -6.084   4.208 -32.738  1.00  0.00     0.236 C 
HETATM   11  C   UNL     1      -5.488   2.850 -33.121  1.00  0.00     0.039 C 
HETATM   12  C   UNL     1      -5.990   1.580 -30.908  1.00  0.00     0.022 C 
HETATM   13  C   UNL     1      -6.898   0.410 -31.375  1.00  0.00     0.045 C 
HETATM   14  C   UNL     1      -6.017  -0.749 -31.878  1.00  0.00     0.243 C 
ENDROOT
BRANCH  13  15
HETATM   15  C   UNL     1      -8.033   0.861 -32.292  1.00  0.00    -0.052 A 
HETATM   16  C   UNL     1      -8.292   0.301 -33.553  1.00  0.00     0.007 A 
HETATM   17  C   UNL     1      -9.350   0.763 -34.344  1.00  0.00     0.001 A 
HETATM   18  C   UNL     1     -10.186   1.773 -33.879  1.00  0.00     0.000 A 
HETATM   19  C   UNL     1      -9.980   2.308 -32.613  1.00  0.00     0.001 A 
HETATM   20  C   UNL     1      -8.924   1.849 -31.825  1.00  0.00     0.007 A 
ENDBRANCH  13  15
BRANCH   8  21
HETATM   21  C   UNL     1      -4.038   5.719 -32.936  1.00  0.00     0.317 C 
BRANCH  21  22
HETATM   22  C   UNL     1      -2.989   6.466 -32.188  1.00  0.00     0.181 A 
HETATM   23  N   UNL     1      -3.096   7.760 -31.888  1.00  0.00    -0.109 NA
HETATM   24  O   UNL     1      -1.881   8.033 -31.251  1.00  0.00    -0.196 OA
HETATM   25  C   UNL     1      -1.154   6.871 -31.265  1.00  0.00     0.177 A 
HETATM   26  N   UNL     1      -1.791   5.880 -31.865  1.00  0.00    -0.207 NA
BRANCH  25  27
HETATM   27  C   UNL     1       0.240   6.770 -30.668  1.00  0.00     0.065 A 
HETATM   28  C   UNL     1       0.525   7.481 -29.360  1.00  0.00     0.013 A 
HETATM   29  C   UNL     1       0.426   5.995 -29.378  1.00  0.00     0.013 A 
ENDBRANCH  25  27
ENDBRANCH  21  22
ENDBRANCH   8  21
TORSDOF 4
ENDMDL
MODEL 6
REMARK VINA RESULT:      -7.7      5.643      8.436
REMARK  4 active torsions:
REMARK  status: ('A' for Active; 'I' for Inactive)
REMARK    1  A    between atoms: N_8  and  C_10 
REMARK    2  A    between atoms: C_10  and  C_11 
REMARK    3  A    between atoms: C_14  and  C_15 
REMARK    4  A    between atoms: C_22  and  C_23 
ROOT
HETATM    1  C   UNL     1      -9.280   2.289 -30.992  1.00  0.00     0.269 C 
HETATM    2  N   UNL     1      -8.040   2.191 -31.857  1.00  0.00    -0.073 N 
HETATM    3  H   UNL     1      -7.310   1.812 -31.240  1.00  0.00     0.279 HD
HETATM    4  C   UNL     1      -7.607   3.545 -32.350  1.00  0.00     0.244 C 
HETATM    5  C   UNL     1      -6.273   3.464 -33.139  1.00  0.00    -0.013 C 
HETATM    6  C   UNL     1      -6.029   4.853 -33.802  1.00  0.00     0.039 C 
HETATM    7  C   UNL     1      -4.657   5.000 -34.463  1.00  0.00     0.236 C 
HETATM    8  N   UNL     1      -3.560   4.682 -33.485  1.00  0.00    -0.064 N 
HETATM    9  H   UNL     1      -2.698   4.653 -34.058  1.00  0.00     0.280 HD
HETATM   10  C   UNL     1      -3.703   3.335 -32.842  1.00  0.00     0.236 C 
HETATM   11  C   UNL     1      -5.078   3.205 -32.180  1.00  0.00     0.039 C 
HETATM   12  C   UNL     1      -6.420   2.382 -34.250  1.00  0.00     0.022 C 
HETATM   13  C   UNL     1      -6.958   1.000 -33.791  1.00  0.00     0.045 C 
HETATM   14  C   UNL     1      -8.258   1.202 -32.989  1.00  0.00     0.243 C 
ENDROOT
BRANCH  13  15
HETATM   15  C   UNL     1      -5.886   0.119 -33.154  1.00  0.00    -0.052 A 
HETATM   16  C   UNL     1      -5.612   0.087 -31.778  1.00  0.00     0.007 A 
HETATM   17  C   UNL     1      -4.613  -0.744 -31.260  1.00  0.00     0.001 A 
HETATM   18  C   UNL     1      -3.887  -1.580 -32.103  1.00  0.00     0.000 A 
HETATM   19  C   UNL     1      -4.174  -1.602 -33.462  1.00  0.00     0.001 A 
HETATM   20  C   UNL     1      -5.170  -0.772 -33.979  1.00  0.00     0.007 A 
ENDBRANCH  13  15
BRANCH   8  21
HETATM   21  C   UNL     1      -3.226   5.818 -32.504  1.00  0.00     0.317 C 
BRANCH  21  22
HETATM   22  C   UNL     1      -1.877   5.679 -31.887  1.00  0.00     0.181 A 
HETATM   23  N   UNL     1      -1.005   4.742 -32.254  1.00  0.00    -0.109 NA
HETATM   24  O   UNL     1       0.069   4.958 -31.385  1.00  0.00    -0.196 OA
HETATM   25  C   UNL     1      -0.290   5.991 -30.558  1.00  0.00     0.177 A 
HETATM   26  N   UNL     1      -1.503   6.449 -30.815  1.00  0.00    -0.207 NA
BRANCH  25  27
HETATM   27  C   UNL     1       0.621   6.516 -29.461  1.00  0.00     0.065 A 
HETATM   28  C   UNL     1       0.085   7.570 -28.512  1.00  0.00     0.013 A 
HETATM   29  C   UNL     1       0.296   6.180 -28.019  1.00  0.00     0.013 A 
ENDBRANCH  25  27
ENDBRANCH  21  22
ENDBRANCH   8  21
TORSDOF 4
ENDMDL
MODEL 7
REMARK VINA RESULT:      -7.6      3.273      8.360
REMARK  4 active torsions:
REMARK  status: ('A' for Active; 'I' for Inactive)
REMARK    1  A    between atoms: N_8  and  C_10 
REMARK    2  A    between atoms: C_10  and  C_11 
REMARK    3  A    between atoms: C_14  and  C_15 
REMARK    4  A    between atoms: C_22  and  C_23 
ROOT
HETATM    1  C   UNL     1      -3.279   2.430 -31.446  1.00  0.00     0.269 C 
HETATM    2  N   UNL     1      -4.568   1.706 -31.778  1.00  0.00    -0.073 N 
HETATM    3  H   UNL     1      -4.467   1.412 -32.758  1.00  0.00     0.279 HD
HETATM    4  C   UNL     1      -5.757   2.620 -31.663  1.00  0.00     0.244 C 
HETATM    5  C   UNL     1      -7.064   1.916 -32.114  1.00  0.00    -0.013 C 
HETATM    6  C   UNL     1      -8.257   2.846 -31.743  1.00  0.00     0.039 C 
HETATM    7  C   UNL     1      -9.608   2.384 -32.291  1.00  0.00     0.236 C 
HETATM    8  N   UNL     1      -9.537   2.185 -33.781  1.00  0.00    -0.064 N 
HETATM    9  H   UNL     1     -10.432   1.727 -34.028  1.00  0.00     0.280 HD
HETATM   10  C   UNL     1      -8.438   1.259 -34.209  1.00  0.00     0.236 C 
HETATM   11  C   UNL     1      -7.092   1.739 -33.658  1.00  0.00     0.039 C 
HETATM   12  C   UNL     1      -7.197   0.573 -31.336  1.00  0.00     0.022 C 
HETATM   13  C   UNL     1      -5.950  -0.353 -31.353  1.00  0.00     0.045 C 
HETATM   14  C   UNL     1      -4.711   0.456 -30.927  1.00  0.00     0.243 C 
ENDROOT
BRANCH  13  15
HETATM   15  C   UNL     1      -5.830  -1.174 -32.634  1.00  0.00    -0.052 A 
HETATM   16  C   UNL     1      -6.922  -1.544 -33.435  1.00  0.00     0.007 A 
HETATM   17  C   UNL     1      -6.741  -2.299 -34.598  1.00  0.00     0.001 A 
HETATM   18  C   UNL     1      -5.464  -2.676 -35.000  1.00  0.00     0.000 A 
HETATM   19  C   UNL     1      -4.363  -2.279 -34.251  1.00  0.00     0.001 A 
HETATM   20  C   UNL     1      -4.544  -1.527 -33.090  1.00  0.00     0.007 A 
ENDBRANCH  13  15
BRANCH   8  21
HETATM   21  C   UNL     1      -9.629   3.481 -34.604  1.00  0.00     0.317 C 
BRANCH  21  22
HETATM   22  C   UNL     1     -11.031   3.902 -34.877  1.00  0.00     0.181 A 
HETATM   23  N   UNL     1     -12.022   3.034 -35.081  1.00  0.00    -0.109 NA
HETATM   24  O   UNL     1     -13.114   3.866 -35.346  1.00  0.00    -0.196 OA
HETATM   25  C   UNL     1     -12.652   5.156 -35.304  1.00  0.00     0.177 A 
HETATM   26  N   UNL     1     -11.357   5.224 -35.046  1.00  0.00    -0.207 NA
BRANCH  25  27
HETATM   27  C   UNL     1     -13.550   6.357 -35.552  1.00  0.00     0.065 A 
HETATM   28  C   UNL     1     -12.964   7.573 -36.241  1.00  0.00     0.013 A 
HETATM   29  C   UNL     1     -13.924   6.705 -36.979  1.00  0.00     0.013 A 
ENDBRANCH  25  27
ENDBRANCH  21  22
ENDBRANCH   8  21
TORSDOF 4
ENDMDL
MODEL 8
REMARK VINA RESULT:      -7.5      6.710      9.316
REMARK  4 active torsions:
REMARK  status: ('A' for Active; 'I' for Inactive)
REMARK    1  A    between atoms: N_8  and  C_10 
REMARK    2  A    between atoms: C_10  and  C_11 
REMARK    3  A    between atoms: C_14  and  C_15 
REMARK    4  A    between atoms: C_22  and  C_23 
ROOT
HETATM    1  C   UNL     1       0.973   4.815 -29.494  1.00  0.00     0.269 C 
HETATM    2  N   UNL     1      -0.159   5.478 -30.251  1.00  0.00    -0.073 N 
HETATM    3  H   UNL     1      -0.805   5.818 -29.527  1.00  0.00     0.279 HD
HETATM    4  C   UNL     1      -0.884   4.494 -31.128  1.00  0.00     0.244 C 
HETATM    5  C   UNL     1      -2.116   5.141 -31.815  1.00  0.00    -0.013 C 
HETATM    6  C   UNL     1      -2.657   4.129 -32.870  1.00  0.00     0.039 C 
HETATM    7  C   UNL     1      -3.987   4.537 -33.505  1.00  0.00     0.236 C 
HETATM    8  N   UNL     1      -5.023   4.801 -32.446  1.00  0.00    -0.064 N 
HETATM    9  H   UNL     1      -5.821   5.217 -32.958  1.00  0.00     0.280 HD
HETATM   10  C   UNL     1      -4.588   5.805 -31.421  1.00  0.00     0.236 C 
HETATM   11  C   UNL     1      -3.259   5.380 -30.790  1.00  0.00     0.039 C 
HETATM   12  C   UNL     1      -1.653   6.440 -32.539  1.00  0.00     0.022 C 
HETATM   13  C   UNL     1      -0.818   7.435 -31.688  1.00  0.00     0.045 C 
HETATM   14  C   UNL     1       0.351   6.681 -31.025  1.00  0.00     0.243 C 
ENDROOT
BRANCH  13  15
HETATM   15  C   UNL     1      -1.673   8.314 -30.780  1.00  0.00    -0.052 A 
HETATM   16  C   UNL     1      -1.425   8.506 -29.411  1.00  0.00     0.007 A 
HETATM   17  C   UNL     1      -2.252   9.325 -28.636  1.00  0.00     0.001 A 
HETATM   18  C   UNL     1      -3.325   9.991 -29.216  1.00  0.00     0.000 A 
HETATM   19  C   UNL     1      -3.562   9.857 -30.579  1.00  0.00     0.001 A 
HETATM   20  C   UNL     1      -2.738   9.038 -31.353  1.00  0.00     0.007 A 
ENDBRANCH  13  15
BRANCH   8  21
HETATM   21  C   UNL     1      -5.674   3.538 -31.858  1.00  0.00     0.317 C 
BRANCH  21  22
HETATM   22  C   UNL     1      -6.259   2.644 -32.896  1.00  0.00     0.181 A 
HETATM   23  N   UNL     1      -7.376   2.939 -33.560  1.00  0.00    -0.109 NA
HETATM   24  O   UNL     1      -7.566   1.813 -34.366  1.00  0.00    -0.196 OA
HETATM   25  C   UNL     1      -6.551   0.939 -34.073  1.00  0.00     0.177 A 
HETATM   26  N   UNL     1      -5.733   1.402 -33.143  1.00  0.00    -0.207 NA
BRANCH  25  27
HETATM   27  C   UNL     1      -6.418  -0.417 -34.747  1.00  0.00     0.065 A 
HETATM   28  C   UNL     1      -5.696  -1.528 -34.010  1.00  0.00     0.013 A 
HETATM   29  C   UNL     1      -7.176  -1.596 -34.168  1.00  0.00     0.013 A 
ENDBRANCH  25  27
ENDBRANCH  21  22
ENDBRANCH   8  21
TORSDOF 4
ENDMDL
MODEL 9
REMARK VINA RESULT:      -7.4      5.544      7.638
REMARK  4 active torsions:
REMARK  status: ('A' for Active; 'I' for Inactive)
REMARK    1  A    between atoms: N_8  and  C_10 
REMARK    2  A    between atoms: C_10  and  C_11 
REMARK    3  A    between atoms: C_14  and  C_15 
REMARK    4  A    between atoms: C_22  and  C_23 
ROOT
HETATM    1  C   UNL     1      -9.963   3.522 -30.430  1.00  0.00     0.269 C 
HETATM    2  N   UNL     1      -8.888   3.277 -31.469  1.00  0.00    -0.073 N 
HETATM    3  H   UNL     1      -8.527   2.336 -31.268  1.00  0.00     0.279 HD
HETATM    4  C   UNL     1      -7.763   4.268 -31.340  1.00  0.00     0.244 C 
HETATM    5  C   UNL     1      -6.606   3.951 -32.325  1.00  0.00    -0.013 C 
HETATM    6  C   UNL     1      -5.608   5.146 -32.286  1.00  0.00     0.039 C 
HETATM    7  C   UNL     1      -4.311   4.906 -33.061  1.00  0.00     0.236 C 
HETATM    8  N   UNL     1      -3.641   3.642 -32.595  1.00  0.00    -0.064 N 
HETATM    9  H   UNL     1      -2.875   3.486 -33.275  1.00  0.00     0.280 HD
HETATM   10  C   UNL     1      -4.530   2.437 -32.652  1.00  0.00     0.236 C 
HETATM   11  C   UNL     1      -5.821   2.690 -31.867  1.00  0.00     0.039 C 
HETATM   12  C   UNL     1      -7.199   3.822 -33.760  1.00  0.00     0.022 C 
HETATM   13  C   UNL     1      -8.425   2.879 -33.910  1.00  0.00     0.045 C 
HETATM   14  C   UNL     1      -9.489   3.260 -32.864  1.00  0.00     0.243 C 
ENDROOT
BRANCH  13  15
HETATM   15  C   UNL     1      -8.041   1.405 -33.998  1.00  0.00    -0.052 A 
HETATM   16  C   UNL     1      -8.575   0.404 -33.171  1.00  0.00     0.007 A 
HETATM   17  C   UNL     1      -8.177  -0.931 -33.304  1.00  0.00     0.001 A 
HETATM   18  C   UNL     1      -7.261  -1.296 -34.284  1.00  0.00     0.000 A 
HETATM   19  C   UNL     1      -6.756  -0.332 -35.147  1.00  0.00     0.001 A 
HETATM   20  C   UNL     1      -7.151   1.000 -35.013  1.00  0.00     0.007 A 
ENDBRANCH  13  15
BRANCH   8  21
HETATM   21  C   UNL     1      -2.849   3.783 -31.284  1.00  0.00     0.317 C 
BRANCH  21  22
HETATM   22  C   UNL     1      -1.806   4.845 -31.342  1.00  0.00     0.181 A 
HETATM   23  N   UNL     1      -0.826   4.850 -32.246  1.00  0.00    -0.109 NA
HETATM   24  O   UNL     1      -0.077   5.974 -31.886  1.00  0.00    -0.196 OA
HETATM   25  C   UNL     1      -0.674   6.511 -30.774  1.00  0.00     0.177 A 
HETATM   26  N   UNL     1      -1.733   5.823 -30.384  1.00  0.00    -0.207 NA
BRANCH  25  27
HETATM   27  C   UNL     1      -0.139   7.750 -30.075  1.00  0.00     0.065 A 
HETATM   28  C   UNL     1      -0.713   8.129 -28.725  1.00  0.00     0.013 A 
HETATM   29  C   UNL     1       0.669   7.580 -28.804  1.00  0.00     0.013 A 
ENDBRANCH  25  27
ENDBRANCH  21  22
ENDBRANCH   8  21
TORSDOF 4
ENDMDL
MODEL 10
REMARK VINA RESULT:      -7.3      6.251      8.933
REMARK  4 active torsions:
REMARK  status: ('A' for Active; 'I' for Inactive)
REMARK    1  A    between atoms: N_8  and  C_10 
REMARK    2  A    between atoms: C_10  and  C_11 
REMARK    3  A    between atoms: C_14  and  C_15 
REMARK    4  A    between atoms: C_22  and  C_23 
ROOT
HETATM    1  C   UNL     1      -9.944   2.686 -32.646  1.00  0.00     0.269 C 
HETATM    2  N   UNL     1      -8.440   2.780 -32.795  1.00  0.00    -0.073 N 
HETATM    3  H   UNL     1      -8.057   2.311 -31.964  1.00  0.00     0.279 HD
HETATM    4  C   UNL     1      -7.977   4.212 -32.802  1.00  0.00     0.244 C 
HETATM    5  C   UNL     1      -6.429   4.312 -32.837  1.00  0.00    -0.013 C 
HETATM    6  C   UNL     1      -6.054   5.805 -33.077  1.00  0.00     0.039 C 
HETATM    7  C   UNL     1      -4.560   6.105 -32.949  1.00  0.00     0.236 C 
HETATM    8  N   UNL     1      -4.036   5.637 -31.620  1.00  0.00    -0.064 N 
HETATM    9  H   UNL     1      -3.008   5.736 -31.693  1.00  0.00     0.280 HD
HETATM   10  C   UNL     1      -4.319   4.191 -31.341  1.00  0.00     0.236 C 
HETATM   11  C   UNL     1      -5.818   3.907 -31.466  1.00  0.00     0.039 C 
HETATM   12  C   UNL     1      -5.904   3.451 -34.025  1.00  0.00     0.022 C 
HETATM   13  C   UNL     1      -6.439   1.995 -34.102  1.00  0.00     0.045 C 
HETATM   14  C   UNL     1      -7.977   2.014 -34.022  1.00  0.00     0.243 C 
ENDROOT
BRANCH  13  15
HETATM   15  C   UNL     1      -5.711   1.038 -33.162  1.00  0.00    -0.052 A 
HETATM   16  C   UNL     1      -6.357   0.087 -32.356  1.00  0.00     0.007 A 
HETATM   17  C   UNL     1      -5.628  -0.760 -31.514  1.00  0.00     0.001 A 
HETATM   18  C   UNL     1      -4.239  -0.694 -31.483  1.00  0.00     0.000 A 
HETATM   19  C   UNL     1      -3.574   0.204 -32.308  1.00  0.00     0.001 A 
HETATM   20  C   UNL     1      -4.302   1.051 -33.147  1.00  0.00     0.007 A 
ENDBRANCH  13  15
BRANCH   8  21
HETATM   21  C   UNL     1      -4.342   6.579 -30.443  1.00  0.00     0.317 C 
BRANCH  21  22
HETATM   22  C   UNL     1      -3.123   7.219 -29.874  1.00  0.00     0.181 A 
HETATM   23  N   UNL     1      -3.119   8.454 -29.374  1.00  0.00    -0.109 NA
HETATM   24  O   UNL     1      -1.779   8.642 -29.020  1.00  0.00    -0.196 OA
HETATM   25  C   UNL     1      -1.109   7.502 -29.380  1.00  0.00     0.177 A 
HETATM   26  N   UNL     1      -1.899   6.603 -29.942  1.00  0.00    -0.207 NA
BRANCH  25  27
HETATM   27  C   UNL     1       0.385   7.327 -29.162  1.00  0.00     0.065 A 
HETATM   28  C   UNL     1       1.089   8.241 -28.180  1.00  0.00     0.013 A 
HETATM   29  C   UNL     1       0.872   6.812 -27.822  1.00  0.00     0.013 A 
ENDBRANCH  25  27
ENDBRANCH  21  22
ENDBRANCH   8  21
TORSDOF 4
ENDMDL
