MODEL 1
REMARK VINA RESULT:      -7.8      0.000      0.000
REMARK  6 active torsions:
REMARK  status: ('A' for Active; 'I' for Inactive)
REMARK    1  A    between atoms: N_2  and  C_4 
REMARK    2  A    between atoms: C_4  and  C_5 
REMARK    3  A    between atoms: C_5  and  N_6 
REMARK    4  A    between atoms: C_5  and  C_21 
REMARK       I    between atoms: N_6  and  C_7 
REMARK       I    between atoms: C_7  and  N_8 
REMARK    5  A    between atoms: N_8  and  C_9 
REMARK    6  A    between atoms: C_12  and  C_13 
ROOT
HETATM    1  N   UNL     1      -6.335   3.475 -32.933  1.00  0.00    -0.333 N 
HETATM    2  C   UNL     1      -6.857   4.623 -33.440  1.00  0.00     0.322 C 
HETATM    3  N   UNL     1      -5.995   5.608 -33.797  1.00  0.00    -0.287 N 
HETATM    4  O   UNL     1      -8.058   4.750 -33.668  1.00  0.00    -0.247 OA
HETATM    5  H   UNL     1      -5.377   3.564 -32.596  1.00  0.00     0.165 HD
HETATM    6  H   UNL     1      -6.401   6.444 -34.194  1.00  0.00     0.172 HD
ENDROOT
BRANCH   1   7
HETATM    7  C   UNL     1      -7.114   2.364 -32.402  1.00  0.00     0.145 C 
BRANCH   7   8
HETATM    8  C   UNL     1      -6.962   2.069 -30.877  1.00  0.00     0.263 C 
BRANCH   8   9
HETATM    9  N   UNL     1      -7.930   2.815 -29.954  1.00  0.00    -0.076 N 
HETATM   10  C   UNL     1      -9.311   2.987 -30.512  1.00  0.00     0.269 C 
HETATM   11  H   UNL     1      -8.029   2.191 -29.144  1.00  0.00     0.279 HD
HETATM   12  C   UNL     1      -7.385   4.092 -29.384  1.00  0.00     0.269 C 
ENDBRANCH   8   9
ENDBRANCH   7   8
BRANCH   7  13
HETATM   13  C   UNL     1      -6.937   1.099 -33.229  1.00  0.00    -0.034 A 
HETATM   14  C   UNL     1      -6.276  -0.011 -32.672  1.00  0.00     0.009 A 
HETATM   15  C   UNL     1      -6.060  -1.166 -33.428  1.00  0.00     0.001 A 
HETATM   16  C   UNL     1      -6.507  -1.233 -34.745  1.00  0.00     0.000 A 
HETATM   17  C   UNL     1      -7.177  -0.150 -35.305  1.00  0.00     0.001 A 
HETATM   18  C   UNL     1      -7.392   1.008 -34.553  1.00  0.00     0.009 A 
ENDBRANCH   7  13
ENDBRANCH   1   7
BRANCH   3  19
HETATM   19  C   UNL     1      -4.633   5.537 -33.745  1.00  0.00     0.175 A 
HETATM   20  S   UNL     1      -3.882   5.116 -35.213  1.00  0.00    -0.061 SA
HETATM   21  C   UNL     1      -2.364   5.125 -34.409  1.00  0.00     0.086 A 
HETATM   22  C   UNL     1      -2.545   5.474 -33.084  1.00  0.00     0.078 A 
HETATM   23  N   UNL     1      -3.856   5.718 -32.704  1.00  0.00    -0.223 NA
BRANCH  22  24
HETATM   24  C   UNL     1      -1.452   5.597 -32.142  1.00  0.00     0.011 A 
HETATM   25  C   UNL     1      -1.197   4.619 -31.187  1.00  0.00     0.130 A 
HETATM   26  N   UNL     1      -0.189   4.684 -30.286  1.00  0.00    -0.272 NA
HETATM   27  C   UNL     1       0.613   5.770 -30.349  1.00  0.00     0.116 A 
HETATM   28  C   UNL     1       0.440   6.800 -31.259  1.00  0.00     0.020 A 
HETATM   29  C   UNL     1      -0.616   6.715 -32.165  1.00  0.00     0.017 A 
ENDBRANCH  22  24
ENDBRANCH   3  19
TORSDOF 6
ENDMDL
MODEL 2
REMARK VINA RESULT:      -7.8      1.029      1.500
REMARK  6 active torsions:
REMARK  status: ('A' for Active; 'I' for Inactive)
REMARK    1  A    between atoms: N_2  and  C_4 
REMARK    2  A    between atoms: C_4  and  C_5 
REMARK    3  A    between atoms: C_5  and  N_6 
REMARK    4  A    between atoms: C_5  and  C_21 
REMARK       I    between atoms: N_6  and  C_7 
REMARK       I    between atoms: C_7  and  N_8 
REMARK    5  A    between atoms: N_8  and  C_9 
REMARK    6  A    between atoms: C_12  and  C_13 
ROOT
HETATM    1  N   UNL     1      -5.962   2.991 -33.153  1.00  0.00    -0.333 N 
HETATM    2  C   UNL     1      -6.630   4.103 -33.562  1.00  0.00     0.322 C 
HETATM    3  N   UNL     1      -5.903   5.218 -33.824  1.00  0.00    -0.287 N 
HETATM    4  O   UNL     1      -7.838   4.093 -33.787  1.00  0.00    -0.247 OA
HETATM    5  H   UNL     1      -5.022   3.173 -32.803  1.00  0.00     0.165 HD
HETATM    6  H   UNL     1      -6.415   6.027 -34.149  1.00  0.00     0.172 HD
ENDROOT
BRANCH   1   7
HETATM    7  C   UNL     1      -6.589   1.747 -32.728  1.00  0.00     0.145 C 
BRANCH   7   8
HETATM    8  C   UNL     1      -7.043   1.667 -31.237  1.00  0.00     0.263 C 
BRANCH   8   9
HETATM    9  N   UNL     1      -8.556   1.659 -31.001  1.00  0.00    -0.076 N 
HETATM   10  C   UNL     1      -9.350   0.991 -32.083  1.00  0.00     0.269 C 
HETATM   11  H   UNL     1      -8.672   1.074 -30.164  1.00  0.00     0.279 HD
HETATM   12  C   UNL     1      -9.132   2.990 -30.615  1.00  0.00     0.269 C 
ENDBRANCH   8   9
ENDBRANCH   7   8
BRANCH   7  13
HETATM   13  C   UNL     1      -5.764   0.531 -33.119  1.00  0.00    -0.034 A 
HETATM   14  C   UNL     1      -6.341  -0.480 -33.909  1.00  0.00     0.009 A 
HETATM   15  C   UNL     1      -5.618  -1.629 -34.240  1.00  0.00     0.001 A 
HETATM   16  C   UNL     1      -4.307  -1.781 -33.796  1.00  0.00     0.000 A 
HETATM   17  C   UNL     1      -3.715  -0.783 -33.028  1.00  0.00     0.001 A 
HETATM   18  C   UNL     1      -4.437   0.365 -32.692  1.00  0.00     0.009 A 
ENDBRANCH   7  13
ENDBRANCH   1   7
BRANCH   3  19
HETATM   19  C   UNL     1      -4.543   5.319 -33.768  1.00  0.00     0.175 A 
HETATM   20  S   UNL     1      -3.754   5.182 -35.269  1.00  0.00    -0.061 SA
HETATM   21  C   UNL     1      -2.245   5.289 -34.456  1.00  0.00     0.086 A 
HETATM   22  C   UNL     1      -2.460   5.447 -33.099  1.00  0.00     0.078 A 
HETATM   23  N   UNL     1      -3.790   5.470 -32.706  1.00  0.00    -0.223 NA
BRANCH  22  24
HETATM   24  C   UNL     1      -1.387   5.595 -32.140  1.00  0.00     0.011 A 
HETATM   25  C   UNL     1      -1.129   4.625 -31.177  1.00  0.00     0.130 A 
HETATM   26  N   UNL     1      -0.139   4.714 -30.258  1.00  0.00    -0.272 NA
HETATM   27  C   UNL     1       0.642   5.815 -30.311  1.00  0.00     0.116 A 
HETATM   28  C   UNL     1       0.465   6.838 -31.228  1.00  0.00     0.020 A 
HETATM   29  C   UNL     1      -0.573   6.729 -32.151  1.00  0.00     0.017 A 
ENDBRANCH  22  24
ENDBRANCH   3  19
TORSDOF 6
ENDMDL
MODEL 3
REMARK VINA RESULT:      -7.4      2.598      3.719
REMARK  6 active torsions:
REMARK  status: ('A' for Active; 'I' for Inactive)
REMARK    1  A    between atoms: N_2  and  C_4 
REMARK    2  A    between atoms: C_4  and  C_5 
REMARK    3  A    between atoms: C_5  and  N_6 
REMARK    4  A    between atoms: C_5  and  C_21 
REMARK       I    between atoms: N_6  and  C_7 
REMARK       I    between atoms: C_7  and  N_8 
REMARK    5  A    between atoms: N_8  and  C_9 
REMARK    6  A    between atoms: C_12  and  C_13 
ROOT
HETATM    1  N   UNL     1      -6.344   1.321 -33.124  1.00  0.00    -0.333 N 
HETATM    2  C   UNL     1      -6.569   0.938 -31.839  1.00  0.00     0.322 C 
HETATM    3  N   UNL     1      -6.037   1.697 -30.849  1.00  0.00    -0.287 N 
HETATM    4  O   UNL     1      -7.306  -0.004 -31.558  1.00  0.00    -0.247 OA
HETATM    5  H   UNL     1      -5.564   1.968 -33.237  1.00  0.00     0.165 HD
HETATM    6  H   UNL     1      -6.234   1.408 -29.900  1.00  0.00     0.172 HD
ENDROOT
BRANCH   1   7
HETATM    7  C   UNL     1      -6.747   0.569 -34.305  1.00  0.00     0.145 C 
BRANCH   7   8
HETATM    8  C   UNL     1      -8.277   0.509 -34.608  1.00  0.00     0.263 C 
BRANCH   8   9
HETATM    9  N   UNL     1      -9.170   1.354 -33.696  1.00  0.00    -0.076 N 
HETATM   10  C   UNL     1     -10.380   0.638 -33.175  1.00  0.00     0.269 C 
HETATM   11  H   UNL     1      -8.579   1.542 -32.876  1.00  0.00     0.279 HD
HETATM   12  C   UNL     1      -9.505   2.712 -34.239  1.00  0.00     0.269 C 
ENDBRANCH   8   9
ENDBRANCH   7   8
BRANCH   7  13
HETATM   13  C   UNL     1      -6.124  -0.818 -34.335  1.00  0.00    -0.034 A 
HETATM   14  C   UNL     1      -6.888  -1.917 -34.767  1.00  0.00     0.009 A 
HETATM   15  C   UNL     1      -6.354  -3.208 -34.757  1.00  0.00     0.001 A 
HETATM   16  C   UNL     1      -5.047  -3.419 -34.326  1.00  0.00     0.000 A 
HETATM   17  C   UNL     1      -4.271  -2.341 -33.911  1.00  0.00     0.001 A 
HETATM   18  C   UNL     1      -4.804  -1.049 -33.916  1.00  0.00     0.009 A 
ENDBRANCH   7  13
ENDBRANCH   1   7
BRANCH   3  19
HETATM   19  C   UNL     1      -5.332   2.854 -31.018  1.00  0.00     0.175 A 
HETATM   20  S   UNL     1      -5.752   4.108 -29.946  1.00  0.00    -0.061 SA
HETATM   21  C   UNL     1      -4.644   5.138 -30.760  1.00  0.00     0.086 A 
HETATM   22  C   UNL     1      -4.019   4.436 -31.774  1.00  0.00     0.078 A 
HETATM   23  N   UNL     1      -4.414   3.114 -31.916  1.00  0.00    -0.223 NA
BRANCH  22  24
HETATM   24  C   UNL     1      -3.007   5.016 -32.631  1.00  0.00     0.011 A 
HETATM   25  C   UNL     1      -2.075   5.928 -32.146  1.00  0.00     0.130 A 
HETATM   26  N   UNL     1      -1.108   6.498 -32.903  1.00  0.00    -0.272 NA
HETATM   27  C   UNL     1      -1.058   6.131 -34.202  1.00  0.00     0.116 A 
HETATM   28  C   UNL     1      -1.942   5.234 -34.781  1.00  0.00     0.020 A 
HETATM   29  C   UNL     1      -2.938   4.675 -33.983  1.00  0.00     0.017 A 
ENDBRANCH  22  24
ENDBRANCH   3  19
TORSDOF 6
ENDMDL
MODEL 4
REMARK VINA RESULT:      -7.4      2.838      6.922
REMARK  6 active torsions:
REMARK  status: ('A' for Active; 'I' for Inactive)
REMARK    1  A    between atoms: N_2  and  C_4 
REMARK    2  A    between atoms: C_4  and  C_5 
REMARK    3  A    between atoms: C_5  and  N_6 
REMARK    4  A    between atoms: C_5  and  C_21 
REMARK       I    between atoms: N_6  and  C_7 
REMARK       I    between atoms: C_7  and  N_8 
REMARK    5  A    between atoms: N_8  and  C_9 
REMARK    6  A    between atoms: C_12  and  C_13 
ROOT
HETATM    1  N   UNL     1      -6.258   3.756 -31.702  1.00  0.00    -0.333 N 
HETATM    2  C   UNL     1      -6.701   3.360 -30.479  1.00  0.00     0.322 C 
HETATM    3  N   UNL     1      -7.292   2.143 -30.381  1.00  0.00    -0.287 N 
HETATM    4  O   UNL     1      -6.496   4.023 -29.464  1.00  0.00    -0.247 OA
HETATM    5  H   UNL     1      -6.665   3.239 -32.481  1.00  0.00     0.165 HD
HETATM    6  H   UNL     1      -7.592   1.857 -29.460  1.00  0.00     0.172 HD
ENDROOT
BRANCH   1   7
HETATM    7  C   UNL     1      -5.702   5.067 -32.007  1.00  0.00     0.145 C 
BRANCH   7   8
HETATM    8  C   UNL     1      -6.697   6.142 -32.545  1.00  0.00     0.263 C 
BRANCH   8   9
HETATM    9  N   UNL     1      -8.162   5.705 -32.638  1.00  0.00    -0.076 N 
HETATM   10  C   UNL     1      -8.577   5.206 -33.989  1.00  0.00     0.269 C 
HETATM   11  H   UNL     1      -8.219   4.896 -32.008  1.00  0.00     0.279 HD
HETATM   12  C   UNL     1      -9.141   6.693 -32.074  1.00  0.00     0.269 C 
ENDBRANCH   8   9
ENDBRANCH   7   8
BRANCH   7  13
HETATM   13  C   UNL     1      -4.466   4.969 -32.889  1.00  0.00    -0.034 A 
HETATM   14  C   UNL     1      -3.239   4.568 -32.330  1.00  0.00     0.009 A 
HETATM   15  C   UNL     1      -2.081   4.518 -33.109  1.00  0.00     0.001 A 
HETATM   16  C   UNL     1      -2.132   4.858 -34.458  1.00  0.00     0.000 A 
HETATM   17  C   UNL     1      -3.341   5.241 -35.032  1.00  0.00     0.001 A 
HETATM   18  C   UNL     1      -4.500   5.296 -34.254  1.00  0.00     0.009 A 
ENDBRANCH   7  13
ENDBRANCH   1   7
BRANCH   3  19
HETATM   19  C   UNL     1      -7.439   1.241 -31.396  1.00  0.00     0.175 A 
HETATM   20  S   UNL     1      -8.991   1.199 -32.094  1.00  0.00    -0.061 SA
HETATM   21  C   UNL     1      -8.477  -0.097 -33.096  1.00  0.00     0.086 A 
HETATM   22  C   UNL     1      -7.148  -0.382 -32.838  1.00  0.00     0.078 A 
HETATM   23  N   UNL     1      -6.550   0.398 -31.860  1.00  0.00    -0.223 NA
BRANCH  22  24
HETATM   24  C   UNL     1      -6.409  -1.409 -33.541  1.00  0.00     0.011 A 
HETATM   25  C   UNL     1      -5.019  -1.459 -33.509  1.00  0.00     0.130 A 
HETATM   26  N   UNL     1      -4.280  -2.398 -34.146  1.00  0.00    -0.272 NA
HETATM   27  C   UNL     1      -4.958  -3.341 -34.835  1.00  0.00     0.116 A 
HETATM   28  C   UNL     1      -6.340  -3.376 -34.931  1.00  0.00     0.020 A 
HETATM   29  C   UNL     1      -7.076  -2.387 -34.280  1.00  0.00     0.017 A 
ENDBRANCH  22  24
ENDBRANCH   3  19
TORSDOF 6
ENDMDL
MODEL 5
REMARK VINA RESULT:      -7.3      1.355      1.923
REMARK  6 active torsions:
REMARK  status: ('A' for Active; 'I' for Inactive)
REMARK    1  A    between atoms: N_2  and  C_4 
REMARK    2  A    between atoms: C_4  and  C_5 
REMARK    3  A    between atoms: C_5  and  N_6 
REMARK    4  A    between atoms: C_5  and  C_21 
REMARK       I    between atoms: N_6  and  C_7 
REMARK       I    between atoms: C_7  and  N_8 
REMARK    5  A    between atoms: N_8  and  C_9 
REMARK    6  A    between atoms: C_12  and  C_13 
ROOT
HETATM    1  N   UNL     1      -5.391   3.449 -32.957  1.00  0.00    -0.333 N 
HETATM    2  C   UNL     1      -5.798   4.539 -33.660  1.00  0.00     0.322 C 
HETATM    3  N   UNL     1      -4.916   5.559 -33.816  1.00  0.00    -0.287 N 
HETATM    4  O   UNL     1      -6.887   4.581 -34.228  1.00  0.00    -0.247 OA
HETATM    5  H   UNL     1      -4.575   3.613 -32.367  1.00  0.00     0.165 HD
HETATM    6  H   UNL     1      -5.229   6.350 -34.362  1.00  0.00     0.172 HD
ENDROOT
BRANCH   1   7
HETATM    7  C   UNL     1      -6.237   2.318 -32.603  1.00  0.00     0.145 C 
BRANCH   7   8
HETATM    8  C   UNL     1      -6.767   2.272 -31.135  1.00  0.00     0.263 C 
BRANCH   8   9
HETATM    9  N   UNL     1      -7.795   3.345 -30.764  1.00  0.00    -0.076 N 
HETATM   10  C   UNL     1      -7.425   4.172 -29.570  1.00  0.00     0.269 C 
HETATM   11  H   UNL     1      -7.782   3.986 -31.567  1.00  0.00     0.279 HD
HETATM   12  C   UNL     1      -9.210   2.851 -30.696  1.00  0.00     0.269 C 
ENDBRANCH   8   9
ENDBRANCH   7   8
BRANCH   7  13
HETATM   13  C   UNL     1      -5.611   0.991 -33.004  1.00  0.00    -0.034 A 
HETATM   14  C   UNL     1      -6.345   0.081 -33.786  1.00  0.00     0.009 A 
HETATM   15  C   UNL     1      -5.809  -1.163 -34.126  1.00  0.00     0.001 A 
HETATM   16  C   UNL     1      -4.531  -1.513 -33.699  1.00  0.00     0.000 A 
HETATM   17  C   UNL     1      -3.784  -0.618 -32.939  1.00  0.00     0.001 A 
HETATM   18  C   UNL     1      -4.319   0.626 -32.594  1.00  0.00     0.009 A 
ENDBRANCH   7  13
ENDBRANCH   1   7
BRANCH   3  19
HETATM   19  C   UNL     1      -3.625   5.575 -33.374  1.00  0.00     0.175 A 
HETATM   20  S   UNL     1      -2.453   5.317 -34.582  1.00  0.00    -0.061 SA
HETATM   21  C   UNL     1      -1.234   5.365 -33.372  1.00  0.00     0.086 A 
HETATM   22  C   UNL     1      -1.815   5.600 -32.139  1.00  0.00     0.078 A 
HETATM   23  N   UNL     1      -3.196   5.727 -32.145  1.00  0.00    -0.223 NA
BRANCH  22  24
HETATM   24  C   UNL     1      -1.051   5.724 -30.916  1.00  0.00     0.011 A 
HETATM   25  C   UNL     1      -1.442   6.584 -29.896  1.00  0.00     0.130 A 
HETATM   26  N   UNL     1      -0.766   6.737 -28.732  1.00  0.00    -0.272 NA
HETATM   27  C   UNL     1       0.345   5.985 -28.572  1.00  0.00     0.116 A 
HETATM   28  C   UNL     1       0.819   5.102 -29.530  1.00  0.00     0.020 A 
HETATM   29  C   UNL     1       0.113   4.978 -30.725  1.00  0.00     0.017 A 
ENDBRANCH  22  24
ENDBRANCH   3  19
TORSDOF 6
ENDMDL
MODEL 6
REMARK VINA RESULT:      -7.3      3.275      7.354
REMARK  6 active torsions:
REMARK  status: ('A' for Active; 'I' for Inactive)
REMARK    1  A    between atoms: N_2  and  C_4 
REMARK    2  A    between atoms: C_4  and  C_5 
REMARK    3  A    between atoms: C_5  and  N_6 
REMARK    4  A    between atoms: C_5  and  C_21 
REMARK       I    between atoms: N_6  and  C_7 
REMARK       I    between atoms: C_7  and  N_8 
REMARK    5  A    between atoms: N_8  and  C_9 
REMARK    6  A    between atoms: C_12  and  C_13 
ROOT
HETATM    1  N   UNL     1      -6.120   1.327 -31.600  1.00  0.00    -0.333 N 
HETATM    2  C   UNL     1      -6.504   1.385 -30.298  1.00  0.00     0.322 C 
HETATM    3  N   UNL     1      -7.621   2.093 -29.996  1.00  0.00    -0.287 N 
HETATM    4  O   UNL     1      -5.930   0.745 -29.418  1.00  0.00    -0.247 OA
HETATM    5  H   UNL     1      -6.530   2.051 -32.190  1.00  0.00     0.165 HD
HETATM    6  H   UNL     1      -7.903   2.104 -29.026  1.00  0.00     0.172 HD
ENDROOT
BRANCH   1   7
HETATM    7  C   UNL     1      -4.895   0.706 -32.085  1.00  0.00     0.145 C 
BRANCH   7   8
HETATM    8  C   UNL     1      -3.790   1.667 -32.626  1.00  0.00     0.263 C 
BRANCH   8   9
HETATM    9  N   UNL     1      -3.938   3.140 -32.234  1.00  0.00    -0.076 N 
HETATM   10  C   UNL     1      -4.479   4.019 -33.321  1.00  0.00     0.269 C 
HETATM   11  H   UNL     1      -4.655   3.128 -31.498  1.00  0.00     0.279 HD
HETATM   12  C   UNL     1      -2.727   3.733 -31.575  1.00  0.00     0.269 C 
ENDBRANCH   8   9
ENDBRANCH   7   8
BRANCH   7  13
HETATM   13  C   UNL     1      -5.178  -0.418 -33.070  1.00  0.00    -0.034 A 
HETATM   14  C   UNL     1      -6.411  -0.461 -33.745  1.00  0.00     0.009 A 
HETATM   15  C   UNL     1      -6.713  -1.509 -34.617  1.00  0.00     0.001 A 
HETATM   16  C   UNL     1      -5.786  -2.524 -34.836  1.00  0.00     0.000 A 
HETATM   17  C   UNL     1      -4.554  -2.489 -34.190  1.00  0.00     0.001 A 
HETATM   18  C   UNL     1      -4.251  -1.444 -33.314  1.00  0.00     0.009 A 
ENDBRANCH   7  13
ENDBRANCH   1   7
BRANCH   3  19
HETATM   19  C   UNL     1      -8.439   2.718 -30.894  1.00  0.00     0.175 A 
HETATM   20  S   UNL     1      -8.535   4.408 -30.716  1.00  0.00    -0.061 SA
HETATM   21  C   UNL     1      -9.696   4.448 -31.981  1.00  0.00     0.086 A 
HETATM   22  C   UNL     1      -9.903   3.167 -32.460  1.00  0.00     0.078 A 
HETATM   23  N   UNL     1      -9.169   2.171 -31.834  1.00  0.00    -0.223 NA
BRANCH  22  24
HETATM   24  C   UNL     1     -10.806   2.867 -33.550  1.00  0.00     0.011 A 
HETATM   25  C   UNL     1     -11.016   3.763 -34.593  1.00  0.00     0.130 A 
HETATM   26  N   UNL     1     -11.848   3.531 -35.636  1.00  0.00    -0.272 NA
HETATM   27  C   UNL     1     -12.489   2.342 -35.649  1.00  0.00     0.116 A 
HETATM   28  C   UNL     1     -12.351   1.385 -34.656  1.00  0.00     0.020 A 
HETATM   29  C   UNL     1     -11.502   1.657 -33.586  1.00  0.00     0.017 A 
ENDBRANCH  22  24
ENDBRANCH   3  19
TORSDOF 6
ENDMDL
MODEL 7
REMARK VINA RESULT:      -7.3      2.245      2.802
REMARK  6 active torsions:
REMARK  status: ('A' for Active; 'I' for Inactive)
REMARK    1  A    between atoms: N_2  and  C_4 
REMARK    2  A    between atoms: C_4  and  C_5 
REMARK    3  A    between atoms: C_5  and  N_6 
REMARK    4  A    between atoms: C_5  and  C_21 
REMARK       I    between atoms: N_6  and  C_7 
REMARK       I    between atoms: C_7  and  N_8 
REMARK    5  A    between atoms: N_8  and  C_9 
REMARK    6  A    between atoms: C_12  and  C_13 
ROOT
HETATM    1  N   UNL     1      -7.134   1.893 -32.707  1.00  0.00    -0.333 N 
HETATM    2  C   UNL     1      -8.046   2.381 -33.589  1.00  0.00     0.322 C 
HETATM    3  N   UNL     1      -7.900   3.662 -34.010  1.00  0.00    -0.287 N 
HETATM    4  O   UNL     1      -8.925   1.674 -34.078  1.00  0.00    -0.247 OA
HETATM    5  H   UNL     1      -6.597   2.611 -32.220  1.00  0.00     0.165 HD
HETATM    6  H   UNL     1      -8.574   3.999 -34.684  1.00  0.00     0.172 HD
ENDROOT
BRANCH   1   7
HETATM    7  C   UNL     1      -7.199   0.584 -32.073  1.00  0.00     0.145 C 
BRANCH   7   8
HETATM    8  C   UNL     1      -6.748   0.506 -30.581  1.00  0.00     0.263 C 
BRANCH   8   9
HETATM    9  N   UNL     1      -6.583   1.849 -29.864  1.00  0.00    -0.076 N 
HETATM   10  C   UNL     1      -7.760   2.768 -29.988  1.00  0.00     0.269 C 
HETATM   11  H   UNL     1      -6.528   1.593 -28.870  1.00  0.00     0.279 HD
HETATM   12  C   UNL     1      -5.285   2.549 -30.146  1.00  0.00     0.269 C 
ENDBRANCH   8   9
ENDBRANCH   7   8
BRANCH   7  13
HETATM   13  C   UNL     1      -6.521  -0.489 -32.910  1.00  0.00    -0.034 A 
HETATM   14  C   UNL     1      -5.125  -0.649 -32.841  1.00  0.00     0.009 A 
HETATM   15  C   UNL     1      -4.474  -1.595 -33.637  1.00  0.00     0.001 A 
HETATM   16  C   UNL     1      -5.206  -2.400 -34.506  1.00  0.00     0.000 A 
HETATM   17  C   UNL     1      -6.590  -2.266 -34.574  1.00  0.00     0.001 A 
HETATM   18  C   UNL     1      -7.243  -1.318 -33.782  1.00  0.00     0.009 A 
ENDBRANCH   7  13
ENDBRANCH   1   7
BRANCH   3  19
HETATM   19  C   UNL     1      -6.880   4.505 -33.670  1.00  0.00     0.175 A 
HETATM   20  S   UNL     1      -7.318   5.764 -32.612  1.00  0.00    -0.061 SA
HETATM   21  C   UNL     1      -5.719   6.382 -32.728  1.00  0.00     0.086 A 
HETATM   22  C   UNL     1      -4.965   5.562 -33.549  1.00  0.00     0.078 A 
HETATM   23  N   UNL     1      -5.638   4.475 -34.086  1.00  0.00    -0.223 NA
BRANCH  22  24
HETATM   24  C   UNL     1      -3.565   5.796 -33.828  1.00  0.00     0.011 A 
HETATM   25  C   UNL     1      -2.893   5.096 -34.825  1.00  0.00     0.130 A 
HETATM   26  N   UNL     1      -1.585   5.276 -35.128  1.00  0.00    -0.272 NA
HETATM   27  C   UNL     1      -0.919   6.210 -34.413  1.00  0.00     0.116 A 
HETATM   28  C   UNL     1      -1.497   6.956 -33.399  1.00  0.00     0.020 A 
HETATM   29  C   UNL     1      -2.840   6.738 -33.097  1.00  0.00     0.017 A 
ENDBRANCH  22  24
ENDBRANCH   3  19
TORSDOF 6
ENDMDL
MODEL 8
REMARK VINA RESULT:      -7.2      3.016      7.187
REMARK  6 active torsions:
REMARK  status: ('A' for Active; 'I' for Inactive)
REMARK    1  A    between atoms: N_2  and  C_4 
REMARK    2  A    between atoms: C_4  and  C_5 
REMARK    3  A    between atoms: C_5  and  N_6 
REMARK    4  A    between atoms: C_5  and  C_21 
REMARK       I    between atoms: N_6  and  C_7 
REMARK       I    between atoms: C_7  and  N_8 
REMARK    5  A    between atoms: N_8  and  C_9 
REMARK    6  A    between atoms: C_12  and  C_13 
ROOT
HETATM    1  N   UNL     1      -5.731   2.644 -31.972  1.00  0.00    -0.333 N 
HETATM    2  C   UNL     1      -6.948   2.413 -31.412  1.00  0.00     0.322 C 
HETATM    3  N   UNL     1      -7.700   1.405 -31.922  1.00  0.00    -0.287 N 
HETATM    4  O   UNL     1      -7.334   3.018 -30.414  1.00  0.00    -0.247 OA
HETATM    5  H   UNL     1      -5.615   2.239 -32.901  1.00  0.00     0.165 HD
HETATM    6  H   UNL     1      -8.591   1.234 -31.476  1.00  0.00     0.172 HD
ENDROOT
BRANCH   1   7
HETATM    7  C   UNL     1      -4.845   3.746 -31.624  1.00  0.00     0.145 C 
BRANCH   7   8
HETATM    8  C   UNL     1      -5.488   4.946 -30.860  1.00  0.00     0.263 C 
BRANCH   8   9
HETATM    9  N   UNL     1      -4.747   5.408 -29.602  1.00  0.00    -0.076 N 
HETATM   10  C   UNL     1      -5.624   5.604 -28.402  1.00  0.00     0.269 C 
HETATM   11  H   UNL     1      -4.130   4.619 -29.375  1.00  0.00     0.279 HD
HETATM   12  C   UNL     1      -3.817   6.566 -29.819  1.00  0.00     0.269 C 
ENDBRANCH   8   9
ENDBRANCH   7   8
BRANCH   7  13
HETATM   13  C   UNL     1      -4.035   4.225 -32.819  1.00  0.00    -0.034 A 
HETATM   14  C   UNL     1      -2.630   4.243 -32.747  1.00  0.00     0.009 A 
HETATM   15  C   UNL     1      -1.866   4.724 -33.813  1.00  0.00     0.001 A 
HETATM   16  C   UNL     1      -2.492   5.184 -34.969  1.00  0.00     0.000 A 
HETATM   17  C   UNL     1      -3.880   5.157 -35.063  1.00  0.00     0.001 A 
HETATM   18  C   UNL     1      -4.647   4.680 -33.997  1.00  0.00     0.009 A 
ENDBRANCH   7  13
ENDBRANCH   1   7
BRANCH   3  19
HETATM   19  C   UNL     1      -7.326   0.555 -32.922  1.00  0.00     0.175 A 
HETATM   20  S   UNL     1      -7.694   1.095 -34.493  1.00  0.00    -0.061 SA
HETATM   21  C   UNL     1      -7.088  -0.387 -35.116  1.00  0.00     0.086 A 
HETATM   22  C   UNL     1      -6.627  -1.172 -34.075  1.00  0.00     0.078 A 
HETATM   23  N   UNL     1      -6.760  -0.622 -32.809  1.00  0.00    -0.223 NA
BRANCH  22  24
HETATM   24  C   UNL     1      -6.028  -2.475 -34.272  1.00  0.00     0.011 A 
HETATM   25  C   UNL     1      -6.772  -3.560 -34.725  1.00  0.00     0.130 A 
HETATM   26  N   UNL     1      -6.261  -4.797 -34.927  1.00  0.00    -0.272 NA
HETATM   27  C   UNL     1      -4.943  -4.958 -34.680  1.00  0.00     0.116 A 
HETATM   28  C   UNL     1      -4.118  -3.942 -34.224  1.00  0.00     0.020 A 
HETATM   29  C   UNL     1      -4.673  -2.683 -34.008  1.00  0.00     0.017 A 
ENDBRANCH  22  24
ENDBRANCH   3  19
TORSDOF 6
ENDMDL
MODEL 9
REMARK VINA RESULT:      -7.2      4.131      6.610
REMARK  6 active torsions:
REMARK  status: ('A' for Active; 'I' for Inactive)
REMARK    1  A    between atoms: N_2  and  C_4 
REMARK    2  A    between atoms: C_4  and  C_5 
REMARK    3  A    between atoms: C_5  and  N_6 
REMARK    4  A    between atoms: C_5  and  C_21 
REMARK       I    between atoms: N_6  and  C_7 
REMARK       I    between atoms: C_7  and  N_8 
REMARK    5  A    between atoms: N_8  and  C_9 
REMARK    6  A    between atoms: C_12  and  C_13 
ROOT
HETATM    1  N   UNL     1      -8.173   3.300 -33.720  1.00  0.00    -0.333 N 
HETATM    2  C   UNL     1      -6.952   3.894 -33.768  1.00  0.00     0.322 C 
HETATM    3  N   UNL     1      -5.869   3.149 -33.431  1.00  0.00    -0.287 N 
HETATM    4  O   UNL     1      -6.798   5.038 -34.192  1.00  0.00    -0.247 OA
HETATM    5  H   UNL     1      -8.201   2.446 -33.163  1.00  0.00     0.165 HD
HETATM    6  H   UNL     1      -4.968   3.602 -33.495  1.00  0.00     0.172 HD
ENDROOT
BRANCH   1   7
HETATM    7  C   UNL     1      -9.443   3.977 -33.943  1.00  0.00     0.145 C 
BRANCH   7   8
HETATM    8  C   UNL     1      -9.883   5.012 -32.861  1.00  0.00     0.263 C 
BRANCH   8   9
HETATM    9  N   UNL     1      -9.709   4.569 -31.405  1.00  0.00    -0.076 N 
HETATM   10  C   UNL     1     -10.989   4.244 -30.697  1.00  0.00     0.269 C 
HETATM   11  H   UNL     1      -9.194   3.683 -31.477  1.00  0.00     0.279 HD
HETATM   12  C   UNL     1      -8.818   5.459 -30.587  1.00  0.00     0.269 C 
ENDBRANCH   8   9
ENDBRANCH   7   8
BRANCH   7  13
HETATM   13  C   UNL     1     -10.564   2.997 -34.256  1.00  0.00    -0.034 A 
HETATM   14  C   UNL     1     -11.492   3.299 -35.268  1.00  0.00     0.009 A 
HETATM   15  C   UNL     1     -12.558   2.438 -35.540  1.00  0.00     0.001 A 
HETATM   16  C   UNL     1     -12.707   1.259 -34.814  1.00  0.00     0.000 A 
HETATM   17  C   UNL     1     -11.788   0.937 -33.820  1.00  0.00     0.001 A 
HETATM   18  C   UNL     1     -10.723   1.799 -33.542  1.00  0.00     0.009 A 
ENDBRANCH   7  13
ENDBRANCH   1   7
BRANCH   3  19
HETATM   19  C   UNL     1      -5.883   1.825 -33.095  1.00  0.00     0.175 A 
HETATM   20  S   UNL     1      -5.899   1.513 -31.423  1.00  0.00    -0.061 SA
HETATM   21  C   UNL     1      -5.810  -0.168 -31.763  1.00  0.00     0.086 A 
HETATM   22  C   UNL     1      -5.799  -0.364 -33.132  1.00  0.00     0.078 A 
HETATM   23  N   UNL     1      -5.848   0.791 -33.899  1.00  0.00    -0.223 NA
BRANCH  22  24
HETATM   24  C   UNL     1      -5.757  -1.675 -33.744  1.00  0.00     0.011 A 
HETATM   25  C   UNL     1      -6.903  -2.283 -34.245  1.00  0.00     0.130 A 
HETATM   26  N   UNL     1      -6.919  -3.506 -34.828  1.00  0.00    -0.272 NA
HETATM   27  C   UNL     1      -5.733  -4.145 -34.929  1.00  0.00     0.116 A 
HETATM   28  C   UNL     1      -4.538  -3.626 -34.458  1.00  0.00     0.020 A 
HETATM   29  C   UNL     1      -4.554  -2.374 -33.847  1.00  0.00     0.017 A 
ENDBRANCH  22  24
ENDBRANCH   3  19
TORSDOF 6
ENDMDL
MODEL 10
REMARK VINA RESULT:      -7.0      3.200      7.507
REMARK  6 active torsions:
REMARK  status: ('A' for Active; 'I' for Inactive)
REMARK    1  A    between atoms: N_2  and  C_4 
REMARK    2  A    between atoms: C_4  and  C_5 
REMARK    3  A    between atoms: C_5  and  N_6 
REMARK    4  A    between atoms: C_5  and  C_21 
REMARK       I    between atoms: N_6  and  C_7 
REMARK       I    between atoms: C_7  and  N_8 
REMARK    5  A    between atoms: N_8  and  C_9 
REMARK    6  A    between atoms: C_12  and  C_13 
ROOT
HETATM    1  N   UNL     1      -4.448   2.222 -31.852  1.00  0.00    -0.333 N 
HETATM    2  C   UNL     1      -3.792   1.089 -31.488  1.00  0.00     0.322 C 
HETATM    3  N   UNL     1      -4.348  -0.102 -31.823  1.00  0.00    -0.287 N 
HETATM    4  O   UNL     1      -2.683   1.118 -30.958  1.00  0.00    -0.247 OA
HETATM    5  H   UNL     1      -5.431   2.080 -32.083  1.00  0.00     0.165 HD
HETATM    6  H   UNL     1      -3.833  -0.933 -31.564  1.00  0.00     0.172 HD
ENDROOT
BRANCH   1   7
HETATM    7  C   UNL     1      -4.052   3.574 -31.482  1.00  0.00     0.145 C 
BRANCH   7   8
HETATM    8  C   UNL     1      -5.158   4.480 -30.855  1.00  0.00     0.263 C 
BRANCH   8   9
HETATM    9  N   UNL     1      -4.749   5.262 -29.604  1.00  0.00    -0.076 N 
HETATM   10  C   UNL     1      -5.790   5.298 -28.526  1.00  0.00     0.269 C 
HETATM   11  H   UNL     1      -3.964   4.720 -29.221  1.00  0.00     0.279 HD
HETATM   12  C   UNL     1      -4.172   6.620 -29.881  1.00  0.00     0.269 C 
ENDBRANCH   8   9
ENDBRANCH   7   8
BRANCH   7  13
HETATM   13  C   UNL     1      -3.334   4.287 -32.617  1.00  0.00    -0.034 A 
HETATM   14  C   UNL     1      -4.051   4.673 -33.764  1.00  0.00     0.009 A 
HETATM   15  C   UNL     1      -3.404   5.286 -34.839  1.00  0.00     0.001 A 
HETATM   16  C   UNL     1      -2.034   5.530 -34.783  1.00  0.00     0.000 A 
HETATM   17  C   UNL     1      -1.312   5.170 -33.649  1.00  0.00     0.001 A 
HETATM   18  C   UNL     1      -1.956   4.553 -32.573  1.00  0.00     0.009 A 
ENDBRANCH   7  13
ENDBRANCH   1   7
BRANCH   3  19
HETATM   19  C   UNL     1      -5.492  -0.275 -32.548  1.00  0.00     0.175 A 
HETATM   20  S   UNL     1      -5.397  -1.466 -33.760  1.00  0.00    -0.061 SA
HETATM   21  C   UNL     1      -6.995  -1.063 -34.243  1.00  0.00     0.086 A 
HETATM   22  C   UNL     1      -7.489  -0.065 -33.424  1.00  0.00     0.078 A 
HETATM   23  N   UNL     1      -6.620   0.384 -32.440  1.00  0.00    -0.223 NA
BRANCH  22  24
HETATM   24  C   UNL     1      -8.824   0.478 -33.555  1.00  0.00     0.011 A 
HETATM   25  C   UNL     1      -9.929  -0.156 -32.996  1.00  0.00     0.130 A 
HETATM   26  N   UNL     1     -11.197   0.309 -33.087  1.00  0.00    -0.272 NA
HETATM   27  C   UNL     1     -11.371   1.471 -33.755  1.00  0.00     0.116 A 
HETATM   28  C   UNL     1     -10.337   2.176 -34.351  1.00  0.00     0.020 A 
HETATM   29  C   UNL     1      -9.045   1.665 -34.256  1.00  0.00     0.017 A 
ENDBRANCH  22  24
ENDBRANCH   3  19
TORSDOF 6
ENDMDL
