MODEL 1
REMARK VINA RESULT:      -7.9      0.000      0.000
REMARK  3 active torsions:
REMARK  status: ('A' for Active; 'I' for Inactive)
REMARK    1  A    between atoms: C_2  and  C_3 
REMARK    2  A    between atoms: C_9  and  C_10 
REMARK    3  A    between atoms: C_23  and  N_24 
ROOT
HETATM    1  C   UNL     1      -4.584 -13.412 -39.669  1.00  0.00     0.066 A 
HETATM    2  N   UNL     1      -3.330 -13.810 -39.948  1.00  0.00    -0.177 NA
HETATM    3  N   UNL     1      -2.869 -14.306 -38.783  1.00  0.00    -0.256 N 
HETATM    4  H   UNL     1      -1.920 -14.660 -38.742  1.00  0.00     0.191 HD
HETATM    5  C   UNL     1      -3.779 -14.220 -37.781  1.00  0.00     0.175 A 
HETATM    6  C   UNL     1      -4.918 -13.678 -38.319  1.00  0.00     0.035 A 
HETATM    7  C   UNL     1      -6.108 -13.437 -37.453  1.00  0.00     0.106 A 
HETATM    8  C   UNL     1      -5.772 -13.752 -35.989  1.00  0.00     0.081 A 
HETATM    9  C   UNL     1      -6.769 -13.424 -35.024  1.00  0.00     0.100 C 
HETATM   10  N   UNL     1      -7.576 -13.161 -34.232  1.00  0.00    -0.191 NA
HETATM   11  C   UNL     1      -4.578 -14.281 -35.600  1.00  0.00     0.140 A 
HETATM   12  O   UNL     1      -3.557 -14.576 -36.522  1.00  0.00    -0.279 OA
ENDROOT
BRANCH   7  13
HETATM   13  C   UNL     1      -7.226 -14.324 -38.010  1.00  0.00    -0.033 A 
HETATM   14  C   UNL     1      -8.324 -13.795 -38.762  1.00  0.00    -0.019 A 
HETATM   15  C   UNL     1      -9.325 -14.693 -39.226  1.00  0.00    -0.025 A 
HETATM   16  C   UNL     1      -8.499 -12.427 -39.092  1.00  0.00     0.013 A 
HETATM   17  C   UNL     1     -10.414 -14.222 -39.977  1.00  0.00     0.012 A 
HETATM   18  C   UNL     1      -9.237 -16.061 -38.940  1.00  0.00     0.012 A 
HETATM   19  C   UNL     1     -10.546 -12.872 -40.285  1.00  0.00     0.001 A 
HETATM   20  C   UNL     1      -9.588 -11.974 -39.842  1.00  0.00     0.001 A 
HETATM   21  C   UNL     1      -8.176 -16.571 -38.204  1.00  0.00     0.001 A 
HETATM   22  C   UNL     1      -7.184 -15.714 -37.746  1.00  0.00     0.009 A 
ENDBRANCH   7  13
BRANCH  11  23
HETATM   23  N   UNL     1      -4.225 -14.584 -34.304  1.00  0.00    -0.282 NA
HETATM   24  H   UNL     1      -4.863 -15.200 -33.806  1.00  0.00     0.126 HD
HETATM   25  H   UNL     1      -3.252 -14.871 -34.229  1.00  0.00     0.126 HD
ENDBRANCH  11  23
BRANCH   1  26
HETATM   26  C   UNL     1      -5.406 -12.757 -40.727  1.00  0.00     0.057 C 
HETATM   27  C   UNL     1      -6.069 -13.753 -41.665  1.00  0.00     0.011 C 
ENDBRANCH   1  26
TORSDOF 3
ENDMDL
MODEL 2
REMARK VINA RESULT:      -7.8     15.551     17.293
REMARK  3 active torsions:
REMARK  status: ('A' for Active; 'I' for Inactive)
REMARK    1  A    between atoms: C_2  and  C_3 
REMARK    2  A    between atoms: C_9  and  C_10 
REMARK    3  A    between atoms: C_23  and  N_24 
ROOT
HETATM    1  C   UNL     1      -9.052   2.407 -32.557  1.00  0.00     0.066 A 
HETATM    2  N   UNL     1     -10.038   3.187 -33.034  1.00  0.00    -0.177 NA
HETATM    3  N   UNL     1      -9.397   4.161 -33.710  1.00  0.00    -0.256 N 
HETATM    4  H   UNL     1      -9.944   4.890 -34.154  1.00  0.00     0.191 HD
HETATM    5  C   UNL     1      -8.048   4.031 -33.662  1.00  0.00     0.175 A 
HETATM    6  C   UNL     1      -7.780   2.888 -32.954  1.00  0.00     0.035 A 
HETATM    7  C   UNL     1      -6.367   2.478 -32.711  1.00  0.00     0.106 A 
HETATM    8  C   UNL     1      -5.405   3.553 -33.233  1.00  0.00     0.081 A 
HETATM    9  C   UNL     1      -4.024   3.367 -32.934  1.00  0.00     0.100 C 
HETATM   10  N   UNL     1      -2.896   3.223 -32.696  1.00  0.00    -0.191 NA
HETATM   11  C   UNL     1      -5.824   4.654 -33.916  1.00  0.00     0.140 A 
HETATM   12  O   UNL     1      -7.184   4.888 -34.190  1.00  0.00    -0.279 OA
ENDROOT
BRANCH   7  13
HETATM   13  C   UNL     1      -6.189   1.128 -33.412  1.00  0.00    -0.033 A 
HETATM   14  C   UNL     1      -5.283   0.127 -32.936  1.00  0.00    -0.019 A 
HETATM   15  C   UNL     1      -5.173  -1.091 -33.663  1.00  0.00    -0.025 A 
HETATM   16  C   UNL     1      -4.473   0.249 -31.778  1.00  0.00     0.013 A 
HETATM   17  C   UNL     1      -4.305  -2.105 -33.228  1.00  0.00     0.012 A 
HETATM   18  C   UNL     1      -5.930  -1.294 -34.824  1.00  0.00     0.012 A 
HETATM   19  C   UNL     1      -3.532  -1.950 -32.082  1.00  0.00     0.001 A 
HETATM   20  C   UNL     1      -3.616  -0.772 -31.358  1.00  0.00     0.001 A 
HETATM   21  C   UNL     1      -6.802  -0.320 -35.288  1.00  0.00     0.001 A 
HETATM   22  C   UNL     1      -6.931   0.875 -34.592  1.00  0.00     0.009 A 
ENDBRANCH   7  13
BRANCH  11  23
HETATM   23  N   UNL     1      -5.007   5.647 -34.408  1.00  0.00    -0.282 NA
HETATM   24  H   UNL     1      -4.399   6.095 -33.726  1.00  0.00     0.126 HD
HETATM   25  H   UNL     1      -4.517   5.358 -35.251  1.00  0.00     0.126 HD
ENDBRANCH  11  23
BRANCH   1  26
HETATM   26  C   UNL     1      -9.385   1.231 -31.701  1.00  0.00     0.057 C 
HETATM   27  C   UNL     1      -9.781   0.005 -32.508  1.00  0.00     0.011 C 
ENDBRANCH   1  26
TORSDOF 3
ENDMDL
MODEL 3
REMARK VINA RESULT:      -7.7     15.983     17.445
REMARK  3 active torsions:
REMARK  status: ('A' for Active; 'I' for Inactive)
REMARK    1  A    between atoms: C_2  and  C_3 
REMARK    2  A    between atoms: C_9  and  C_10 
REMARK    3  A    between atoms: C_23  and  N_24 
ROOT
HETATM    1  C   UNL     1      -3.310   4.096 -32.465  1.00  0.00     0.066 A 
HETATM    2  N   UNL     1      -2.750   5.062 -31.715  1.00  0.00    -0.177 NA
HETATM    3  N   UNL     1      -3.529   5.128 -30.617  1.00  0.00    -0.256 N 
HETATM    4  H   UNL     1      -3.308   5.808 -29.900  1.00  0.00     0.191 HD
HETATM    5  C   UNL     1      -4.564   4.252 -30.657  1.00  0.00     0.175 A 
HETATM    6  C   UNL     1      -4.442   3.539 -31.821  1.00  0.00     0.035 A 
HETATM    7  C   UNL     1      -5.453   2.497 -32.165  1.00  0.00     0.106 A 
HETATM    8  C   UNL     1      -6.591   2.501 -31.136  1.00  0.00     0.081 A 
HETATM    9  C   UNL     1      -7.706   1.660 -31.419  1.00  0.00     0.100 C 
HETATM   10  N   UNL     1      -8.618   0.977 -31.642  1.00  0.00    -0.191 NA
HETATM   11  C   UNL     1      -6.579   3.285 -30.021  1.00  0.00     0.140 A 
HETATM   12  O   UNL     1      -5.513   4.157 -29.734  1.00  0.00    -0.279 OA
ENDROOT
BRANCH   7  13
HETATM   13  C   UNL     1      -4.695   1.167 -32.209  1.00  0.00    -0.033 A 
HETATM   14  C   UNL     1      -5.067   0.098 -33.086  1.00  0.00    -0.019 A 
HETATM   15  C   UNL     1      -4.313  -1.108 -33.046  1.00  0.00    -0.025 A 
HETATM   16  C   UNL     1      -6.141   0.143 -34.011  1.00  0.00     0.013 A 
HETATM   17  C   UNL     1      -4.634  -2.179 -33.895  1.00  0.00     0.012 A 
HETATM   18  C   UNL     1      -3.240  -1.243 -32.157  1.00  0.00     0.012 A 
HETATM   19  C   UNL     1      -5.692  -2.093 -34.794  1.00  0.00     0.001 A 
HETATM   20  C   UNL     1      -6.446  -0.932 -34.851  1.00  0.00     0.001 A 
HETATM   21  C   UNL     1      -2.885  -0.209 -31.301  1.00  0.00     0.001 A 
HETATM   22  C   UNL     1      -3.603   0.980 -31.327  1.00  0.00     0.009 A 
ENDBRANCH   7  13
BRANCH  11  23
HETATM   23  N   UNL     1      -7.569   3.327 -29.066  1.00  0.00    -0.282 NA
HETATM   24  H   UNL     1      -8.267   2.589 -29.121  1.00  0.00     0.126 HD
HETATM   25  H   UNL     1      -7.194   3.453 -28.129  1.00  0.00     0.126 HD
ENDBRANCH  11  23
BRANCH   1  26
HETATM   26  C   UNL     1      -2.736   3.769 -33.803  1.00  0.00     0.057 C 
HETATM   27  C   UNL     1      -1.977   4.932 -34.422  1.00  0.00     0.011 C 
ENDBRANCH   1  26
TORSDOF 3
ENDMDL
MODEL 4
REMARK VINA RESULT:      -7.6     15.666     17.053
REMARK  3 active torsions:
REMARK  status: ('A' for Active; 'I' for Inactive)
REMARK    1  A    between atoms: C_2  and  C_3 
REMARK    2  A    between atoms: C_9  and  C_10 
REMARK    3  A    between atoms: C_23  and  N_24 
ROOT
HETATM    1  C   UNL     1      -4.834  -0.560 -32.294  1.00  0.00     0.066 A 
HETATM    2  N   UNL     1      -3.963  -1.316 -31.602  1.00  0.00    -0.177 NA
HETATM    3  N   UNL     1      -3.098  -0.428 -31.071  1.00  0.00    -0.256 N 
HETATM    4  H   UNL     1      -2.328  -0.770 -30.508  1.00  0.00     0.191 HD
HETATM    5  C   UNL     1      -3.384   0.852 -31.417  1.00  0.00     0.175 A 
HETATM    6  C   UNL     1      -4.521   0.817 -32.182  1.00  0.00     0.035 A 
HETATM    7  C   UNL     1      -5.084   2.081 -32.736  1.00  0.00     0.106 A 
HETATM    8  C   UNL     1      -4.151   3.259 -32.426  1.00  0.00     0.081 A 
HETATM    9  C   UNL     1      -4.486   4.509 -33.025  1.00  0.00     0.100 C 
HETATM   10  N   UNL     1      -4.752   5.530 -33.508  1.00  0.00    -0.191 NA
HETATM   11  C   UNL     1      -3.036   3.137 -31.653  1.00  0.00     0.140 A 
HETATM   12  O   UNL     1      -2.655   1.909 -31.082  1.00  0.00    -0.279 OA
ENDROOT
BRANCH   7  13
HETATM   13  C   UNL     1      -6.473   2.240 -32.108  1.00  0.00    -0.033 A 
HETATM   14  C   UNL     1      -7.676   1.907 -32.808  1.00  0.00    -0.019 A 
HETATM   15  C   UNL     1      -8.922   2.103 -32.149  1.00  0.00    -0.025 A 
HETATM   16  C   UNL     1      -7.732   1.385 -34.126  1.00  0.00     0.013 A 
HETATM   17  C   UNL     1     -10.128   1.780 -32.792  1.00  0.00     0.012 A 
HETATM   18  C   UNL     1      -8.962   2.622 -30.849  1.00  0.00     0.012 A 
HETATM   19  C   UNL     1     -10.140   1.264 -34.084  1.00  0.00     0.001 A 
HETATM   20  C   UNL     1      -8.941   1.067 -34.751  1.00  0.00     0.001 A 
HETATM   21  C   UNL     1      -7.794   2.952 -30.175  1.00  0.00     0.001 A 
HETATM   22  C   UNL     1      -6.566   2.763 -30.796  1.00  0.00     0.009 A 
ENDBRANCH   7  13
BRANCH  11  23
HETATM   23  N   UNL     1      -2.166   4.158 -31.341  1.00  0.00    -0.282 NA
HETATM   24  H   UNL     1      -2.079   4.375 -30.351  1.00  0.00     0.126 HD
HETATM   25  H   UNL     1      -1.269   4.054 -31.808  1.00  0.00     0.126 HD
ENDBRANCH  11  23
BRANCH   1  26
HETATM   26  C   UNL     1      -5.928  -1.214 -33.070  1.00  0.00     0.057 C 
HETATM   27  C   UNL     1      -5.429  -1.912 -34.325  1.00  0.00     0.011 C 
ENDBRANCH   1  26
TORSDOF 3
ENDMDL
MODEL 5
REMARK VINA RESULT:      -7.5     15.597     17.595
REMARK  3 active torsions:
REMARK  status: ('A' for Active; 'I' for Inactive)
REMARK    1  A    between atoms: C_2  and  C_3 
REMARK    2  A    between atoms: C_9  and  C_10 
REMARK    3  A    between atoms: C_23  and  N_24 
ROOT
HETATM    1  C   UNL     1     -11.777   1.300 -34.333  1.00  0.00     0.066 A 
HETATM    2  N   UNL     1     -12.658   1.574 -35.311  1.00  0.00    -0.177 NA
HETATM    3  N   UNL     1     -12.238   2.750 -35.820  1.00  0.00    -0.256 N 
HETATM    4  H   UNL     1     -12.765   3.172 -36.576  1.00  0.00     0.191 HD
HETATM    5  C   UNL     1     -11.138   3.230 -35.189  1.00  0.00     0.175 A 
HETATM    6  C   UNL     1     -10.784   2.306 -34.240  1.00  0.00     0.035 A 
HETATM    7  C   UNL     1      -9.609   2.559 -33.358  1.00  0.00     0.106 A 
HETATM    8  C   UNL     1      -9.045   3.963 -33.613  1.00  0.00     0.081 A 
HETATM    9  C   UNL     1      -8.011   4.401 -32.734  1.00  0.00     0.100 C 
HETATM   10  N   UNL     1      -7.168   4.765 -32.024  1.00  0.00    -0.191 NA
HETATM   11  C   UNL     1      -9.514   4.782 -34.595  1.00  0.00     0.140 A 
HETATM   12  O   UNL     1     -10.562   4.396 -35.451  1.00  0.00    -0.279 OA
ENDROOT
BRANCH   7  13
HETATM   13  C   UNL     1      -8.600   1.447 -33.664  1.00  0.00    -0.033 A 
HETATM   14  C   UNL     1      -7.727   0.905 -32.667  1.00  0.00    -0.019 A 
HETATM   15  C   UNL     1      -6.811  -0.115 -33.049  1.00  0.00    -0.025 A 
HETATM   16  C   UNL     1      -7.699   1.304 -31.307  1.00  0.00     0.013 A 
HETATM   17  C   UNL     1      -5.943  -0.684 -32.104  1.00  0.00     0.012 A 
HETATM   18  C   UNL     1      -6.763  -0.565 -34.374  1.00  0.00     0.012 A 
HETATM   19  C   UNL     1      -5.952  -0.270 -30.776  1.00  0.00     0.001 A 
HETATM   20  C   UNL     1      -6.830   0.725 -30.378  1.00  0.00     0.001 A 
HETATM   21  C   UNL     1      -7.605  -0.033 -35.341  1.00  0.00     0.001 A 
HETATM   22  C   UNL     1      -8.511   0.960 -34.991  1.00  0.00     0.009 A 
ENDBRANCH   7  13
BRANCH  11  23
HETATM   23  N   UNL     1      -9.045   6.047 -34.870  1.00  0.00    -0.282 NA
HETATM   24  H   UNL     1      -8.508   6.488 -34.127  1.00  0.00     0.126 HD
HETATM   25  H   UNL     1      -8.590   6.100 -35.777  1.00  0.00     0.126 HD
ENDBRANCH  11  23
BRANCH   1  26
HETATM   26  C   UNL     1     -11.953   0.076 -33.499  1.00  0.00     0.057 C 
HETATM   27  C   UNL     1     -13.362  -0.489 -33.565  1.00  0.00     0.011 C 
ENDBRANCH   1  26
TORSDOF 3
ENDMDL
MODEL 6
REMARK VINA RESULT:      -7.5     16.232     17.953
REMARK  3 active torsions:
REMARK  status: ('A' for Active; 'I' for Inactive)
REMARK    1  A    between atoms: C_2  and  C_3 
REMARK    2  A    between atoms: C_9  and  C_10 
REMARK    3  A    between atoms: C_23  and  N_24 
ROOT
HETATM    1  C   UNL     1      -4.809  -0.273 -32.991  1.00  0.00     0.066 A 
HETATM    2  N   UNL     1      -5.366  -1.354 -33.564  1.00  0.00    -0.177 NA
HETATM    3  N   UNL     1      -6.686  -1.217 -33.325  1.00  0.00    -0.256 N 
HETATM    4  H   UNL     1      -7.321  -1.934 -33.656  1.00  0.00     0.191 HD
HETATM    5  C   UNL     1      -6.975  -0.101 -32.611  1.00  0.00     0.175 A 
HETATM    6  C   UNL     1      -5.792   0.559 -32.402  1.00  0.00     0.035 A 
HETATM    7  C   UNL     1      -5.777   1.830 -31.622  1.00  0.00     0.106 A 
HETATM    8  C   UNL     1      -7.172   2.121 -31.054  1.00  0.00     0.081 A 
HETATM    9  C   UNL     1      -7.276   3.226 -30.159  1.00  0.00     0.100 C 
HETATM   10  N   UNL     1      -7.369   4.125 -29.430  1.00  0.00    -0.191 NA
HETATM   11  C   UNL     1      -8.264   1.358 -31.342  1.00  0.00     0.140 A 
HETATM   12  O   UNL     1      -8.186   0.236 -32.188  1.00  0.00    -0.279 OA
ENDROOT
BRANCH   7  13
HETATM   13  C   UNL     1      -5.288   2.916 -32.586  1.00  0.00    -0.033 A 
HETATM   14  C   UNL     1      -4.029   3.577 -32.425  1.00  0.00    -0.019 A 
HETATM   15  C   UNL     1      -3.666   4.585 -33.361  1.00  0.00    -0.025 A 
HETATM   16  C   UNL     1      -3.094   3.305 -31.394  1.00  0.00     0.013 A 
HETATM   17  C   UNL     1      -2.437   5.253 -33.251  1.00  0.00     0.012 A 
HETATM   18  C   UNL     1      -4.533   4.925 -34.408  1.00  0.00     0.012 A 
HETATM   19  C   UNL     1      -1.543   4.952 -32.228  1.00  0.00     0.001 A 
HETATM   20  C   UNL     1      -1.872   3.978 -31.299  1.00  0.00     0.001 A 
HETATM   21  C   UNL     1      -5.757   4.289 -34.558  1.00  0.00     0.001 A 
HETATM   22  C   UNL     1      -6.130   3.297 -33.659  1.00  0.00     0.009 A 
ENDBRANCH   7  13
BRANCH  11  23
HETATM   23  N   UNL     1      -9.536   1.573 -30.864  1.00  0.00    -0.282 NA
HETATM   24  H   UNL     1      -9.719   1.224 -29.926  1.00  0.00     0.126 HD
HETATM   25  H   UNL     1      -9.840   2.534 -30.999  1.00  0.00     0.126 HD
ENDBRANCH  11  23
BRANCH   1  26
HETATM   26  C   UNL     1      -3.327  -0.103 -33.013  1.00  0.00     0.057 C 
HETATM   27  C   UNL     1      -2.640  -0.741 -31.816  1.00  0.00     0.011 C 
ENDBRANCH   1  26
TORSDOF 3
ENDMDL
MODEL 7
REMARK VINA RESULT:      -7.2     18.701     20.365
REMARK  3 active torsions:
REMARK  status: ('A' for Active; 'I' for Inactive)
REMARK    1  A    between atoms: C_2  and  C_3 
REMARK    2  A    between atoms: C_9  and  C_10 
REMARK    3  A    between atoms: C_23  and  N_24 
ROOT
HETATM    1  C   UNL     1      -4.533   2.001 -32.421  1.00  0.00     0.066 A 
HETATM    2  N   UNL     1      -5.121   0.961 -33.039  1.00  0.00    -0.177 NA
HETATM    3  N   UNL     1      -6.149   1.511 -33.716  1.00  0.00    -0.256 N 
HETATM    4  H   UNL     1      -6.758   0.907 -34.257  1.00  0.00     0.191 HD
HETATM    5  C   UNL     1      -6.239   2.851 -33.533  1.00  0.00     0.175 A 
HETATM    6  C   UNL     1      -5.191   3.218 -32.728  1.00  0.00     0.035 A 
HETATM    7  C   UNL     1      -5.024   4.644 -32.327  1.00  0.00     0.106 A 
HETATM    8  C   UNL     1      -6.211   5.479 -32.826  1.00  0.00     0.081 A 
HETATM    9  C   UNL     1      -6.264   6.834 -32.387  1.00  0.00     0.100 C 
HETATM   10  N   UNL     1      -6.314   7.939 -32.035  1.00  0.00    -0.191 NA
HETATM   11  C   UNL     1      -7.196   4.967 -33.617  1.00  0.00     0.140 A 
HETATM   12  O   UNL     1      -7.195   3.623 -34.033  1.00  0.00    -0.279 OA
ENDROOT
BRANCH   7  13
HETATM   13  C   UNL     1      -3.686   5.100 -32.917  1.00  0.00    -0.033 A 
HETATM   14  C   UNL     1      -2.687   5.764 -32.136  1.00  0.00    -0.019 A 
HETATM   15  C   UNL     1      -1.481   6.165 -32.776  1.00  0.00    -0.025 A 
HETATM   16  C   UNL     1      -2.799   6.059 -30.754  1.00  0.00     0.013 A 
HETATM   17  C   UNL     1      -0.468   6.810 -32.049  1.00  0.00     0.012 A 
HETATM   18  C   UNL     1      -1.288   5.921 -34.141  1.00  0.00     0.012 A 
HETATM   19  C   UNL     1      -0.614   7.075 -30.691  1.00  0.00     0.001 A 
HETATM   20  C   UNL     1      -1.780   6.700 -30.044  1.00  0.00     0.001 A 
HETATM   21  C   UNL     1      -2.261   5.284 -34.899  1.00  0.00     0.001 A 
HETATM   22  C   UNL     1      -3.444   4.878 -34.295  1.00  0.00     0.009 A 
ENDBRANCH   7  13
BRANCH  11  23
HETATM   23  N   UNL     1      -8.280   5.668 -34.094  1.00  0.00    -0.282 NA
HETATM   24  H   UNL     1      -8.190   6.682 -34.080  1.00  0.00     0.126 HD
HETATM   25  H   UNL     1      -8.607   5.309 -34.988  1.00  0.00     0.126 HD
ENDBRANCH  11  23
BRANCH   1  26
HETATM   26  C   UNL     1      -3.364   1.767 -31.525  1.00  0.00     0.057 C 
HETATM   27  C   UNL     1      -3.173   0.301 -31.171  1.00  0.00     0.011 C 
ENDBRANCH   1  26
TORSDOF 3
ENDMDL
MODEL 8
REMARK VINA RESULT:      -7.0     17.433     19.143
REMARK  3 active torsions:
REMARK  status: ('A' for Active; 'I' for Inactive)
REMARK    1  A    between atoms: C_2  and  C_3 
REMARK    2  A    between atoms: C_9  and  C_10 
REMARK    3  A    between atoms: C_23  and  N_24 
ROOT
HETATM    1  C   UNL     1      -4.931   0.747 -32.616  1.00  0.00     0.066 A 
HETATM    2  N   UNL     1      -5.721  -0.243 -33.067  1.00  0.00    -0.177 NA
HETATM    3  N   UNL     1      -6.968   0.267 -32.999  1.00  0.00    -0.256 N 
HETATM    4  H   UNL     1      -7.750  -0.314 -33.279  1.00  0.00     0.191 HD
HETATM    5  C   UNL     1      -6.990   1.530 -32.507  1.00  0.00     0.175 A 
HETATM    6  C   UNL     1      -5.689   1.895 -32.277  1.00  0.00     0.035 A 
HETATM    7  C   UNL     1      -5.382   3.240 -31.712  1.00  0.00     0.106 A 
HETATM    8  C   UNL     1      -6.680   3.975 -31.354  1.00  0.00     0.081 A 
HETATM    9  C   UNL     1      -6.539   5.214 -30.663  1.00  0.00     0.100 C 
HETATM   10  N   UNL     1      -6.433   6.224 -30.101  1.00  0.00    -0.191 NA
HETATM   11  C   UNL     1      -7.916   3.475 -31.636  1.00  0.00     0.140 A 
HETATM   12  O   UNL     1      -8.090   2.235 -32.278  1.00  0.00    -0.279 OA
ENDROOT
BRANCH   7  13
HETATM   13  C   UNL     1      -4.559   3.972 -32.777  1.00  0.00    -0.033 A 
HETATM   14  C   UNL     1      -3.225   4.433 -32.536  1.00  0.00    -0.019 A 
HETATM   15  C   UNL     1      -2.543   5.117 -33.581  1.00  0.00    -0.025 A 
HETATM   16  C   UNL     1      -2.512   4.260 -31.323  1.00  0.00     0.013 A 
HETATM   17  C   UNL     1      -1.231   5.579 -33.394  1.00  0.00     0.012 A 
HETATM   18  C   UNL     1      -3.174   5.341 -34.811  1.00  0.00     0.012 A 
HETATM   19  C   UNL     1      -0.562   5.382 -32.190  1.00  0.00     0.001 A 
HETATM   20  C   UNL     1      -1.204   4.723 -31.154  1.00  0.00     0.001 A 
HETATM   21  C   UNL     1      -4.470   4.900 -35.041  1.00  0.00     0.001 A 
HETATM   22  C   UNL     1      -5.153   4.224 -34.038  1.00  0.00     0.009 A 
ENDBRANCH   7  13
BRANCH  11  23
HETATM   23  N   UNL     1      -9.112   4.090 -31.340  1.00  0.00    -0.282 NA
HETATM   24  H   UNL     1      -9.317   4.933 -31.872  1.00  0.00     0.126 HD
HETATM   25  H   UNL     1      -9.887   3.433 -31.317  1.00  0.00     0.126 HD
ENDBRANCH  11  23
BRANCH   1  26
HETATM   26  C   UNL     1      -3.460   0.527 -32.501  1.00  0.00     0.057 C 
HETATM   27  C   UNL     1      -3.033   0.083 -31.112  1.00  0.00     0.011 C 
ENDBRANCH   1  26
TORSDOF 3
ENDMDL
MODEL 9
REMARK VINA RESULT:      -6.9     16.277     18.054
REMARK  3 active torsions:
REMARK  status: ('A' for Active; 'I' for Inactive)
REMARK    1  A    between atoms: C_2  and  C_3 
REMARK    2  A    between atoms: C_9  and  C_10 
REMARK    3  A    between atoms: C_23  and  N_24 
ROOT
HETATM    1  C   UNL     1      -5.537  -0.236 -32.318  1.00  0.00     0.066 A 
HETATM    2  N   UNL     1      -5.562  -1.328 -33.103  1.00  0.00    -0.177 NA
HETATM    3  N   UNL     1      -6.822  -1.368 -33.580  1.00  0.00    -0.256 N 
HETATM    4  H   UNL     1      -7.089  -2.127 -34.196  1.00  0.00     0.191 HD
HETATM    5  C   UNL     1      -7.591  -0.354 -33.113  1.00  0.00     0.175 A 
HETATM    6  C   UNL     1      -6.790   0.425 -32.318  1.00  0.00     0.035 A 
HETATM    7  C   UNL     1      -7.358   1.623 -31.635  1.00  0.00     0.106 A 
HETATM    8  C   UNL     1      -8.872   1.700 -31.869  1.00  0.00     0.081 A 
HETATM    9  C   UNL     1      -9.575   2.711 -31.151  1.00  0.00     0.100 C 
HETATM   10  N   UNL     1     -10.155   3.532 -30.571  1.00  0.00    -0.191 NA
HETATM   11  C   UNL     1      -9.540   0.838 -32.686  1.00  0.00     0.140 A 
HETATM   12  O   UNL     1      -8.882  -0.197 -33.376  1.00  0.00    -0.279 OA
ENDROOT
BRANCH   7  13
HETATM   13  C   UNL     1      -6.605   2.831 -32.201  1.00  0.00    -0.033 A 
HETATM   14  C   UNL     1      -6.062   3.859 -31.366  1.00  0.00    -0.019 A 
HETATM   15  C   UNL     1      -5.393   4.953 -31.983  1.00  0.00    -0.025 A 
HETATM   16  C   UNL     1      -6.134   3.879 -29.950  1.00  0.00     0.013 A 
HETATM   17  C   UNL     1      -4.835   5.979 -31.204  1.00  0.00     0.012 A 
HETATM   18  C   UNL     1      -5.282   5.021 -33.377  1.00  0.00     0.012 A 
HETATM   19  C   UNL     1      -4.921   5.958 -29.816  1.00  0.00     0.001 A 
HETATM   20  C   UNL     1      -5.571   4.907 -29.189  1.00  0.00     0.001 A 
HETATM   21  C   UNL     1      -5.816   4.027 -34.186  1.00  0.00     0.001 A 
HETATM   22  C   UNL     1      -6.469   2.947 -33.606  1.00  0.00     0.009 A 
ENDBRANCH   7  13
BRANCH  11  23
HETATM   23  N   UNL     1     -10.894   0.861 -32.934  1.00  0.00    -0.282 NA
HETATM   24  H   UNL     1     -11.163   1.079 -33.890  1.00  0.00     0.126 HD
HETATM   25  H   UNL     1     -11.367   0.042 -32.562  1.00  0.00     0.126 HD
ENDBRANCH  11  23
BRANCH   1  26
HETATM   26  C   UNL     1      -4.294   0.110 -31.569  1.00  0.00     0.057 C 
HETATM   27  C   UNL     1      -3.486   1.210 -32.237  1.00  0.00     0.011 C 
ENDBRANCH   1  26
TORSDOF 3
ENDMDL
MODEL 10
REMARK VINA RESULT:      -6.8     22.814     24.620
REMARK  3 active torsions:
REMARK  status: ('A' for Active; 'I' for Inactive)
REMARK    1  A    between atoms: C_2  and  C_3 
REMARK    2  A    between atoms: C_9  and  C_10 
REMARK    3  A    between atoms: C_23  and  N_24 
ROOT
HETATM    1  C   UNL     1      -0.927   7.126 -31.576  1.00  0.00     0.066 A 
HETATM    2  N   UNL     1      -1.188   7.226 -32.891  1.00  0.00    -0.177 NA
HETATM    3  N   UNL     1      -2.525   7.389 -32.956  1.00  0.00    -0.256 N 
HETATM    4  H   UNL     1      -2.965   7.475 -33.865  1.00  0.00     0.191 HD
HETATM    5  C   UNL     1      -3.113   7.378 -31.734  1.00  0.00     0.175 A 
HETATM    6  C   UNL     1      -2.111   7.244 -30.807  1.00  0.00     0.035 A 
HETATM    7  C   UNL     1      -2.445   7.181 -29.355  1.00  0.00     0.106 A 
HETATM    8  C   UNL     1      -3.966   7.155 -29.160  1.00  0.00     0.081 A 
HETATM    9  C   UNL     1      -4.432   6.942 -27.830  1.00  0.00     0.100 C 
HETATM   10  N   UNL     1      -4.820   6.771 -26.749  1.00  0.00    -0.191 NA
HETATM   11  C   UNL     1      -4.848   7.287 -30.190  1.00  0.00     0.140 A 
HETATM   12  O   UNL     1      -4.420   7.455 -31.521  1.00  0.00    -0.279 OA
ENDROOT
BRANCH   7  13
HETATM   13  C   UNL     1      -1.783   8.405 -28.713  1.00  0.00    -0.033 A 
HETATM   14  C   UNL     1      -0.600   8.308 -27.914  1.00  0.00    -0.019 A 
HETATM   15  C   UNL     1      -0.066   9.498 -27.345  1.00  0.00    -0.025 A 
HETATM   16  C   UNL     1       0.100   7.106 -27.639  1.00  0.00     0.013 A 
HETATM   17  C   UNL     1       1.099   9.455 -26.563  1.00  0.00     0.012 A 
HETATM   18  C   UNL     1      -0.697  10.730 -27.556  1.00  0.00     0.012 A 
HETATM   19  C   UNL     1       1.761   8.254 -26.322  1.00  0.00     0.001 A 
HETATM   20  C   UNL     1       1.261   7.080 -26.860  1.00  0.00     0.001 A 
HETATM   21  C   UNL     1      -1.849  10.821 -28.325  1.00  0.00     0.001 A 
HETATM   22  C   UNL     1      -2.385   9.674 -28.896  1.00  0.00     0.009 A 
ENDBRANCH   7  13
BRANCH  11  23
HETATM   23  N   UNL     1      -6.220   7.272 -30.073  1.00  0.00    -0.282 NA
HETATM   24  H   UNL     1      -6.621   6.413 -29.706  1.00  0.00     0.126 HD
HETATM   25  H   UNL     1      -6.575   8.108 -29.615  1.00  0.00     0.126 HD
ENDBRANCH  11  23
BRANCH   1  26
HETATM   26  C   UNL     1       0.471   6.886 -31.114  1.00  0.00     0.057 C 
HETATM   27  C   UNL     1       0.761   5.420 -30.837  1.00  0.00     0.011 C 
ENDBRANCH   1  26
TORSDOF 3
ENDMDL
