MODEL 1
REMARK VINA RESULT:      -9.2      0.000      0.000
REMARK  7 active torsions:
REMARK  status: ('A' for Active; 'I' for Inactive)
REMARK    1  A    between atoms: O_2  and  C_3 
REMARK    2  A    between atoms: C_5  and  N_6 
REMARK    3  A    between atoms: C_7  and  C_9 
REMARK    4  A    between atoms: C_7  and  O_8 
REMARK       I    between atoms: C_9  and  N_10 
REMARK    5  A    between atoms: N_10  and  C_11 
REMARK    6  A    between atoms: C_11  and  C_12 
REMARK    7  A    between atoms: C_12  and  C_13 
ROOT
HETATM    1  N   UNL     1      -8.858   4.173 -33.768  1.00  0.00    -0.254 N 
HETATM    2  C   UNL     1      -9.352   2.901 -33.183  1.00  0.00     0.256 C 
HETATM    3  C   UNL     1     -10.646   2.368 -33.760  1.00  0.00     0.034 A 
HETATM    4  C   UNL     1     -11.313   3.095 -34.728  1.00  0.00     0.048 A 
HETATM    5  N   UNL     1     -10.796   4.316 -35.112  1.00  0.00    -0.308 N 
HETATM    6  C   UNL     1      -9.658   4.896 -34.647  1.00  0.00     0.330 C 
HETATM    7  O   UNL     1      -9.437   6.034 -35.064  1.00  0.00    -0.246 OA
HETATM    8  C   UNL     1     -11.211   1.153 -33.328  1.00  0.00     0.015 A 
HETATM    9  C   UNL     1     -12.400   0.681 -33.886  1.00  0.00     0.001 A 
HETATM   10  C   UNL     1     -13.043   1.420 -34.876  1.00  0.00     0.002 A 
HETATM   11  C   UNL     1     -12.503   2.635 -35.293  1.00  0.00     0.030 A 
HETATM   12  H   UNL     1     -11.314   4.896 -35.760  1.00  0.00     0.170 HD
ENDROOT
BRANCH   2  13
HETATM   13  C   UNL     1      -8.242   1.771 -33.442  1.00  0.00     0.279 C 
HETATM   14  N   UNL     1      -8.110   1.370 -34.764  1.00  0.00    -0.356 N 
HETATM   15  H   UNL     1      -8.721   1.782 -35.459  1.00  0.00     0.162 HD
HETATM   16  O   UNL     1      -7.592   1.249 -32.534  1.00  0.00    -0.268 OA
BRANCH  14  17
HETATM   17  C   UNL     1      -7.134   0.388 -35.193  1.00  0.00     0.127 C 
BRANCH  17  18
HETATM   18  C   UNL     1      -7.566  -1.073 -35.004  1.00  0.00     0.058 C 
BRANCH  18  19
HETATM   19  C   UNL     1      -6.442  -2.031 -34.682  1.00  0.00    -0.057 A 
HETATM   20  C   UNL     1      -5.269  -1.591 -34.054  1.00  0.00     0.009 A 
HETATM   21  C   UNL     1      -4.248  -2.495 -33.747  1.00  0.00     0.024 A 
HETATM   22  C   UNL     1      -4.399  -3.844 -34.059  1.00  0.00     0.034 A 
HETATM   23 CL   UNL     1      -3.142  -4.957 -33.682  1.00  0.00    -0.084 Cl
HETATM   24  C   UNL     1      -5.564  -4.299 -34.669  1.00  0.00     0.024 A 
HETATM   25  C   UNL     1      -6.582  -3.395 -34.980  1.00  0.00     0.009 A 
ENDBRANCH  18  19
ENDBRANCH  17  18
ENDBRANCH  14  17
ENDBRANCH   2  13
BRANCH   2  26
HETATM   26  O   UNL     1      -9.680   3.170 -31.828  1.00  0.00    -0.359 OA
HETATM   27  H   UNL     1      -9.932   4.106 -31.811  1.00  0.00     0.213 HD
ENDBRANCH   2  26
BRANCH   1  28
HETATM   28  C   UNL     1      -7.533   4.670 -33.378  1.00  0.00     0.045 A 
HETATM   29  C   UNL     1      -6.427   4.592 -34.247  1.00  0.00     0.066 A 
HETATM   30  C   UNL     1      -5.159   5.075 -33.892  1.00  0.00     0.070 A 
HETATM   31  C   UNL     1      -4.961   5.614 -32.626  1.00  0.00     0.037 A 
HETATM   32  C   UNL     1      -6.020   5.685 -31.732  1.00  0.00     0.005 A 
HETATM   33  C   UNL     1      -7.287   5.221 -32.105  1.00  0.00     0.030 A 
BRANCH  30  34
HETATM   34  O   UNL     1      -4.043   5.049 -34.683  1.00  0.00    -0.356 OA
HETATM   35  C   UNL     1      -2.953   5.869 -34.274  1.00  0.00     0.210 C 
ENDBRANCH  30  34
ENDBRANCH   1  28
TORSDOF 7
ENDMDL
MODEL 2
REMARK VINA RESULT:      -9.1      2.537      3.562
REMARK  7 active torsions:
REMARK  status: ('A' for Active; 'I' for Inactive)
REMARK    1  A    between atoms: O_2  and  C_3 
REMARK    2  A    between atoms: C_5  and  N_6 
REMARK    3  A    between atoms: C_7  and  C_9 
REMARK    4  A    between atoms: C_7  and  O_8 
REMARK       I    between atoms: C_9  and  N_10 
REMARK    5  A    between atoms: N_10  and  C_11 
REMARK    6  A    between atoms: C_11  and  C_12 
REMARK    7  A    between atoms: C_12  and  C_13 
ROOT
HETATM    1  N   UNL     1      -5.718   3.776 -32.475  1.00  0.00    -0.254 N 
HETATM    2  C   UNL     1      -6.502   2.864 -31.604  1.00  0.00     0.256 C 
HETATM    3  C   UNL     1      -7.534   2.007 -32.307  1.00  0.00     0.034 A 
HETATM    4  C   UNL     1      -7.731   2.154 -33.667  1.00  0.00     0.048 A 
HETATM    5  N   UNL     1      -7.004   3.114 -34.342  1.00  0.00    -0.308 N 
HETATM    6  C   UNL     1      -6.071   3.946 -33.809  1.00  0.00     0.330 C 
HETATM    7  O   UNL     1      -5.614   4.790 -34.581  1.00  0.00    -0.246 OA
HETATM    8  C   UNL     1      -8.323   1.070 -31.614  1.00  0.00     0.015 A 
HETATM    9  C   UNL     1      -9.259   0.286 -32.290  1.00  0.00     0.001 A 
HETATM   10  C   UNL     1      -9.424   0.435 -33.664  1.00  0.00     0.002 A 
HETATM   11  C   UNL     1      -8.665   1.378 -34.355  1.00  0.00     0.030 A 
HETATM   12  H   UNL     1      -7.194   3.287 -35.321  1.00  0.00     0.170 HD
ENDROOT
BRANCH   2  13
HETATM   13  C   UNL     1      -5.478   1.849 -30.898  1.00  0.00     0.279 C 
HETATM   14  N   UNL     1      -4.887   0.925 -31.748  1.00  0.00    -0.356 N 
HETATM   15  H   UNL     1      -5.148   0.930 -32.727  1.00  0.00     0.162 HD
HETATM   16  O   UNL     1      -5.271   1.844 -29.683  1.00  0.00    -0.268 OA
BRANCH  14  17
HETATM   17  C   UNL     1      -3.908  -0.044 -31.295  1.00  0.00     0.127 C 
BRANCH  17  18
HETATM   18  C   UNL     1      -3.202  -0.816 -32.418  1.00  0.00     0.058 C 
BRANCH  18  19
HETATM   19  C   UNL     1      -4.091  -1.754 -33.201  1.00  0.00    -0.057 A 
HETATM   20  C   UNL     1      -5.278  -1.304 -33.796  1.00  0.00     0.009 A 
HETATM   21  C   UNL     1      -6.078  -2.181 -34.532  1.00  0.00     0.024 A 
HETATM   22  C   UNL     1      -5.691  -3.510 -34.685  1.00  0.00     0.034 A 
HETATM   23 CL   UNL     1      -6.677  -4.591 -35.592  1.00  0.00    -0.084 Cl
HETATM   24  C   UNL     1      -4.508  -3.969 -34.114  1.00  0.00     0.024 A 
HETATM   25  C   UNL     1      -3.711  -3.094 -33.374  1.00  0.00     0.009 A 
ENDBRANCH  18  19
ENDBRANCH  17  18
ENDBRANCH  14  17
ENDBRANCH   2  13
BRANCH   2  26
HETATM   26  O   UNL     1      -7.281   3.681 -30.744  1.00  0.00    -0.359 OA
HETATM   27  H   UNL     1      -7.089   3.361 -29.849  1.00  0.00     0.213 HD
ENDBRANCH   2  26
BRANCH   1  28
HETATM   28  C   UNL     1      -4.592   4.519 -31.896  1.00  0.00     0.045 A 
HETATM   29  C   UNL     1      -3.257   4.111 -32.090  1.00  0.00     0.066 A 
HETATM   30  C   UNL     1      -2.171   4.820 -31.555  1.00  0.00     0.070 A 
HETATM   31  C   UNL     1      -2.405   5.941 -30.768  1.00  0.00     0.037 A 
HETATM   32  C   UNL     1      -3.707   6.359 -30.532  1.00  0.00     0.005 A 
HETATM   33  C   UNL     1      -4.784   5.658 -31.090  1.00  0.00     0.030 A 
BRANCH  30  34
HETATM   34  O   UNL     1      -0.850   4.497 -31.711  1.00  0.00    -0.356 OA
HETATM   35  C   UNL     1       0.096   5.394 -31.141  1.00  0.00     0.210 C 
ENDBRANCH  30  34
ENDBRANCH   1  28
TORSDOF 7
ENDMDL
MODEL 3
REMARK VINA RESULT:      -8.9      1.749      2.195
REMARK  7 active torsions:
REMARK  status: ('A' for Active; 'I' for Inactive)
REMARK    1  A    between atoms: O_2  and  C_3 
REMARK    2  A    between atoms: C_5  and  N_6 
REMARK    3  A    between atoms: C_7  and  C_9 
REMARK    4  A    between atoms: C_7  and  O_8 
REMARK       I    between atoms: C_9  and  N_10 
REMARK    5  A    between atoms: N_10  and  C_11 
REMARK    6  A    between atoms: C_11  and  C_12 
REMARK    7  A    between atoms: C_12  and  C_13 
ROOT
HETATM    1  N   UNL     1      -8.492   3.525 -32.827  1.00  0.00    -0.254 N 
HETATM    2  C   UNL     1      -9.676   2.670 -32.557  1.00  0.00     0.256 C 
HETATM    3  C   UNL     1     -10.811   2.782 -33.554  1.00  0.00     0.034 A 
HETATM    4  C   UNL     1     -10.718   3.686 -34.595  1.00  0.00     0.048 A 
HETATM    5  N   UNL     1      -9.603   4.496 -34.672  1.00  0.00    -0.308 N 
HETATM    6  C   UNL     1      -8.540   4.492 -33.825  1.00  0.00     0.330 C 
HETATM    7  O   UNL     1      -7.697   5.367 -34.031  1.00  0.00    -0.246 OA
HETATM    8  C   UNL     1     -11.978   2.004 -33.445  1.00  0.00     0.015 A 
HETATM    9  C   UNL     1     -13.004   2.121 -34.385  1.00  0.00     0.001 A 
HETATM   10  C   UNL     1     -12.879   3.022 -35.438  1.00  0.00     0.002 A 
HETATM   11  C   UNL     1     -11.737   3.815 -35.540  1.00  0.00     0.030 A 
HETATM   12  H   UNL     1      -9.557   5.216 -35.381  1.00  0.00     0.170 HD
ENDROOT
BRANCH   2  13
HETATM   13  C   UNL     1      -9.200   1.137 -32.587  1.00  0.00     0.279 C 
HETATM   14  N   UNL     1      -8.794   0.672 -33.829  1.00  0.00    -0.356 N 
HETATM   15  H   UNL     1      -8.846   1.299 -34.623  1.00  0.00     0.162 HD
HETATM   16  O   UNL     1      -9.243   0.403 -31.597  1.00  0.00    -0.268 OA
BRANCH  14  17
HETATM   17  C   UNL     1      -8.296  -0.673 -34.039  1.00  0.00     0.127 C 
BRANCH  17  18
HETATM   18  C   UNL     1      -7.059  -0.766 -34.943  1.00  0.00     0.058 C 
BRANCH  18  19
HETATM   19  C   UNL     1      -6.090  -1.869 -34.583  1.00  0.00    -0.057 A 
HETATM   20  C   UNL     1      -6.310  -3.192 -34.990  1.00  0.00     0.009 A 
HETATM   21  C   UNL     1      -5.394  -4.195 -34.664  1.00  0.00     0.024 A 
HETATM   22  C   UNL     1      -4.249  -3.879 -33.936  1.00  0.00     0.034 A 
HETATM   23 CL   UNL     1      -3.121  -5.114 -33.533  1.00  0.00    -0.084 Cl
HETATM   24  C   UNL     1      -4.009  -2.567 -33.537  1.00  0.00     0.024 A 
HETATM   25  C   UNL     1      -4.926  -1.566 -33.860  1.00  0.00     0.009 A 
ENDBRANCH  18  19
ENDBRANCH  17  18
ENDBRANCH  14  17
ENDBRANCH   2  13
BRANCH   2  26
HETATM   26  O   UNL     1     -10.252   3.133 -31.345  1.00  0.00    -0.359 OA
HETATM   27  H   UNL     1     -11.184   2.871 -31.393  1.00  0.00     0.213 HD
ENDBRANCH   2  26
BRANCH   1  28
HETATM   28  C   UNL     1      -7.289   3.356 -32.002  1.00  0.00     0.045 A 
HETATM   29  C   UNL     1      -6.159   2.660 -32.475  1.00  0.00     0.066 A 
HETATM   30  C   UNL     1      -4.998   2.504 -31.703  1.00  0.00     0.070 A 
HETATM   31  C   UNL     1      -4.962   3.010 -30.408  1.00  0.00     0.037 A 
HETATM   32  C   UNL     1      -6.066   3.679 -29.898  1.00  0.00     0.005 A 
HETATM   33  C   UNL     1      -7.211   3.850 -30.685  1.00  0.00     0.030 A 
BRANCH  30  34
HETATM   34  O   UNL     1      -3.858   1.856 -32.095  1.00  0.00    -0.356 OA
HETATM   35  C   UNL     1      -3.429   0.772 -31.278  1.00  0.00     0.210 C 
ENDBRANCH  30  34
ENDBRANCH   1  28
TORSDOF 7
ENDMDL
MODEL 4
REMARK VINA RESULT:      -8.7      3.534      7.162
REMARK  7 active torsions:
REMARK  status: ('A' for Active; 'I' for Inactive)
REMARK    1  A    between atoms: O_2  and  C_3 
REMARK    2  A    between atoms: C_5  and  N_6 
REMARK    3  A    between atoms: C_7  and  C_9 
REMARK    4  A    between atoms: C_7  and  O_8 
REMARK       I    between atoms: C_9  and  N_10 
REMARK    5  A    between atoms: N_10  and  C_11 
REMARK    6  A    between atoms: C_11  and  C_12 
REMARK    7  A    between atoms: C_12  and  C_13 
ROOT
HETATM    1  N   UNL     1      -5.808   1.389 -33.206  1.00  0.00    -0.254 N 
HETATM    2  C   UNL     1      -6.667   0.465 -33.990  1.00  0.00     0.256 C 
HETATM    3  C   UNL     1      -6.154  -0.952 -34.133  1.00  0.00     0.034 A 
HETATM    4  C   UNL     1      -4.925  -1.290 -33.598  1.00  0.00     0.048 A 
HETATM    5  N   UNL     1      -4.178  -0.307 -32.980  1.00  0.00    -0.308 N 
HETATM    6  C   UNL     1      -4.533   0.994 -32.813  1.00  0.00     0.330 C 
HETATM    7  O   UNL     1      -3.670   1.717 -32.314  1.00  0.00    -0.246 OA
HETATM    8  C   UNL     1      -6.882  -1.943 -34.817  1.00  0.00     0.015 A 
HETATM    9  C   UNL     1      -6.388  -3.244 -34.924  1.00  0.00     0.001 A 
HETATM   10  C   UNL     1      -5.159  -3.568 -34.357  1.00  0.00     0.002 A 
HETATM   11  C   UNL     1      -4.419  -2.587 -33.699  1.00  0.00     0.030 A 
HETATM   12  H   UNL     1      -3.244  -0.521 -32.654  1.00  0.00     0.170 HD
ENDROOT
BRANCH   2  13
HETATM   13  C   UNL     1      -8.087   0.359 -33.249  1.00  0.00     0.279 C 
HETATM   14  N   UNL     1      -9.167   0.839 -33.975  1.00  0.00    -0.356 N 
HETATM   15  H   UNL     1      -8.996   1.239 -34.891  1.00  0.00     0.162 HD
HETATM   16  O   UNL     1      -8.211  -0.063 -32.097  1.00  0.00    -0.268 OA
BRANCH  14  17
HETATM   17  C   UNL     1     -10.529   0.789 -33.483  1.00  0.00     0.127 C 
BRANCH  17  18
HETATM   18  C   UNL     1     -11.575   1.403 -34.423  1.00  0.00     0.058 C 
BRANCH  18  19
HETATM   19  C   UNL     1     -12.926   1.653 -33.794  1.00  0.00    -0.057 A 
HETATM   20  C   UNL     1     -13.096   2.624 -32.796  1.00  0.00     0.009 A 
HETATM   21  C   UNL     1     -14.356   2.854 -32.239  1.00  0.00     0.024 A 
HETATM   22  C   UNL     1     -15.455   2.122 -32.682  1.00  0.00     0.034 A 
HETATM   23 CL   UNL     1     -17.007   2.405 -31.995  1.00  0.00    -0.084 Cl
HETATM   24  C   UNL     1     -15.306   1.165 -33.682  1.00  0.00     0.024 A 
HETATM   25  C   UNL     1     -14.046   0.932 -34.235  1.00  0.00     0.009 A 
ENDBRANCH  18  19
ENDBRANCH  17  18
ENDBRANCH  14  17
ENDBRANCH   2  13
BRANCH   2  26
HETATM   26  O   UNL     1      -6.682   0.949 -35.325  1.00  0.00    -0.359 OA
HETATM   27  H   UNL     1      -7.584   0.785 -35.642  1.00  0.00     0.213 HD
ENDBRANCH   2  26
BRANCH   1  28
HETATM   28  C   UNL     1      -6.310   2.730 -32.885  1.00  0.00     0.045 A 
HETATM   29  C   UNL     1      -6.747   3.067 -31.589  1.00  0.00     0.066 A 
HETATM   30  C   UNL     1      -7.216   4.349 -31.266  1.00  0.00     0.070 A 
HETATM   31  C   UNL     1      -7.300   5.319 -32.258  1.00  0.00     0.037 A 
HETATM   32  C   UNL     1      -6.903   5.017 -33.553  1.00  0.00     0.005 A 
HETATM   33  C   UNL     1      -6.415   3.742 -33.860  1.00  0.00     0.030 A 
BRANCH  30  34
HETATM   34  O   UNL     1      -7.642   4.757 -30.031  1.00  0.00    -0.356 OA
HETATM   35  C   UNL     1      -8.651   5.762 -30.005  1.00  0.00     0.210 C 
ENDBRANCH  30  34
ENDBRANCH   1  28
TORSDOF 7
ENDMDL
MODEL 5
REMARK VINA RESULT:      -8.6      2.712      3.589
REMARK  7 active torsions:
REMARK  status: ('A' for Active; 'I' for Inactive)
REMARK    1  A    between atoms: O_2  and  C_3 
REMARK    2  A    between atoms: C_5  and  N_6 
REMARK    3  A    between atoms: C_7  and  C_9 
REMARK    4  A    between atoms: C_7  and  O_8 
REMARK       I    between atoms: C_9  and  N_10 
REMARK    5  A    between atoms: N_10  and  C_11 
REMARK    6  A    between atoms: C_11  and  C_12 
REMARK    7  A    between atoms: C_12  and  C_13 
ROOT
HETATM    1  N   UNL     1      -7.696   3.201 -30.713  1.00  0.00    -0.254 N 
HETATM    2  C   UNL     1      -8.926   2.697 -31.377  1.00  0.00     0.256 C 
HETATM    3  C   UNL     1     -10.092   3.663 -31.425  1.00  0.00     0.034 A 
HETATM    4  C   UNL     1      -9.979   4.900 -30.819  1.00  0.00     0.048 A 
HETATM    5  N   UNL     1      -8.813   5.204 -30.146  1.00  0.00    -0.308 N 
HETATM    6  C   UNL     1      -7.718   4.409 -30.024  1.00  0.00     0.330 C 
HETATM    7  O   UNL     1      -6.824   4.848 -29.298  1.00  0.00    -0.246 OA
HETATM    8  C   UNL     1     -11.306   3.335 -32.056  1.00  0.00     0.015 A 
HETATM    9  C   UNL     1     -12.360   4.249 -32.094  1.00  0.00     0.001 A 
HETATM   10  C   UNL     1     -12.216   5.498 -31.496  1.00  0.00     0.002 A 
HETATM   11  C   UNL     1     -11.026   5.823 -30.848  1.00  0.00     0.030 A 
HETATM   12  H   UNL     1      -8.746   6.073 -29.630  1.00  0.00     0.170 HD
ENDROOT
BRANCH   2  13
HETATM   13  C   UNL     1      -8.562   2.352 -32.902  1.00  0.00     0.279 C 
HETATM   14  N   UNL     1      -8.611   1.004 -33.226  1.00  0.00    -0.356 N 
HETATM   15  H   UNL     1      -8.840   0.338 -32.498  1.00  0.00     0.162 HD
HETATM   16  O   UNL     1      -8.208   3.207 -33.716  1.00  0.00    -0.268 OA
BRANCH  14  17
HETATM   17  C   UNL     1      -8.350   0.509 -34.564  1.00  0.00     0.127 C 
BRANCH  17  18
HETATM   18  C   UNL     1      -6.866   0.459 -34.953  1.00  0.00     0.058 C 
BRANCH  18  19
HETATM   19  C   UNL     1      -6.172  -0.848 -34.646  1.00  0.00    -0.057 A 
HETATM   20  C   UNL     1      -6.689  -2.070 -35.099  1.00  0.00     0.009 A 
HETATM   21  C   UNL     1      -6.024  -3.267 -34.821  1.00  0.00     0.024 A 
HETATM   22  C   UNL     1      -4.834  -3.247 -34.097  1.00  0.00     0.034 A 
HETATM   23 CL   UNL     1      -4.015  -4.721 -33.754  1.00  0.00    -0.084 Cl
HETATM   24  C   UNL     1      -4.300  -2.041 -33.652  1.00  0.00     0.024 A 
HETATM   25  C   UNL     1      -4.968  -0.846 -33.926  1.00  0.00     0.009 A 
ENDBRANCH  18  19
ENDBRANCH  17  18
ENDBRANCH  14  17
ENDBRANCH   2  13
BRANCH   2  26
HETATM   26  O   UNL     1      -9.415   1.627 -30.583  1.00  0.00    -0.359 OA
HETATM   27  H   UNL     1     -10.318   1.885 -30.340  1.00  0.00     0.213 HD
ENDBRANCH   2  26
BRANCH   1  28
HETATM   28  C   UNL     1      -6.475   2.389 -30.768  1.00  0.00     0.045 A 
HETATM   29  C   UNL     1      -5.303   2.855 -31.397  1.00  0.00     0.066 A 
HETATM   30  C   UNL     1      -4.125   2.095 -31.443  1.00  0.00     0.070 A 
HETATM   31  C   UNL     1      -4.109   0.819 -30.892  1.00  0.00     0.037 A 
HETATM   32  C   UNL     1      -5.251   0.316 -30.286  1.00  0.00     0.005 A 
HETATM   33  C   UNL     1      -6.416   1.091 -30.224  1.00  0.00     0.030 A 
BRANCH  30  34
HETATM   34  O   UNL     1      -2.946   2.482 -32.021  1.00  0.00    -0.356 OA
HETATM   35  C   UNL     1      -2.939   3.751 -32.666  1.00  0.00     0.210 C 
ENDBRANCH  30  34
ENDBRANCH   1  28
TORSDOF 7
ENDMDL
MODEL 6
REMARK VINA RESULT:      -8.6      3.231      7.568
REMARK  7 active torsions:
REMARK  status: ('A' for Active; 'I' for Inactive)
REMARK    1  A    between atoms: O_2  and  C_3 
REMARK    2  A    between atoms: C_5  and  N_6 
REMARK    3  A    between atoms: C_7  and  C_9 
REMARK    4  A    between atoms: C_7  and  O_8 
REMARK       I    between atoms: C_9  and  N_10 
REMARK    5  A    between atoms: N_10  and  C_11 
REMARK    6  A    between atoms: C_11  and  C_12 
REMARK    7  A    between atoms: C_12  and  C_13 
ROOT
HETATM    1  N   UNL     1      -7.631   0.727 -33.474  1.00  0.00    -0.254 N 
HETATM    2  C   UNL     1      -6.885   1.009 -32.221  1.00  0.00     0.256 C 
HETATM    3  C   UNL     1      -5.505   0.395 -32.124  1.00  0.00     0.034 A 
HETATM    4  C   UNL     1      -5.046  -0.419 -33.142  1.00  0.00     0.048 A 
HETATM    5  N   UNL     1      -5.883  -0.683 -34.208  1.00  0.00    -0.308 N 
HETATM    6  C   UNL     1      -7.142  -0.202 -34.386  1.00  0.00     0.330 C 
HETATM    7  O   UNL     1      -7.742  -0.644 -35.367  1.00  0.00    -0.246 OA
HETATM    8  C   UNL     1      -4.670   0.609 -31.011  1.00  0.00     0.015 A 
HETATM    9  C   UNL     1      -3.398   0.038 -30.953  1.00  0.00     0.001 A 
HETATM   10  C   UNL     1      -2.948  -0.760 -32.001  1.00  0.00     0.002 A 
HETATM   11  C   UNL     1      -3.777  -0.997 -33.096  1.00  0.00     0.030 A 
HETATM   12  H   UNL     1      -5.592  -1.339 -34.921  1.00  0.00     0.170 HD
ENDROOT
BRANCH   2  13
HETATM   13  C   UNL     1      -6.681   2.597 -32.111  1.00  0.00     0.279 C 
HETATM   14  N   UNL     1      -5.799   3.141 -33.033  1.00  0.00    -0.356 N 
HETATM   15  H   UNL     1      -5.332   2.520 -33.683  1.00  0.00     0.162 HD
HETATM   16  O   UNL     1      -7.218   3.283 -31.239  1.00  0.00    -0.268 OA
BRANCH  14  17
HETATM   17  C   UNL     1      -5.520   4.562 -33.109  1.00  0.00     0.127 C 
BRANCH  17  18
HETATM   18  C   UNL     1      -4.400   4.946 -34.086  1.00  0.00     0.058 C 
BRANCH  18  19
HETATM   19  C   UNL     1      -3.117   5.405 -33.433  1.00  0.00    -0.057 A 
HETATM   20  C   UNL     1      -2.451   6.558 -33.870  1.00  0.00     0.009 A 
HETATM   21  C   UNL     1      -1.275   6.977 -33.242  1.00  0.00     0.024 A 
HETATM   22  C   UNL     1      -0.765   6.251 -32.169  1.00  0.00     0.034 A 
HETATM   23 CL   UNL     1       0.683   6.767 -31.396  1.00  0.00    -0.084 Cl
HETATM   24  C   UNL     1      -1.423   5.113 -31.713  1.00  0.00     0.024 A 
HETATM   25  C   UNL     1      -2.594   4.691 -32.344  1.00  0.00     0.009 A 
ENDBRANCH  18  19
ENDBRANCH  17  18
ENDBRANCH  14  17
ENDBRANCH   2  13
BRANCH   2  26
HETATM   26  O   UNL     1      -7.601   0.386 -31.166  1.00  0.00    -0.359 OA
HETATM   27  H   UNL     1      -7.250   0.783 -30.354  1.00  0.00     0.213 HD
ENDBRANCH   2  26
BRANCH   1  28
HETATM   28  C   UNL     1      -8.905   1.415 -33.715  1.00  0.00     0.045 A 
HETATM   29  C   UNL     1     -10.143   0.805 -33.429  1.00  0.00     0.066 A 
HETATM   30  C   UNL     1     -11.367   1.457 -33.641  1.00  0.00     0.070 A 
HETATM   31  C   UNL     1     -11.377   2.734 -34.191  1.00  0.00     0.037 A 
HETATM   32  C   UNL     1     -10.180   3.358 -34.509  1.00  0.00     0.005 A 
HETATM   33  C   UNL     1      -8.962   2.708 -34.273  1.00  0.00     0.030 A 
BRANCH  30  34
HETATM   34  O   UNL     1     -12.605   0.939 -33.376  1.00  0.00    -0.356 OA
HETATM   35  C   UNL     1     -13.484   0.791 -34.486  1.00  0.00     0.210 C 
ENDBRANCH  30  34
ENDBRANCH   1  28
TORSDOF 7
ENDMDL
MODEL 7
REMARK VINA RESULT:      -8.6      2.545      6.203
REMARK  7 active torsions:
REMARK  status: ('A' for Active; 'I' for Inactive)
REMARK    1  A    between atoms: O_2  and  C_3 
REMARK    2  A    between atoms: C_5  and  N_6 
REMARK    3  A    between atoms: C_7  and  C_9 
REMARK    4  A    between atoms: C_7  and  O_8 
REMARK       I    between atoms: C_9  and  N_10 
REMARK    5  A    between atoms: N_10  and  C_11 
REMARK    6  A    between atoms: C_11  and  C_12 
REMARK    7  A    between atoms: C_12  and  C_13 
ROOT
HETATM    1  N   UNL     1      -5.488   5.436 -31.857  1.00  0.00    -0.254 N 
HETATM    2  C   UNL     1      -4.564   4.824 -32.846  1.00  0.00     0.256 C 
HETATM    3  C   UNL     1      -3.317   5.621 -33.164  1.00  0.00     0.034 A 
HETATM    4  C   UNL     1      -3.134   6.863 -32.585  1.00  0.00     0.048 A 
HETATM    5  N   UNL     1      -4.122   7.361 -31.759  1.00  0.00    -0.308 N 
HETATM    6  C   UNL     1      -5.284   6.741 -31.423  1.00  0.00     0.330 C 
HETATM    7  O   UNL     1      -6.063   7.413 -30.745  1.00  0.00    -0.246 OA
HETATM    8  C   UNL     1      -2.335   5.147 -34.053  1.00  0.00     0.015 A 
HETATM    9  C   UNL     1      -1.190   5.899 -34.320  1.00  0.00     0.001 A 
HETATM   10  C   UNL     1      -1.016   7.137 -33.708  1.00  0.00     0.002 A 
HETATM   11  C   UNL     1      -1.995   7.626 -32.844  1.00  0.00     0.030 A 
HETATM   12  H   UNL     1      -4.039   8.301 -31.392  1.00  0.00     0.170 HD
ENDROOT
BRANCH   2  13
HETATM   13  C   UNL     1      -4.063   3.419 -32.254  1.00  0.00     0.279 C 
HETATM   14  N   UNL     1      -4.520   2.299 -32.934  1.00  0.00    -0.356 N 
HETATM   15  H   UNL     1      -5.144   2.430 -33.721  1.00  0.00     0.162 HD
HETATM   16  O   UNL     1      -3.371   3.328 -31.238  1.00  0.00    -0.268 OA
BRANCH  14  17
HETATM   17  C   UNL     1      -4.141   0.948 -32.567  1.00  0.00     0.127 C 
BRANCH  17  18
HETATM   18  C   UNL     1      -5.307   0.046 -32.143  1.00  0.00     0.058 C 
BRANCH  18  19
HETATM   19  C   UNL     1      -5.551  -1.142 -33.044  1.00  0.00    -0.057 A 
HETATM   20  C   UNL     1      -6.821  -1.402 -33.578  1.00  0.00     0.009 A 
HETATM   21  C   UNL     1      -7.024  -2.495 -34.424  1.00  0.00     0.024 A 
HETATM   22  C   UNL     1      -5.957  -3.329 -34.748  1.00  0.00     0.034 A 
HETATM   23 CL   UNL     1      -6.206  -4.675 -35.790  1.00  0.00    -0.084 Cl
HETATM   24  C   UNL     1      -4.686  -3.076 -34.239  1.00  0.00     0.024 A 
HETATM   25  C   UNL     1      -4.485  -1.987 -33.389  1.00  0.00     0.009 A 
ENDBRANCH  18  19
ENDBRANCH  17  18
ENDBRANCH  14  17
ENDBRANCH   2  13
BRANCH   2  26
HETATM   26  O   UNL     1      -5.256   4.782 -34.085  1.00  0.00    -0.359 OA
HETATM   27  H   UNL     1      -6.022   5.363 -33.966  1.00  0.00     0.213 HD
ENDBRANCH   2  26
BRANCH   1  28
HETATM   28  C   UNL     1      -6.634   4.655 -31.375  1.00  0.00     0.045 A 
HETATM   29  C   UNL     1      -7.787   4.468 -32.163  1.00  0.00     0.066 A 
HETATM   30  C   UNL     1      -8.882   3.712 -31.721  1.00  0.00     0.070 A 
HETATM   31  C   UNL     1      -8.864   3.159 -30.446  1.00  0.00     0.037 A 
HETATM   32  C   UNL     1      -7.757   3.343 -29.629  1.00  0.00     0.005 A 
HETATM   33  C   UNL     1      -6.658   4.080 -30.089  1.00  0.00     0.030 A 
BRANCH  30  34
HETATM   34  O   UNL     1     -10.028   3.473 -32.431  1.00  0.00    -0.356 OA
HETATM   35  C   UNL     1      -9.864   3.064 -33.785  1.00  0.00     0.210 C 
ENDBRANCH  30  34
ENDBRANCH   1  28
TORSDOF 7
ENDMDL
MODEL 8
REMARK VINA RESULT:      -8.6      3.298      6.844
REMARK  7 active torsions:
REMARK  status: ('A' for Active; 'I' for Inactive)
REMARK    1  A    between atoms: O_2  and  C_3 
REMARK    2  A    between atoms: C_5  and  N_6 
REMARK    3  A    between atoms: C_7  and  C_9 
REMARK    4  A    between atoms: C_7  and  O_8 
REMARK       I    between atoms: C_9  and  N_10 
REMARK    5  A    between atoms: N_10  and  C_11 
REMARK    6  A    between atoms: C_11  and  C_12 
REMARK    7  A    between atoms: C_12  and  C_13 
ROOT
HETATM    1  N   UNL     1      -5.781   1.435 -33.128  1.00  0.00    -0.254 N 
HETATM    2  C   UNL     1      -6.630   0.478 -33.884  1.00  0.00     0.256 C 
HETATM    3  C   UNL     1      -6.064  -0.917 -34.049  1.00  0.00     0.034 A 
HETATM    4  C   UNL     1      -4.805  -1.206 -33.559  1.00  0.00     0.048 A 
HETATM    5  N   UNL     1      -4.077  -0.194 -32.964  1.00  0.00    -0.308 N 
HETATM    6  C   UNL     1      -4.478   1.091 -32.782  1.00  0.00     0.330 C 
HETATM    7  O   UNL     1      -3.628   1.848 -32.311  1.00  0.00    -0.246 OA
HETATM    8  C   UNL     1      -6.775  -1.936 -34.710  1.00  0.00     0.015 A 
HETATM    9  C   UNL     1      -6.233  -3.216 -34.838  1.00  0.00     0.001 A 
HETATM   10  C   UNL     1      -4.973  -3.490 -34.316  1.00  0.00     0.002 A 
HETATM   11  C   UNL     1      -4.251  -2.481 -33.682  1.00  0.00     0.030 A 
HETATM   12  H   UNL     1      -3.124  -0.370 -32.672  1.00  0.00     0.170 HD
ENDROOT
BRANCH   2  13
HETATM   13  C   UNL     1      -8.017   0.313 -33.093  1.00  0.00     0.279 C 
HETATM   14  N   UNL     1      -9.148   0.673 -33.810  1.00  0.00    -0.356 N 
HETATM   15  H   UNL     1      -9.033   1.033 -34.751  1.00  0.00     0.162 HD
HETATM   16  O   UNL     1      -8.078  -0.051 -31.917  1.00  0.00    -0.268 OA
BRANCH  14  17
HETATM   17  C   UNL     1     -10.489   0.555 -33.273  1.00  0.00     0.127 C 
BRANCH  17  18
HETATM   18  C   UNL     1     -11.536   1.446 -33.955  1.00  0.00     0.058 C 
BRANCH  18  19
HETATM   19  C   UNL     1     -11.230   2.925 -33.924  1.00  0.00    -0.057 A 
HETATM   20  C   UNL     1     -11.326   3.663 -32.735  1.00  0.00     0.009 A 
HETATM   21  C   UNL     1     -11.021   5.026 -32.721  1.00  0.00     0.024 A 
HETATM   22  C   UNL     1     -10.609   5.657 -33.892  1.00  0.00     0.034 A 
HETATM   23 CL   UNL     1     -10.234   7.336 -33.875  1.00  0.00    -0.084 Cl
HETATM   24  C   UNL     1     -10.494   4.936 -35.077  1.00  0.00     0.024 A 
HETATM   25  C   UNL     1     -10.804   3.575 -35.092  1.00  0.00     0.009 A 
ENDBRANCH  18  19
ENDBRANCH  17  18
ENDBRANCH  14  17
ENDBRANCH   2  13
BRANCH   2  26
HETATM   26  O   UNL     1      -6.711   0.963 -35.216  1.00  0.00    -0.359 OA
HETATM   27  H   UNL     1      -6.697   0.170 -35.774  1.00  0.00     0.213 HD
ENDBRANCH   2  26
BRANCH   1  28
HETATM   28  C   UNL     1      -6.326   2.754 -32.786  1.00  0.00     0.045 A 
HETATM   29  C   UNL     1      -6.711   3.078 -31.470  1.00  0.00     0.066 A 
HETATM   30  C   UNL     1      -7.219   4.340 -31.127  1.00  0.00     0.070 A 
HETATM   31  C   UNL     1      -7.396   5.300 -32.116  1.00  0.00     0.037 A 
HETATM   32  C   UNL     1      -7.053   5.009 -33.429  1.00  0.00     0.005 A 
HETATM   33  C   UNL     1      -6.524   3.755 -33.757  1.00  0.00     0.030 A 
BRANCH  30  34
HETATM   34  O   UNL     1      -7.600   4.734 -29.873  1.00  0.00    -0.356 OA
HETATM   35  C   UNL     1      -8.738   5.586 -29.792  1.00  0.00     0.210 C 
ENDBRANCH  30  34
ENDBRANCH   1  28
TORSDOF 7
ENDMDL
MODEL 9
REMARK VINA RESULT:      -8.5      1.647      2.101
REMARK  7 active torsions:
REMARK  status: ('A' for Active; 'I' for Inactive)
REMARK    1  A    between atoms: O_2  and  C_3 
REMARK    2  A    between atoms: C_5  and  N_6 
REMARK    3  A    between atoms: C_7  and  C_9 
REMARK    4  A    between atoms: C_7  and  O_8 
REMARK       I    between atoms: C_9  and  N_10 
REMARK    5  A    between atoms: N_10  and  C_11 
REMARK    6  A    between atoms: C_11  and  C_12 
REMARK    7  A    between atoms: C_12  and  C_13 
ROOT
HETATM    1  N   UNL     1      -9.453   3.568 -31.758  1.00  0.00    -0.254 N 
HETATM    2  C   UNL     1      -9.767   2.236 -32.335  1.00  0.00     0.256 C 
HETATM    3  C   UNL     1     -11.171   2.066 -32.875  1.00  0.00     0.034 A 
HETATM    4  C   UNL     1     -12.079   3.101 -32.755  1.00  0.00     0.048 A 
HETATM    5  N   UNL     1     -11.687   4.254 -32.104  1.00  0.00    -0.308 N 
HETATM    6  C   UNL     1     -10.464   4.504 -31.567  1.00  0.00     0.330 C 
HETATM    7  O   UNL     1     -10.365   5.565 -30.949  1.00  0.00    -0.246 OA
HETATM    8  C   UNL     1     -11.596   0.871 -33.485  1.00  0.00     0.015 A 
HETATM    9  C   UNL     1     -12.894   0.747 -33.983  1.00  0.00     0.001 A 
HETATM   10  C   UNL     1     -13.784   1.811 -33.872  1.00  0.00     0.002 A 
HETATM   11  C   UNL     1     -13.380   2.990 -33.248  1.00  0.00     0.030 A 
HETATM   12  H   UNL     1     -12.364   4.988 -31.938  1.00  0.00     0.170 HD
ENDROOT
BRANCH   2  13
HETATM   13  C   UNL     1      -8.774   1.983 -33.570  1.00  0.00     0.279 C 
HETATM   14  N   UNL     1      -7.797   1.023 -33.352  1.00  0.00    -0.356 N 
HETATM   15  H   UNL     1      -7.754   0.572 -32.445  1.00  0.00     0.162 HD
HETATM   16  O   UNL     1      -8.830   2.630 -34.618  1.00  0.00    -0.268 OA
BRANCH  14  17
HETATM   17  C   UNL     1      -6.837   0.635 -34.366  1.00  0.00     0.127 C 
BRANCH  17  18
HETATM   18  C   UNL     1      -7.135  -0.704 -35.055  1.00  0.00     0.058 C 
BRANCH  18  19
HETATM   19  C   UNL     1      -6.190  -1.827 -34.697  1.00  0.00    -0.057 A 
HETATM   20  C   UNL     1      -6.454  -3.149 -35.080  1.00  0.00     0.009 A 
HETATM   21  C   UNL     1      -5.560  -4.173 -34.756  1.00  0.00     0.024 A 
HETATM   22  C   UNL     1      -4.392  -3.878 -34.056  1.00  0.00     0.034 A 
HETATM   23 CL   UNL     1      -3.290  -5.138 -33.657  1.00  0.00    -0.084 Cl
HETATM   24  C   UNL     1      -4.108  -2.568 -33.683  1.00  0.00     0.024 A 
HETATM   25  C   UNL     1      -5.004  -1.547 -34.002  1.00  0.00     0.009 A 
ENDBRANCH  18  19
ENDBRANCH  17  18
ENDBRANCH  14  17
ENDBRANCH   2  13
BRANCH   2  26
HETATM   26  O   UNL     1      -9.706   1.300 -31.269  1.00  0.00    -0.359 OA
HETATM   27  H   UNL     1      -9.040   0.651 -31.542  1.00  0.00     0.213 HD
ENDBRANCH   2  26
BRANCH   1  28
HETATM   28  C   UNL     1      -8.071   3.864 -31.361  1.00  0.00     0.045 A 
HETATM   29  C   UNL     1      -7.231   4.675 -32.151  1.00  0.00     0.066 A 
HETATM   30  C   UNL     1      -5.914   4.977 -31.777  1.00  0.00     0.070 A 
HETATM   31  C   UNL     1      -5.389   4.432 -30.611  1.00  0.00     0.037 A 
HETATM   32  C   UNL     1      -6.177   3.608 -29.820  1.00  0.00     0.005 A 
HETATM   33  C   UNL     1      -7.499   3.330 -30.190  1.00  0.00     0.030 A 
BRANCH  30  34
HETATM   34  O   UNL     1      -5.044   5.765 -32.481  1.00  0.00    -0.356 OA
HETATM   35  C   UNL     1      -4.191   5.102 -33.408  1.00  0.00     0.210 C 
ENDBRANCH  30  34
ENDBRANCH   1  28
TORSDOF 7
ENDMDL
MODEL 10
REMARK VINA RESULT:      -8.5      2.870      5.869
REMARK  7 active torsions:
REMARK  status: ('A' for Active; 'I' for Inactive)
REMARK    1  A    between atoms: O_2  and  C_3 
REMARK    2  A    between atoms: C_5  and  N_6 
REMARK    3  A    between atoms: C_7  and  C_9 
REMARK    4  A    between atoms: C_7  and  O_8 
REMARK       I    between atoms: C_9  and  N_10 
REMARK    5  A    between atoms: N_10  and  C_11 
REMARK    6  A    between atoms: C_11  and  C_12 
REMARK    7  A    between atoms: C_12  and  C_13 
ROOT
HETATM    1  N   UNL     1      -8.882   0.751 -33.204  1.00  0.00    -0.254 N 
HETATM    2  C   UNL     1      -8.862   1.997 -34.012  1.00  0.00     0.256 C 
HETATM    3  C   UNL     1     -10.208   2.643 -34.262  1.00  0.00     0.034 A 
HETATM    4  C   UNL     1     -11.356   2.032 -33.795  1.00  0.00     0.048 A 
HETATM    5  N   UNL     1     -11.243   0.819 -33.145  1.00  0.00    -0.308 N 
HETATM    6  C   UNL     1     -10.093   0.144 -32.885  1.00  0.00     0.330 C 
HETATM    7  O   UNL     1     -10.236  -0.967 -32.373  1.00  0.00    -0.246 OA
HETATM    8  C   UNL     1     -10.335   3.848 -34.979  1.00  0.00     0.015 A 
HETATM    9  C   UNL     1     -11.589   4.425 -35.186  1.00  0.00     0.001 A 
HETATM   10  C   UNL     1     -12.730   3.803 -34.687  1.00  0.00     0.002 A 
HETATM   11  C   UNL     1     -12.616   2.598 -33.997  1.00  0.00     0.030 A 
HETATM   12  H   UNL     1     -12.080   0.321 -32.868  1.00  0.00     0.170 HD
ENDROOT
BRANCH   2  13
HETATM   13  C   UNL     1      -7.979   3.084 -33.226  1.00  0.00     0.279 C 
HETATM   14  N   UNL     1      -8.462   3.440 -31.975  1.00  0.00    -0.356 N 
HETATM   15  H   UNL     1      -9.329   3.025 -31.654  1.00  0.00     0.162 HD
HETATM   16  O   UNL     1      -6.977   3.612 -33.713  1.00  0.00    -0.268 OA
BRANCH  14  17
HETATM   17  C   UNL     1      -7.778   4.377 -31.107  1.00  0.00     0.127 C 
BRANCH  17  18
HETATM   18  C   UNL     1      -6.654   3.765 -30.259  1.00  0.00     0.058 C 
BRANCH  18  19
HETATM   19  C   UNL     1      -5.255   4.079 -30.736  1.00  0.00    -0.057 A 
HETATM   20  C   UNL     1      -4.754   5.388 -30.706  1.00  0.00     0.009 A 
HETATM   21  C   UNL     1      -3.451   5.658 -31.133  1.00  0.00     0.024 A 
HETATM   22  C   UNL     1      -2.640   4.619 -31.584  1.00  0.00     0.034 A 
HETATM   23 CL   UNL     1      -1.036   4.951 -32.111  1.00  0.00    -0.084 Cl
HETATM   24  C   UNL     1      -3.118   3.312 -31.605  1.00  0.00     0.024 A 
HETATM   25  C   UNL     1      -4.421   3.044 -31.183  1.00  0.00     0.009 A 
ENDBRANCH  18  19
ENDBRANCH  17  18
ENDBRANCH  14  17
ENDBRANCH   2  13
BRANCH   2  26
HETATM   26  O   UNL     1      -8.418   1.639 -35.312  1.00  0.00    -0.359 OA
HETATM   27  H   UNL     1      -7.884   2.390 -35.612  1.00  0.00     0.213 HD
ENDBRANCH   2  26
BRANCH   1  28
HETATM   28  C   UNL     1      -7.610   0.155 -32.782  1.00  0.00     0.045 A 
HETATM   29  C   UNL     1      -6.836  -0.637 -33.655  1.00  0.00     0.066 A 
HETATM   30  C   UNL     1      -5.611  -1.201 -33.268  1.00  0.00     0.070 A 
HETATM   31  C   UNL     1      -5.151  -1.017 -31.969  1.00  0.00     0.037 A 
HETATM   32  C   UNL     1      -5.897  -0.265 -31.073  1.00  0.00     0.005 A 
HETATM   33  C   UNL     1      -7.107   0.313 -31.475  1.00  0.00     0.030 A 
BRANCH  30  34
HETATM   34  O   UNL     1      -4.798  -1.966 -34.060  1.00  0.00    -0.356 OA
HETATM   35  C   UNL     1      -5.444  -2.877 -34.943  1.00  0.00     0.210 C 
ENDBRANCH  30  34
ENDBRANCH   1  28
TORSDOF 7
ENDMDL
