MODEL 1
REMARK VINA RESULT:      -9.7      0.000      0.000
REMARK  2 active torsions:
REMARK  status: ('A' for Active; 'I' for Inactive)
REMARK    1  A    between atoms: C_5  and  N_6 
REMARK    2  A    between atoms: C_8  and  C_9 
REMARK       I    between atoms: C_9  and  N_10 
ROOT
HETATM    1  C   UNL     1      -3.235   2.979 -31.783  1.00  0.00     0.279 C 
HETATM    2  N   UNL     1      -3.198   4.165 -32.556  1.00  0.00    -0.301 N 
HETATM    3  C   UNL     1      -2.302   5.252 -32.259  1.00  0.00     0.067 A 
HETATM    4  C   UNL     1      -2.054   6.243 -33.219  1.00  0.00     0.079 A 
HETATM    5  C   UNL     1      -1.161   7.269 -32.921  1.00  0.00     0.148 A 
HETATM    6  N   UNL     1      -0.518   7.394 -31.742  1.00  0.00    -0.271 NA
HETATM    7  C   UNL     1      -0.783   6.449 -30.820  1.00  0.00     0.118 A 
HETATM    8  C   UNL     1      -1.652   5.385 -31.026  1.00  0.00     0.051 A 
HETATM    9  N   UNL     1      -2.661   6.216 -34.475  1.00  0.00    -0.323 N 
HETATM   10  C   UNL     1      -3.588   5.286 -34.833  1.00  0.00     0.240 C 
HETATM   11  O   UNL     1      -4.104   5.326 -35.949  1.00  0.00    -0.271 OA
HETATM   12  C   UNL     1      -4.021   4.293 -33.767  1.00  0.00     0.235 C 
HETATM   13  O   UNL     1      -2.353   2.688 -30.972  1.00  0.00    -0.265 OA
HETATM   14  H   UNL     1      -2.433   6.907 -35.178  1.00  0.00     0.169 HD
ENDROOT
BRANCH   1  15
HETATM   15  C   UNL     1      -4.345   2.011 -31.971  1.00  0.00     0.147 A 
HETATM   16  N   UNL     1      -4.303   0.933 -32.766  1.00  0.00    -0.162 NA
HETATM   17  N   UNL     1      -5.519   0.315 -32.657  1.00  0.00    -0.238 N 
HETATM   18  C   UNL     1      -6.352   1.032 -31.800  1.00  0.00     0.035 A 
HETATM   19  C   UNL     1      -5.620   2.123 -31.378  1.00  0.00     0.066 A 
HETATM   20  C   UNL     1      -7.742   0.700 -31.405  1.00  0.00     0.070 C 
BRANCH  17  21
HETATM   21  C   UNL     1      -5.726  -0.903 -33.388  1.00  0.00     0.058 A 
HETATM   22  C   UNL     1      -4.636  -1.776 -33.568  1.00  0.00     0.032 A 
HETATM   23  C   UNL     1      -4.781  -2.987 -34.255  1.00  0.00     0.009 A 
HETATM   24  C   UNL     1      -6.017  -3.353 -34.788  1.00  0.00    -0.062 A 
HETATM   25  C   UNL     1      -6.198  -4.659 -35.502  1.00  0.00     0.048 C 
HETATM   26  C   UNL     1      -7.103  -2.491 -34.617  1.00  0.00     0.009 A 
HETATM   27  C   UNL     1      -6.960  -1.278 -33.928  1.00  0.00     0.032 A 
ENDBRANCH  17  21
ENDBRANCH   1  15
TORSDOF 2
ENDMDL
MODEL 2
REMARK VINA RESULT:      -8.8      2.169      8.384
REMARK  2 active torsions:
REMARK  status: ('A' for Active; 'I' for Inactive)
REMARK    1  A    between atoms: C_5  and  N_6 
REMARK    2  A    between atoms: C_8  and  C_9 
REMARK       I    between atoms: C_9  and  N_10 
ROOT
HETATM    1  C   UNL     1      -3.722   2.132 -32.383  1.00  0.00     0.279 C 
HETATM    2  N   UNL     1      -5.109   2.236 -32.648  1.00  0.00    -0.301 N 
HETATM    3  C   UNL     1      -5.925   1.086 -32.942  1.00  0.00     0.067 A 
HETATM    4  C   UNL     1      -7.322   1.178 -32.866  1.00  0.00     0.079 A 
HETATM    5  C   UNL     1      -8.092   0.046 -33.125  1.00  0.00     0.148 A 
HETATM    6  N   UNL     1      -7.581  -1.153 -33.471  1.00  0.00    -0.271 NA
HETATM    7  C   UNL     1      -6.240  -1.221 -33.564  1.00  0.00     0.118 A 
HETATM    8  C   UNL     1      -5.389  -0.150 -33.320  1.00  0.00     0.051 A 
HETATM    9  N   UNL     1      -7.962   2.367 -32.515  1.00  0.00    -0.323 N 
HETATM   10  C   UNL     1      -7.296   3.534 -32.300  1.00  0.00     0.240 C 
HETATM   11  O   UNL     1      -7.918   4.556 -32.013  1.00  0.00    -0.271 OA
HETATM   12  C   UNL     1      -5.795   3.531 -32.541  1.00  0.00     0.235 C 
HETATM   13  O   UNL     1      -3.171   1.056 -32.138  1.00  0.00    -0.265 OA
HETATM   14  H   UNL     1      -8.968   2.406 -32.411  1.00  0.00     0.169 HD
ENDROOT
BRANCH   1  15
HETATM   15  C   UNL     1      -2.885   3.359 -32.345  1.00  0.00     0.147 A 
HETATM   16  N   UNL     1      -2.397   3.926 -31.234  1.00  0.00    -0.162 NA
HETATM   17  N   UNL     1      -1.689   5.027 -31.632  1.00  0.00    -0.238 N 
HETATM   18  C   UNL     1      -1.756   5.173 -33.016  1.00  0.00     0.035 A 
HETATM   19  C   UNL     1      -2.533   4.128 -33.474  1.00  0.00     0.066 A 
HETATM   20  C   UNL     1      -1.121   6.224 -33.846  1.00  0.00     0.070 C 
BRANCH  17  21
HETATM   21  C   UNL     1      -1.022   5.803 -30.625  1.00  0.00     0.058 A 
HETATM   22  C   UNL     1       0.056   5.223 -29.930  1.00  0.00     0.032 A 
HETATM   23  C   UNL     1       0.759   5.936 -28.951  1.00  0.00     0.009 A 
HETATM   24  C   UNL     1       0.395   7.245 -28.634  1.00  0.00    -0.062 A 
HETATM   25  C   UNL     1       1.153   8.034 -27.609  1.00  0.00     0.048 C 
HETATM   26  C   UNL     1      -0.676   7.828 -29.317  1.00  0.00     0.009 A 
HETATM   27  C   UNL     1      -1.379   7.115 -30.299  1.00  0.00     0.032 A 
ENDBRANCH  17  21
ENDBRANCH   1  15
TORSDOF 2
ENDMDL
MODEL 3
REMARK VINA RESULT:      -8.7      1.580      1.595
REMARK  2 active torsions:
REMARK  status: ('A' for Active; 'I' for Inactive)
REMARK    1  A    between atoms: C_5  and  N_6 
REMARK    2  A    between atoms: C_8  and  C_9 
REMARK       I    between atoms: C_9  and  N_10 
ROOT
HETATM    1  C   UNL     1      -4.457   3.660 -31.638  1.00  0.00     0.279 C 
HETATM    2  N   UNL     1      -3.655   4.629 -32.289  1.00  0.00    -0.301 N 
HETATM    3  C   UNL     1      -3.055   5.733 -31.585  1.00  0.00     0.067 A 
HETATM    4  C   UNL     1      -2.015   6.463 -32.177  1.00  0.00     0.079 A 
HETATM    5  C   UNL     1      -1.430   7.508 -31.466  1.00  0.00     0.148 A 
HETATM    6  N   UNL     1      -1.812   7.891 -30.231  1.00  0.00    -0.271 NA
HETATM    7  C   UNL     1      -2.828   7.197 -29.684  1.00  0.00     0.118 A 
HETATM    8  C   UNL     1      -3.471   6.137 -30.311  1.00  0.00     0.051 A 
HETATM    9  N   UNL     1      -1.534   6.156 -33.450  1.00  0.00    -0.323 N 
HETATM   10  C   UNL     1      -2.081   5.191 -34.238  1.00  0.00     0.240 C 
HETATM   11  O   UNL     1      -1.626   4.980 -35.362  1.00  0.00    -0.271 OA
HETATM   12  C   UNL     1      -3.323   4.488 -33.714  1.00  0.00     0.235 C 
HETATM   13  O   UNL     1      -4.495   3.546 -30.410  1.00  0.00    -0.265 OA
HETATM   14  H   UNL     1      -0.748   6.656 -33.843  1.00  0.00     0.169 HD
ENDROOT
BRANCH   1  15
HETATM   15  C   UNL     1      -5.256   2.703 -32.444  1.00  0.00     0.147 A 
HETATM   16  N   UNL     1      -4.930   1.423 -32.668  1.00  0.00    -0.162 NA
HETATM   17  N   UNL     1      -5.920   0.896 -33.452  1.00  0.00    -0.238 N 
HETATM   18  C   UNL     1      -6.873   1.868 -33.750  1.00  0.00     0.035 A 
HETATM   19  C   UNL     1      -6.446   3.025 -33.130  1.00  0.00     0.066 A 
HETATM   20  C   UNL     1      -8.105   1.709 -34.558  1.00  0.00     0.070 C 
BRANCH  17  21
HETATM   21  C   UNL     1      -5.832  -0.491 -33.812  1.00  0.00     0.058 A 
HETATM   22  C   UNL     1      -4.584  -1.136 -33.710  1.00  0.00     0.032 A 
HETATM   23  C   UNL     1      -4.439  -2.492 -34.027  1.00  0.00     0.009 A 
HETATM   24  C   UNL     1      -5.536  -3.236 -34.464  1.00  0.00    -0.062 A 
HETATM   25  C   UNL     1      -5.405  -4.696 -34.781  1.00  0.00     0.048 C 
HETATM   26  C   UNL     1      -6.776  -2.604 -34.571  1.00  0.00     0.009 A 
HETATM   27  C   UNL     1      -6.924  -1.246 -34.252  1.00  0.00     0.032 A 
ENDBRANCH  17  21
ENDBRANCH   1  15
TORSDOF 2
ENDMDL
MODEL 4
REMARK VINA RESULT:      -8.6      2.529      8.381
REMARK  2 active torsions:
REMARK  status: ('A' for Active; 'I' for Inactive)
REMARK    1  A    between atoms: C_5  and  N_6 
REMARK    2  A    between atoms: C_8  and  C_9 
REMARK       I    between atoms: C_9  and  N_10 
ROOT
HETATM    1  C   UNL     1      -5.794  -0.250 -33.834  1.00  0.00     0.279 C 
HETATM    2  N   UNL     1      -5.187  -1.451 -33.393  1.00  0.00    -0.301 N 
HETATM    3  C   UNL     1      -5.454  -2.723 -34.013  1.00  0.00     0.067 A 
HETATM    4  C   UNL     1      -4.600  -3.811 -33.782  1.00  0.00     0.079 A 
HETATM    5  C   UNL     1      -4.860  -5.024 -34.416  1.00  0.00     0.148 A 
HETATM    6  N   UNL     1      -5.907  -5.239 -35.238  1.00  0.00    -0.271 NA
HETATM    7  C   UNL     1      -6.732  -4.193 -35.432  1.00  0.00     0.118 A 
HETATM    8  C   UNL     1      -6.554  -2.944 -34.851  1.00  0.00     0.051 A 
HETATM    9  N   UNL     1      -3.484  -3.705 -32.952  1.00  0.00    -0.323 N 
HETATM   10  C   UNL     1      -3.185  -2.580 -32.249  1.00  0.00     0.240 C 
HETATM   11  O   UNL     1      -2.196  -2.554 -31.516  1.00  0.00    -0.271 OA
HETATM   12  C   UNL     1      -4.174  -1.429 -32.328  1.00  0.00     0.235 C 
HETATM   13  O   UNL     1      -6.385  -0.162 -34.913  1.00  0.00    -0.265 OA
HETATM   14  H   UNL     1      -2.847  -4.483 -32.836  1.00  0.00     0.169 HD
ENDROOT
BRANCH   1  15
HETATM   15  C   UNL     1      -5.689   0.977 -33.004  1.00  0.00     0.147 A 
HETATM   16  N   UNL     1      -4.721   1.898 -33.108  1.00  0.00    -0.162 NA
HETATM   17  N   UNL     1      -4.988   2.857 -32.170  1.00  0.00    -0.238 N 
HETATM   18  C   UNL     1      -6.128   2.521 -31.443  1.00  0.00     0.035 A 
HETATM   19  C   UNL     1      -6.566   1.316 -31.953  1.00  0.00     0.066 A 
HETATM   20  C   UNL     1      -6.761   3.292 -30.347  1.00  0.00     0.070 C 
BRANCH  17  21
HETATM   21  C   UNL     1      -4.112   3.992 -32.095  1.00  0.00     0.058 A 
HETATM   22  C   UNL     1      -2.801   3.803 -31.618  1.00  0.00     0.032 A 
HETATM   23  C   UNL     1      -1.895   4.867 -31.541  1.00  0.00     0.009 A 
HETATM   24  C   UNL     1      -2.279   6.151 -31.929  1.00  0.00    -0.062 A 
HETATM   25  C   UNL     1      -1.313   7.297 -31.880  1.00  0.00     0.048 C 
HETATM   26  C   UNL     1      -3.578   6.348 -32.401  1.00  0.00     0.009 A 
HETATM   27  C   UNL     1      -4.487   5.283 -32.481  1.00  0.00     0.032 A 
ENDBRANCH  17  21
ENDBRANCH   1  15
TORSDOF 2
ENDMDL
MODEL 5
REMARK VINA RESULT:      -8.6      1.917      2.759
REMARK  2 active torsions:
REMARK  status: ('A' for Active; 'I' for Inactive)
REMARK    1  A    between atoms: C_5  and  N_6 
REMARK    2  A    between atoms: C_8  and  C_9 
REMARK       I    between atoms: C_9  and  N_10 
ROOT
HETATM    1  C   UNL     1      -5.043   4.322 -33.595  1.00  0.00     0.279 C 
HETATM    2  N   UNL     1      -4.506   4.991 -32.468  1.00  0.00    -0.301 N 
HETATM    3  C   UNL     1      -3.565   6.075 -32.590  1.00  0.00     0.067 A 
HETATM    4  C   UNL     1      -3.320   6.920 -31.499  1.00  0.00     0.079 A 
HETATM    5  C   UNL     1      -2.429   7.980 -31.648  1.00  0.00     0.148 A 
HETATM    6  N   UNL     1      -1.755   8.246 -32.785  1.00  0.00    -0.271 NA
HETATM    7  C   UNL     1      -1.981   7.413 -33.818  1.00  0.00     0.118 A 
HETATM    8  C   UNL     1      -2.854   6.334 -33.768  1.00  0.00     0.051 A 
HETATM    9  N   UNL     1      -3.963   6.741 -30.274  1.00  0.00    -0.323 N 
HETATM   10  C   UNL     1      -4.804   5.702 -30.019  1.00  0.00     0.240 C 
HETATM   11  O   UNL     1      -5.325   5.587 -28.911  1.00  0.00    -0.271 OA
HETATM   12  C   UNL     1      -4.968   4.660 -31.113  1.00  0.00     0.235 C 
HETATM   13  O   UNL     1      -4.945   4.768 -34.741  1.00  0.00    -0.265 OA
HETATM   14  H   UNL     1      -3.818   7.390 -29.511  1.00  0.00     0.169 HD
ENDROOT
BRANCH   1  15
HETATM   15  C   UNL     1      -5.797   3.056 -33.411  1.00  0.00     0.147 A 
HETATM   16  N   UNL     1      -5.418   1.858 -33.875  1.00  0.00    -0.162 NA
HETATM   17  N   UNL     1      -6.383   0.965 -33.495  1.00  0.00    -0.238 N 
HETATM   18  C   UNL     1      -7.402   1.617 -32.803  1.00  0.00     0.035 A 
HETATM   19  C   UNL     1      -7.046   2.950 -32.765  1.00  0.00     0.066 A 
HETATM   20  C   UNL     1      -8.622   1.016 -32.213  1.00  0.00     0.070 C 
BRANCH  17  21
HETATM   21  C   UNL     1      -6.199  -0.417 -33.838  1.00  0.00     0.058 A 
HETATM   22  C   UNL     1      -4.914  -0.979 -33.709  1.00  0.00     0.032 A 
HETATM   23  C   UNL     1      -4.676  -2.326 -34.010  1.00  0.00     0.009 A 
HETATM   24  C   UNL     1      -5.715  -3.143 -34.455  1.00  0.00    -0.062 A 
HETATM   25  C   UNL     1      -5.485  -4.595 -34.754  1.00  0.00     0.048 C 
HETATM   26  C   UNL     1      -6.992  -2.593 -34.589  1.00  0.00     0.009 A 
HETATM   27  C   UNL     1      -7.232  -1.245 -34.287  1.00  0.00     0.032 A 
ENDBRANCH  17  21
ENDBRANCH   1  15
TORSDOF 2
ENDMDL
MODEL 6
REMARK VINA RESULT:      -8.6      5.415      7.199
REMARK  2 active torsions:
REMARK  status: ('A' for Active; 'I' for Inactive)
REMARK    1  A    between atoms: C_5  and  N_6 
REMARK    2  A    between atoms: C_8  and  C_9 
REMARK       I    between atoms: C_9  and  N_10 
ROOT
HETATM    1  C   UNL     1      -9.040   4.229 -34.144  1.00  0.00     0.279 C 
HETATM    2  N   UNL     1     -10.418   4.057 -34.422  1.00  0.00    -0.301 N 
HETATM    3  C   UNL     1     -11.258   5.144 -34.854  1.00  0.00     0.067 A 
HETATM    4  C   UNL     1     -12.506   4.880 -35.435  1.00  0.00     0.079 A 
HETATM    5  C   UNL     1     -13.290   5.945 -35.873  1.00  0.00     0.148 A 
HETATM    6  N   UNL     1     -12.937   7.241 -35.758  1.00  0.00    -0.271 NA
HETATM    7  C   UNL     1     -11.747   7.482 -35.176  1.00  0.00     0.118 A 
HETATM    8  C   UNL     1     -10.893   6.488 -34.714  1.00  0.00     0.051 A 
HETATM    9  N   UNL     1     -12.974   3.577 -35.609  1.00  0.00    -0.323 N 
HETATM   10  C   UNL     1     -12.304   2.481 -35.161  1.00  0.00     0.240 C 
HETATM   11  O   UNL     1     -12.779   1.358 -35.325  1.00  0.00    -0.271 OA
HETATM   12  C   UNL     1     -11.030   2.722 -34.369  1.00  0.00     0.235 C 
HETATM   13  O   UNL     1      -8.414   5.236 -34.483  1.00  0.00    -0.265 OA
HETATM   14  H   UNL     1     -13.853   3.399 -36.078  1.00  0.00     0.169 HD
ENDROOT
BRANCH   1  15
HETATM   15  C   UNL     1      -8.287   3.148 -33.458  1.00  0.00     0.147 A 
HETATM   16  N   UNL     1      -7.830   2.034 -34.045  1.00  0.00    -0.162 NA
HETATM   17  N   UNL     1      -7.199   1.306 -33.072  1.00  0.00    -0.238 N 
HETATM   18  C   UNL     1      -7.285   1.960 -31.845  1.00  0.00     0.035 A 
HETATM   19  C   UNL     1      -7.994   3.121 -32.079  1.00  0.00     0.066 A 
HETATM   20  C   UNL     1      -6.727   1.518 -30.545  1.00  0.00     0.070 C 
BRANCH  17  21
HETATM   21  C   UNL     1      -6.580   0.067 -33.449  1.00  0.00     0.058 A 
HETATM   22  C   UNL     1      -7.364  -0.914 -34.085  1.00  0.00     0.032 A 
HETATM   23  C   UNL     1      -6.812  -2.134 -34.495  1.00  0.00     0.009 A 
HETATM   24  C   UNL     1      -5.463  -2.409 -34.270  1.00  0.00    -0.062 A 
HETATM   25  C   UNL     1      -4.848  -3.698 -34.726  1.00  0.00     0.048 C 
HETATM   26  C   UNL     1      -4.678  -1.442 -33.637  1.00  0.00     0.009 A 
HETATM   27  C   UNL     1      -5.229  -0.219 -33.228  1.00  0.00     0.032 A 
ENDBRANCH  17  21
ENDBRANCH   1  15
TORSDOF 2
ENDMDL
MODEL 7
REMARK VINA RESULT:      -8.5      2.173      2.905
REMARK  2 active torsions:
REMARK  status: ('A' for Active; 'I' for Inactive)
REMARK    1  A    between atoms: C_5  and  N_6 
REMARK    2  A    between atoms: C_8  and  C_9 
REMARK       I    between atoms: C_9  and  N_10 
ROOT
HETATM    1  C   UNL     1      -4.865   3.222 -31.304  1.00  0.00     0.279 C 
HETATM    2  N   UNL     1      -3.974   4.284 -31.592  1.00  0.00    -0.301 N 
HETATM    3  C   UNL     1      -4.364   5.667 -31.493  1.00  0.00     0.067 A 
HETATM    4  C   UNL     1      -3.387   6.672 -31.455  1.00  0.00     0.079 A 
HETATM    5  C   UNL     1      -3.786   8.001 -31.328  1.00  0.00     0.148 A 
HETATM    6  N   UNL     1      -5.071   8.402 -31.258  1.00  0.00    -0.271 NA
HETATM    7  C   UNL     1      -5.999   7.429 -31.320  1.00  0.00     0.118 A 
HETATM    8  C   UNL     1      -5.701   6.077 -31.440  1.00  0.00     0.051 A 
HETATM    9  N   UNL     1      -2.025   6.375 -31.516  1.00  0.00    -0.323 N 
HETATM   10  C   UNL     1      -1.547   5.114 -31.698  1.00  0.00     0.240 C 
HETATM   11  O   UNL     1      -0.334   4.918 -31.765  1.00  0.00    -0.271 OA
HETATM   12  C   UNL     1      -2.568   4.010 -31.920  1.00  0.00     0.235 C 
HETATM   13  O   UNL     1      -5.936   3.395 -30.717  1.00  0.00    -0.265 OA
HETATM   14  H   UNL     1      -1.330   7.105 -31.434  1.00  0.00     0.169 HD
ENDROOT
BRANCH   1  15
HETATM   15  C   UNL     1      -4.498   1.831 -31.671  1.00  0.00     0.147 A 
HETATM   16  N   UNL     1      -5.246   1.006 -32.416  1.00  0.00    -0.162 NA
HETATM   17  N   UNL     1      -4.555  -0.171 -32.516  1.00  0.00    -0.238 N 
HETATM   18  C   UNL     1      -3.364  -0.096 -31.798  1.00  0.00     0.035 A 
HETATM   19  C   UNL     1      -3.331   1.166 -31.240  1.00  0.00     0.066 A 
HETATM   20  C   UNL     1      -2.326  -1.145 -31.657  1.00  0.00     0.070 C 
BRANCH  17  21
HETATM   21  C   UNL     1      -5.127  -1.226 -33.304  1.00  0.00     0.058 A 
HETATM   22  C   UNL     1      -4.277  -2.232 -33.801  1.00  0.00     0.032 A 
HETATM   23  C   UNL     1      -4.778  -3.298 -34.559  1.00  0.00     0.009 A 
HETATM   24  C   UNL     1      -6.141  -3.380 -34.847  1.00  0.00    -0.062 A 
HETATM   25  C   UNL     1      -6.699  -4.528 -35.632  1.00  0.00     0.048 C 
HETATM   26  C   UNL     1      -6.990  -2.384 -34.360  1.00  0.00     0.009 A 
HETATM   27  C   UNL     1      -6.490  -1.317 -33.599  1.00  0.00     0.032 A 
ENDBRANCH  17  21
ENDBRANCH   1  15
TORSDOF 2
ENDMDL
MODEL 8
REMARK VINA RESULT:      -8.4      4.544      8.061
REMARK  2 active torsions:
REMARK  status: ('A' for Active; 'I' for Inactive)
REMARK    1  A    between atoms: C_5  and  N_6 
REMARK    2  A    between atoms: C_8  and  C_9 
REMARK       I    between atoms: C_9  and  N_10 
ROOT
HETATM    1  C   UNL     1      -7.895   0.447 -34.491  1.00  0.00     0.279 C 
HETATM    2  N   UNL     1      -6.970   0.067 -33.487  1.00  0.00    -0.301 N 
HETATM    3  C   UNL     1      -6.076  -1.050 -33.645  1.00  0.00     0.067 A 
HETATM    4  C   UNL     1      -4.967  -1.188 -32.799  1.00  0.00     0.079 A 
HETATM    5  C   UNL     1      -4.098  -2.260 -32.989  1.00  0.00     0.148 A 
HETATM    6  N   UNL     1      -4.259  -3.207 -33.935  1.00  0.00    -0.271 NA
HETATM    7  C   UNL     1      -5.342  -3.075 -34.725  1.00  0.00     0.118 A 
HETATM    8  C   UNL     1      -6.261  -2.040 -34.618  1.00  0.00     0.051 A 
HETATM    9  N   UNL     1      -4.697  -0.267 -31.786  1.00  0.00    -0.323 N 
HETATM   10  C   UNL     1      -5.519   0.776 -31.492  1.00  0.00     0.240 C 
HETATM   11  O   UNL     1      -5.238   1.544 -30.572  1.00  0.00    -0.271 OA
HETATM   12  C   UNL     1      -6.824   0.871 -32.265  1.00  0.00     0.235 C 
HETATM   13  O   UNL     1      -7.832   0.020 -35.647  1.00  0.00    -0.265 OA
HETATM   14  H   UNL     1      -3.864  -0.349 -31.217  1.00  0.00     0.169 HD
ENDROOT
BRANCH   1  15
HETATM   15  C   UNL     1      -8.962   1.430 -34.177  1.00  0.00     0.147 A 
HETATM   16  N   UNL     1     -10.233   1.123 -33.887  1.00  0.00    -0.162 NA
HETATM   17  N   UNL     1     -10.884   2.307 -33.665  1.00  0.00    -0.238 N 
HETATM   18  C   UNL     1     -10.013   3.380 -33.846  1.00  0.00     0.035 A 
HETATM   19  C   UNL     1      -8.796   2.831 -34.193  1.00  0.00     0.066 A 
HETATM   20  C   UNL     1     -10.314   4.823 -33.693  1.00  0.00     0.070 C 
BRANCH  17  21
HETATM   21  C   UNL     1     -12.269   2.257 -33.293  1.00  0.00     0.058 A 
HETATM   22  C   UNL     1     -12.762   3.223 -32.394  1.00  0.00     0.032 A 
HETATM   23  C   UNL     1     -14.108   3.239 -32.010  1.00  0.00     0.009 A 
HETATM   24  C   UNL     1     -14.995   2.284 -32.507  1.00  0.00    -0.062 A 
HETATM   25  C   UNL     1     -16.446   2.303 -32.129  1.00  0.00     0.048 C 
HETATM   26  C   UNL     1     -14.515   1.321 -33.397  1.00  0.00     0.009 A 
HETATM   27  C   UNL     1     -13.167   1.304 -33.784  1.00  0.00     0.032 A 
ENDBRANCH  17  21
ENDBRANCH   1  15
TORSDOF 2
ENDMDL
MODEL 9
REMARK VINA RESULT:      -8.3      4.153      7.922
REMARK  2 active torsions:
REMARK  status: ('A' for Active; 'I' for Inactive)
REMARK    1  A    between atoms: C_5  and  N_6 
REMARK    2  A    between atoms: C_8  and  C_9 
REMARK       I    between atoms: C_9  and  N_10 
ROOT
HETATM    1  C   UNL     1      -6.405   0.028 -34.337  1.00  0.00     0.279 C 
HETATM    2  N   UNL     1      -5.520  -0.664 -33.476  1.00  0.00    -0.301 N 
HETATM    3  C   UNL     1      -5.121  -2.027 -33.713  1.00  0.00     0.067 A 
HETATM    4  C   UNL     1      -4.006  -2.560 -33.050  1.00  0.00     0.079 A 
HETATM    5  C   UNL     1      -3.620  -3.871 -33.318  1.00  0.00     0.148 A 
HETATM    6  N   UNL     1      -4.266  -4.691 -34.171  1.00  0.00    -0.271 NA
HETATM    7  C   UNL     1      -5.349  -4.175 -34.782  1.00  0.00     0.118 A 
HETATM    8  C   UNL     1      -5.808  -2.878 -34.586  1.00  0.00     0.051 A 
HETATM    9  N   UNL     1      -3.259  -1.803 -32.147  1.00  0.00    -0.323 N 
HETATM   10  C   UNL     1      -3.594  -0.536 -31.783  1.00  0.00     0.240 C 
HETATM   11  O   UNL     1      -2.906   0.074 -30.964  1.00  0.00    -0.271 OA
HETATM   12  C   UNL     1      -4.891   0.026 -32.340  1.00  0.00     0.235 C 
HETATM   13  O   UNL     1      -6.696  -0.386 -35.462  1.00  0.00    -0.265 OA
HETATM   14  H   UNL     1      -2.425  -2.182 -31.716  1.00  0.00     0.169 HD
ENDROOT
BRANCH   1  15
HETATM   15  C   UNL     1      -6.983   1.328 -33.910  1.00  0.00     0.147 A 
HETATM   16  N   UNL     1      -8.157   1.481 -33.283  1.00  0.00    -0.162 NA
HETATM   17  N   UNL     1      -8.319   2.824 -33.073  1.00  0.00    -0.238 N 
HETATM   18  C   UNL     1      -7.241   3.531 -33.602  1.00  0.00     0.035 A 
HETATM   19  C   UNL     1      -6.399   2.588 -34.155  1.00  0.00     0.066 A 
HETATM   20  C   UNL     1      -7.022   4.997 -33.576  1.00  0.00     0.070 C 
BRANCH  17  21
HETATM   21  C   UNL     1      -9.494   3.262 -32.375  1.00  0.00     0.058 A 
HETATM   22  C   UNL     1     -10.710   3.339 -33.081  1.00  0.00     0.032 A 
HETATM   23  C   UNL     1     -11.893   3.740 -32.451  1.00  0.00     0.009 A 
HETATM   24  C   UNL     1     -11.891   4.085 -31.099  1.00  0.00    -0.062 A 
HETATM   25  C   UNL     1     -13.154   4.490 -30.400  1.00  0.00     0.048 C 
HETATM   26  C   UNL     1     -10.689   4.015 -30.391  1.00  0.00     0.009 A 
HETATM   27  C   UNL     1      -9.502   3.612 -31.021  1.00  0.00     0.032 A 
ENDBRANCH  17  21
ENDBRANCH   1  15
TORSDOF 2
ENDMDL
MODEL 10
REMARK VINA RESULT:      -8.3      3.135      4.131
REMARK  2 active torsions:
REMARK  status: ('A' for Active; 'I' for Inactive)
REMARK    1  A    between atoms: C_5  and  N_6 
REMARK    2  A    between atoms: C_8  and  C_9 
REMARK       I    between atoms: C_9  and  N_10 
ROOT
HETATM    1  C   UNL     1      -6.679   2.951 -30.826  1.00  0.00     0.279 C 
HETATM    2  N   UNL     1      -6.726   4.116 -31.630  1.00  0.00    -0.301 N 
HETATM    3  C   UNL     1      -7.641   5.197 -31.368  1.00  0.00     0.067 A 
HETATM    4  C   UNL     1      -7.436   6.451 -31.960  1.00  0.00     0.079 A 
HETATM    5  C   UNL     1      -8.316   7.491 -31.669  1.00  0.00     0.148 A 
HETATM    6  N   UNL     1      -9.387   7.371 -30.859  1.00  0.00    -0.271 NA
HETATM    7  C   UNL     1      -9.586   6.155 -30.316  1.00  0.00     0.118 A 
HETATM    8  C   UNL     1      -8.762   5.060 -30.541  1.00  0.00     0.051 A 
HETATM    9  N   UNL     1      -6.359   6.693 -32.813  1.00  0.00    -0.323 N 
HETATM   10  C   UNL     1      -5.483   5.725 -33.198  1.00  0.00     0.240 C 
HETATM   11  O   UNL     1      -4.565   5.995 -33.971  1.00  0.00    -0.271 OA
HETATM   12  C   UNL     1      -5.763   4.308 -32.723  1.00  0.00     0.235 C 
HETATM   13  O   UNL     1      -7.224   2.884 -29.722  1.00  0.00    -0.265 OA
HETATM   14  H   UNL     1      -6.192   7.616 -33.191  1.00  0.00     0.169 HD
ENDROOT
BRANCH   1  15
HETATM   15  C   UNL     1      -5.910   1.768 -31.288  1.00  0.00     0.147 A 
HETATM   16  N   UNL     1      -6.379   0.813 -32.103  1.00  0.00    -0.162 NA
HETATM   17  N   UNL     1      -5.365  -0.089 -32.277  1.00  0.00    -0.238 N 
HETATM   18  C   UNL     1      -4.247   0.289 -31.536  1.00  0.00     0.035 A 
HETATM   19  C   UNL     1      -4.594   1.456 -30.888  1.00  0.00     0.066 A 
HETATM   20  C   UNL     1      -2.939  -0.405 -31.456  1.00  0.00     0.070 C 
BRANCH  17  21
HETATM   21  C   UNL     1      -5.595  -1.205 -33.150  1.00  0.00     0.058 A 
HETATM   22  C   UNL     1      -4.515  -2.054 -33.460  1.00  0.00     0.032 A 
HETATM   23  C   UNL     1      -4.682  -3.170 -34.288  1.00  0.00     0.009 A 
HETATM   24  C   UNL     1      -5.931  -3.462 -34.836  1.00  0.00    -0.062 A 
HETATM   25  C   UNL     1      -6.135  -4.669 -35.703  1.00  0.00     0.048 C 
HETATM   26  C   UNL     1      -7.008  -2.624 -34.537  1.00  0.00     0.009 A 
HETATM   27  C   UNL     1      -6.843  -1.506 -33.706  1.00  0.00     0.032 A 
ENDBRANCH  17  21
ENDBRANCH   1  15
TORSDOF 2
ENDMDL
