MODEL 1
REMARK VINA RESULT:      -9.0      0.000      0.000
REMARK  3 active torsions:
REMARK  status: ('A' for Active; 'I' for Inactive)
REMARK    1  A    between atoms: C_2  and  C_3 
REMARK    2  A    between atoms: C_11  and  C_12 
REMARK    3  A    between atoms: C_12  and  C_13 
ROOT
HETATM    1  C   UNL     1      -5.018  -3.135 -34.404  1.00  0.00     0.041 A 
HETATM    2  N   UNL     1      -5.585  -1.905 -34.404  1.00  0.00    -0.245 NA
HETATM    3  C   UNL     1      -5.068  -1.032 -33.519  1.00  0.00     0.111 A 
HETATM    4  C   UNL     1      -4.035  -1.273 -32.625  1.00  0.00     0.028 A 
HETATM    5  C   UNL     1      -3.481  -2.571 -32.644  1.00  0.00     0.025 A 
HETATM    6  C   UNL     1      -3.983  -3.523 -33.542  1.00  0.00    -0.036 A 
HETATM    7  C   UNL     1      -3.373  -4.893 -33.571  1.00  0.00     0.050 C 
HETATM    8  S   UNL     1      -5.666   0.559 -33.417  1.00  0.00    -0.063 SA
HETATM    9  C   UNL     1      -4.579   0.967 -32.156  1.00  0.00     0.085 A 
HETATM   10  C   UNL     1      -3.748  -0.098 -31.858  1.00  0.00     0.060 A 
HETATM   11  N   UNL     1      -2.765  -0.031 -30.926  1.00  0.00    -0.397 N 
HETATM   12  H   UNL     1      -2.461   0.893 -30.603  1.00  0.00     0.156 HD
HETATM   13  H   UNL     1      -2.007  -0.706 -30.917  1.00  0.00     0.156 HD
ENDROOT
BRANCH   9  14
HETATM   14  C   UNL     1      -4.526   2.307 -31.591  1.00  0.00     0.201 C 
HETATM   15  O   UNL     1      -4.881   2.549 -30.434  1.00  0.00    -0.286 OA
BRANCH  14  16
HETATM   16  C   UNL     1      -4.076   3.474 -32.398  1.00  0.00     0.018 A 
HETATM   17  C   UNL     1      -2.712   3.803 -32.384  1.00  0.00     0.055 A 
HETATM   18  C   UNL     1      -2.316   4.923 -33.081  1.00  0.00     0.106 A 
HETATM   19  C   UNL     1      -3.214   5.708 -33.767  1.00  0.00     0.105 A 
HETATM   20  O   UNL     1      -1.043   5.394 -33.172  1.00  0.00    -0.323 OA
HETATM   21  O   UNL     1      -2.618   6.768 -34.374  1.00  0.00    -0.323 OA
HETATM   22  C   UNL     1      -4.561   5.418 -33.793  1.00  0.00     0.040 A 
HETATM   23  C   UNL     1      -1.244   6.574 -33.977  1.00  0.00     0.352 A 
HETATM   24  C   UNL     1      -4.999   4.291 -33.089  1.00  0.00     0.018 A 
ENDBRANCH  14  16
ENDBRANCH   9  14
BRANCH   1  25
HETATM   25  C   UNL     1      -5.611  -4.093 -35.412  1.00  0.00     0.055 C 
HETATM   26  C   UNL     1      -7.053  -4.444 -35.080  1.00  0.00     0.011 C 
ENDBRANCH   1  25
TORSDOF 3
ENDMDL
MODEL 2
REMARK VINA RESULT:      -8.9      1.415      2.601
REMARK  3 active torsions:
REMARK  status: ('A' for Active; 'I' for Inactive)
REMARK    1  A    between atoms: C_2  and  C_3 
REMARK    2  A    between atoms: C_11  and  C_12 
REMARK    3  A    between atoms: C_12  and  C_13 
ROOT
HETATM    1  C   UNL     1      -4.771  -3.235 -34.226  1.00  0.00     0.041 A 
HETATM    2  N   UNL     1      -4.126  -2.226 -33.593  1.00  0.00    -0.245 NA
HETATM    3  C   UNL     1      -4.830  -1.086 -33.458  1.00  0.00     0.111 A 
HETATM    4  C   UNL     1      -6.124  -0.855 -33.902  1.00  0.00     0.028 A 
HETATM    5  C   UNL     1      -6.756  -1.924 -34.571  1.00  0.00     0.025 A 
HETATM    6  C   UNL     1      -6.069  -3.133 -34.744  1.00  0.00    -0.036 A 
HETATM    7  C   UNL     1      -6.758  -4.272 -35.438  1.00  0.00     0.050 C 
HETATM    8  S   UNL     1      -4.157   0.262 -32.666  1.00  0.00    -0.063 SA
HETATM    9  C   UNL     1      -5.565   1.207 -32.915  1.00  0.00     0.085 A 
HETATM   10  C   UNL     1      -6.544   0.471 -33.560  1.00  0.00     0.060 A 
HETATM   11  N   UNL     1      -7.775   0.965 -33.842  1.00  0.00    -0.397 N 
HETATM   12  H   UNL     1      -8.083   1.813 -33.358  1.00  0.00     0.156 HD
HETATM   13  H   UNL     1      -8.550   0.346 -34.056  1.00  0.00     0.156 HD
ENDROOT
BRANCH   9  14
HETATM   14  C   UNL     1      -5.683   2.562 -32.399  1.00  0.00     0.201 C 
HETATM   15  O   UNL     1      -6.736   2.998 -31.924  1.00  0.00    -0.286 OA
BRANCH  14  16
HETATM   16  C   UNL     1      -4.544   3.518 -32.457  1.00  0.00     0.018 A 
HETATM   17  C   UNL     1      -4.499   4.432 -33.522  1.00  0.00     0.055 A 
HETATM   18  C   UNL     1      -3.408   5.269 -33.603  1.00  0.00     0.106 A 
HETATM   19  C   UNL     1      -2.385   5.220 -32.685  1.00  0.00     0.105 A 
HETATM   20  O   UNL     1      -3.196   6.206 -34.566  1.00  0.00    -0.323 OA
HETATM   21  O   UNL     1      -1.403   6.119 -32.956  1.00  0.00    -0.323 OA
HETATM   22  C   UNL     1      -2.393   4.328 -31.634  1.00  0.00     0.040 A 
HETATM   23  C   UNL     1      -1.914   6.729 -34.160  1.00  0.00     0.352 A 
HETATM   24  C   UNL     1      -3.484   3.459 -31.525  1.00  0.00     0.018 A 
ENDBRANCH  14  16
ENDBRANCH   9  14
BRANCH   1  25
HETATM   25  C   UNL     1      -3.962  -4.505 -34.357  1.00  0.00     0.055 C 
HETATM   26  C   UNL     1      -3.283  -4.882 -33.050  1.00  0.00     0.011 C 
ENDBRANCH   1  25
TORSDOF 3
ENDMDL
MODEL 3
REMARK VINA RESULT:      -8.7      5.275      6.894
REMARK  3 active torsions:
REMARK  status: ('A' for Active; 'I' for Inactive)
REMARK    1  A    between atoms: C_2  and  C_3 
REMARK    2  A    between atoms: C_11  and  C_12 
REMARK    3  A    between atoms: C_12  and  C_13 
ROOT
HETATM    1  C   UNL     1      -4.969  -2.302 -34.117  1.00  0.00     0.041 A 
HETATM    2  N   UNL     1      -5.990  -1.760 -34.823  1.00  0.00    -0.245 NA
HETATM    3  C   UNL     1      -6.523  -0.639 -34.299  1.00  0.00     0.111 A 
HETATM    4  C   UNL     1      -6.133  -0.007 -33.127  1.00  0.00     0.028 A 
HETATM    5  C   UNL     1      -5.076  -0.610 -32.412  1.00  0.00     0.025 A 
HETATM    6  C   UNL     1      -4.487  -1.781 -32.908  1.00  0.00    -0.036 A 
HETATM    7  C   UNL     1      -3.350  -2.403 -32.152  1.00  0.00     0.050 C 
HETATM    8  S   UNL     1      -7.801   0.165 -35.085  1.00  0.00    -0.063 SA
HETATM    9  C   UNL     1      -7.890   1.370 -33.870  1.00  0.00     0.085 A 
HETATM   10  C   UNL     1      -6.919   1.169 -32.904  1.00  0.00     0.060 A 
HETATM   11  N   UNL     1      -6.740   2.003 -31.850  1.00  0.00    -0.397 N 
HETATM   12  H   UNL     1      -7.163   2.936 -31.888  1.00  0.00     0.156 HD
HETATM   13  H   UNL     1      -5.874   1.999 -31.321  1.00  0.00     0.156 HD
ENDROOT
BRANCH   9  14
HETATM   14  C   UNL     1      -8.821   2.485 -33.959  1.00  0.00     0.201 C 
HETATM   15  O   UNL     1      -8.465   3.656 -33.796  1.00  0.00    -0.286 OA
BRANCH  14  16
HETATM   16  C   UNL     1     -10.272   2.268 -34.210  1.00  0.00     0.018 A 
HETATM   17  C   UNL     1     -10.899   1.182 -33.580  1.00  0.00     0.055 A 
HETATM   18  C   UNL     1     -12.226   0.951 -33.869  1.00  0.00     0.106 A 
HETATM   19  C   UNL     1     -12.926   1.744 -34.749  1.00  0.00     0.105 A 
HETATM   20  O   UNL     1     -12.986  -0.054 -33.360  1.00  0.00    -0.323 OA
HETATM   21  O   UNL     1     -14.213   1.336 -34.902  1.00  0.00    -0.323 OA
HETATM   22  C   UNL     1     -12.338   2.811 -35.393  1.00  0.00     0.040 A 
HETATM   23  C   UNL     1     -14.240   0.184 -34.032  1.00  0.00     0.352 A 
HETATM   24  C   UNL     1     -10.989   3.071 -35.126  1.00  0.00     0.018 A 
ENDBRANCH  14  16
ENDBRANCH   9  14
BRANCH   1  25
HETATM   25  C   UNL     1      -4.384  -3.553 -34.731  1.00  0.00     0.055 C 
HETATM   26  C   UNL     1      -5.277  -4.763 -34.509  1.00  0.00     0.011 C 
ENDBRANCH   1  25
TORSDOF 3
ENDMDL
MODEL 4
REMARK VINA RESULT:      -8.0      2.873      4.260
REMARK  3 active torsions:
REMARK  status: ('A' for Active; 'I' for Inactive)
REMARK    1  A    between atoms: C_2  and  C_3 
REMARK    2  A    between atoms: C_11  and  C_12 
REMARK    3  A    between atoms: C_12  and  C_13 
ROOT
HETATM    1  C   UNL     1      -4.702  -2.909 -33.858  1.00  0.00     0.041 A 
HETATM    2  N   UNL     1      -4.353  -1.745 -33.260  1.00  0.00    -0.245 NA
HETATM    3  C   UNL     1      -5.166  -0.700 -33.511  1.00  0.00     0.111 A 
HETATM    4  C   UNL     1      -6.299  -0.707 -34.312  1.00  0.00     0.028 A 
HETATM    5  C   UNL     1      -6.620  -1.933 -34.931  1.00  0.00     0.025 A 
HETATM    6  C   UNL     1      -5.807  -3.053 -34.709  1.00  0.00    -0.036 A 
HETATM    7  C   UNL     1      -6.170  -4.359 -35.354  1.00  0.00     0.050 C 
HETATM    8  S   UNL     1      -4.864   0.822 -32.812  1.00  0.00    -0.063 SA
HETATM    9  C   UNL     1      -6.225   1.528 -33.580  1.00  0.00     0.085 A 
HETATM   10  C   UNL     1      -6.914   0.586 -34.324  1.00  0.00     0.060 A 
HETATM   11  N   UNL     1      -8.055   0.868 -35.000  1.00  0.00    -0.397 N 
HETATM   12  H   UNL     1      -8.562   1.728 -34.765  1.00  0.00     0.156 HD
HETATM   13  H   UNL     1      -8.681   0.128 -35.300  1.00  0.00     0.156 HD
ENDROOT
BRANCH   9  14
HETATM   14  C   UNL     1      -6.603   2.914 -33.353  1.00  0.00     0.201 C 
HETATM   15  O   UNL     1      -6.755   3.716 -34.279  1.00  0.00    -0.286 OA
BRANCH  14  16
HETATM   16  C   UNL     1      -6.786   3.456 -31.978  1.00  0.00     0.018 A 
HETATM   17  C   UNL     1      -5.942   4.496 -31.559  1.00  0.00     0.055 A 
HETATM   18  C   UNL     1      -6.075   4.947 -30.264  1.00  0.00     0.106 A 
HETATM   19  C   UNL     1      -6.993   4.402 -29.396  1.00  0.00     0.105 A 
HETATM   20  O   UNL     1      -5.341   5.936 -29.687  1.00  0.00    -0.323 OA
HETATM   21  O   UNL     1      -6.951   4.981 -28.167  1.00  0.00    -0.323 OA
HETATM   22  C   UNL     1      -7.829   3.373 -29.773  1.00  0.00     0.040 A 
HETATM   23  C   UNL     1      -5.889   5.940 -28.353  1.00  0.00     0.352 A 
HETATM   24  C   UNL     1      -7.716   2.887 -31.080  1.00  0.00     0.018 A 
ENDBRANCH  14  16
ENDBRANCH   9  14
BRANCH   1  25
HETATM   25  C   UNL     1      -3.779  -4.066 -33.553  1.00  0.00     0.055 C 
HETATM   26  C   UNL     1      -3.105  -3.911 -32.200  1.00  0.00     0.011 C 
ENDBRANCH   1  25
TORSDOF 3
ENDMDL
MODEL 5
REMARK VINA RESULT:      -8.0      3.755      5.534
REMARK  3 active torsions:
REMARK  status: ('A' for Active; 'I' for Inactive)
REMARK    1  A    between atoms: C_2  and  C_3 
REMARK    2  A    between atoms: C_11  and  C_12 
REMARK    3  A    between atoms: C_12  and  C_13 
ROOT
HETATM    1  C   UNL     1      -4.732  -2.966 -33.930  1.00  0.00     0.041 A 
HETATM    2  N   UNL     1      -4.446  -1.762 -33.380  1.00  0.00    -0.245 NA
HETATM    3  C   UNL     1      -5.321  -0.777 -33.662  1.00  0.00     0.111 A 
HETATM    4  C   UNL     1      -6.459  -0.881 -34.448  1.00  0.00     0.028 A 
HETATM    5  C   UNL     1      -6.714  -2.147 -35.016  1.00  0.00     0.025 A 
HETATM    6  C   UNL     1      -5.835  -3.208 -34.761  1.00  0.00    -0.036 A 
HETATM    7  C   UNL     1      -6.126  -4.557 -35.351  1.00  0.00     0.050 C 
HETATM    8  S   UNL     1      -5.103   0.787 -33.025  1.00  0.00    -0.063 SA
HETATM    9  C   UNL     1      -6.510   1.381 -33.803  1.00  0.00     0.085 A 
HETATM   10  C   UNL     1      -7.150   0.372 -34.502  1.00  0.00     0.060 A 
HETATM   11  N   UNL     1      -8.313   0.560 -35.175  1.00  0.00    -0.397 N 
HETATM   12  H   UNL     1      -8.866   1.398 -34.967  1.00  0.00     0.156 HD
HETATM   13  H   UNL     1      -8.897  -0.226 -35.439  1.00  0.00     0.156 HD
ENDROOT
BRANCH   9  14
HETATM   14  C   UNL     1      -6.967   2.751 -33.625  1.00  0.00     0.201 C 
HETATM   15  O   UNL     1      -6.391   3.711 -34.144  1.00  0.00    -0.286 OA
BRANCH  14  16
HETATM   16  C   UNL     1      -8.138   3.075 -32.765  1.00  0.00     0.018 A 
HETATM   17  C   UNL     1      -9.098   3.969 -33.263  1.00  0.00     0.055 A 
HETATM   18  C   UNL     1     -10.144   4.313 -32.435  1.00  0.00     0.106 A 
HETATM   19  C   UNL     1     -10.255   3.812 -31.158  1.00  0.00     0.105 A 
HETATM   20  O   UNL     1     -11.156   5.167 -32.746  1.00  0.00    -0.323 OA
HETATM   21  O   UNL     1     -11.350   4.288 -30.509  1.00  0.00    -0.323 OA
HETATM   22  C   UNL     1      -9.325   2.940 -30.636  1.00  0.00     0.040 A 
HETATM   23  C   UNL     1     -11.907   5.161 -31.514  1.00  0.00     0.352 A 
HETATM   24  C   UNL     1      -8.246   2.574 -31.448  1.00  0.00     0.018 A 
ENDBRANCH  14  16
ENDBRANCH   9  14
BRANCH   1  25
HETATM   25  C   UNL     1      -3.740  -4.055 -33.592  1.00  0.00     0.055 C 
HETATM   26  C   UNL     1      -3.112  -3.845 -32.223  1.00  0.00     0.011 C 
ENDBRANCH   1  25
TORSDOF 3
ENDMDL
MODEL 6
REMARK VINA RESULT:      -7.9      5.167      7.838
REMARK  3 active torsions:
REMARK  status: ('A' for Active; 'I' for Inactive)
REMARK    1  A    between atoms: C_2  and  C_3 
REMARK    2  A    between atoms: C_11  and  C_12 
REMARK    3  A    between atoms: C_12  and  C_13 
ROOT
HETATM    1  C   UNL     1     -12.229   2.056 -34.060  1.00  0.00     0.041 A 
HETATM    2  N   UNL     1     -11.475   1.033 -33.589  1.00  0.00    -0.245 NA
HETATM    3  C   UNL     1     -10.146   1.248 -33.591  1.00  0.00     0.111 A 
HETATM    4  C   UNL     1      -9.493   2.393 -34.025  1.00  0.00     0.028 A 
HETATM    5  C   UNL     1     -10.311   3.429 -34.523  1.00  0.00     0.025 A 
HETATM    6  C   UNL     1     -11.702   3.259 -34.550  1.00  0.00    -0.036 A 
HETATM    7  C   UNL     1     -12.565   4.375 -35.061  1.00  0.00     0.050 C 
HETATM    8  S   UNL     1      -9.073   0.061 -33.010  1.00  0.00    -0.063 SA
HETATM    9  C   UNL     1      -7.700   1.030 -33.345  1.00  0.00     0.085 A 
HETATM   10  C   UNL     1      -8.078   2.260 -33.855  1.00  0.00     0.060 A 
HETATM   11  N   UNL     1      -7.189   3.236 -34.167  1.00  0.00    -0.397 N 
HETATM   12  H   UNL     1      -6.237   3.166 -33.794  1.00  0.00     0.156 HD
HETATM   13  H   UNL     1      -7.487   4.200 -34.271  1.00  0.00     0.156 HD
ENDROOT
BRANCH   9  14
HETATM   14  C   UNL     1      -6.351   0.593 -33.016  1.00  0.00     0.201 C 
HETATM   15  O   UNL     1      -5.546   1.323 -32.431  1.00  0.00    -0.286 OA
BRANCH  14  16
HETATM   16  C   UNL     1      -5.853  -0.753 -33.410  1.00  0.00     0.018 A 
HETATM   17  C   UNL     1      -4.808  -1.317 -32.661  1.00  0.00     0.055 A 
HETATM   18  C   UNL     1      -4.309  -2.534 -33.072  1.00  0.00     0.106 A 
HETATM   19  C   UNL     1      -4.802  -3.185 -34.179  1.00  0.00     0.105 A 
HETATM   20  O   UNL     1      -3.298  -3.220 -32.475  1.00  0.00    -0.323 OA
HETATM   21  O   UNL     1      -4.163  -4.361 -34.416  1.00  0.00    -0.323 OA
HETATM   22  C   UNL     1      -5.820  -2.654 -34.941  1.00  0.00     0.040 A 
HETATM   23  C   UNL     1      -3.198  -4.368 -33.342  1.00  0.00     0.352 A 
HETATM   24  C   UNL     1      -6.346  -1.416 -34.556  1.00  0.00     0.018 A 
ENDBRANCH  14  16
ENDBRANCH   9  14
BRANCH   1  25
HETATM   25  C   UNL     1     -13.717   1.792 -34.040  1.00  0.00     0.055 C 
HETATM   26  C   UNL     1     -14.028   0.307 -33.949  1.00  0.00     0.011 C 
ENDBRANCH   1  25
TORSDOF 3
ENDMDL
MODEL 7
REMARK VINA RESULT:      -7.6      4.954      8.418
REMARK  3 active torsions:
REMARK  status: ('A' for Active; 'I' for Inactive)
REMARK    1  A    between atoms: C_2  and  C_3 
REMARK    2  A    between atoms: C_11  and  C_12 
REMARK    3  A    between atoms: C_12  and  C_13 
ROOT
HETATM    1  C   UNL     1     -10.274   5.188 -35.031  1.00  0.00     0.041 A 
HETATM    2  N   UNL     1      -9.045   4.885 -34.549  1.00  0.00    -0.245 NA
HETATM    3  C   UNL     1      -8.945   3.691 -33.933  1.00  0.00     0.111 A 
HETATM    4  C   UNL     1      -9.965   2.768 -33.747  1.00  0.00     0.028 A 
HETATM    5  C   UNL     1     -11.234   3.128 -34.248  1.00  0.00     0.025 A 
HETATM    6  C   UNL     1     -11.397   4.361 -34.895  1.00  0.00    -0.036 A 
HETATM    7  C   UNL     1     -12.745   4.725 -35.444  1.00  0.00     0.050 C 
HETATM    8  S   UNL     1      -7.458   3.165 -33.295  1.00  0.00    -0.063 SA
HETATM    9  C   UNL     1      -8.136   1.697 -32.726  1.00  0.00     0.085 A 
HETATM   10  C   UNL     1      -9.474   1.608 -33.066  1.00  0.00     0.060 A 
HETATM   11  N   UNL     1     -10.242   0.529 -32.774  1.00  0.00    -0.397 N 
HETATM   12  H   UNL     1      -9.775  -0.346 -32.515  1.00  0.00     0.156 HD
HETATM   13  H   UNL     1     -11.117   0.363 -33.259  1.00  0.00     0.156 HD
ENDROOT
BRANCH   9  14
HETATM   14  C   UNL     1      -7.328   0.680 -32.069  1.00  0.00     0.201 C 
HETATM   15  O   UNL     1      -7.236   0.603 -30.841  1.00  0.00    -0.286 OA
BRANCH  14  16
HETATM   16  C   UNL     1      -6.528  -0.302 -32.851  1.00  0.00     0.018 A 
HETATM   17  C   UNL     1      -7.212  -1.326 -33.525  1.00  0.00     0.055 A 
HETATM   18  C   UNL     1      -6.460  -2.268 -34.192  1.00  0.00     0.106 A 
HETATM   19  C   UNL     1      -5.085  -2.226 -34.202  1.00  0.00     0.105 A 
HETATM   20  O   UNL     1      -6.950  -3.328 -34.889  1.00  0.00    -0.323 OA
HETATM   21  O   UNL     1      -4.540  -3.253 -34.906  1.00  0.00    -0.323 OA
HETATM   22  C   UNL     1      -4.383  -1.240 -33.542  1.00  0.00     0.040 A 
HETATM   23  C   UNL     1      -5.728  -3.959 -35.323  1.00  0.00     0.352 A 
HETATM   24  C   UNL     1      -5.115  -0.271 -32.849  1.00  0.00     0.018 A 
ENDBRANCH  14  16
ENDBRANCH   9  14
BRANCH   1  25
HETATM   25  C   UNL     1     -10.356   6.529 -35.725  1.00  0.00     0.055 C 
HETATM   26  C   UNL     1     -10.639   7.657 -34.745  1.00  0.00     0.011 C 
ENDBRANCH   1  25
TORSDOF 3
ENDMDL
MODEL 8
REMARK VINA RESULT:      -7.5      4.825      7.975
REMARK  3 active torsions:
REMARK  status: ('A' for Active; 'I' for Inactive)
REMARK    1  A    between atoms: C_2  and  C_3 
REMARK    2  A    between atoms: C_11  and  C_12 
REMARK    3  A    between atoms: C_12  and  C_13 
ROOT
HETATM    1  C   UNL     1     -11.104   3.145 -33.588  1.00  0.00     0.041 A 
HETATM    2  N   UNL     1     -10.207   2.503 -34.374  1.00  0.00    -0.245 NA
HETATM    3  C   UNL     1      -9.129   2.009 -33.735  1.00  0.00     0.111 A 
HETATM    4  C   UNL     1      -8.859   2.100 -32.377  1.00  0.00     0.028 A 
HETATM    5  C   UNL     1      -9.809   2.790 -31.594  1.00  0.00     0.025 A 
HETATM    6  C   UNL     1     -10.948   3.329 -32.208  1.00  0.00    -0.036 A 
HETATM    7  C   UNL     1     -11.963   4.042 -31.364  1.00  0.00     0.050 C 
HETATM    8  S   UNL     1      -7.926   1.160 -34.589  1.00  0.00    -0.063 SA
HETATM    9  C   UNL     1      -6.992   0.910 -33.174  1.00  0.00     0.085 A 
HETATM   10  C   UNL     1      -7.628   1.439 -32.064  1.00  0.00     0.060 A 
HETATM   11  N   UNL     1      -7.126   1.342 -30.808  1.00  0.00    -0.397 N 
HETATM   12  H   UNL     1      -6.386   0.655 -30.630  1.00  0.00     0.156 HD
HETATM   13  H   UNL     1      -7.718   1.482 -29.996  1.00  0.00     0.156 HD
ENDROOT
BRANCH   9  14
HETATM   14  C   UNL     1      -5.754   0.146 -33.195  1.00  0.00     0.201 C 
HETATM   15  O   UNL     1      -4.663   0.650 -32.911  1.00  0.00    -0.286 OA
BRANCH  14  16
HETATM   16  C   UNL     1      -5.730  -1.285 -33.605  1.00  0.00     0.018 A 
HETATM   17  C   UNL     1      -4.563  -2.025 -33.358  1.00  0.00     0.055 A 
HETATM   18  C   UNL     1      -4.526  -3.329 -33.800  1.00  0.00     0.106 A 
HETATM   19  C   UNL     1      -5.584  -3.901 -34.467  1.00  0.00     0.105 A 
HETATM   20  O   UNL     1      -3.481  -4.187 -33.655  1.00  0.00    -0.323 OA
HETATM   21  O   UNL     1      -5.337  -5.188 -34.825  1.00  0.00    -0.323 OA
HETATM   22  C   UNL     1      -6.740  -3.199 -34.734  1.00  0.00     0.040 A 
HETATM   23  C   UNL     1      -3.994  -5.358 -34.324  1.00  0.00     0.352 A 
HETATM   24  C   UNL     1      -6.809  -1.869 -34.305  1.00  0.00     0.018 A 
ENDBRANCH  14  16
ENDBRANCH   9  14
BRANCH   1  25
HETATM   25  C   UNL     1     -12.308   3.682 -34.329  1.00  0.00     0.055 C 
HETATM   26  C   UNL     1     -12.335   3.218 -35.776  1.00  0.00     0.011 C 
ENDBRANCH   1  25
TORSDOF 3
ENDMDL
MODEL 9
REMARK VINA RESULT:      -7.5      2.973      7.750
REMARK  3 active torsions:
REMARK  status: ('A' for Active; 'I' for Inactive)
REMARK    1  A    between atoms: C_2  and  C_3 
REMARK    2  A    between atoms: C_11  and  C_12 
REMARK    3  A    between atoms: C_12  and  C_13 
ROOT
HETATM    1  C   UNL     1      -2.371   6.537 -32.245  1.00  0.00     0.041 A 
HETATM    2  N   UNL     1      -3.648   6.169 -32.504  1.00  0.00    -0.245 NA
HETATM    3  C   UNL     1      -3.946   4.885 -32.230  1.00  0.00     0.111 A 
HETATM    4  C   UNL     1      -3.082   3.925 -31.721  1.00  0.00     0.028 A 
HETATM    5  C   UNL     1      -1.756   4.342 -31.479  1.00  0.00     0.025 A 
HETATM    6  C   UNL     1      -1.389   5.668 -31.751  1.00  0.00    -0.036 A 
HETATM    7  C   UNL     1       0.018   6.108 -31.470  1.00  0.00     0.050 C 
HETATM    8  S   UNL     1      -5.518   4.283 -32.486  1.00  0.00    -0.063 SA
HETATM    9  C   UNL     1      -5.086   2.714 -31.950  1.00  0.00     0.085 A 
HETATM   10  C   UNL     1      -3.764   2.679 -31.543  1.00  0.00     0.060 A 
HETATM   11  N   UNL     1      -3.176   1.568 -31.034  1.00  0.00    -0.397 N 
HETATM   12  H   UNL     1      -3.776   0.803 -30.710  1.00  0.00     0.156 HD
HETATM   13  H   UNL     1      -2.317   1.630 -30.497  1.00  0.00     0.156 HD
ENDROOT
BRANCH   9  14
HETATM   14  C   UNL     1      -6.059   1.635 -31.865  1.00  0.00     0.201 C 
HETATM   15  O   UNL     1      -6.925   1.596 -30.986  1.00  0.00    -0.286 OA
BRANCH  14  16
HETATM   16  C   UNL     1      -6.035   0.489 -32.815  1.00  0.00     0.018 A 
HETATM   17  C   UNL     1      -5.164  -0.578 -32.543  1.00  0.00     0.055 A 
HETATM   18  C   UNL     1      -5.102  -1.603 -33.461  1.00  0.00     0.106 A 
HETATM   19  C   UNL     1      -5.855  -1.595 -34.613  1.00  0.00     0.105 A 
HETATM   20  O   UNL     1      -4.313  -2.707 -33.367  1.00  0.00    -0.323 OA
HETATM   21  O   UNL     1      -5.633  -2.691 -35.384  1.00  0.00    -0.323 OA
HETATM   22  C   UNL     1      -6.712  -0.558 -34.914  1.00  0.00     0.040 A 
HETATM   23  C   UNL     1      -4.641  -3.384 -34.598  1.00  0.00     0.352 A 
HETATM   24  C   UNL     1      -6.795   0.503 -34.006  1.00  0.00     0.018 A 
ENDBRANCH  14  16
ENDBRANCH   9  14
BRANCH   1  25
HETATM   25  C   UNL     1      -2.066   7.985 -32.554  1.00  0.00     0.055 C 
HETATM   26  C   UNL     1      -2.377   8.893 -31.375  1.00  0.00     0.011 C 
ENDBRANCH   1  25
TORSDOF 3
ENDMDL
MODEL 10
REMARK VINA RESULT:      -7.4      3.591      7.849
REMARK  3 active torsions:
REMARK  status: ('A' for Active; 'I' for Inactive)
REMARK    1  A    between atoms: C_2  and  C_3 
REMARK    2  A    between atoms: C_11  and  C_12 
REMARK    3  A    between atoms: C_12  and  C_13 
ROOT
HETATM    1  C   UNL     1      -4.127   6.231 -31.476  1.00  0.00     0.041 A 
HETATM    2  N   UNL     1      -4.541   5.348 -32.416  1.00  0.00    -0.245 NA
HETATM    3  C   UNL     1      -5.306   4.337 -31.961  1.00  0.00     0.111 A 
HETATM    4  C   UNL     1      -5.696   4.121 -30.647  1.00  0.00     0.028 A 
HETATM    5  C   UNL     1      -5.232   5.054 -29.695  1.00  0.00     0.025 A 
HETATM    6  C   UNL     1      -4.428   6.124 -30.112  1.00  0.00    -0.036 A 
HETATM    7  C   UNL     1      -3.958   7.123 -29.095  1.00  0.00     0.050 C 
HETATM    8  S   UNL     1      -5.916   3.160 -33.029  1.00  0.00    -0.063 SA
HETATM    9  C   UNL     1      -6.699   2.310 -31.763  1.00  0.00     0.085 A 
HETATM   10  C   UNL     1      -6.522   2.955 -30.553  1.00  0.00     0.060 A 
HETATM   11  N   UNL     1      -7.073   2.518 -29.393  1.00  0.00    -0.397 N 
HETATM   12  H   UNL     1      -7.838   1.837 -29.443  1.00  0.00     0.156 HD
HETATM   13  H   UNL     1      -7.164   3.134 -28.592  1.00  0.00     0.156 HD
ENDROOT
BRANCH   9  14
HETATM   14  C   UNL     1      -7.511   1.129 -32.018  1.00  0.00     0.201 C 
HETATM   15  O   UNL     1      -8.620   0.968 -31.502  1.00  0.00    -0.286 OA
BRANCH  14  16
HETATM   16  C   UNL     1      -7.024   0.023 -32.887  1.00  0.00     0.018 A 
HETATM   17  C   UNL     1      -5.833  -0.627 -32.527  1.00  0.00     0.055 A 
HETATM   18  C   UNL     1      -5.356  -1.605 -33.372  1.00  0.00     0.106 A 
HETATM   19  C   UNL     1      -6.008  -1.941 -34.536  1.00  0.00     0.105 A 
HETATM   20  O   UNL     1      -4.220  -2.329 -33.187  1.00  0.00    -0.323 OA
HETATM   21  O   UNL     1      -5.363  -2.918 -35.227  1.00  0.00    -0.323 OA
HETATM   22  C   UNL     1      -7.173  -1.316 -34.923  1.00  0.00     0.040 A 
HETATM   23  C   UNL     1      -4.220  -3.147 -34.376  1.00  0.00     0.352 A 
HETATM   24  C   UNL     1      -7.683  -0.313 -34.091  1.00  0.00     0.018 A 
ENDBRANCH  14  16
ENDBRANCH   9  14
BRANCH   1  25
HETATM   25  C   UNL     1      -3.277   7.360 -32.015  1.00  0.00     0.055 C 
HETATM   26  C   UNL     1      -2.394   6.904 -33.165  1.00  0.00     0.011 C 
ENDBRANCH   1  25
TORSDOF 3
ENDMDL
