MODEL 1
REMARK VINA RESULT:      -9.3      0.000      0.000
REMARK  2 active torsions:
REMARK  status: ('A' for Active; 'I' for Inactive)
REMARK    1  A    between atoms: C_4  and  N_5 
REMARK       I    between atoms: N_5  and  C_6 
REMARK    2  A    between atoms: C_6  and  C_7 
ROOT
HETATM    1  N   UNL     1      -7.124  -0.407 -33.375  1.00  0.00    -0.319 N 
HETATM    2  C   UNL     1      -7.851   0.206 -32.380  1.00  0.00     0.280 C 
HETATM    3  O   UNL     1      -7.542   0.369 -31.209  1.00  0.00    -0.265 OA
HETATM    4  H   UNL     1      -7.446  -0.286 -34.336  1.00  0.00     0.169 HD
ENDROOT
BRANCH   2   5
HETATM    5  C   UNL     1      -9.167   0.776 -32.868  1.00  0.00     0.195 C 
HETATM    6  N   UNL     1     -10.210  -0.015 -32.836  1.00  0.00    -0.165 NA
HETATM    7  N   UNL     1     -11.413   0.452 -33.283  1.00  0.00    -0.277 N 
HETATM    8  C   UNL     1     -11.501   1.585 -34.111  1.00  0.00     0.064 A 
HETATM    9  H   UNL     1     -12.130  -0.257 -33.450  1.00  0.00     0.189 HD
HETATM   10  C   UNL     1     -10.453   2.502 -34.178  1.00  0.00     0.045 A 
HETATM   11  C   UNL     1     -12.685   1.888 -34.792  1.00  0.00     0.032 A 
HETATM   12  C   UNL     1      -9.267   2.187 -33.386  1.00  0.00     0.220 C 
HETATM   13  C   UNL     1     -10.540   3.676 -34.931  1.00  0.00     0.018 A 
HETATM   14  O   UNL     1      -8.411   3.019 -33.130  1.00  0.00    -0.285 OA
HETATM   15  C   UNL     1     -11.712   3.945 -35.634  1.00  0.00     0.001 A 
HETATM   16  C   UNL     1     -12.785   3.055 -35.560  1.00  0.00     0.002 A 
ENDBRANCH   2   5
BRANCH   1  17
HETATM   17  C   UNL     1      -5.905  -1.114 -33.253  1.00  0.00     0.065 A 
HETATM   18  C   UNL     1      -4.803  -0.607 -32.552  1.00  0.00     0.038 A 
HETATM   19  C   UNL     1      -3.630  -1.356 -32.428  1.00  0.00    -0.059 A 
HETATM   20  C   UNL     1      -2.450  -0.796 -31.689  1.00  0.00     0.048 C 
HETATM   21  C   UNL     1      -3.557  -2.608 -33.044  1.00  0.00     0.020 A 
HETATM   22  C   UNL     1      -4.658  -3.123 -33.748  1.00  0.00    -0.005 A 
HETATM   23  C   UNL     1      -5.854  -2.382 -33.854  1.00  0.00     0.093 A 
HETATM   24  C   UNL     1      -4.600  -4.381 -34.364  1.00  0.00     0.015 A 
HETATM   25  N   UNL     1      -6.931  -2.862 -34.523  1.00  0.00    -0.258 NA
HETATM   26  C   UNL     1      -6.835  -4.078 -35.104  1.00  0.00     0.117 A 
HETATM   27  C   UNL     1      -5.703  -4.868 -35.054  1.00  0.00     0.020 A 
ENDBRANCH   1  17
TORSDOF 2
ENDMDL
MODEL 2
REMARK VINA RESULT:      -9.2      4.566      7.628
REMARK  2 active torsions:
REMARK  status: ('A' for Active; 'I' for Inactive)
REMARK    1  A    between atoms: C_4  and  N_5 
REMARK       I    between atoms: N_5  and  C_6 
REMARK    2  A    between atoms: C_6  and  C_7 
ROOT
HETATM    1  N   UNL     1      -3.871   1.613 -32.433  1.00  0.00    -0.319 N 
HETATM    2  C   UNL     1      -3.306   0.547 -31.771  1.00  0.00     0.280 C 
HETATM    3  O   UNL     1      -2.519   0.568 -30.837  1.00  0.00    -0.265 OA
HETATM    4  H   UNL     1      -4.652   1.418 -33.060  1.00  0.00     0.169 HD
ENDROOT
BRANCH   2   5
HETATM    5  C   UNL     1      -3.797  -0.795 -32.274  1.00  0.00     0.195 C 
HETATM    6  N   UNL     1      -2.971  -1.806 -32.185  1.00  0.00    -0.165 NA
HETATM    7  N   UNL     1      -3.366  -3.031 -32.643  1.00  0.00    -0.277 N 
HETATM    8  C   UNL     1      -4.447  -3.170 -33.531  1.00  0.00     0.064 A 
HETATM    9  H   UNL     1      -2.624  -3.721 -32.761  1.00  0.00     0.189 HD
HETATM   10  C   UNL     1      -5.398  -2.159 -33.661  1.00  0.00     0.045 A 
HETATM   11  C   UNL     1      -4.667  -4.371 -34.213  1.00  0.00     0.032 A 
HETATM   12  C   UNL     1      -5.173  -0.953 -32.868  1.00  0.00     0.220 C 
HETATM   13  C   UNL     1      -6.525  -2.298 -34.478  1.00  0.00     0.018 A 
HETATM   14  O   UNL     1      -6.049  -0.128 -32.669  1.00  0.00    -0.285 OA
HETATM   15  C   UNL     1      -6.709  -3.486 -35.180  1.00  0.00     0.001 A 
HETATM   16  C   UNL     1      -5.785  -4.524 -35.044  1.00  0.00     0.002 A 
ENDBRANCH   2   5
BRANCH   1  17
HETATM   17  C   UNL     1      -3.576   2.989 -32.280  1.00  0.00     0.065 A 
HETATM   18  C   UNL     1      -2.600   3.643 -33.043  1.00  0.00     0.038 A 
HETATM   19  C   UNL     1      -2.368   5.012 -32.883  1.00  0.00    -0.059 A 
HETATM   20  C   UNL     1      -1.308   5.698 -33.693  1.00  0.00     0.048 C 
HETATM   21  C   UNL     1      -3.100   5.715 -31.923  1.00  0.00     0.020 A 
HETATM   22  C   UNL     1      -4.081   5.066 -31.155  1.00  0.00    -0.005 A 
HETATM   23  C   UNL     1      -4.339   3.690 -31.332  1.00  0.00     0.093 A 
HETATM   24  C   UNL     1      -4.828   5.763 -30.195  1.00  0.00     0.015 A 
HETATM   25  N   UNL     1      -5.285   3.044 -30.607  1.00  0.00    -0.258 NA
HETATM   26  C   UNL     1      -5.982   3.751 -29.690  1.00  0.00     0.117 A 
HETATM   27  C   UNL     1      -5.792   5.097 -29.448  1.00  0.00     0.020 A 
ENDBRANCH   1  17
TORSDOF 2
ENDMDL
MODEL 3
REMARK VINA RESULT:      -9.1      5.058      6.732
REMARK  2 active torsions:
REMARK  status: ('A' for Active; 'I' for Inactive)
REMARK    1  A    between atoms: C_4  and  N_5 
REMARK       I    between atoms: N_5  and  C_6 
REMARK    2  A    between atoms: C_6  and  C_7 
ROOT
HETATM    1  N   UNL     1      -4.089   1.856 -32.137  1.00  0.00    -0.319 N 
HETATM    2  C   UNL     1      -4.676   2.545 -31.100  1.00  0.00     0.280 C 
HETATM    3  O   UNL     1      -5.454   2.125 -30.258  1.00  0.00    -0.265 OA
HETATM    4  H   UNL     1      -3.318   2.310 -32.628  1.00  0.00     0.169 HD
ENDROOT
BRANCH   2   5
HETATM    5  C   UNL     1      -4.223   3.988 -31.013  1.00  0.00     0.195 C 
HETATM    6  N   UNL     1      -5.116   4.875 -30.651  1.00  0.00    -0.165 NA
HETATM    7  N   UNL     1      -4.755   6.190 -30.576  1.00  0.00    -0.277 N 
HETATM    8  C   UNL     1      -3.605   6.676 -31.222  1.00  0.00     0.064 A 
HETATM    9  H   UNL     1      -5.525   6.858 -30.513  1.00  0.00     0.189 HD
HETATM   10  C   UNL     1      -2.584   5.808 -31.608  1.00  0.00     0.045 A 
HETATM   11  C   UNL     1      -3.396   8.049 -31.383  1.00  0.00     0.032 A 
HETATM   12  C   UNL     1      -2.810   4.388 -31.347  1.00  0.00     0.220 C 
HETATM   13  C   UNL     1      -1.396   6.267 -32.183  1.00  0.00     0.018 A 
HETATM   14  O   UNL     1      -1.907   3.567 -31.370  1.00  0.00    -0.285 OA
HETATM   15  C   UNL     1      -1.219   7.635 -32.371  1.00  0.00     0.001 A 
HETATM   16  C   UNL     1      -2.214   8.526 -31.966  1.00  0.00     0.002 A 
ENDBRANCH   2   5
BRANCH   1  17
HETATM   17  C   UNL     1      -4.347   0.530 -32.557  1.00  0.00     0.065 A 
HETATM   18  C   UNL     1      -3.605  -0.567 -32.100  1.00  0.00     0.038 A 
HETATM   19  C   UNL     1      -3.920  -1.864 -32.515  1.00  0.00    -0.059 A 
HETATM   20  C   UNL     1      -3.107  -3.030 -32.033  1.00  0.00     0.048 C 
HETATM   21  C   UNL     1      -4.965  -2.050 -33.422  1.00  0.00     0.020 A 
HETATM   22  C   UNL     1      -5.714  -0.955 -33.885  1.00  0.00    -0.005 A 
HETATM   23  C   UNL     1      -5.418   0.354 -33.448  1.00  0.00     0.093 A 
HETATM   24  C   UNL     1      -6.771  -1.130 -34.789  1.00  0.00     0.015 A 
HETATM   25  N   UNL     1      -6.132   1.424 -33.875  1.00  0.00    -0.258 NA
HETATM   26  C   UNL     1      -7.142   1.214 -34.748  1.00  0.00     0.117 A 
HETATM   27  C   UNL     1      -7.496  -0.030 -35.230  1.00  0.00     0.020 A 
ENDBRANCH   1  17
TORSDOF 2
ENDMDL
MODEL 4
REMARK VINA RESULT:      -9.0      4.607      7.016
REMARK  2 active torsions:
REMARK  status: ('A' for Active; 'I' for Inactive)
REMARK    1  A    between atoms: C_4  and  N_5 
REMARK       I    between atoms: N_5  and  C_6 
REMARK    2  A    between atoms: C_6  and  C_7 
ROOT
HETATM    1  N   UNL     1      -5.719   2.203 -32.259  1.00  0.00    -0.319 N 
HETATM    2  C   UNL     1      -5.624   2.673 -30.968  1.00  0.00     0.280 C 
HETATM    3  O   UNL     1      -6.208   2.274 -29.973  1.00  0.00    -0.265 OA
HETATM    4  H   UNL     1      -5.019   2.523 -32.929  1.00  0.00     0.169 HD
ENDROOT
BRANCH   2   5
HETATM    5  C   UNL     1      -4.615   3.793 -30.815  1.00  0.00     0.195 C 
HETATM    6  N   UNL     1      -4.986   4.843 -30.127  1.00  0.00    -0.165 NA
HETATM    7  N   UNL     1      -4.114   5.884 -29.979  1.00  0.00    -0.277 N 
HETATM    8  C   UNL     1      -3.005   6.042 -30.829  1.00  0.00     0.064 A 
HETATM    9  H   UNL     1      -4.519   6.757 -29.637  1.00  0.00     0.189 HD
HETATM   10  C   UNL     1      -2.517   4.967 -31.571  1.00  0.00     0.045 A 
HETATM   11  C   UNL     1      -2.288   7.242 -30.861  1.00  0.00     0.032 A 
HETATM   12  C   UNL     1      -3.249   3.709 -31.445  1.00  0.00     0.220 C 
HETATM   13  C   UNL     1      -1.372   5.071 -32.365  1.00  0.00     0.018 A 
HETATM   14  O   UNL     1      -2.779   2.640 -31.802  1.00  0.00    -0.285 OA
HETATM   15  C   UNL     1      -0.690   6.285 -32.416  1.00  0.00     0.001 A 
HETATM   16  C   UNL     1      -1.144   7.367 -31.660  1.00  0.00     0.002 A 
ENDBRANCH   2   5
BRANCH   1  17
HETATM   17  C   UNL     1      -6.614   1.233 -32.768  1.00  0.00     0.065 A 
HETATM   18  C   UNL     1      -7.999   1.434 -32.818  1.00  0.00     0.038 A 
HETATM   19  C   UNL     1      -8.842   0.461 -33.364  1.00  0.00    -0.059 A 
HETATM   20  C   UNL     1     -10.326   0.680 -33.397  1.00  0.00     0.048 C 
HETATM   21  C   UNL     1      -8.286  -0.733 -33.827  1.00  0.00     0.020 A 
HETATM   22  C   UNL     1      -6.898  -0.942 -33.780  1.00  0.00    -0.005 A 
HETATM   23  C   UNL     1      -6.040   0.048 -33.256  1.00  0.00     0.093 A 
HETATM   24  C   UNL     1      -6.328  -2.134 -34.250  1.00  0.00     0.015 A 
HETATM   25  N   UNL     1      -4.697  -0.129 -33.207  1.00  0.00    -0.258 NA
HETATM   26  C   UNL     1      -4.186  -1.292 -33.668  1.00  0.00     0.117 A 
HETATM   27  C   UNL     1      -4.952  -2.314 -34.192  1.00  0.00     0.020 A 
ENDBRANCH   1  17
TORSDOF 2
ENDMDL
MODEL 5
REMARK VINA RESULT:      -9.0      1.459      3.149
REMARK  2 active torsions:
REMARK  status: ('A' for Active; 'I' for Inactive)
REMARK    1  A    between atoms: C_4  and  N_5 
REMARK       I    between atoms: N_5  and  C_6 
REMARK    2  A    between atoms: C_6  and  C_7 
ROOT
HETATM    1  N   UNL     1      -8.045   0.418 -33.985  1.00  0.00    -0.319 N 
HETATM    2  C   UNL     1      -9.215   0.379 -33.261  1.00  0.00     0.280 C 
HETATM    3  O   UNL     1      -9.546  -0.422 -32.401  1.00  0.00    -0.265 OA
HETATM    4  H   UNL     1      -7.851   1.263 -34.523  1.00  0.00     0.169 HD
ENDROOT
BRANCH   2   5
HETATM    5  C   UNL     1     -10.150   1.529 -33.579  1.00  0.00     0.195 C 
HETATM    6  N   UNL     1     -11.414   1.241 -33.756  1.00  0.00    -0.165 NA
HETATM    7  N   UNL     1     -12.290   2.244 -34.061  1.00  0.00    -0.277 N 
HETATM    8  C   UNL     1     -11.845   3.481 -34.559  1.00  0.00     0.064 A 
HETATM    9  H   UNL     1     -13.202   1.946 -34.408  1.00  0.00     0.189 HD
HETATM   10  C   UNL     1     -10.523   3.888 -34.382  1.00  0.00     0.045 A 
HETATM   11  C   UNL     1     -12.741   4.389 -35.133  1.00  0.00     0.032 A 
HETATM   12  C   UNL     1      -9.641   2.941 -33.705  1.00  0.00     0.220 C 
HETATM   13  C   UNL     1     -10.070   5.143 -34.798  1.00  0.00     0.018 A 
HETATM   14  O   UNL     1      -8.562   3.271 -33.239  1.00  0.00    -0.285 OA
HETATM   15  C   UNL     1     -10.966   6.021 -35.402  1.00  0.00     0.001 A 
HETATM   16  C   UNL     1     -12.300   5.647 -35.565  1.00  0.00     0.002 A 
ENDBRANCH   2   5
BRANCH   1  17
HETATM   17  C   UNL     1      -7.000  -0.536 -34.002  1.00  0.00     0.065 A 
HETATM   18  C   UNL     1      -7.146  -1.808 -34.570  1.00  0.00     0.038 A 
HETATM   19  C   UNL     1      -6.074  -2.705 -34.596  1.00  0.00    -0.059 A 
HETATM   20  C   UNL     1      -6.247  -4.071 -35.192  1.00  0.00     0.048 C 
HETATM   21  C   UNL     1      -4.862  -2.328 -34.014  1.00  0.00     0.020 A 
HETATM   22  C   UNL     1      -4.707  -1.055 -33.442  1.00  0.00    -0.005 A 
HETATM   23  C   UNL     1      -5.778  -0.135 -33.438  1.00  0.00     0.093 A 
HETATM   24  C   UNL     1      -3.493  -0.663 -32.862  1.00  0.00     0.015 A 
HETATM   25  N   UNL     1      -5.650   1.102 -32.898  1.00  0.00    -0.258 NA
HETATM   26  C   UNL     1      -4.464   1.441 -32.347  1.00  0.00     0.117 A 
HETATM   27  C   UNL     1      -3.368   0.603 -32.304  1.00  0.00     0.020 A 
ENDBRANCH   1  17
TORSDOF 2
ENDMDL
MODEL 6
REMARK VINA RESULT:      -8.9      4.320      7.710
REMARK  2 active torsions:
REMARK  status: ('A' for Active; 'I' for Inactive)
REMARK    1  A    between atoms: C_4  and  N_5 
REMARK       I    between atoms: N_5  and  C_6 
REMARK    2  A    between atoms: C_6  and  C_7 
ROOT
HETATM    1  N   UNL     1      -4.634   2.099 -31.649  1.00  0.00    -0.319 N 
HETATM    2  C   UNL     1      -5.281   1.669 -32.785  1.00  0.00     0.280 C 
HETATM    3  O   UNL     1      -5.899   2.335 -33.601  1.00  0.00    -0.265 OA
HETATM    4  H   UNL     1      -4.006   1.441 -31.186  1.00  0.00     0.169 HD
ENDROOT
BRANCH   2   5
HETATM    5  C   UNL     1      -5.129   0.182 -33.030  1.00  0.00     0.195 C 
HETATM    6  N   UNL     1      -3.916  -0.309 -32.997  1.00  0.00    -0.165 NA
HETATM    7  N   UNL     1      -3.730  -1.642 -33.230  1.00  0.00    -0.277 N 
HETATM    8  C   UNL     1      -4.714  -2.422 -33.865  1.00  0.00     0.064 A 
HETATM    9  H   UNL     1      -2.769  -1.931 -33.417  1.00  0.00     0.189 HD
HETATM   10  C   UNL     1      -6.040  -1.995 -33.913  1.00  0.00     0.045 A 
HETATM   11  C   UNL     1      -4.415  -3.698 -34.354  1.00  0.00     0.032 A 
HETATM   12  C   UNL     1      -6.322  -0.692 -33.317  1.00  0.00     0.220 C 
HETATM   13  C   UNL     1      -7.054  -2.781 -34.468  1.00  0.00     0.018 A 
HETATM   14  O   UNL     1      -7.455  -0.330 -33.040  1.00  0.00    -0.285 OA
HETATM   15  C   UNL     1      -6.734  -4.034 -34.985  1.00  0.00     0.001 A 
HETATM   16  C   UNL     1      -5.418  -4.494 -34.923  1.00  0.00     0.002 A 
ENDBRANCH   2   5
BRANCH   1  17
HETATM   17  C   UNL     1      -4.641   3.395 -31.080  1.00  0.00     0.065 A 
HETATM   18  C   UNL     1      -5.594   3.802 -30.137  1.00  0.00     0.038 A 
HETATM   19  C   UNL     1      -5.541   5.081 -29.576  1.00  0.00    -0.059 A 
HETATM   20  C   UNL     1      -6.577   5.512 -28.579  1.00  0.00     0.048 C 
HETATM   21  C   UNL     1      -4.543   5.963 -29.994  1.00  0.00     0.020 A 
HETATM   22  C   UNL     1      -3.583   5.562 -30.939  1.00  0.00    -0.005 A 
HETATM   23  C   UNL     1      -3.616   4.263 -31.489  1.00  0.00     0.093 A 
HETATM   24  C   UNL     1      -2.572   6.436 -31.360  1.00  0.00     0.015 A 
HETATM   25  N   UNL     1      -2.697   3.852 -32.397  1.00  0.00    -0.258 NA
HETATM   26  C   UNL     1      -1.739   4.725 -32.779  1.00  0.00     0.117 A 
HETATM   27  C   UNL     1      -1.635   6.014 -32.296  1.00  0.00     0.020 A 
ENDBRANCH   1  17
TORSDOF 2
ENDMDL
MODEL 7
REMARK VINA RESULT:      -8.8      6.152      8.931
REMARK  2 active torsions:
REMARK  status: ('A' for Active; 'I' for Inactive)
REMARK    1  A    between atoms: C_4  and  N_5 
REMARK       I    between atoms: N_5  and  C_6 
REMARK    2  A    between atoms: C_6  and  C_7 
ROOT
HETATM    1  N   UNL     1      -3.151   2.982 -31.065  1.00  0.00    -0.319 N 
HETATM    2  C   UNL     1      -2.539   3.787 -31.999  1.00  0.00     0.280 C 
HETATM    3  O   UNL     1      -2.596   3.711 -33.217  1.00  0.00    -0.265 OA
HETATM    4  H   UNL     1      -3.153   3.302 -30.096  1.00  0.00     0.169 HD
ENDROOT
BRANCH   2   5
HETATM    5  C   UNL     1      -1.750   4.923 -31.381  1.00  0.00     0.195 C 
HETATM    6  N   UNL     1      -0.449   4.894 -31.520  1.00  0.00    -0.165 NA
HETATM    7  N   UNL     1       0.303   5.890 -30.963  1.00  0.00    -0.277 N 
HETATM    8  C   UNL     1      -0.208   6.716 -29.948  1.00  0.00     0.064 A 
HETATM    9  H   UNL     1       1.306   5.707 -30.903  1.00  0.00     0.189 HD
HETATM   10  C   UNL     1      -1.583   6.839 -29.752  1.00  0.00     0.045 A 
HETATM   11  C   UNL     1       0.639   7.532 -29.190  1.00  0.00     0.032 A 
HETATM   12  C   UNL     1      -2.434   6.030 -30.621  1.00  0.00     0.220 C 
HETATM   13  C   UNL     1      -2.124   7.710 -28.802  1.00  0.00     0.018 A 
HETATM   14  O   UNL     1      -3.628   6.246 -30.752  1.00  0.00    -0.285 OA
HETATM   15  C   UNL     1      -1.265   8.488 -28.030  1.00  0.00     0.001 A 
HETATM   16  C   UNL     1       0.114   8.403 -28.227  1.00  0.00     0.002 A 
ENDBRANCH   2   5
BRANCH   1  17
HETATM   17  C   UNL     1      -3.885   1.793 -31.288  1.00  0.00     0.065 A 
HETATM   18  C   UNL     1      -3.270   0.560 -31.537  1.00  0.00     0.038 A 
HETATM   19  C   UNL     1      -4.036  -0.596 -31.716  1.00  0.00    -0.059 A 
HETATM   20  C   UNL     1      -3.367  -1.909 -31.999  1.00  0.00     0.048 C 
HETATM   21  C   UNL     1      -5.428  -0.498 -31.678  1.00  0.00     0.020 A 
HETATM   22  C   UNL     1      -6.053   0.736 -31.428  1.00  0.00    -0.005 A 
HETATM   23  C   UNL     1      -5.283   1.901 -31.220  1.00  0.00     0.093 A 
HETATM   24  C   UNL     1      -7.449   0.845 -31.380  1.00  0.00     0.015 A 
HETATM   25  N   UNL     1      -5.864   3.100 -30.971  1.00  0.00    -0.258 NA
HETATM   26  C   UNL     1      -7.213   3.164 -30.934  1.00  0.00     0.117 A 
HETATM   27  C   UNL     1      -8.041   2.077 -31.131  1.00  0.00     0.020 A 
ENDBRANCH   1  17
TORSDOF 2
ENDMDL
MODEL 8
REMARK VINA RESULT:      -8.8      1.930      7.956
REMARK  2 active torsions:
REMARK  status: ('A' for Active; 'I' for Inactive)
REMARK    1  A    between atoms: C_4  and  N_5 
REMARK       I    between atoms: N_5  and  C_6 
REMARK    2  A    between atoms: C_6  and  C_7 
ROOT
HETATM    1  N   UNL     1      -8.264   0.458 -33.537  1.00  0.00    -0.319 N 
HETATM    2  C   UNL     1      -7.067   0.715 -34.166  1.00  0.00     0.280 C 
HETATM    3  O   UNL     1      -6.676   1.767 -34.647  1.00  0.00    -0.265 OA
HETATM    4  H   UNL     1      -8.349  -0.421 -33.026  1.00  0.00     0.169 HD
ENDROOT
BRANCH   2   5
HETATM    5  C   UNL     1      -6.139  -0.482 -34.191  1.00  0.00     0.195 C 
HETATM    6  N   UNL     1      -6.406  -1.429 -35.054  1.00  0.00    -0.165 NA
HETATM    7  N   UNL     1      -5.605  -2.535 -35.099  1.00  0.00    -0.277 N 
HETATM    8  C   UNL     1      -4.756  -2.872 -34.030  1.00  0.00     0.064 A 
HETATM    9  H   UNL     1      -5.978  -3.332 -35.617  1.00  0.00     0.189 HD
HETATM   10  C   UNL     1      -4.386  -1.916 -33.085  1.00  0.00     0.045 A 
HETATM   11  C   UNL     1      -4.161  -4.135 -33.955  1.00  0.00     0.032 A 
HETATM   12  C   UNL     1      -4.968  -0.586 -33.249  1.00  0.00     0.220 C 
HETATM   13  C   UNL     1      -3.484  -2.199 -32.055  1.00  0.00     0.018 A 
HETATM   14  O   UNL     1      -4.523   0.398 -32.679  1.00  0.00    -0.285 OA
HETATM   15  C   UNL     1      -2.930  -3.473 -31.972  1.00  0.00     0.001 A 
HETATM   16  C   UNL     1      -3.263  -4.439 -32.923  1.00  0.00     0.002 A 
ENDBRANCH   2   5
BRANCH   1  17
HETATM   17  C   UNL     1      -9.384   1.314 -33.413  1.00  0.00     0.065 A 
HETATM   18  C   UNL     1     -10.470   1.273 -34.296  1.00  0.00     0.038 A 
HETATM   19  C   UNL     1     -11.571   2.114 -34.113  1.00  0.00    -0.059 A 
HETATM   20  C   UNL     1     -12.722   2.073 -35.075  1.00  0.00     0.048 C 
HETATM   21  C   UNL     1     -11.559   3.025 -33.054  1.00  0.00     0.020 A 
HETATM   22  C   UNL     1     -10.473   3.073 -32.164  1.00  0.00    -0.005 A 
HETATM   23  C   UNL     1      -9.371   2.206 -32.328  1.00  0.00     0.093 A 
HETATM   24  C   UNL     1     -10.453   3.977 -31.093  1.00  0.00     0.015 A 
HETATM   25  N   UNL     1      -8.315   2.230 -31.478  1.00  0.00    -0.258 NA
HETATM   26  C   UNL     1      -8.333   3.117 -30.459  1.00  0.00     0.117 A 
HETATM   27  C   UNL     1      -9.367   4.003 -30.227  1.00  0.00     0.020 A 
ENDBRANCH   1  17
TORSDOF 2
ENDMDL
MODEL 9
REMARK VINA RESULT:      -8.8      4.806      7.690
REMARK  2 active torsions:
REMARK  status: ('A' for Active; 'I' for Inactive)
REMARK    1  A    between atoms: C_4  and  N_5 
REMARK       I    between atoms: N_5  and  C_6 
REMARK    2  A    between atoms: C_6  and  C_7 
ROOT
HETATM    1  N   UNL     1      -5.109   2.324 -32.413  1.00  0.00    -0.319 N 
HETATM    2  C   UNL     1      -4.918   3.499 -33.104  1.00  0.00     0.280 C 
HETATM    3  O   UNL     1      -5.368   3.818 -34.193  1.00  0.00    -0.265 OA
HETATM    4  H   UNL     1      -4.819   2.300 -31.435  1.00  0.00     0.169 HD
ENDROOT
BRANCH   2   5
HETATM    5  C   UNL     1      -4.077   4.506 -32.345  1.00  0.00     0.195 C 
HETATM    6  N   UNL     1      -4.492   5.747 -32.335  1.00  0.00    -0.165 NA
HETATM    7  N   UNL     1      -3.756   6.691 -31.677  1.00  0.00    -0.277 N 
HETATM    8  C   UNL     1      -2.408   6.470 -31.343  1.00  0.00     0.064 A 
HETATM    9  H   UNL     1      -3.992   7.662 -31.885  1.00  0.00     0.189 HD
HETATM   10  C   UNL     1      -1.888   5.177 -31.291  1.00  0.00     0.045 A 
HETATM   11  C   UNL     1      -1.586   7.526 -30.935  1.00  0.00     0.032 A 
HETATM   12  C   UNL     1      -2.805   4.097 -31.647  1.00  0.00     0.220 C 
HETATM   13  C   UNL     1      -0.575   4.920 -30.888  1.00  0.00     0.018 A 
HETATM   14  O   UNL     1      -2.577   2.929 -31.376  1.00  0.00    -0.285 OA
HETATM   15  C   UNL     1       0.242   5.985 -30.521  1.00  0.00     0.001 A 
HETATM   16  C   UNL     1      -0.264   7.286 -30.539  1.00  0.00     0.002 A 
ENDBRANCH   2   5
BRANCH   1  17
HETATM   17  C   UNL     1      -5.762   1.150 -32.857  1.00  0.00     0.065 A 
HETATM   18  C   UNL     1      -5.068   0.035 -33.342  1.00  0.00     0.038 A 
HETATM   19  C   UNL     1      -5.755  -1.117 -33.737  1.00  0.00    -0.059 A 
HETATM   20  C   UNL     1      -5.002  -2.300 -34.271  1.00  0.00     0.048 C 
HETATM   21  C   UNL     1      -7.150  -1.129 -33.673  1.00  0.00     0.020 A 
HETATM   22  C   UNL     1      -7.854  -0.014 -33.188  1.00  0.00    -0.005 A 
HETATM   23  C   UNL     1      -7.163   1.142 -32.763  1.00  0.00     0.093 A 
HETATM   24  C   UNL     1      -9.253  -0.017 -33.112  1.00  0.00     0.015 A 
HETATM   25  N   UNL     1      -7.821   2.226 -32.284  1.00  0.00    -0.258 NA
HETATM   26  C   UNL     1      -9.170   2.185 -32.229  1.00  0.00     0.117 A 
HETATM   27  C   UNL     1      -9.924   1.099 -32.627  1.00  0.00     0.020 A 
ENDBRANCH   1  17
TORSDOF 2
ENDMDL
MODEL 10
REMARK VINA RESULT:      -8.7      4.865      7.709
REMARK  2 active torsions:
REMARK  status: ('A' for Active; 'I' for Inactive)
REMARK    1  A    between atoms: C_4  and  N_5 
REMARK       I    between atoms: N_5  and  C_6 
REMARK    2  A    between atoms: C_6  and  C_7 
ROOT
HETATM    1  N   UNL     1      -4.671   3.105 -32.467  1.00  0.00    -0.319 N 
HETATM    2  C   UNL     1      -4.471   1.840 -31.962  1.00  0.00     0.280 C 
HETATM    3  O   UNL     1      -3.932   1.521 -30.914  1.00  0.00    -0.265 OA
HETATM    4  H   UNL     1      -5.307   3.201 -33.259  1.00  0.00     0.169 HD
ENDROOT
BRANCH   2   5
HETATM    5  C   UNL     1      -5.062   0.751 -32.834  1.00  0.00     0.195 C 
HETATM    6  N   UNL     1      -6.329   0.854 -33.145  1.00  0.00    -0.165 NA
HETATM    7  N   UNL     1      -6.907  -0.115 -33.915  1.00  0.00    -0.277 N 
HETATM    8  C   UNL     1      -6.317  -1.382 -34.067  1.00  0.00     0.064 A 
HETATM    9  H   UNL     1      -7.927  -0.111 -33.940  1.00  0.00     0.189 HD
HETATM   10  C   UNL     1      -4.963  -1.576 -33.796  1.00  0.00     0.045 A 
HETATM   11  C   UNL     1      -7.038  -2.450 -34.611  1.00  0.00     0.032 A 
HETATM   12  C   UNL     1      -4.229  -0.412 -33.307  1.00  0.00     0.220 C 
HETATM   13  C   UNL     1      -4.331  -2.804 -34.010  1.00  0.00     0.018 A 
HETATM   14  O   UNL     1      -3.009  -0.362 -33.303  1.00  0.00    -0.285 OA
HETATM   15  C   UNL     1      -5.072  -3.869 -34.516  1.00  0.00     0.001 A 
HETATM   16  C   UNL     1      -6.422  -3.691 -34.821  1.00  0.00     0.002 A 
ENDBRANCH   2   5
BRANCH   1  17
HETATM   17  C   UNL     1      -4.182   4.332 -31.960  1.00  0.00     0.065 A 
HETATM   18  C   UNL     1      -4.633   4.887 -30.755  1.00  0.00     0.038 A 
HETATM   19  C   UNL     1      -4.095   6.084 -30.275  1.00  0.00    -0.059 A 
HETATM   20  C   UNL     1      -4.598   6.678 -28.993  1.00  0.00     0.048 C 
HETATM   21  C   UNL     1      -3.122   6.741 -31.033  1.00  0.00     0.020 A 
HETATM   22  C   UNL     1      -2.664   6.191 -32.242  1.00  0.00    -0.005 A 
HETATM   23  C   UNL     1      -3.185   4.968 -32.717  1.00  0.00     0.093 A 
HETATM   24  C   UNL     1      -1.683   6.837 -33.006  1.00  0.00     0.015 A 
HETATM   25  N   UNL     1      -2.753   4.415 -33.877  1.00  0.00    -0.258 NA
HETATM   26  C   UNL     1      -1.807   5.070 -34.586  1.00  0.00     0.117 A 
HETATM   27  C   UNL     1      -1.247   6.271 -34.198  1.00  0.00     0.020 A 
ENDBRANCH   1  17
TORSDOF 2
ENDMDL
