MODEL 1
REMARK VINA RESULT:      -8.2      0.000      0.000
REMARK  4 active torsions:
REMARK  status: ('A' for Active; 'I' for Inactive)
REMARK    1  A    between atoms: C_2  and  C_3 
REMARK    2  A    between atoms: C_8  and  C_9 
REMARK       I    between atoms: C_9  and  N_10 
REMARK    3  A    between atoms: C_20  and  C_21 
REMARK    4  A    between atoms: C_23  and  O_24 
ROOT
HETATM    1  C   UNL     1      -8.321 -13.994 -38.398  1.00  0.00     0.258 C 
HETATM    2  N   UNL     1      -7.082 -13.661 -38.956  1.00  0.00    -0.340 N 
HETATM    3  C   UNL     1      -6.691 -13.772 -40.354  1.00  0.00     0.123 C 
HETATM    4  C   UNL     1      -5.354 -12.990 -40.475  1.00  0.00     0.221 C 
HETATM    5  N   UNL     1      -4.300 -13.890 -41.137  1.00  0.00    -0.064 N 
HETATM    6  H   UNL     1      -3.418 -13.370 -41.234  1.00  0.00     0.280 HD
HETATM    7  C   UNL     1      -3.991 -15.188 -40.405  1.00  0.00     0.236 C 
HETATM    8  C   UNL     1      -5.307 -15.871 -40.064  1.00  0.00     0.034 C 
HETATM    9  C   UNL     1      -6.461 -15.219 -40.849  1.00  0.00     0.014 C 
HETATM   10  C   UNL     1      -6.052 -15.156 -42.337  1.00  0.00     0.034 C 
HETATM   11  C   UNL     1      -4.809 -14.273 -42.526  1.00  0.00     0.236 C 
HETATM   12  C   UNL     1      -5.045 -12.381 -39.078  1.00  0.00     0.070 C 
HETATM   13  C   UNL     1      -6.355 -12.586 -38.298  1.00  0.00     0.138 C 
HETATM   14  O   UNL     1      -8.497 -13.978 -37.184  1.00  0.00    -0.267 OA
ENDROOT
BRANCH   1  15
HETATM   15  C   UNL     1      -9.422 -14.149 -39.315  1.00  0.00     0.090 C 
HETATM   16  C   UNL     1     -10.145 -13.226 -40.109  1.00  0.00     0.080 C 
HETATM   17  N   UNL     1     -11.149 -13.839 -40.754  1.00  0.00    -0.132 NA
HETATM   18  O   UNL     1     -10.989 -15.187 -40.519  1.00  0.00    -0.217 OA
HETATM   19  C   UNL     1      -9.935 -15.375 -39.688  1.00  0.00     0.092 C 
HETATM   20  C   UNL     1      -9.566 -16.773 -39.389  1.00  0.00     0.080 C 
BRANCH  16  21
HETATM   21  C   UNL     1      -9.957 -11.756 -40.272  1.00  0.00     0.058 C 
HETATM   22  C   UNL     1     -11.235 -11.023 -40.654  1.00  0.00     0.011 C 
ENDBRANCH  16  21
ENDBRANCH   1  15
BRANCH  12  23
HETATM   23  C   UNL     1      -3.774 -12.786 -38.366  1.00  0.00    -0.048 A 
HETATM   24  C   UNL     1      -3.866 -13.589 -37.213  1.00  0.00     0.044 A 
HETATM   25  C   UNL     1      -2.716 -13.953 -36.518  1.00  0.00     0.066 A 
HETATM   26  C   UNL     1      -1.462 -13.543 -36.947  1.00  0.00     0.036 A 
HETATM   27  C   UNL     1      -1.350 -12.779 -38.104  1.00  0.00     0.003 A 
HETATM   28  C   UNL     1      -2.496 -12.404 -38.811  1.00  0.00     0.008 A 
BRANCH  25  29
HETATM   29  O   UNL     1      -2.783 -14.710 -35.389  1.00  0.00    -0.361 OA
HETATM   30  H   UNL     1      -2.616 -14.150 -34.612  1.00  0.00     0.217 HD
ENDBRANCH  25  29
ENDBRANCH  12  23
TORSDOF 4
ENDMDL
MODEL 2
REMARK VINA RESULT:      -8.2     18.855     20.914
REMARK  4 active torsions:
REMARK  status: ('A' for Active; 'I' for Inactive)
REMARK    1  A    between atoms: C_2  and  C_3 
REMARK    2  A    between atoms: C_8  and  C_9 
REMARK       I    between atoms: C_9  and  N_10 
REMARK    3  A    between atoms: C_20  and  C_21 
REMARK    4  A    between atoms: C_23  and  O_24 
ROOT
HETATM    1  C   UNL     1      -2.365   5.141 -31.751  1.00  0.00     0.258 C 
HETATM    2  N   UNL     1      -3.592   4.597 -32.147  1.00  0.00    -0.340 N 
HETATM    3  C   UNL     1      -4.743   5.317 -32.670  1.00  0.00     0.123 C 
HETATM    4  C   UNL     1      -5.695   4.226 -33.233  1.00  0.00     0.221 C 
HETATM    5  N   UNL     1      -7.096   4.418 -32.634  1.00  0.00    -0.064 N 
HETATM    6  H   UNL     1      -7.733   3.707 -33.016  1.00  0.00     0.280 HD
HETATM    7  C   UNL     1      -7.177   4.338 -31.116  1.00  0.00     0.236 C 
HETATM    8  C   UNL     1      -6.092   5.230 -30.530  1.00  0.00     0.034 C 
HETATM    9  C   UNL     1      -5.517   6.151 -31.622  1.00  0.00     0.014 C 
HETATM   10  C   UNL     1      -6.700   6.840 -32.338  1.00  0.00     0.034 C 
HETATM   11  C   UNL     1      -7.597   5.805 -33.033  1.00  0.00     0.236 C 
HETATM   12  C   UNL     1      -4.986   2.854 -33.050  1.00  0.00     0.070 C 
HETATM   13  C   UNL     1      -3.547   3.240 -32.669  1.00  0.00     0.138 C 
HETATM   14  O   UNL     1      -1.509   4.453 -31.205  1.00  0.00    -0.267 OA
ENDROOT
BRANCH   1  15
HETATM   15  C   UNL     1      -2.078   6.481 -32.199  1.00  0.00     0.090 C 
HETATM   16  C   UNL     1      -2.049   7.730 -31.530  1.00  0.00     0.080 C 
HETATM   17  N   UNL     1      -1.799   8.725 -32.395  1.00  0.00    -0.132 NA
HETATM   18  O   UNL     1      -1.499   8.122 -33.597  1.00  0.00    -0.217 OA
HETATM   19  C   UNL     1      -1.630   6.779 -33.470  1.00  0.00     0.092 C 
HETATM   20  C   UNL     1      -1.268   5.962 -34.645  1.00  0.00     0.080 C 
BRANCH  16  21
HETATM   21  C   UNL     1      -2.284   8.048 -30.093  1.00  0.00     0.058 C 
HETATM   22  C   UNL     1      -1.123   7.655 -29.191  1.00  0.00     0.011 C 
ENDBRANCH  16  21
ENDBRANCH   1  15
BRANCH  12  23
HETATM   23  C   UNL     1      -5.644   1.797 -32.193  1.00  0.00    -0.048 A 
HETATM   24  C   UNL     1      -5.222   1.645 -30.857  1.00  0.00     0.044 A 
HETATM   25  C   UNL     1      -5.787   0.659 -30.052  1.00  0.00     0.066 A 
HETATM   26  C   UNL     1      -6.776  -0.182 -30.539  1.00  0.00     0.036 A 
HETATM   27  C   UNL     1      -7.230  -0.023 -31.844  1.00  0.00     0.003 A 
HETATM   28  C   UNL     1      -6.671   0.960 -32.666  1.00  0.00     0.008 A 
BRANCH  25  29
HETATM   29  O   UNL     1      -5.379   0.480 -28.766  1.00  0.00    -0.361 OA
HETATM   30  H   UNL     1      -6.090   0.746 -28.159  1.00  0.00     0.217 HD
ENDBRANCH  25  29
ENDBRANCH  12  23
TORSDOF 4
ENDMDL
MODEL 3
REMARK VINA RESULT:      -8.0     17.260     18.841
REMARK  4 active torsions:
REMARK  status: ('A' for Active; 'I' for Inactive)
REMARK    1  A    between atoms: C_2  and  C_3 
REMARK    2  A    between atoms: C_8  and  C_9 
REMARK       I    between atoms: C_9  and  N_10 
REMARK    3  A    between atoms: C_20  and  C_21 
REMARK    4  A    between atoms: C_23  and  O_24 
ROOT
HETATM    1  C   UNL     1      -4.567   1.009 -32.570  1.00  0.00     0.258 C 
HETATM    2  N   UNL     1      -4.495   2.382 -32.309  1.00  0.00    -0.340 N 
HETATM    3  C   UNL     1      -5.605   3.283 -32.039  1.00  0.00     0.123 C 
HETATM    4  C   UNL     1      -4.958   4.595 -31.519  1.00  0.00     0.221 C 
HETATM    5  N   UNL     1      -5.490   5.781 -32.338  1.00  0.00    -0.064 N 
HETATM    6  H   UNL     1      -5.076   6.654 -31.986  1.00  0.00     0.280 HD
HETATM    7  C   UNL     1      -5.223   5.717 -33.835  1.00  0.00     0.236 C 
HETATM    8  C   UNL     1      -5.638   4.342 -34.338  1.00  0.00     0.034 C 
HETATM    9  C   UNL     1      -6.480   3.620 -33.270  1.00  0.00     0.014 C 
HETATM   10  C   UNL     1      -7.599   4.582 -32.812  1.00  0.00     0.034 C 
HETATM   11  C   UNL     1      -7.006   5.839 -32.159  1.00  0.00     0.236 C 
HETATM   12  C   UNL     1      -3.422   4.361 -31.455  1.00  0.00     0.070 C 
HETATM   13  C   UNL     1      -3.282   2.842 -31.653  1.00  0.00     0.138 C 
HETATM   14  O   UNL     1      -3.575   0.372 -32.909  1.00  0.00    -0.267 OA
ENDROOT
BRANCH   1  15
HETATM   15  C   UNL     1      -5.800   0.349 -32.220  1.00  0.00     0.090 C 
HETATM   16  C   UNL     1      -6.755  -0.365 -32.986  1.00  0.00     0.080 C 
HETATM   17  N   UNL     1      -7.792  -0.738 -32.220  1.00  0.00    -0.132 NA
HETATM   18  O   UNL     1      -7.448  -0.419 -30.925  1.00  0.00    -0.217 OA
HETATM   19  C   UNL     1      -6.241   0.197 -30.921  1.00  0.00     0.092 C 
HETATM   20  C   UNL     1      -5.674   0.540 -29.602  1.00  0.00     0.080 C 
BRANCH  16  21
HETATM   21  C   UNL     1      -6.760  -0.694 -34.440  1.00  0.00     0.058 C 
HETATM   22  C   UNL     1      -7.160   0.480 -35.322  1.00  0.00     0.011 C 
ENDBRANCH  16  21
ENDBRANCH   1  15
BRANCH  12  23
HETATM   23  C   UNL     1      -2.512   5.231 -32.291  1.00  0.00    -0.048 A 
HETATM   24  C   UNL     1      -2.100   4.767 -33.555  1.00  0.00     0.044 A 
HETATM   25  C   UNL     1      -1.236   5.532 -34.336  1.00  0.00     0.066 A 
HETATM   26  C   UNL     1      -0.773   6.761 -33.893  1.00  0.00     0.036 A 
HETATM   27  C   UNL     1      -1.198   7.252 -32.662  1.00  0.00     0.003 A 
HETATM   28  C   UNL     1      -2.062   6.495 -31.867  1.00  0.00     0.008 A 
BRANCH  25  29
HETATM   29  O   UNL     1      -0.808   5.093 -35.551  1.00  0.00    -0.361 OA
HETATM   30  H   UNL     1      -1.234   5.613 -36.253  1.00  0.00     0.217 HD
ENDBRANCH  25  29
ENDBRANCH  12  23
TORSDOF 4
ENDMDL
MODEL 4
REMARK VINA RESULT:      -7.9     16.315     18.378
REMARK  4 active torsions:
REMARK  status: ('A' for Active; 'I' for Inactive)
REMARK    1  A    between atoms: C_2  and  C_3 
REMARK    2  A    between atoms: C_8  and  C_9 
REMARK       I    between atoms: C_9  and  N_10 
REMARK    3  A    between atoms: C_20  and  C_21 
REMARK    4  A    between atoms: C_23  and  O_24 
ROOT
HETATM    1  C   UNL     1     -12.261   2.857 -34.466  1.00  0.00     0.258 C 
HETATM    2  N   UNL     1     -11.153   2.485 -33.696  1.00  0.00    -0.340 N 
HETATM    3  C   UNL     1     -10.576   3.216 -32.579  1.00  0.00     0.123 C 
HETATM    4  C   UNL     1      -9.587   2.229 -31.902  1.00  0.00     0.221 C 
HETATM    5  N   UNL     1      -8.213   2.902 -31.767  1.00  0.00    -0.064 N 
HETATM    6  H   UNL     1      -7.559   2.256 -31.304  1.00  0.00     0.280 HD
HETATM    7  C   UNL     1      -7.569   3.350 -33.071  1.00  0.00     0.236 C 
HETATM    8  C   UNL     1      -8.601   4.134 -33.869  1.00  0.00     0.034 C 
HETATM    9  C   UNL     1      -9.800   4.496 -32.974  1.00  0.00     0.014 C 
HETATM   10  C   UNL     1      -9.255   5.142 -31.681  1.00  0.00     0.034 C 
HETATM   11  C   UNL     1      -8.379   4.150 -30.901  1.00  0.00     0.236 C 
HETATM   12  C   UNL     1      -9.685   0.878 -32.667  1.00  0.00     0.070 C 
HETATM   13  C   UNL     1     -10.931   1.055 -33.551  1.00  0.00     0.138 C 
HETATM   14  O   UNL     1     -12.584   2.224 -35.466  1.00  0.00    -0.267 OA
ENDROOT
BRANCH   1  15
HETATM   15  C   UNL     1     -13.117   3.878 -33.916  1.00  0.00     0.090 C 
HETATM   16  C   UNL     1     -14.016   3.887 -32.821  1.00  0.00     0.080 C 
HETATM   17  N   UNL     1     -14.653   5.065 -32.740  1.00  0.00    -0.132 NA
HETATM   18  O   UNL     1     -14.058   5.887 -33.672  1.00  0.00    -0.217 OA
HETATM   19  C   UNL     1     -13.115   5.188 -34.350  1.00  0.00     0.092 C 
HETATM   20  C   UNL     1     -12.316   5.937 -35.339  1.00  0.00     0.080 C 
BRANCH  16  21
HETATM   21  C   UNL     1     -14.340   2.808 -31.844  1.00  0.00     0.058 C 
HETATM   22  C   UNL     1     -15.727   2.212 -32.042  1.00  0.00     0.011 C 
ENDBRANCH  16  21
ENDBRANCH   1  15
BRANCH  12  23
HETATM   23  C   UNL     1      -8.452   0.331 -33.351  1.00  0.00    -0.048 A 
HETATM   24  C   UNL     1      -7.428  -0.228 -32.561  1.00  0.00     0.044 A 
HETATM   25  C   UNL     1      -6.267  -0.711 -33.159  1.00  0.00     0.066 A 
HETATM   26  C   UNL     1      -6.097  -0.661 -34.534  1.00  0.00     0.036 A 
HETATM   27  C   UNL     1      -7.114  -0.145 -35.332  1.00  0.00     0.003 A 
HETATM   28  C   UNL     1      -8.283   0.346 -34.747  1.00  0.00     0.008 A 
BRANCH  25  29
HETATM   29  O   UNL     1      -5.255  -1.235 -32.414  1.00  0.00    -0.361 OA
HETATM   30  H   UNL     1      -5.468  -2.153 -32.177  1.00  0.00     0.217 HD
ENDBRANCH  25  29
ENDBRANCH  12  23
TORSDOF 4
ENDMDL
MODEL 5
REMARK VINA RESULT:      -7.8     18.008     19.615
REMARK  4 active torsions:
REMARK  status: ('A' for Active; 'I' for Inactive)
REMARK    1  A    between atoms: C_2  and  C_3 
REMARK    2  A    between atoms: C_8  and  C_9 
REMARK       I    between atoms: C_9  and  N_10 
REMARK    3  A    between atoms: C_20  and  C_21 
REMARK    4  A    between atoms: C_23  and  O_24 
ROOT
HETATM    1  C   UNL     1      -6.414   2.541 -33.429  1.00  0.00     0.258 C 
HETATM    2  N   UNL     1      -5.552   3.131 -32.498  1.00  0.00    -0.340 N 
HETATM    3  C   UNL     1      -5.865   3.506 -31.127  1.00  0.00     0.123 C 
HETATM    4  C   UNL     1      -4.498   3.817 -30.459  1.00  0.00     0.221 C 
HETATM    5  N   UNL     1      -4.559   5.205 -29.804  1.00  0.00    -0.064 N 
HETATM    6  H   UNL     1      -3.660   5.408 -29.347  1.00  0.00     0.280 HD
HETATM    7  C   UNL     1      -4.867   6.362 -30.744  1.00  0.00     0.236 C 
HETATM    8  C   UNL     1      -6.079   5.986 -31.585  1.00  0.00     0.034 C 
HETATM    9  C   UNL     1      -6.775   4.749 -30.987  1.00  0.00     0.014 C 
HETATM   10  C   UNL     1      -7.002   5.008 -29.481  1.00  0.00     0.034 C 
HETATM   11  C   UNL     1      -5.663   5.183 -28.748  1.00  0.00     0.236 C 
HETATM   12  C   UNL     1      -3.392   3.538 -31.516  1.00  0.00     0.070 C 
HETATM   13  C   UNL     1      -4.143   2.800 -32.637  1.00  0.00     0.138 C 
HETATM   14  O   UNL     1      -6.079   2.384 -34.598  1.00  0.00    -0.267 OA
ENDROOT
BRANCH   1  15
HETATM   15  C   UNL     1      -7.618   1.943 -32.907  1.00  0.00     0.090 C 
HETATM   16  C   UNL     1      -7.844   0.844 -32.042  1.00  0.00     0.080 C 
HETATM   17  N   UNL     1      -9.159   0.617 -31.899  1.00  0.00    -0.132 NA
HETATM   18  O   UNL     1      -9.799   1.660 -32.530  1.00  0.00    -0.217 OA
HETATM   19  C   UNL     1      -8.877   2.473 -33.102  1.00  0.00     0.092 C 
HETATM   20  C   UNL     1      -9.384   3.694 -33.758  1.00  0.00     0.080 C 
BRANCH  16  21
HETATM   21  C   UNL     1      -6.866  -0.045 -31.353  1.00  0.00     0.058 C 
HETATM   22  C   UNL     1      -5.952  -0.795 -32.312  1.00  0.00     0.011 C 
ENDBRANCH  16  21
ENDBRANCH   1  15
BRANCH  12  23
HETATM   23  C   UNL     1      -2.489   4.671 -31.950  1.00  0.00    -0.048 A 
HETATM   24  C   UNL     1      -2.800   5.375 -33.130  1.00  0.00     0.044 A 
HETATM   25  C   UNL     1      -1.972   6.403 -33.573  1.00  0.00     0.066 A 
HETATM   26  C   UNL     1      -0.835   6.760 -32.863  1.00  0.00     0.036 A 
HETATM   27  C   UNL     1      -0.532   6.099 -31.676  1.00  0.00     0.003 A 
HETATM   28  C   UNL     1      -1.352   5.064 -31.221  1.00  0.00     0.008 A 
BRANCH  25  29
HETATM   29  O   UNL     1      -2.241   7.081 -34.722  1.00  0.00    -0.361 OA
HETATM   30  H   UNL     1      -3.136   6.858 -35.029  1.00  0.00     0.217 HD
ENDBRANCH  25  29
ENDBRANCH  12  23
TORSDOF 4
ENDMDL
MODEL 6
REMARK VINA RESULT:      -7.7     16.285     18.284
REMARK  4 active torsions:
REMARK  status: ('A' for Active; 'I' for Inactive)
REMARK    1  A    between atoms: C_2  and  C_3 
REMARK    2  A    between atoms: C_8  and  C_9 
REMARK       I    between atoms: C_9  and  N_10 
REMARK    3  A    between atoms: C_20  and  C_21 
REMARK    4  A    between atoms: C_23  and  O_24 
ROOT
HETATM    1  C   UNL     1     -12.261   2.715 -34.339  1.00  0.00     0.258 C 
HETATM    2  N   UNL     1     -11.126   2.360 -33.601  1.00  0.00    -0.340 N 
HETATM    3  C   UNL     1     -10.528   3.101 -32.500  1.00  0.00     0.123 C 
HETATM    4  C   UNL     1      -9.506   2.128 -31.851  1.00  0.00     0.221 C 
HETATM    5  N   UNL     1      -8.139   2.822 -31.754  1.00  0.00    -0.064 N 
HETATM    6  H   UNL     1      -7.463   2.186 -31.310  1.00  0.00     0.280 HD
HETATM    7  C   UNL     1      -7.539   3.278 -33.076  1.00  0.00     0.236 C 
HETATM    8  C   UNL     1      -8.605   4.047 -33.846  1.00  0.00     0.034 C 
HETATM    9  C   UNL     1      -9.783   4.391 -32.917  1.00  0.00     0.014 C 
HETATM   10  C   UNL     1      -9.211   5.046 -31.640  1.00  0.00     0.034 C 
HETATM   11  C   UNL     1      -8.300   4.068 -30.884  1.00  0.00     0.236 C 
HETATM   12  C   UNL     1      -9.606   0.776 -32.613  1.00  0.00     0.070 C 
HETATM   13  C   UNL     1     -10.879   0.933 -33.461  1.00  0.00     0.138 C 
HETATM   14  O   UNL     1     -12.602   2.077 -35.330  1.00  0.00    -0.267 OA
ENDROOT
BRANCH   1  15
HETATM   15  C   UNL     1     -13.115   3.724 -33.765  1.00  0.00     0.090 C 
HETATM   16  C   UNL     1     -13.246   5.115 -33.998  1.00  0.00     0.080 C 
HETATM   17  N   UNL     1     -14.140   5.655 -33.155  1.00  0.00    -0.132 NA
HETATM   18  O   UNL     1     -14.718   4.601 -32.483  1.00  0.00    -0.217 OA
HETATM   19  C   UNL     1     -14.131   3.443 -32.875  1.00  0.00     0.092 C 
HETATM   20  C   UNL     1     -14.685   2.196 -32.312  1.00  0.00     0.080 C 
BRANCH  16  21
HETATM   21  C   UNL     1     -12.532   5.990 -34.972  1.00  0.00     0.058 C 
HETATM   22  C   UNL     1     -13.416   6.462 -36.118  1.00  0.00     0.011 C 
ENDBRANCH  16  21
ENDBRANCH   1  15
BRANCH  12  23
HETATM   23  C   UNL     1      -8.385   0.247 -33.331  1.00  0.00    -0.048 A 
HETATM   24  C   UNL     1      -7.346  -0.328 -32.572  1.00  0.00     0.044 A 
HETATM   25  C   UNL     1      -6.195  -0.796 -33.201  1.00  0.00     0.066 A 
HETATM   26  C   UNL     1      -6.050  -0.714 -34.578  1.00  0.00     0.036 A 
HETATM   27  C   UNL     1      -7.081  -0.182 -35.346  1.00  0.00     0.003 A 
HETATM   28  C   UNL     1      -8.241   0.294 -34.729  1.00  0.00     0.008 A 
BRANCH  25  29
HETATM   29  O   UNL     1      -5.170  -1.335 -32.487  1.00  0.00    -0.361 OA
HETATM   30  H   UNL     1      -5.377  -2.258 -32.267  1.00  0.00     0.217 HD
ENDBRANCH  25  29
ENDBRANCH  12  23
TORSDOF 4
ENDMDL
MODEL 7
REMARK VINA RESULT:      -7.7     17.652     19.230
REMARK  4 active torsions:
REMARK  status: ('A' for Active; 'I' for Inactive)
REMARK    1  A    between atoms: C_2  and  C_3 
REMARK    2  A    between atoms: C_8  and  C_9 
REMARK       I    between atoms: C_9  and  N_10 
REMARK    3  A    between atoms: C_20  and  C_21 
REMARK    4  A    between atoms: C_23  and  O_24 
ROOT
HETATM    1  C   UNL     1      -5.510   0.880 -31.048  1.00  0.00     0.258 C 
HETATM    2  N   UNL     1      -5.576   2.262 -31.259  1.00  0.00    -0.340 N 
HETATM    3  C   UNL     1      -5.054   3.001 -32.400  1.00  0.00     0.123 C 
HETATM    4  C   UNL     1      -5.661   4.426 -32.285  1.00  0.00     0.221 C 
HETATM    5  N   UNL     1      -4.531   5.464 -32.357  1.00  0.00    -0.064 N 
HETATM    6  H   UNL     1      -4.931   6.410 -32.297  1.00  0.00     0.280 HD
HETATM    7  C   UNL     1      -3.463   5.348 -31.279  1.00  0.00     0.236 C 
HETATM    8  C   UNL     1      -3.008   3.897 -31.209  1.00  0.00     0.034 C 
HETATM    9  C   UNL     1      -3.512   3.125 -32.442  1.00  0.00     0.014 C 
HETATM   10  C   UNL     1      -3.132   3.933 -33.702  1.00  0.00     0.034 C 
HETATM   11  C   UNL     1      -3.824   5.304 -33.702  1.00  0.00     0.236 C 
HETATM   12  C   UNL     1      -6.602   4.430 -31.047  1.00  0.00     0.070 C 
HETATM   13  C   UNL     1      -6.726   2.941 -30.684  1.00  0.00     0.138 C 
HETATM   14  O   UNL     1      -5.872   0.381 -29.988  1.00  0.00    -0.267 OA
ENDROOT
BRANCH   1  15
HETATM   15  C   UNL     1      -5.200   0.065 -32.195  1.00  0.00     0.090 C 
HETATM   16  C   UNL     1      -5.917  -0.234 -33.380  1.00  0.00     0.080 C 
HETATM   17  N   UNL     1      -5.240  -1.114 -34.134  1.00  0.00    -0.132 NA
HETATM   18  O   UNL     1      -4.010  -1.268 -33.533  1.00  0.00    -0.217 OA
HETATM   19  C   UNL     1      -3.973  -0.534 -32.393  1.00  0.00     0.092 C 
HETATM   20  C   UNL     1      -2.694  -0.517 -31.657  1.00  0.00     0.080 C 
BRANCH  16  21
HETATM   21  C   UNL     1      -7.251   0.250 -33.836  1.00  0.00     0.058 C 
HETATM   22  C   UNL     1      -7.410   0.246 -35.349  1.00  0.00     0.011 C 
ENDBRANCH  16  21
ENDBRANCH   1  15
BRANCH  12  23
HETATM   23  C   UNL     1      -6.305   5.374 -29.903  1.00  0.00    -0.048 A 
HETATM   24  C   UNL     1      -5.717   4.859 -28.731  1.00  0.00     0.044 A 
HETATM   25  C   UNL     1      -5.461   5.697 -27.649  1.00  0.00     0.066 A 
HETATM   26  C   UNL     1      -5.767   7.048 -27.704  1.00  0.00     0.036 A 
HETATM   27  C   UNL     1      -6.315   7.581 -28.867  1.00  0.00     0.003 A 
HETATM   28  C   UNL     1      -6.581   6.752 -29.960  1.00  0.00     0.008 A 
BRANCH  25  29
HETATM   29  O   UNL     1      -4.914   5.217 -26.499  1.00  0.00    -0.361 OA
HETATM   30  H   UNL     1      -4.266   5.855 -26.156  1.00  0.00     0.217 HD
ENDBRANCH  25  29
ENDBRANCH  12  23
TORSDOF 4
ENDMDL
MODEL 8
REMARK VINA RESULT:      -7.7      0.590      2.023
REMARK  4 active torsions:
REMARK  status: ('A' for Active; 'I' for Inactive)
REMARK    1  A    between atoms: C_2  and  C_3 
REMARK    2  A    between atoms: C_8  and  C_9 
REMARK       I    between atoms: C_9  and  N_10 
REMARK    3  A    between atoms: C_20  and  C_21 
REMARK    4  A    between atoms: C_23  and  O_24 
ROOT
HETATM    1  C   UNL     1      -8.387 -13.983 -38.635  1.00  0.00     0.258 C 
HETATM    2  N   UNL     1      -7.160 -13.621 -39.202  1.00  0.00    -0.340 N 
HETATM    3  C   UNL     1      -6.755 -13.778 -40.592  1.00  0.00     0.123 C 
HETATM    4  C   UNL     1      -5.453 -12.945 -40.742  1.00  0.00     0.221 C 
HETATM    5  N   UNL     1      -4.356 -13.827 -41.358  1.00  0.00    -0.064 N 
HETATM    6  H   UNL     1      -3.496 -13.274 -41.474  1.00  0.00     0.280 HD
HETATM    7  C   UNL     1      -3.996 -15.076 -40.565  1.00  0.00     0.236 C 
HETATM    8  C   UNL     1      -5.284 -15.800 -40.200  1.00  0.00     0.034 C 
HETATM    9  C   UNL     1      -6.459 -15.235 -41.019  1.00  0.00     0.014 C 
HETATM   10  C   UNL     1      -6.043 -15.222 -42.507  1.00  0.00     0.034 C 
HETATM   11  C   UNL     1      -4.838 -14.295 -42.730  1.00  0.00     0.236 C 
HETATM   12  C   UNL     1      -5.180 -12.261 -39.372  1.00  0.00     0.070 C 
HETATM   13  C   UNL     1      -6.485 -12.487 -38.591  1.00  0.00     0.138 C 
HETATM   14  O   UNL     1      -8.572 -13.919 -37.424  1.00  0.00    -0.267 OA
ENDROOT
BRANCH   1  15
HETATM   15  C   UNL     1      -9.474 -14.227 -39.549  1.00  0.00     0.090 C 
HETATM   16  C   UNL     1     -10.121 -15.414 -39.973  1.00  0.00     0.080 C 
HETATM   17  N   UNL     1     -11.045 -15.143 -40.907  1.00  0.00    -0.132 NA
HETATM   18  O   UNL     1     -11.124 -13.770 -40.981  1.00  0.00    -0.217 OA
HETATM   19  C   UNL     1     -10.211 -13.222 -40.142  1.00  0.00     0.092 C 
HETATM   20  C   UNL     1     -10.209 -11.750 -40.032  1.00  0.00     0.080 C 
BRANCH  16  21
HETATM   21  C   UNL     1      -9.889 -16.828 -39.559  1.00  0.00     0.058 C 
HETATM   22  C   UNL     1     -10.773 -17.825 -40.294  1.00  0.00     0.011 C 
ENDBRANCH  16  21
ENDBRANCH   1  15
BRANCH  12  23
HETATM   23  C   UNL     1      -3.897 -12.577 -38.637  1.00  0.00    -0.048 A 
HETATM   24  C   UNL     1      -3.958 -13.363 -37.470  1.00  0.00     0.044 A 
HETATM   25  C   UNL     1      -2.798 -13.645 -36.753  1.00  0.00     0.066 A 
HETATM   26  C   UNL     1      -1.565 -13.171 -37.174  1.00  0.00     0.036 A 
HETATM   27  C   UNL     1      -1.481 -12.423 -38.345  1.00  0.00     0.003 A 
HETATM   28  C   UNL     1      -2.637 -12.129 -39.073  1.00  0.00     0.008 A 
BRANCH  25  29
HETATM   29  O   UNL     1      -2.836 -14.383 -35.610  1.00  0.00    -0.361 OA
HETATM   30  H   UNL     1      -2.391 -13.899 -34.895  1.00  0.00     0.217 HD
ENDBRANCH  25  29
ENDBRANCH  12  23
TORSDOF 4
ENDMDL
MODEL 9
REMARK VINA RESULT:      -7.6      1.899      6.673
REMARK  4 active torsions:
REMARK  status: ('A' for Active; 'I' for Inactive)
REMARK    1  A    between atoms: C_2  and  C_3 
REMARK    2  A    between atoms: C_8  and  C_9 
REMARK       I    between atoms: C_9  and  N_10 
REMARK    3  A    between atoms: C_20  and  C_21 
REMARK    4  A    between atoms: C_23  and  O_24 
ROOT
HETATM    1  C   UNL     1      -3.980 -13.419 -37.349  1.00  0.00     0.258 C 
HETATM    2  N   UNL     1      -5.010 -14.074 -38.032  1.00  0.00    -0.340 N 
HETATM    3  C   UNL     1      -4.885 -15.223 -38.917  1.00  0.00     0.123 C 
HETATM    4  C   UNL     1      -6.335 -15.728 -39.149  1.00  0.00     0.221 C 
HETATM    5  N   UNL     1      -6.594 -15.846 -40.659  1.00  0.00    -0.064 N 
HETATM    6  H   UNL     1      -7.549 -16.196 -40.816  1.00  0.00     0.280 HD
HETATM    7  C   UNL     1      -6.441 -14.557 -41.454  1.00  0.00     0.236 C 
HETATM    8  C   UNL     1      -5.116 -13.912 -41.070  1.00  0.00     0.034 C 
HETATM    9  C   UNL     1      -4.245 -14.915 -40.292  1.00  0.00     0.014 C 
HETATM   10  C   UNL     1      -4.192 -16.231 -41.100  1.00  0.00     0.034 C 
HETATM   11  C   UNL     1      -5.593 -16.846 -41.236  1.00  0.00     0.236 C 
HETATM   12  C   UNL     1      -7.279 -14.835 -38.297  1.00  0.00     0.070 C 
HETATM   13  C   UNL     1      -6.314 -14.055 -37.388  1.00  0.00     0.138 C 
HETATM   14  O   UNL     1      -4.185 -12.381 -36.729  1.00  0.00    -0.267 OA
ENDROOT
BRANCH   1  15
HETATM   15  C   UNL     1      -2.729 -14.127 -37.235  1.00  0.00     0.090 C 
HETATM   16  C   UNL     1      -1.516 -14.053 -37.963  1.00  0.00     0.080 C 
HETATM   17  N   UNL     1      -0.645 -14.976 -37.529  1.00  0.00    -0.132 NA
HETATM   18  O   UNL     1      -1.215 -15.546 -36.412  1.00  0.00    -0.217 OA
HETATM   19  C   UNL     1      -2.445 -15.012 -36.215  1.00  0.00     0.092 C 
HETATM   20  C   UNL     1      -3.174 -15.450 -35.008  1.00  0.00     0.080 C 
BRANCH  16  21
HETATM   21  C   UNL     1      -1.136 -13.160 -39.095  1.00  0.00     0.058 C 
HETATM   22  C   UNL     1      -0.663 -13.916 -40.328  1.00  0.00     0.011 C 
ENDBRANCH  16  21
ENDBRANCH   1  15
BRANCH  12  23
HETATM   23  C   UNL     1      -8.346 -14.020 -38.994  1.00  0.00    -0.048 A 
HETATM   24  C   UNL     1      -9.487 -14.679 -39.492  1.00  0.00     0.044 A 
HETATM   25  C   UNL     1     -10.472 -13.962 -40.167  1.00  0.00     0.066 A 
HETATM   26  C   UNL     1     -10.357 -12.593 -40.353  1.00  0.00     0.036 A 
HETATM   27  C   UNL     1      -9.254 -11.920 -39.836  1.00  0.00     0.003 A 
HETATM   28  C   UNL     1      -8.256 -12.627 -39.160  1.00  0.00     0.008 A 
BRANCH  25  29
HETATM   29  O   UNL     1     -11.571 -14.581 -40.676  1.00  0.00    -0.361 OA
HETATM   30  H   UNL     1     -12.243 -13.916 -40.903  1.00  0.00     0.217 HD
ENDBRANCH  25  29
ENDBRANCH  12  23
TORSDOF 4
ENDMDL
MODEL 10
REMARK VINA RESULT:      -7.4     17.695     19.309
REMARK  4 active torsions:
REMARK  status: ('A' for Active; 'I' for Inactive)
REMARK    1  A    between atoms: C_2  and  C_3 
REMARK    2  A    between atoms: C_8  and  C_9 
REMARK       I    between atoms: C_9  and  N_10 
REMARK    3  A    between atoms: C_20  and  C_21 
REMARK    4  A    between atoms: C_23  and  O_24 
ROOT
HETATM    1  C   UNL     1      -5.869   1.073 -31.261  1.00  0.00     0.258 C 
HETATM    2  N   UNL     1      -5.774   2.460 -31.420  1.00  0.00    -0.340 N 
HETATM    3  C   UNL     1      -5.121   3.176 -32.505  1.00  0.00     0.123 C 
HETATM    4  C   UNL     1      -5.574   4.654 -32.360  1.00  0.00     0.221 C 
HETATM    5  N   UNL     1      -4.336   5.563 -32.340  1.00  0.00    -0.064 N 
HETATM    6  H   UNL     1      -4.633   6.545 -32.260  1.00  0.00     0.280 HD
HETATM    7  C   UNL     1      -3.339   5.292 -31.222  1.00  0.00     0.236 C 
HETATM    8  C   UNL     1      -3.049   3.798 -31.190  1.00  0.00     0.034 C 
HETATM    9  C   UNL     1      -3.574   3.130 -32.474  1.00  0.00     0.014 C 
HETATM   10  C   UNL     1      -3.048   3.935 -33.683  1.00  0.00     0.034 C 
HETATM   11  C   UNL     1      -3.587   5.374 -33.659  1.00  0.00     0.236 C 
HETATM   12  C   UNL     1      -6.567   4.719 -31.165  1.00  0.00     0.070 C 
HETATM   13  C   UNL     1      -6.870   3.240 -30.868  1.00  0.00     0.138 C 
HETATM   14  O   UNL     1      -6.334   0.579 -30.239  1.00  0.00    -0.267 OA
ENDROOT
BRANCH   1  15
HETATM   15  C   UNL     1      -5.595   0.269 -32.426  1.00  0.00     0.090 C 
HETATM   16  C   UNL     1      -4.537  -0.615 -32.752  1.00  0.00     0.080 C 
HETATM   17  N   UNL     1      -4.679  -1.083 -34.002  1.00  0.00    -0.132 NA
HETATM   18  O   UNL     1      -5.908  -0.643 -34.439  1.00  0.00    -0.217 OA
HETATM   19  C   UNL     1      -6.472   0.135 -33.482  1.00  0.00     0.092 C 
HETATM   20  C   UNL     1      -7.837   0.631 -33.749  1.00  0.00     0.080 C 
BRANCH  16  21
HETATM   21  C   UNL     1      -3.354  -1.027 -31.944  1.00  0.00     0.058 C 
HETATM   22  C   UNL     1      -3.121  -2.531 -31.938  1.00  0.00     0.011 C 
ENDBRANCH  16  21
ENDBRANCH   1  15
BRANCH  12  23
HETATM   23  C   UNL     1      -6.225   5.583 -29.972  1.00  0.00    -0.048 A 
HETATM   24  C   UNL     1      -5.721   4.969 -28.809  1.00  0.00     0.044 A 
HETATM   25  C   UNL     1      -5.426   5.734 -27.684  1.00  0.00     0.066 A 
HETATM   26  C   UNL     1      -5.611   7.108 -27.686  1.00  0.00     0.036 A 
HETATM   27  C   UNL     1      -6.074   7.736 -28.838  1.00  0.00     0.003 A 
HETATM   28  C   UNL     1      -6.377   6.981 -29.974  1.00  0.00     0.008 A 
BRANCH  25  29
HETATM   29  O   UNL     1      -4.959   5.159 -26.542  1.00  0.00    -0.361 OA
HETATM   30  H   UNL     1      -4.121   4.704 -26.727  1.00  0.00     0.217 HD
ENDBRANCH  25  29
ENDBRANCH  12  23
TORSDOF 4
ENDMDL
