MODEL 1
REMARK VINA RESULT:      -9.4      0.000      0.000
REMARK  7 active torsions:
REMARK  status: ('A' for Active; 'I' for Inactive)
REMARK    1  A    between atoms: C_8  and  C_9 
REMARK    2  A    between atoms: C_9  and  N_10 
REMARK    3  A    between atoms: C_14  and  C_15 
REMARK    4  A    between atoms: C_15  and  C_16 
REMARK    5  A    between atoms: C_16  and  C_17 
REMARK    6  A    between atoms: N_27  and  C_28 
REMARK    7  A    between atoms: C_28  and  C_29 
ROOT
HETATM    1  C   UNL     1      -6.113   0.187 -33.131  1.00  0.00     0.123 A 
HETATM    2  N   UNL     1      -4.979  -0.000 -32.239  1.00  0.00    -0.324 N 
HETATM    3  C   UNL     1      -4.289   1.157 -31.969  1.00  0.00     0.326 A 
HETATM    4  O   UNL     1      -3.311   1.215 -31.249  1.00  0.00    -0.247 OA
HETATM    5  N   UNL     1      -4.919   2.182 -32.603  1.00  0.00    -0.268 N 
HETATM    6  C   UNL     1      -5.985   1.715 -33.315  1.00  0.00     0.257 A 
HETATM    7  O   UNL     1      -6.766   2.404 -33.957  1.00  0.00    -0.270 OA
HETATM    8  H   UNL     1      -4.624  -0.894 -31.912  1.00  0.00     0.165 HD
ENDROOT
BRANCH   1   9
HETATM    9  C   UNL     1      -7.432  -0.264 -32.409  1.00  0.00     0.027 C 
HETATM   10  C   UNL     1      -8.682  -0.489 -33.277  1.00  0.00     0.035 C 
HETATM   11  C   UNL     1      -9.465   0.756 -33.672  1.00  0.00     0.235 C 
HETATM   12  N   UNL     1      -9.694   1.690 -32.512  1.00  0.00    -0.067 N 
HETATM   13  H   UNL     1     -10.465   1.294 -31.956  1.00  0.00     0.280 HD
HETATM   14  C   UNL     1      -8.540   1.903 -31.570  1.00  0.00     0.235 C 
HETATM   15  C   UNL     1      -7.861   0.596 -31.202  1.00  0.00     0.035 C 
BRANCH  12  16
HETATM   16  C   UNL     1     -10.190   3.048 -32.998  1.00  0.00     0.278 C 
BRANCH  16  17
HETATM   17  C   UNL     1     -11.659   3.195 -32.995  1.00  0.00     0.034 A 
HETATM   18  C   UNL     1     -12.588   2.841 -34.015  1.00  0.00     0.062 A 
HETATM   19  C   UNL     1     -12.329   2.205 -35.334  1.00  0.00     0.073 C 
HETATM   20  N   UNL     1     -13.845   3.136 -33.663  1.00  0.00    -0.176 NA
HETATM   21  N   UNL     1     -13.736   3.728 -32.458  1.00  0.00    -0.262 N 
HETATM   22  C   UNL     1     -14.914   4.269 -31.820  1.00  0.00     0.181 C 
HETATM   23  C   UNL     1     -12.449   3.742 -32.014  1.00  0.00     0.131 A 
HETATM   24 CL   UNL     1     -12.038   4.380 -30.492  1.00  0.00    -0.062 Cl
ENDBRANCH  16  17
ENDBRANCH  12  16
ENDBRANCH   1   9
BRANCH   1  25
HETATM   25  C   UNL     1      -5.847  -0.462 -34.515  1.00  0.00     0.080 C 
BRANCH  25  26
HETATM   26  C   UNL     1      -5.657  -1.962 -34.491  1.00  0.00    -0.052 A 
HETATM   27  C   UNL     1      -4.430  -2.536 -34.137  1.00  0.00     0.049 A 
HETATM   28  C   UNL     1      -4.280  -3.921 -34.139  1.00  0.00     0.116 A 
HETATM   29  F   UNL     1      -3.094  -4.449 -33.809  1.00  0.00    -0.206 F 
HETATM   30  C   UNL     1      -5.334  -4.758 -34.479  1.00  0.00     0.042 A 
HETATM   31  C   UNL     1      -6.564  -4.201 -34.820  1.00  0.00     0.003 A 
HETATM   32  C   UNL     1      -6.725  -2.812 -34.825  1.00  0.00     0.007 A 
ENDBRANCH  25  26
ENDBRANCH   1  25
BRANCH   5  33
HETATM   33  C   UNL     1      -4.530   3.575 -32.496  1.00  0.00     0.140 C 
BRANCH  33  34
HETATM   34  C   UNL     1      -3.487   4.009 -33.539  1.00  0.00    -0.004 C 
HETATM   35  C   UNL     1      -3.992   5.156 -34.415  1.00  0.00     0.011 C 
HETATM   36  C   UNL     1      -2.198   4.426 -32.826  1.00  0.00     0.011 C 
ENDBRANCH  33  34
ENDBRANCH   5  33
TORSDOF 7
ENDMDL
MODEL 2
REMARK VINA RESULT:      -9.3      1.591      1.897
REMARK  7 active torsions:
REMARK  status: ('A' for Active; 'I' for Inactive)
REMARK    1  A    between atoms: C_8  and  C_9 
REMARK    2  A    between atoms: C_9  and  N_10 
REMARK    3  A    between atoms: C_14  and  C_15 
REMARK    4  A    between atoms: C_15  and  C_16 
REMARK    5  A    between atoms: C_16  and  C_17 
REMARK    6  A    between atoms: N_27  and  C_28 
REMARK    7  A    between atoms: C_28  and  C_29 
ROOT
HETATM    1  C   UNL     1      -6.773   0.172 -33.235  1.00  0.00     0.123 A 
HETATM    2  N   UNL     1      -6.001  -0.322 -32.104  1.00  0.00    -0.324 N 
HETATM    3  C   UNL     1      -5.216   0.635 -31.507  1.00  0.00     0.326 A 
HETATM    4  O   UNL     1      -4.496   0.427 -30.550  1.00  0.00    -0.247 OA
HETATM    5  N   UNL     1      -5.432   1.816 -32.146  1.00  0.00    -0.268 N 
HETATM    6  C   UNL     1      -6.314   1.645 -33.173  1.00  0.00     0.257 A 
HETATM    7  O   UNL     1      -6.732   2.532 -33.904  1.00  0.00    -0.270 OA
HETATM    8  H   UNL     1      -5.930  -1.293 -31.814  1.00  0.00     0.165 HD
ENDROOT
BRANCH   1   9
HETATM    9  C   UNL     1      -8.304  -0.035 -32.959  1.00  0.00     0.027 C 
HETATM   10  C   UNL     1      -9.294   0.430 -34.040  1.00  0.00     0.035 C 
HETATM   11  C   UNL     1      -9.621   1.917 -34.064  1.00  0.00     0.235 C 
HETATM   12  N   UNL     1      -9.918   2.469 -32.694  1.00  0.00    -0.067 N 
HETATM   13  H   UNL     1     -10.881   2.188 -32.460  1.00  0.00     0.280 HD
HETATM   14  C   UNL     1      -9.040   2.001 -31.566  1.00  0.00     0.235 C 
HETATM   15  C   UNL     1      -8.819   0.500 -31.606  1.00  0.00     0.035 C 
BRANCH  12  16
HETATM   16  C   UNL     1      -9.925   3.994 -32.713  1.00  0.00     0.278 C 
BRANCH  16  17
HETATM   17  C   UNL     1     -11.149   4.589 -33.286  1.00  0.00     0.034 A 
HETATM   18  C   UNL     1     -12.477   4.557 -32.771  1.00  0.00     0.062 A 
HETATM   19  C   UNL     1     -12.974   3.944 -31.511  1.00  0.00     0.073 C 
HETATM   20  N   UNL     1     -13.335   5.195 -33.575  1.00  0.00    -0.176 NA
HETATM   21  N   UNL     1     -12.593   5.588 -34.629  1.00  0.00    -0.262 N 
HETATM   22  C   UNL     1     -13.234   6.233 -35.752  1.00  0.00     0.181 C 
HETATM   23  C   UNL     1     -11.278   5.277 -34.468  1.00  0.00     0.131 A 
HETATM   24 CL   UNL     1     -10.111   5.712 -35.626  1.00  0.00    -0.062 Cl
ENDBRANCH  16  17
ENDBRANCH  12  16
ENDBRANCH   1   9
BRANCH   1  25
HETATM   25  C   UNL     1      -6.243  -0.415 -34.569  1.00  0.00     0.080 C 
BRANCH  25  26
HETATM   26  C   UNL     1      -5.958  -1.901 -34.545  1.00  0.00    -0.052 A 
HETATM   27  C   UNL     1      -4.670  -2.391 -34.293  1.00  0.00     0.049 A 
HETATM   28  C   UNL     1      -4.435  -3.764 -34.293  1.00  0.00     0.116 A 
HETATM   29  F   UNL     1      -3.193  -4.213 -34.064  1.00  0.00    -0.206 F 
HETATM   30  C   UNL     1      -5.460  -4.671 -34.530  1.00  0.00     0.042 A 
HETATM   31  C   UNL     1      -6.747  -4.196 -34.767  1.00  0.00     0.003 A 
HETATM   32  C   UNL     1      -6.995  -2.821 -34.774  1.00  0.00     0.007 A 
ENDBRANCH  25  26
ENDBRANCH   1  25
BRANCH   5  33
HETATM   33  C   UNL     1      -4.838   3.080 -31.755  1.00  0.00     0.140 C 
BRANCH  33  34
HETATM   34  C   UNL     1      -3.572   3.440 -32.548  1.00  0.00    -0.004 C 
HETATM   35  C   UNL     1      -3.825   4.556 -33.562  1.00  0.00     0.011 C 
HETATM   36  C   UNL     1      -2.465   3.861 -31.577  1.00  0.00     0.011 C 
ENDBRANCH  33  34
ENDBRANCH   5  33
TORSDOF 7
ENDMDL
MODEL 3
REMARK VINA RESULT:      -9.1      2.221      3.083
REMARK  7 active torsions:
REMARK  status: ('A' for Active; 'I' for Inactive)
REMARK    1  A    between atoms: C_8  and  C_9 
REMARK    2  A    between atoms: C_9  and  N_10 
REMARK    3  A    between atoms: C_14  and  C_15 
REMARK    4  A    between atoms: C_15  and  C_16 
REMARK    5  A    between atoms: C_16  and  C_17 
REMARK    6  A    between atoms: N_27  and  C_28 
REMARK    7  A    between atoms: C_28  and  C_29 
ROOT
HETATM    1  C   UNL     1      -6.130  -0.205 -33.118  1.00  0.00     0.123 A 
HETATM    2  N   UNL     1      -5.217  -0.732 -32.114  1.00  0.00    -0.324 N 
HETATM    3  C   UNL     1      -4.317   0.193 -31.643  1.00  0.00     0.326 A 
HETATM    4  O   UNL     1      -3.471  -0.045 -30.804  1.00  0.00    -0.247 OA
HETATM    5  N   UNL     1      -4.582   1.384 -32.244  1.00  0.00    -0.268 N 
HETATM    6  C   UNL     1      -5.612   1.250 -33.128  1.00  0.00     0.257 A 
HETATM    7  O   UNL     1      -6.103   2.155 -33.790  1.00  0.00    -0.270 OA
HETATM    8  H   UNL     1      -5.140  -1.706 -31.837  1.00  0.00     0.165 HD
ENDROOT
BRANCH   1   9
HETATM    9  C   UNL     1      -7.610  -0.356 -32.617  1.00  0.00     0.027 C 
HETATM   10  C   UNL     1      -8.734  -0.239 -33.660  1.00  0.00     0.035 C 
HETATM   11  C   UNL     1      -9.140   1.173 -34.062  1.00  0.00     0.235 C 
HETATM   12  N   UNL     1      -9.317   2.086 -32.876  1.00  0.00    -0.067 N 
HETATM   13  H   UNL     1     -10.233   1.863 -32.461  1.00  0.00     0.280 HD
HETATM   14  C   UNL     1      -8.299   1.976 -31.774  1.00  0.00     0.235 C 
HETATM   15  C   UNL     1      -8.004   0.530 -31.417  1.00  0.00     0.035 C 
BRANCH  12  16
HETATM   16  C   UNL     1      -9.407   3.542 -33.321  1.00  0.00     0.278 C 
BRANCH  16  17
HETATM   17  C   UNL     1      -9.006   4.518 -32.288  1.00  0.00     0.034 A 
HETATM   18  C   UNL     1      -9.651   4.823 -31.056  1.00  0.00     0.062 A 
HETATM   19  C   UNL     1     -10.879   4.220 -30.471  1.00  0.00     0.073 C 
HETATM   20  N   UNL     1      -9.003   5.779 -30.381  1.00  0.00    -0.176 NA
HETATM   21  N   UNL     1      -7.982   6.137 -31.184  1.00  0.00    -0.262 N 
HETATM   22  C   UNL     1      -7.122   7.232 -30.799  1.00  0.00     0.181 C 
HETATM   23  C   UNL     1      -7.933   5.375 -32.311  1.00  0.00     0.131 A 
HETATM   24 CL   UNL     1      -6.705   5.579 -33.471  1.00  0.00    -0.062 Cl
ENDBRANCH  16  17
ENDBRANCH  12  16
ENDBRANCH   1   9
BRANCH   1  25
HETATM   25  C   UNL     1      -5.827  -0.806 -34.515  1.00  0.00     0.080 C 
BRANCH  25  26
HETATM   26  C   UNL     1      -5.612  -2.303 -34.534  1.00  0.00    -0.052 A 
HETATM   27  C   UNL     1      -4.380  -2.866 -34.179  1.00  0.00     0.049 A 
HETATM   28  C   UNL     1      -4.206  -4.248 -34.221  1.00  0.00     0.116 A 
HETATM   29  F   UNL     1      -3.016  -4.766 -33.890  1.00  0.00    -0.206 F 
HETATM   30  C   UNL     1      -5.241  -5.092 -34.602  1.00  0.00     0.042 A 
HETATM   31  C   UNL     1      -6.474  -4.545 -34.945  1.00  0.00     0.003 A 
HETATM   32  C   UNL     1      -6.659  -3.160 -34.911  1.00  0.00     0.007 A 
ENDBRANCH  25  26
ENDBRANCH   1  25
BRANCH   5  33
HETATM   33  C   UNL     1      -3.890   2.624 -31.948  1.00  0.00     0.140 C 
BRANCH  33  34
HETATM   34  C   UNL     1      -4.790   3.702 -31.324  1.00  0.00    -0.004 C 
HETATM   35  C   UNL     1      -5.377   3.256 -29.985  1.00  0.00     0.011 C 
HETATM   36  C   UNL     1      -3.986   4.991 -31.137  1.00  0.00     0.011 C 
ENDBRANCH  33  34
ENDBRANCH   5  33
TORSDOF 7
ENDMDL
MODEL 4
REMARK VINA RESULT:      -9.1      1.717      1.939
REMARK  7 active torsions:
REMARK  status: ('A' for Active; 'I' for Inactive)
REMARK    1  A    between atoms: C_8  and  C_9 
REMARK    2  A    between atoms: C_9  and  N_10 
REMARK    3  A    between atoms: C_14  and  C_15 
REMARK    4  A    between atoms: C_15  and  C_16 
REMARK    5  A    between atoms: C_16  and  C_17 
REMARK    6  A    between atoms: N_27  and  C_28 
REMARK    7  A    between atoms: C_28  and  C_29 
ROOT
HETATM    1  C   UNL     1      -6.350  -0.048 -33.213  1.00  0.00     0.123 A 
HETATM    2  N   UNL     1      -5.573  -0.627 -32.127  1.00  0.00    -0.324 N 
HETATM    3  C   UNL     1      -4.662   0.239 -31.574  1.00  0.00     0.326 A 
HETATM    4  O   UNL     1      -3.916  -0.049 -30.658  1.00  0.00    -0.247 OA
HETATM    5  N   UNL     1      -4.788   1.441 -32.198  1.00  0.00    -0.268 N 
HETATM    6  C   UNL     1      -5.737   1.369 -33.175  1.00  0.00     0.257 A 
HETATM    7  O   UNL     1      -6.101   2.300 -33.881  1.00  0.00    -0.270 OA
HETATM    8  H   UNL     1      -5.588  -1.602 -31.842  1.00  0.00     0.165 HD
ENDROOT
BRANCH   1   9
HETATM    9  C   UNL     1      -7.877  -0.096 -32.853  1.00  0.00     0.027 C 
HETATM   10  C   UNL     1      -8.884   0.254 -33.963  1.00  0.00     0.035 C 
HETATM   11  C   UNL     1      -9.114   1.736 -34.224  1.00  0.00     0.235 C 
HETATM   12  N   UNL     1      -9.312   2.526 -32.956  1.00  0.00    -0.067 N 
HETATM   13  H   UNL     1     -10.279   2.357 -32.646  1.00  0.00     0.280 HD
HETATM   14  C   UNL     1      -8.415   2.189 -31.797  1.00  0.00     0.235 C 
HETATM   15  C   UNL     1      -8.293   0.689 -31.593  1.00  0.00     0.035 C 
BRANCH  12  16
HETATM   16  C   UNL     1      -9.221   4.024 -33.230  1.00  0.00     0.278 C 
BRANCH  16  17
HETATM   17  C   UNL     1     -10.346   4.810 -32.687  1.00  0.00     0.034 A 
HETATM   18  C   UNL     1     -11.531   5.241 -33.351  1.00  0.00     0.062 A 
HETATM   19  C   UNL     1     -11.959   4.988 -34.753  1.00  0.00     0.073 C 
HETATM   20  N   UNL     1     -12.323   5.950 -32.540  1.00  0.00    -0.176 NA
HETATM   21  N   UNL     1     -11.643   6.034 -31.380  1.00  0.00    -0.262 N 
HETATM   22  C   UNL     1     -12.175   6.828 -30.297  1.00  0.00     0.181 C 
HETATM   23  C   UNL     1     -10.478   5.330 -31.423  1.00  0.00     0.131 A 
HETATM   24 CL   UNL     1      -9.453   5.221 -30.070  1.00  0.00    -0.062 Cl
ENDBRANCH  16  17
ENDBRANCH  12  16
ENDBRANCH   1   9
BRANCH   1  25
HETATM   25  C   UNL     1      -5.958  -0.678 -34.575  1.00  0.00     0.080 C 
BRANCH  25  26
HETATM   26  C   UNL     1      -5.731  -2.173 -34.546  1.00  0.00    -0.052 A 
HETATM   27  C   UNL     1      -4.467  -2.713 -34.281  1.00  0.00     0.049 A 
HETATM   28  C   UNL     1      -4.285  -4.095 -34.276  1.00  0.00     0.116 A 
HETATM   29  F   UNL     1      -3.065  -4.591 -34.033  1.00  0.00    -0.206 F 
HETATM   30  C   UNL     1      -5.343  -4.960 -34.522  1.00  0.00     0.042 A 
HETATM   31  C   UNL     1      -6.607  -4.436 -34.773  1.00  0.00     0.003 A 
HETATM   32  C   UNL     1      -6.801  -3.052 -34.785  1.00  0.00     0.007 A 
ENDBRANCH  25  26
ENDBRANCH   1  25
BRANCH   5  33
HETATM   33  C   UNL     1      -4.045   2.634 -31.839  1.00  0.00     0.140 C 
BRANCH  33  34
HETATM   34  C   UNL     1      -4.912   3.739 -31.217  1.00  0.00    -0.004 C 
HETATM   35  C   UNL     1      -5.481   3.329 -29.859  1.00  0.00     0.011 C 
HETATM   36  C   UNL     1      -4.080   5.016 -31.069  1.00  0.00     0.011 C 
ENDBRANCH  33  34
ENDBRANCH   5  33
TORSDOF 7
ENDMDL
MODEL 5
REMARK VINA RESULT:      -9.1      3.919      7.916
REMARK  7 active torsions:
REMARK  status: ('A' for Active; 'I' for Inactive)
REMARK    1  A    between atoms: C_8  and  C_9 
REMARK    2  A    between atoms: C_9  and  N_10 
REMARK    3  A    between atoms: C_14  and  C_15 
REMARK    4  A    between atoms: C_15  and  C_16 
REMARK    5  A    between atoms: C_16  and  C_17 
REMARK    6  A    between atoms: N_27  and  C_28 
REMARK    7  A    between atoms: C_28  and  C_29 
ROOT
HETATM    1  C   UNL     1      -9.878   3.042 -33.197  1.00  0.00     0.123 A 
HETATM    2  N   UNL     1      -8.675   3.478 -33.890  1.00  0.00    -0.324 N 
HETATM    3  C   UNL     1      -7.895   4.341 -33.157  1.00  0.00     0.326 A 
HETATM    4  O   UNL     1      -6.852   4.821 -33.554  1.00  0.00    -0.247 OA
HETATM    5  N   UNL     1      -8.477   4.504 -31.939  1.00  0.00    -0.268 N 
HETATM    6  C   UNL     1      -9.642   3.797 -31.871  1.00  0.00     0.257 A 
HETATM    7  O   UNL     1     -10.368   3.716 -30.889  1.00  0.00    -0.270 OA
HETATM    8  H   UNL     1      -8.445   3.283 -34.860  1.00  0.00     0.165 HD
ENDROOT
BRANCH   1   9
HETATM    9  C   UNL     1      -9.867   1.478 -33.056  1.00  0.00     0.027 C 
HETATM   10  C   UNL     1      -9.177   0.877 -31.819  1.00  0.00     0.035 C 
HETATM   11  C   UNL     1      -7.659   0.764 -31.879  1.00  0.00     0.235 C 
HETATM   12  N   UNL     1      -7.170   0.190 -33.184  1.00  0.00    -0.067 N 
HETATM   13  H   UNL     1      -7.317  -0.829 -33.136  1.00  0.00     0.280 HD
HETATM   14  C   UNL     1      -7.850   0.671 -34.436  1.00  0.00     0.235 C 
HETATM   15  C   UNL     1      -9.360   0.699 -34.287  1.00  0.00     0.035 C 
BRANCH  12  16
HETATM   16  C   UNL     1      -5.665   0.386 -33.333  1.00  0.00     0.278 C 
BRANCH  16  17
HETATM   17  C   UNL     1      -4.866  -0.827 -33.068  1.00  0.00     0.034 A 
HETATM   18  C   UNL     1      -3.811  -1.007 -32.128  1.00  0.00     0.062 A 
HETATM   19  C   UNL     1      -3.258  -0.035 -31.148  1.00  0.00     0.073 C 
HETATM   20  N   UNL     1      -3.307  -2.245 -32.181  1.00  0.00    -0.176 NA
HETATM   21  N   UNL     1      -3.980  -2.849 -33.180  1.00  0.00    -0.262 N 
HETATM   22  C   UNL     1      -3.614  -4.189 -33.578  1.00  0.00     0.181 C 
HETATM   23  C   UNL     1      -4.944  -2.043 -33.702  1.00  0.00     0.131 A 
HETATM   24 CL   UNL     1      -5.980  -2.579 -34.940  1.00  0.00    -0.062 Cl
ENDBRANCH  16  17
ENDBRANCH  12  16
ENDBRANCH   1   9
BRANCH   1  25
HETATM   25  C   UNL     1     -11.147   3.650 -33.848  1.00  0.00     0.080 C 
BRANCH  25  26
HETATM   26  C   UNL     1     -12.395   2.804 -33.730  1.00  0.00    -0.052 A 
HETATM   27  C   UNL     1     -13.246   2.911 -32.624  1.00  0.00     0.049 A 
HETATM   28  C   UNL     1     -14.380   2.107 -32.535  1.00  0.00     0.116 A 
HETATM   29  F   UNL     1     -15.174   2.215 -31.461  1.00  0.00    -0.206 F 
HETATM   30  C   UNL     1     -14.697   1.196 -33.534  1.00  0.00     0.042 A 
HETATM   31  C   UNL     1     -13.866   1.090 -34.646  1.00  0.00     0.003 A 
HETATM   32  C   UNL     1     -12.723   1.888 -34.745  1.00  0.00     0.007 A 
ENDBRANCH  25  26
ENDBRANCH   1  25
BRANCH   5  33
HETATM   33  C   UNL     1      -7.909   5.286 -30.857  1.00  0.00     0.140 C 
BRANCH  33  34
HETATM   34  C   UNL     1      -7.316   4.435 -29.723  1.00  0.00    -0.004 C 
HETATM   35  C   UNL     1      -5.955   3.847 -30.097  1.00  0.00     0.011 C 
HETATM   36  C   UNL     1      -7.184   5.290 -28.461  1.00  0.00     0.011 C 
ENDBRANCH  33  34
ENDBRANCH   5  33
TORSDOF 7
ENDMDL
MODEL 6
REMARK VINA RESULT:      -8.8      3.213      6.899
REMARK  7 active torsions:
REMARK  status: ('A' for Active; 'I' for Inactive)
REMARK    1  A    between atoms: C_8  and  C_9 
REMARK    2  A    between atoms: C_9  and  N_10 
REMARK    3  A    between atoms: C_14  and  C_15 
REMARK    4  A    between atoms: C_15  and  C_16 
REMARK    5  A    between atoms: C_16  and  C_17 
REMARK    6  A    between atoms: N_27  and  C_28 
REMARK    7  A    between atoms: C_28  and  C_29 
ROOT
HETATM    1  C   UNL     1      -6.046   1.410 -31.635  1.00  0.00     0.123 A 
HETATM    2  N   UNL     1      -5.653   1.642 -33.016  1.00  0.00    -0.324 N 
HETATM    3  C   UNL     1      -6.606   2.291 -33.763  1.00  0.00     0.326 A 
HETATM    4  O   UNL     1      -6.474   2.577 -34.937  1.00  0.00    -0.247 OA
HETATM    5  N   UNL     1      -7.658   2.574 -32.950  1.00  0.00    -0.268 N 
HETATM    6  C   UNL     1      -7.430   2.091 -31.695  1.00  0.00     0.257 A 
HETATM    7  O   UNL     1      -8.178   2.226 -30.736  1.00  0.00    -0.270 OA
HETATM    8  H   UNL     1      -4.814   1.281 -33.462  1.00  0.00     0.165 HD
ENDROOT
BRANCH   1   9
HETATM    9  C   UNL     1      -5.026   2.114 -30.671  1.00  0.00     0.027 C 
HETATM   10  C   UNL     1      -5.467   3.424 -29.996  1.00  0.00     0.035 C 
HETATM   11  C   UNL     1      -5.361   4.688 -30.839  1.00  0.00     0.235 C 
HETATM   12  N   UNL     1      -4.044   4.793 -31.564  1.00  0.00    -0.067 N 
HETATM   13  H   UNL     1      -3.346   5.108 -30.874  1.00  0.00     0.280 HD
HETATM   14  C   UNL     1      -3.506   3.534 -32.186  1.00  0.00     0.235 C 
HETATM   15  C   UNL     1      -3.614   2.347 -31.246  1.00  0.00     0.035 C 
BRANCH  12  16
HETATM   16  C   UNL     1      -4.096   5.885 -32.628  1.00  0.00     0.278 C 
BRANCH  16  17
HETATM   17  C   UNL     1      -3.350   7.110 -32.278  1.00  0.00     0.034 A 
HETATM   18  C   UNL     1      -2.115   7.581 -32.809  1.00  0.00     0.062 A 
HETATM   19  C   UNL     1      -1.269   6.981 -33.875  1.00  0.00     0.073 C 
HETATM   20  N   UNL     1      -1.735   8.728 -32.236  1.00  0.00    -0.176 NA
HETATM   21  N   UNL     1      -2.674   8.976 -31.302  1.00  0.00    -0.262 N 
HETATM   22  C   UNL     1      -2.518  10.107 -30.417  1.00  0.00     0.181 C 
HETATM   23  C   UNL     1      -3.672   8.051 -31.330  1.00  0.00     0.131 A 
HETATM   24 CL   UNL     1      -5.015   8.159 -30.292  1.00  0.00    -0.062 Cl
ENDBRANCH  16  17
ENDBRANCH  12  16
ENDBRANCH   1   9
BRANCH   1  25
HETATM   25  C   UNL     1      -6.292  -0.099 -31.372  1.00  0.00     0.080 C 
BRANCH  25  26
HETATM   26  C   UNL     1      -5.792  -1.026 -32.457  1.00  0.00    -0.052 A 
HETATM   27  C   UNL     1      -6.657  -1.538 -33.433  1.00  0.00     0.049 A 
HETATM   28  C   UNL     1      -6.172  -2.402 -34.411  1.00  0.00     0.116 A 
HETATM   29  F   UNL     1      -7.018  -2.891 -35.328  1.00  0.00    -0.206 F 
HETATM   30  C   UNL     1      -4.833  -2.767 -34.449  1.00  0.00     0.042 A 
HETATM   31  C   UNL     1      -3.960  -2.255 -33.493  1.00  0.00     0.003 A 
HETATM   32  C   UNL     1      -4.436  -1.390 -32.504  1.00  0.00     0.007 A 
ENDBRANCH  25  26
ENDBRANCH   1  25
BRANCH   5  33
HETATM   33  C   UNL     1      -8.832   3.323 -33.358  1.00  0.00     0.140 C 
BRANCH  33  34
HETATM   34  C   UNL     1      -9.801   2.521 -34.240  1.00  0.00    -0.004 C 
HETATM   35  C   UNL     1     -10.633   1.529 -33.427  1.00  0.00     0.011 C 
HETATM   36  C   UNL     1     -10.726   3.486 -34.987  1.00  0.00     0.011 C 
ENDBRANCH  33  34
ENDBRANCH   5  33
TORSDOF 7
ENDMDL
MODEL 7
REMARK VINA RESULT:      -8.8      3.629      7.543
REMARK  7 active torsions:
REMARK  status: ('A' for Active; 'I' for Inactive)
REMARK    1  A    between atoms: C_8  and  C_9 
REMARK    2  A    between atoms: C_9  and  N_10 
REMARK    3  A    between atoms: C_14  and  C_15 
REMARK    4  A    between atoms: C_15  and  C_16 
REMARK    5  A    between atoms: C_16  and  C_17 
REMARK    6  A    between atoms: N_27  and  C_28 
REMARK    7  A    between atoms: C_28  and  C_29 
ROOT
HETATM    1  C   UNL     1      -9.128   3.066 -32.701  1.00  0.00     0.123 A 
HETATM    2  N   UNL     1      -8.277   3.304 -33.857  1.00  0.00    -0.324 N 
HETATM    3  C   UNL     1      -7.128   3.999 -33.566  1.00  0.00     0.326 A 
HETATM    4  O   UNL     1      -6.287   4.301 -34.390  1.00  0.00    -0.247 OA
HETATM    5  N   UNL     1      -7.102   4.230 -32.226  1.00  0.00    -0.268 N 
HETATM    6  C   UNL     1      -8.229   3.735 -31.639  1.00  0.00     0.257 A 
HETATM    7  O   UNL     1      -8.473   3.757 -30.439  1.00  0.00    -0.270 OA
HETATM    8  H   UNL     1      -8.517   3.096 -34.822  1.00  0.00     0.165 HD
ENDROOT
BRANCH   1   9
HETATM    9  C   UNL     1      -9.321   1.521 -32.498  1.00  0.00     0.027 C 
HETATM   10  C   UNL     1      -8.388   0.809 -31.502  1.00  0.00     0.035 C 
HETATM   11  C   UNL     1      -7.000   0.449 -32.013  1.00  0.00     0.235 C 
HETATM   12  N   UNL     1      -7.032  -0.192 -33.377  1.00  0.00    -0.067 N 
HETATM   13  H   UNL     1      -7.315  -1.173 -33.240  1.00  0.00     0.280 HD
HETATM   14  C   UNL     1      -7.978   0.400 -34.386  1.00  0.00     0.235 C 
HETATM   15  C   UNL     1      -9.345   0.675 -33.787  1.00  0.00     0.035 C 
BRANCH  12  16
HETATM   16  C   UNL     1      -5.634  -0.245 -33.984  1.00  0.00     0.278 C 
BRANCH  16  17
HETATM   17  C   UNL     1      -4.850  -1.436 -33.601  1.00  0.00     0.034 A 
HETATM   18  C   UNL     1      -4.835  -2.723 -34.210  1.00  0.00     0.062 A 
HETATM   19  C   UNL     1      -5.579  -3.198 -35.407  1.00  0.00     0.073 C 
HETATM   20  N   UNL     1      -4.007  -3.562 -33.576  1.00  0.00    -0.176 NA
HETATM   21  N   UNL     1      -3.533  -2.854 -32.532  1.00  0.00    -0.262 N 
HETATM   22  C   UNL     1      -2.672  -3.498 -31.566  1.00  0.00     0.181 C 
HETATM   23  C   UNL     1      -3.985  -1.570 -32.542  1.00  0.00     0.131 A 
HETATM   24 CL   UNL     1      -3.493  -0.443 -31.367  1.00  0.00    -0.062 Cl
ENDBRANCH  16  17
ENDBRANCH  12  16
ENDBRANCH   1   9
BRANCH   1  25
HETATM   25  C   UNL     1     -10.431   3.902 -32.787  1.00  0.00     0.080 C 
BRANCH  25  26
HETATM   26  C   UNL     1     -11.612   3.183 -33.401  1.00  0.00    -0.052 A 
HETATM   27  C   UNL     1     -12.671   2.716 -32.613  1.00  0.00     0.049 A 
HETATM   28  C   UNL     1     -13.738   2.043 -33.205  1.00  0.00     0.116 A 
HETATM   29  F   UNL     1     -14.735   1.593 -32.432  1.00  0.00    -0.206 F 
HETATM   30  C   UNL     1     -13.783   1.831 -34.577  1.00  0.00     0.042 A 
HETATM   31  C   UNL     1     -12.743   2.302 -35.373  1.00  0.00     0.003 A 
HETATM   32  C   UNL     1     -11.665   2.975 -34.790  1.00  0.00     0.007 A 
ENDBRANCH  25  26
ENDBRANCH   1  25
BRANCH   5  33
HETATM   33  C   UNL     1      -6.007   4.875 -31.526  1.00  0.00     0.140 C 
BRANCH  33  34
HETATM   34  C   UNL     1      -4.712   4.048 -31.510  1.00  0.00    -0.004 C 
HETATM   35  C   UNL     1      -3.481   4.912 -31.234  1.00  0.00     0.011 C 
HETATM   36  C   UNL     1      -4.824   2.949 -30.450  1.00  0.00     0.011 C 
ENDBRANCH  33  34
ENDBRANCH   5  33
TORSDOF 7
ENDMDL
MODEL 8
REMARK VINA RESULT:      -8.7      2.531      5.457
REMARK  7 active torsions:
REMARK  status: ('A' for Active; 'I' for Inactive)
REMARK    1  A    between atoms: C_8  and  C_9 
REMARK    2  A    between atoms: C_9  and  N_10 
REMARK    3  A    between atoms: C_14  and  C_15 
REMARK    4  A    between atoms: C_15  and  C_16 
REMARK    5  A    between atoms: C_16  and  C_17 
REMARK    6  A    between atoms: N_27  and  C_28 
REMARK    7  A    between atoms: C_28  and  C_29 
ROOT
HETATM    1  C   UNL     1      -6.767   0.367 -33.557  1.00  0.00     0.123 A 
HETATM    2  N   UNL     1      -6.659   1.805 -33.756  1.00  0.00    -0.324 N 
HETATM    3  C   UNL     1      -7.860   2.467 -33.676  1.00  0.00     0.326 A 
HETATM    4  O   UNL     1      -7.987   3.668 -33.813  1.00  0.00    -0.247 OA
HETATM    5  N   UNL     1      -8.826   1.556 -33.380  1.00  0.00    -0.268 N 
HETATM    6  C   UNL     1      -8.288   0.305 -33.302  1.00  0.00     0.257 A 
HETATM    7  O   UNL     1      -8.901  -0.714 -33.013  1.00  0.00    -0.270 OA
HETATM    8  H   UNL     1      -5.820   2.303 -34.039  1.00  0.00     0.165 HD
ENDROOT
BRANCH   1   9
HETATM    9  C   UNL     1      -5.892  -0.061 -32.326  1.00  0.00     0.027 C 
HETATM   10  C   UNL     1      -6.183   0.612 -30.973  1.00  0.00     0.035 C 
HETATM   11  C   UNL     1      -5.586   1.997 -30.765  1.00  0.00     0.235 C 
HETATM   12  N   UNL     1      -4.140   2.075 -31.182  1.00  0.00    -0.067 N 
HETATM   13  H   UNL     1      -3.587   1.644 -30.426  1.00  0.00     0.280 HD
HETATM   14  C   UNL     1      -3.760   1.374 -32.457  1.00  0.00     0.235 C 
HETATM   15  C   UNL     1      -4.365  -0.015 -32.542  1.00  0.00     0.035 C 
BRANCH  12  16
HETATM   16  C   UNL     1      -3.675   3.526 -31.259  1.00  0.00     0.278 C 
BRANCH  16  17
HETATM   17  C   UNL     1      -4.754   4.496 -31.531  1.00  0.00     0.034 A 
HETATM   18  C   UNL     1      -5.153   5.054 -32.779  1.00  0.00     0.062 A 
HETATM   19  C   UNL     1      -4.610   4.786 -34.137  1.00  0.00     0.073 C 
HETATM   20  N   UNL     1      -6.166   5.915 -32.635  1.00  0.00    -0.176 NA
HETATM   21  N   UNL     1      -6.389   5.967 -31.308  1.00  0.00    -0.262 N 
HETATM   22  C   UNL     1      -7.370   6.890 -30.784  1.00  0.00     0.181 C 
HETATM   23  C   UNL     1      -5.591   5.101 -30.625  1.00  0.00     0.131 A 
HETATM   24 CL   UNL     1      -5.707   4.923 -28.938  1.00  0.00    -0.062 Cl
ENDBRANCH  16  17
ENDBRANCH  12  16
ENDBRANCH   1   9
BRANCH   1  25
HETATM   25  C   UNL     1      -6.494  -0.399 -34.877  1.00  0.00     0.080 C 
BRANCH  25  26
HETATM   26  C   UNL     1      -6.175  -1.869 -34.709  1.00  0.00    -0.052 A 
HETATM   27  C   UNL     1      -4.854  -2.321 -34.608  1.00  0.00     0.049 A 
HETATM   28  C   UNL     1      -4.590  -3.681 -34.470  1.00  0.00     0.116 A 
HETATM   29  F   UNL     1      -3.319  -4.094 -34.388  1.00  0.00    -0.206 F 
HETATM   30  C   UNL     1      -5.620  -4.612 -34.419  1.00  0.00     0.042 A 
HETATM   31  C   UNL     1      -6.938  -4.175 -34.505  1.00  0.00     0.003 A 
HETATM   32  C   UNL     1      -7.215  -2.812 -34.649  1.00  0.00     0.007 A 
ENDBRANCH  25  26
ENDBRANCH   1  25
BRANCH   5  33
HETATM   33  C   UNL     1     -10.218   1.886 -33.140  1.00  0.00     0.140 C 
BRANCH  33  34
HETATM   34  C   UNL     1     -11.144   1.556 -34.321  1.00  0.00    -0.004 C 
HETATM   35  C   UNL     1     -12.391   0.789 -33.879  1.00  0.00     0.011 C 
HETATM   36  C   UNL     1     -11.553   2.853 -35.024  1.00  0.00     0.011 C 
ENDBRANCH  33  34
ENDBRANCH   5  33
TORSDOF 7
ENDMDL
MODEL 9
REMARK VINA RESULT:      -8.6      3.136      6.653
REMARK  7 active torsions:
REMARK  status: ('A' for Active; 'I' for Inactive)
REMARK    1  A    between atoms: C_8  and  C_9 
REMARK    2  A    between atoms: C_9  and  N_10 
REMARK    3  A    between atoms: C_14  and  C_15 
REMARK    4  A    between atoms: C_15  and  C_16 
REMARK    5  A    between atoms: C_16  and  C_17 
REMARK    6  A    between atoms: N_27  and  C_28 
REMARK    7  A    between atoms: C_28  and  C_29 
ROOT
HETATM    1  C   UNL     1      -7.516   1.179 -33.701  1.00  0.00     0.123 A 
HETATM    2  N   UNL     1      -7.737   2.586 -34.002  1.00  0.00    -0.324 N 
HETATM    3  C   UNL     1      -9.059   2.959 -33.970  1.00  0.00     0.326 A 
HETATM    4  O   UNL     1      -9.456   4.086 -34.193  1.00  0.00    -0.247 OA
HETATM    5  N   UNL     1      -9.795   1.873 -33.610  1.00  0.00    -0.268 N 
HETATM    6  C   UNL     1      -8.987   0.787 -33.443  1.00  0.00     0.257 A 
HETATM    7  O   UNL     1      -9.355  -0.323 -33.083  1.00  0.00    -0.270 OA
HETATM    8  H   UNL     1      -7.030   3.242 -34.319  1.00  0.00     0.165 HD
ENDROOT
BRANCH   1   9
HETATM    9  C   UNL     1      -6.587   1.049 -32.442  1.00  0.00     0.027 C 
HETATM   10  C   UNL     1      -7.211   1.322 -31.062  1.00  0.00     0.035 C 
HETATM   11  C   UNL     1      -7.352   2.783 -30.660  1.00  0.00     0.235 C 
HETATM   12  N   UNL     1      -6.103   3.583 -30.928  1.00  0.00    -0.067 N 
HETATM   13  H   UNL     1      -5.440   3.364 -30.171  1.00  0.00     0.280 HD
HETATM   14  C   UNL     1      -5.391   3.318 -32.225  1.00  0.00     0.235 C 
HETATM   15  C   UNL     1      -5.260   1.832 -32.507  1.00  0.00     0.035 C 
BRANCH  12  16
HETATM   16  C   UNL     1      -6.382   5.079 -30.815  1.00  0.00     0.278 C 
BRANCH  16  17
HETATM   17  C   UNL     1      -5.285   5.856 -30.204  1.00  0.00     0.034 A 
HETATM   18  C   UNL     1      -5.073   6.164 -28.830  1.00  0.00     0.062 A 
HETATM   19  C   UNL     1      -5.880   5.761 -27.648  1.00  0.00     0.073 C 
HETATM   20  N   UNL     1      -3.974   6.906 -28.653  1.00  0.00    -0.176 NA
HETATM   21  N   UNL     1      -3.506   7.132 -29.896  1.00  0.00    -0.262 N 
HETATM   22  C   UNL     1      -2.363   7.996 -30.081  1.00  0.00     0.181 C 
HETATM   23  C   UNL     1      -4.242   6.485 -30.840  1.00  0.00     0.131 A 
HETATM   24 CL   UNL     1      -3.833   6.553 -32.490  1.00  0.00    -0.062 Cl
ENDBRANCH  16  17
ENDBRANCH  12  16
ENDBRANCH   1   9
BRANCH   1  25
HETATM   25  C   UNL     1      -7.053   0.406 -34.963  1.00  0.00     0.080 C 
BRANCH  25  26
HETATM   26  C   UNL     1      -6.397  -0.929 -34.690  1.00  0.00    -0.052 A 
HETATM   27  C   UNL     1      -7.092  -2.132 -34.870  1.00  0.00     0.049 A 
HETATM   28  C   UNL     1      -6.467  -3.346 -34.595  1.00  0.00     0.116 A 
HETATM   29  F   UNL     1      -7.153  -4.485 -34.761  1.00  0.00    -0.206 F 
HETATM   30  C   UNL     1      -5.153  -3.395 -34.151  1.00  0.00     0.042 A 
HETATM   31  C   UNL     1      -4.447  -2.208 -33.981  1.00  0.00     0.003 A 
HETATM   32  C   UNL     1      -5.064  -0.983 -34.249  1.00  0.00     0.007 A 
ENDBRANCH  25  26
ENDBRANCH   1  25
BRANCH   5  33
HETATM   33  C   UNL     1     -11.230   1.890 -33.395  1.00  0.00     0.140 C 
BRANCH  33  34
HETATM   34  C   UNL     1     -12.042   1.384 -34.598  1.00  0.00    -0.004 C 
HETATM   35  C   UNL     1     -13.244   0.543 -34.169  1.00  0.00     0.011 C 
HETATM   36  C   UNL     1     -12.513   2.578 -35.432  1.00  0.00     0.011 C 
ENDBRANCH  33  34
ENDBRANCH   5  33
TORSDOF 7
ENDMDL
MODEL 10
REMARK VINA RESULT:      -8.5      3.027      7.186
REMARK  7 active torsions:
REMARK  status: ('A' for Active; 'I' for Inactive)
REMARK    1  A    between atoms: C_8  and  C_9 
REMARK    2  A    between atoms: C_9  and  N_10 
REMARK    3  A    between atoms: C_14  and  C_15 
REMARK    4  A    between atoms: C_15  and  C_16 
REMARK    5  A    between atoms: C_16  and  C_17 
REMARK    6  A    between atoms: N_27  and  C_28 
REMARK    7  A    between atoms: C_28  and  C_29 
ROOT
HETATM    1  C   UNL     1      -7.421   1.856 -31.327  1.00  0.00     0.123 A 
HETATM    2  N   UNL     1      -6.707   2.293 -32.517  1.00  0.00    -0.324 N 
HETATM    3  C   UNL     1      -7.484   3.001 -33.402  1.00  0.00     0.326 A 
HETATM    4  O   UNL     1      -7.078   3.452 -34.455  1.00  0.00    -0.247 OA
HETATM    5  N   UNL     1      -8.727   3.127 -32.865  1.00  0.00    -0.268 N 
HETATM    6  C   UNL     1      -8.791   2.484 -31.664  1.00  0.00     0.257 A 
HETATM    7  O   UNL     1      -9.767   2.454 -30.926  1.00  0.00    -0.270 OA
HETATM    8  H   UNL     1      -5.758   2.031 -32.768  1.00  0.00     0.165 HD
ENDROOT
BRANCH   1   9
HETATM    9  C   UNL     1      -6.736   2.459 -30.050  1.00  0.00     0.027 C 
HETATM   10  C   UNL     1      -7.103   3.899 -29.654  1.00  0.00     0.035 C 
HETATM   11  C   UNL     1      -6.394   5.012 -30.414  1.00  0.00     0.235 C 
HETATM   12  N   UNL     1      -4.910   4.777 -30.537  1.00  0.00    -0.067 N 
HETATM   13  H   UNL     1      -4.491   5.031 -29.631  1.00  0.00     0.280 HD
HETATM   14  C   UNL     1      -4.466   3.374 -30.847  1.00  0.00     0.235 C 
HETATM   15  C   UNL     1      -5.198   2.348 -30.001  1.00  0.00     0.035 C 
BRANCH  12  16
HETATM   16  C   UNL     1      -4.293   5.726 -31.559  1.00  0.00     0.278 C 
BRANCH  16  17
HETATM   17  C   UNL     1      -2.821   5.812 -31.498  1.00  0.00     0.034 A 
HETATM   18  C   UNL     1      -1.862   5.302 -32.421  1.00  0.00     0.062 A 
HETATM   19  C   UNL     1      -2.091   4.580 -33.700  1.00  0.00     0.073 C 
HETATM   20  N   UNL     1      -0.610   5.558 -32.025  1.00  0.00    -0.176 NA
HETATM   21  N   UNL     1      -0.743   6.172 -30.833  1.00  0.00    -0.262 N 
HETATM   22  C   UNL     1       0.436   6.506 -30.068  1.00  0.00     0.181 C 
HETATM   23  C   UNL     1      -2.050   6.374 -30.510  1.00  0.00     0.131 A 
HETATM   24 CL   UNL     1      -2.499   7.182 -29.083  1.00  0.00    -0.062 Cl
ENDBRANCH  16  17
ENDBRANCH  12  16
ENDBRANCH   1   9
BRANCH   1  25
HETATM   25  C   UNL     1      -7.613   0.317 -31.326  1.00  0.00     0.080 C 
BRANCH  25  26
HETATM   26  C   UNL     1      -6.764  -0.433 -32.329  1.00  0.00    -0.052 A 
HETATM   27  C   UNL     1      -5.429  -0.754 -32.057  1.00  0.00     0.049 A 
HETATM   28  C   UNL     1      -4.667  -1.432 -33.006  1.00  0.00     0.116 A 
HETATM   29  F   UNL     1      -3.387  -1.718 -32.732  1.00  0.00    -0.206 F 
HETATM   30  C   UNL     1      -5.209  -1.812 -34.227  1.00  0.00     0.042 A 
HETATM   31  C   UNL     1      -6.540  -1.511 -34.504  1.00  0.00     0.003 A 
HETATM   32  C   UNL     1      -7.313  -0.827 -33.561  1.00  0.00     0.007 A 
ENDBRANCH  25  26
ENDBRANCH   1  25
BRANCH   5  33
HETATM   33  C   UNL     1      -9.809   3.879 -33.471  1.00  0.00     0.140 C 
BRANCH  33  34
HETATM   34  C   UNL     1     -10.540   3.118 -34.589  1.00  0.00    -0.004 C 
HETATM   35  C   UNL     1     -11.554   2.116 -34.036  1.00  0.00     0.011 C 
HETATM   36  C   UNL     1     -11.246   4.119 -35.508  1.00  0.00     0.011 C 
ENDBRANCH  33  34
ENDBRANCH   5  33
TORSDOF 7
ENDMDL
