MODEL 1
REMARK VINA RESULT:      -9.0      0.000      0.000
REMARK  7 active torsions:
REMARK  status: ('A' for Active; 'I' for Inactive)
REMARK    1  A    between atoms: C_6  and  N_7 
REMARK    2  A    between atoms: C_10  and  C_11 
REMARK       I    between atoms: C_11  and  N_12 
REMARK    3  A    between atoms: N_12  and  C_13 
REMARK    4  A    between atoms: C_16  and  C_17 
REMARK    5  A    between atoms: C_17  and  N_18 
REMARK    6  A    between atoms: C_21  and  C_22 
REMARK       I    between atoms: C_22  and  N_23 
REMARK    7  A    between atoms: C_31  and  C_32 
ROOT
HETATM    1  C   UNL     1      -1.600   4.680 -31.759  1.00  0.00     0.278 C 
HETATM    2  N   UNL     1      -2.677   3.964 -31.268  1.00  0.00    -0.322 N 
HETATM    3  O   UNL     1      -1.332   4.867 -32.939  1.00  0.00    -0.265 OA
HETATM    4  H   UNL     1      -2.763   3.958 -30.255  1.00  0.00     0.169 HD
ENDROOT
BRANCH   2   5
HETATM    5  C   UNL     1      -3.666   3.289 -32.007  1.00  0.00     0.035 A 
HETATM    6  C   UNL     1      -4.648   3.932 -32.759  1.00  0.00     0.030 A 
HETATM    7  C   UNL     1      -5.608   3.196 -33.462  1.00  0.00     0.011 A 
HETATM    8  C   UNL     1      -5.602   1.797 -33.431  1.00  0.00    -0.032 A 
HETATM    9  C   UNL     1      -4.614   1.148 -32.680  1.00  0.00     0.011 A 
HETATM   10  C   UNL     1      -3.655   1.889 -31.978  1.00  0.00     0.030 A 
BRANCH   8  11
HETATM   11  C   UNL     1      -6.644   1.020 -34.192  1.00  0.00     0.273 C 
BRANCH  11  12
HETATM   12  N   UNL     1      -8.023   1.102 -33.579  1.00  0.00    -0.066 N 
HETATM   13  H   UNL     1      -7.893   1.549 -32.648  1.00  0.00     0.280 HD
HETATM   14  C   UNL     1      -8.952   2.035 -34.325  1.00  0.00     0.249 C 
HETATM   15  C   UNL     1     -10.274   2.197 -33.573  1.00  0.00     0.103 C 
HETATM   16  C   UNL     1     -10.915   0.838 -33.283  1.00  0.00     0.017 C 
HETATM   17  C   UNL     1      -9.941  -0.127 -32.601  1.00  0.00     0.029 C 
HETATM   18  C   UNL     1      -8.625  -0.256 -33.354  1.00  0.00     0.235 C 
BRANCH  15  19
HETATM   19  C   UNL     1     -10.020   2.949 -32.279  1.00  0.00     0.221 C 
HETATM   20  N   UNL     1     -11.113   3.250 -31.533  1.00  0.00    -0.370 N 
HETATM   21  H   UNL     1     -12.070   3.113 -31.838  1.00  0.00     0.159 HD
HETATM   22  H   UNL     1     -10.977   3.757 -30.664  1.00  0.00     0.159 HD
HETATM   23  O   UNL     1      -8.879   3.190 -31.892  1.00  0.00    -0.273 OA
ENDBRANCH  15  19
ENDBRANCH  11  12
ENDBRANCH   8  11
ENDBRANCH   2   5
BRANCH   1  24
HETATM   24  C   UNL     1      -0.779   5.261 -30.702  1.00  0.00     0.175 C 
HETATM   25  N   UNL     1       0.211   4.566 -30.066  1.00  0.00    -0.152 NA
HETATM   26  N   UNL     1       0.748   5.365 -29.159  1.00  0.00     0.011 NA
HETATM   27  N   UNL     1       0.034   6.526 -29.119  1.00  0.00    -0.231 N 
HETATM   28  C   UNL     1      -0.822   6.548 -30.198  1.00  0.00     0.174 C 
BRANCH  27  29
HETATM   29  C   UNL     1       0.225   7.426 -28.032  1.00  0.00     0.058 A 
HETATM   30  C   UNL     1      -0.742   7.473 -27.014  1.00  0.00     0.073 A 
HETATM   31  C   UNL     1      -0.582   8.352 -25.948  1.00  0.00     0.118 A 
HETATM   32  C   UNL     1       0.512   9.205 -25.877  1.00  0.00     0.042 A 
HETATM   33  F   UNL     1      -1.499   8.375 -24.972  1.00  0.00    -0.206 F 
HETATM   34  C   UNL     1       1.460   9.185 -26.895  1.00  0.00     0.005 A 
HETATM   35  C   UNL     1       1.317   8.304 -27.975  1.00  0.00     0.031 A 
ENDBRANCH  27  29
BRANCH  28  36
HETATM   36  C   UNL     1      -1.532   7.722 -30.693  1.00  0.00     0.436 C 
HETATM   37  F   UNL     1      -2.877   7.548 -30.705  1.00  0.00    -0.165 F 
HETATM   38  F   UNL     1      -1.323   8.815 -29.919  1.00  0.00    -0.165 F 
HETATM   39  F   UNL     1      -1.162   8.040 -31.956  1.00  0.00    -0.165 F 
ENDBRANCH  28  36
ENDBRANCH   1  24
TORSDOF 7
ENDMDL
MODEL 2
REMARK VINA RESULT:      -8.7      4.220     10.789
REMARK  7 active torsions:
REMARK  status: ('A' for Active; 'I' for Inactive)
REMARK    1  A    between atoms: C_6  and  N_7 
REMARK    2  A    between atoms: C_10  and  C_11 
REMARK       I    between atoms: C_11  and  N_12 
REMARK    3  A    between atoms: N_12  and  C_13 
REMARK    4  A    between atoms: C_16  and  C_17 
REMARK    5  A    between atoms: C_17  and  N_18 
REMARK    6  A    between atoms: C_21  and  C_22 
REMARK       I    between atoms: C_22  and  N_23 
REMARK    7  A    between atoms: C_31  and  C_32 
ROOT
HETATM    1  C   UNL     1      -5.272   2.403 -32.001  1.00  0.00     0.278 C 
HETATM    2  N   UNL     1      -4.352   3.317 -32.484  1.00  0.00    -0.322 N 
HETATM    3  O   UNL     1      -5.893   2.488 -30.951  1.00  0.00    -0.265 OA
HETATM    4  H   UNL     1      -3.972   3.101 -33.402  1.00  0.00     0.169 HD
ENDROOT
BRANCH   2   5
HETATM    5  C   UNL     1      -3.926   4.510 -31.870  1.00  0.00     0.035 A 
HETATM    6  C   UNL     1      -4.786   5.542 -31.499  1.00  0.00     0.030 A 
HETATM    7  C   UNL     1      -4.291   6.706 -30.900  1.00  0.00     0.011 A 
HETATM    8  C   UNL     1      -2.921   6.859 -30.656  1.00  0.00    -0.032 A 
HETATM    9  C   UNL     1      -2.055   5.822 -31.024  1.00  0.00     0.011 A 
HETATM   10  C   UNL     1      -2.556   4.658 -31.622  1.00  0.00     0.030 A 
BRANCH   8  11
HETATM   11  C   UNL     1      -2.405   8.119 -30.013  1.00  0.00     0.273 C 
BRANCH  11  12
HETATM   12  N   UNL     1      -1.770   7.888 -28.660  1.00  0.00    -0.066 N 
HETATM   13  H   UNL     1      -1.040   7.161 -28.810  1.00  0.00     0.280 HD
HETATM   14  C   UNL     1      -1.010   9.091 -28.146  1.00  0.00     0.249 C 
HETATM   15  C   UNL     1      -0.263   8.748 -26.856  1.00  0.00     0.103 C 
HETATM   16  C   UNL     1      -1.212   8.160 -25.808  1.00  0.00     0.017 C 
HETATM   17  C   UNL     1      -2.034   6.994 -26.363  1.00  0.00     0.029 C 
HETATM   18  C   UNL     1      -2.752   7.351 -27.658  1.00  0.00     0.235 C 
BRANCH  15  19
HETATM   19  C   UNL     1       0.850   7.766 -27.173  1.00  0.00     0.221 C 
HETATM   20  N   UNL     1       1.657   7.416 -26.139  1.00  0.00    -0.370 N 
HETATM   21  H   UNL     1       1.635   7.850 -25.224  1.00  0.00     0.159 HD
HETATM   22  H   UNL     1       2.414   6.764 -26.319  1.00  0.00     0.159 HD
HETATM   23  O   UNL     1       0.954   7.253 -28.284  1.00  0.00    -0.273 OA
ENDBRANCH  15  19
ENDBRANCH  11  12
ENDBRANCH   8  11
ENDBRANCH   2   5
BRANCH   1  24
HETATM   24  C   UNL     1      -5.482   1.282 -32.911  1.00  0.00     0.175 C 
HETATM   25  N   UNL     1      -6.348   1.336 -33.967  1.00  0.00    -0.152 NA
HETATM   26  N   UNL     1      -6.317   0.162 -34.576  1.00  0.00     0.011 NA
HETATM   27  N   UNL     1      -5.534  -0.688 -33.852  1.00  0.00    -0.231 N 
HETATM   28  C   UNL     1      -4.863   0.045 -32.898  1.00  0.00     0.174 C 
BRANCH  27  29
HETATM   29  C   UNL     1      -5.573  -2.083 -34.133  1.00  0.00     0.058 A 
HETATM   30  C   UNL     1      -4.376  -2.816 -34.091  1.00  0.00     0.073 A 
HETATM   31  C   UNL     1      -4.388  -4.179 -34.373  1.00  0.00     0.118 A 
HETATM   32  C   UNL     1      -5.565  -4.831 -34.717  1.00  0.00     0.042 A 
HETATM   33  F   UNL     1      -3.245  -4.873 -34.310  1.00  0.00    -0.206 F 
HETATM   34  C   UNL     1      -6.751  -4.107 -34.789  1.00  0.00     0.005 A 
HETATM   35  C   UNL     1      -6.758  -2.735 -34.505  1.00  0.00     0.031 A 
ENDBRANCH  27  29
BRANCH  28  36
HETATM   36  C   UNL     1      -3.714  -0.417 -32.127  1.00  0.00     0.436 C 
HETATM   37  F   UNL     1      -3.400   0.424 -31.110  1.00  0.00    -0.165 F 
HETATM   38  F   UNL     1      -3.937  -1.618 -31.538  1.00  0.00    -0.165 F 
HETATM   39  F   UNL     1      -2.607  -0.539 -32.897  1.00  0.00    -0.165 F 
ENDBRANCH  28  36
ENDBRANCH   1  24
TORSDOF 7
ENDMDL
MODEL 3
REMARK VINA RESULT:      -8.7      5.155     12.691
REMARK  7 active torsions:
REMARK  status: ('A' for Active; 'I' for Inactive)
REMARK    1  A    between atoms: C_6  and  N_7 
REMARK    2  A    between atoms: C_10  and  C_11 
REMARK       I    between atoms: C_11  and  N_12 
REMARK    3  A    between atoms: N_12  and  C_13 
REMARK    4  A    between atoms: C_16  and  C_17 
REMARK    5  A    between atoms: C_17  and  N_18 
REMARK    6  A    between atoms: C_21  and  C_22 
REMARK       I    between atoms: C_22  and  N_23 
REMARK    7  A    between atoms: C_31  and  C_32 
ROOT
HETATM    1  C   UNL     1      -0.844   7.459 -27.094  1.00  0.00     0.278 C 
HETATM    2  N   UNL     1      -0.025   8.566 -26.963  1.00  0.00    -0.322 N 
HETATM    3  O   UNL     1      -1.057   6.610 -26.238  1.00  0.00    -0.265 OA
HETATM    4  H   UNL     1      -0.010   9.187 -27.767  1.00  0.00     0.169 HD
ENDROOT
BRANCH   2   5
HETATM    5  C   UNL     1       0.745   8.935 -25.843  1.00  0.00     0.035 A 
HETATM    6  C   UNL     1       0.233   9.620 -24.742  1.00  0.00     0.030 A 
HETATM    7  C   UNL     1       1.059   9.964 -23.666  1.00  0.00     0.011 A 
HETATM    8  C   UNL     1       2.417   9.625 -23.669  1.00  0.00    -0.032 A 
HETATM    9  C   UNL     1       2.933   8.934 -24.772  1.00  0.00     0.011 A 
HETATM   10  C   UNL     1       2.101   8.591 -25.846  1.00  0.00     0.030 A 
BRANCH   8  11
HETATM   11  C   UNL     1       3.293  10.005 -22.504  1.00  0.00     0.273 C 
BRANCH  11  12
HETATM   12  N   UNL     1       4.485   9.093 -22.325  1.00  0.00    -0.066 N 
HETATM   13  H   UNL     1       4.786   8.827 -23.285  1.00  0.00     0.280 HD
HETATM   14  C   UNL     1       5.686   9.795 -21.729  1.00  0.00     0.249 C 
HETATM   15  C   UNL     1       6.903   8.868 -21.717  1.00  0.00     0.103 C 
HETATM   16  C   UNL     1       6.584   7.547 -21.012  1.00  0.00     0.017 C 
HETATM   17  C   UNL     1       5.320   6.885 -21.568  1.00  0.00     0.029 C 
HETATM   18  C   UNL     1       4.128   7.832 -21.591  1.00  0.00     0.235 C 
BRANCH  15  19
HETATM   19  C   UNL     1       7.346   8.611 -23.146  1.00  0.00     0.221 C 
HETATM   20  N   UNL     1       8.296   7.658 -23.320  1.00  0.00    -0.370 N 
HETATM   21  H   UNL     1       8.799   7.207 -22.565  1.00  0.00     0.159 HD
HETATM   22  H   UNL     1       8.617   7.466 -24.264  1.00  0.00     0.159 HD
HETATM   23  O   UNL     1       6.806   9.176 -24.094  1.00  0.00    -0.273 OA
ENDBRANCH  15  19
ENDBRANCH  11  12
ENDBRANCH   8  11
ENDBRANCH   2   5
BRANCH   1  24
HETATM   24  C   UNL     1      -1.502   7.395 -28.394  1.00  0.00     0.175 C 
HETATM   25  N   UNL     1      -2.821   7.707 -28.574  1.00  0.00    -0.152 NA
HETATM   26  N   UNL     1      -3.106   7.534 -29.854  1.00  0.00     0.011 NA
HETATM   27  N   UNL     1      -2.020   6.996 -30.478  1.00  0.00    -0.231 N 
HETATM   28  C   UNL     1      -0.947   7.061 -29.616  1.00  0.00     0.174 C 
BRANCH  27  29
HETATM   29  C   UNL     1      -2.165   6.446 -31.783  1.00  0.00     0.058 A 
HETATM   30  C   UNL     1      -2.269   5.052 -31.923  1.00  0.00     0.073 A 
HETATM   31  C   UNL     1      -2.401   4.491 -33.189  1.00  0.00     0.118 A 
HETATM   32  C   UNL     1      -2.413   5.284 -34.329  1.00  0.00     0.042 A 
HETATM   33  F   UNL     1      -2.520   3.163 -33.311  1.00  0.00    -0.206 F 
HETATM   34  C   UNL     1      -2.281   6.664 -34.202  1.00  0.00     0.005 A 
HETATM   35  C   UNL     1      -2.151   7.246 -32.935  1.00  0.00     0.031 A 
ENDBRANCH  27  29
BRANCH  28  36
HETATM   36  C   UNL     1       0.452   6.878 -29.989  1.00  0.00     0.436 C 
HETATM   37  F   UNL     1       0.660   7.046 -31.319  1.00  0.00    -0.165 F 
HETATM   38  F   UNL     1       1.268   7.777 -29.386  1.00  0.00    -0.165 F 
HETATM   39  F   UNL     1       0.899   5.641 -29.670  1.00  0.00    -0.165 F 
ENDBRANCH  28  36
ENDBRANCH   1  24
TORSDOF 7
ENDMDL
MODEL 4
REMARK VINA RESULT:      -8.6      4.249     11.135
REMARK  7 active torsions:
REMARK  status: ('A' for Active; 'I' for Inactive)
REMARK    1  A    between atoms: C_6  and  N_7 
REMARK    2  A    between atoms: C_10  and  C_11 
REMARK       I    between atoms: C_11  and  N_12 
REMARK    3  A    between atoms: N_12  and  C_13 
REMARK    4  A    between atoms: C_16  and  C_17 
REMARK    5  A    between atoms: C_17  and  N_18 
REMARK    6  A    between atoms: C_21  and  C_22 
REMARK       I    between atoms: C_22  and  N_23 
REMARK    7  A    between atoms: C_31  and  C_32 
ROOT
HETATM    1  C   UNL     1      -8.006   4.418 -33.339  1.00  0.00     0.278 C 
HETATM    2  N   UNL     1      -6.926   3.781 -33.926  1.00  0.00    -0.322 N 
HETATM    3  O   UNL     1      -7.953   5.311 -32.505  1.00  0.00    -0.265 OA
HETATM    4  H   UNL     1      -7.166   3.094 -34.636  1.00  0.00     0.169 HD
ENDROOT
BRANCH   2   5
HETATM    5  C   UNL     1      -5.559   4.005 -33.676  1.00  0.00     0.035 A 
HETATM    6  C   UNL     1      -4.791   3.228 -32.810  1.00  0.00     0.030 A 
HETATM    7  C   UNL     1      -3.438   3.514 -32.602  1.00  0.00     0.011 A 
HETATM    8  C   UNL     1      -2.822   4.584 -33.262  1.00  0.00    -0.032 A 
HETATM    9  C   UNL     1      -3.590   5.363 -34.135  1.00  0.00     0.011 A 
HETATM   10  C   UNL     1      -4.944   5.072 -34.341  1.00  0.00     0.030 A 
BRANCH   8  11
HETATM   11  C   UNL     1      -1.364   4.879 -33.024  1.00  0.00     0.273 C 
BRANCH  11  12
HETATM   12  N   UNL     1      -1.131   6.034 -32.077  1.00  0.00    -0.066 N 
HETATM   13  H   UNL     1      -1.065   6.883 -32.676  1.00  0.00     0.280 HD
HETATM   14  C   UNL     1      -2.307   6.301 -31.163  1.00  0.00     0.249 C 
HETATM   15  C   UNL     1      -2.076   7.571 -30.341  1.00  0.00     0.103 C 
HETATM   16  C   UNL     1      -0.746   7.505 -29.585  1.00  0.00     0.017 C 
HETATM   17  C   UNL     1       0.426   7.154 -30.506  1.00  0.00     0.029 C 
HETATM   18  C   UNL     1       0.166   5.900 -31.329  1.00  0.00     0.235 C 
BRANCH  15  19
HETATM   19  C   UNL     1      -2.099   8.772 -31.268  1.00  0.00     0.221 C 
HETATM   20  N   UNL     1      -2.278   9.983 -30.680  1.00  0.00    -0.370 N 
HETATM   21  H   UNL     1      -2.511  10.116 -29.703  1.00  0.00     0.159 HD
HETATM   22  H   UNL     1      -2.302  10.806 -31.273  1.00  0.00     0.159 HD
HETATM   23  O   UNL     1      -1.877   8.658 -32.471  1.00  0.00    -0.273 OA
ENDBRANCH  15  19
ENDBRANCH  11  12
ENDBRANCH   8  11
ENDBRANCH   2   5
BRANCH   1  24
HETATM   24  C   UNL     1      -9.286   3.939 -33.848  1.00  0.00     0.175 C 
HETATM   25  N   UNL     1      -9.943   4.539 -34.886  1.00  0.00    -0.152 NA
HETATM   26  N   UNL     1     -11.070   3.877 -35.088  1.00  0.00     0.011 NA
HETATM   27  N   UNL     1     -11.207   2.934 -34.112  1.00  0.00    -0.231 N 
HETATM   28  C   UNL     1     -10.016   2.843 -33.426  1.00  0.00     0.174 C 
BRANCH  27  29
HETATM   29  C   UNL     1     -12.465   2.292 -33.934  1.00  0.00     0.058 A 
HETATM   30  C   UNL     1     -13.282   2.690 -32.863  1.00  0.00     0.073 A 
HETATM   31  C   UNL     1     -14.512   2.069 -32.662  1.00  0.00     0.118 A 
HETATM   32  C   UNL     1     -14.943   1.043 -33.492  1.00  0.00     0.042 A 
HETATM   33  F   UNL     1     -15.292   2.470 -31.651  1.00  0.00    -0.206 F 
HETATM   34  C   UNL     1     -14.127   0.623 -34.539  1.00  0.00     0.005 A 
HETATM   35  C   UNL     1     -12.888   1.239 -34.758  1.00  0.00     0.031 A 
ENDBRANCH  27  29
BRANCH  28  36
HETATM   36  C   UNL     1      -9.641   1.762 -32.521  1.00  0.00     0.436 C 
HETATM   37  F   UNL     1     -10.437   0.672 -32.657  1.00  0.00    -0.165 F 
HETATM   38  F   UNL     1      -8.383   1.312 -32.748  1.00  0.00    -0.165 F 
HETATM   39  F   UNL     1      -9.710   2.145 -31.224  1.00  0.00    -0.165 F 
ENDBRANCH  28  36
ENDBRANCH   1  24
TORSDOF 7
ENDMDL
MODEL 5
REMARK VINA RESULT:      -8.2     19.339     20.923
REMARK  7 active torsions:
REMARK  status: ('A' for Active; 'I' for Inactive)
REMARK    1  A    between atoms: C_6  and  N_7 
REMARK    2  A    between atoms: C_10  and  C_11 
REMARK       I    between atoms: C_11  and  N_12 
REMARK    3  A    between atoms: N_12  and  C_13 
REMARK    4  A    between atoms: C_16  and  C_17 
REMARK    5  A    between atoms: C_17  and  N_18 
REMARK    6  A    between atoms: C_21  and  C_22 
REMARK       I    between atoms: C_22  and  N_23 
REMARK    7  A    between atoms: C_31  and  C_32 
ROOT
HETATM    1  C   UNL     1      -5.686 -16.092 -31.235  1.00  0.00     0.278 C 
HETATM    2  N   UNL     1      -5.194 -15.146 -32.117  1.00  0.00    -0.322 N 
HETATM    3  O   UNL     1      -6.704 -16.756 -31.379  1.00  0.00    -0.265 OA
HETATM    4  H   UNL     1      -4.306 -14.730 -31.850  1.00  0.00     0.169 HD
ENDROOT
BRANCH   2   5
HETATM    5  C   UNL     1      -5.762 -14.736 -33.338  1.00  0.00     0.035 A 
HETATM    6  C   UNL     1      -6.494 -13.560 -33.497  1.00  0.00     0.030 A 
HETATM    7  C   UNL     1      -7.039 -13.219 -34.739  1.00  0.00     0.011 A 
HETATM    8  C   UNL     1      -6.856 -14.047 -35.854  1.00  0.00    -0.032 A 
HETATM    9  C   UNL     1      -6.117 -15.226 -35.698  1.00  0.00     0.011 A 
HETATM   10  C   UNL     1      -5.574 -15.563 -34.452  1.00  0.00     0.030 A 
BRANCH   8  11
HETATM   11  C   UNL     1      -7.451 -13.665 -37.183  1.00  0.00     0.273 C 
BRANCH  11  12
HETATM   12  N   UNL     1      -6.429 -13.163 -38.178  1.00  0.00    -0.066 N 
HETATM   13  H   UNL     1      -5.878 -12.437 -37.676  1.00  0.00     0.280 HD
HETATM   14  C   UNL     1      -5.412 -14.214 -38.567  1.00  0.00     0.249 C 
HETATM   15  C   UNL     1      -4.318 -13.608 -39.448  1.00  0.00     0.103 C 
HETATM   16  C   UNL     1      -4.919 -12.893 -40.661  1.00  0.00     0.017 C 
HETATM   17  C   UNL     1      -6.005 -11.890 -40.262  1.00  0.00     0.029 C 
HETATM   18  C   UNL     1      -7.071 -12.509 -39.369  1.00  0.00     0.235 C 
BRANCH  15  19
HETATM   19  C   UNL     1      -3.493 -12.640 -38.620  1.00  0.00     0.221 C 
HETATM   20  N   UNL     1      -2.245 -12.366 -39.079  1.00  0.00    -0.370 N 
HETATM   21  H   UNL     1      -1.802 -12.847 -39.853  1.00  0.00     0.159 HD
HETATM   22  H   UNL     1      -1.666 -11.726 -38.545  1.00  0.00     0.159 HD
HETATM   23  O   UNL     1      -3.966 -12.072 -37.638  1.00  0.00    -0.273 OA
ENDBRANCH  15  19
ENDBRANCH  11  12
ENDBRANCH   8  11
ENDBRANCH   2   5
BRANCH   1  24
HETATM   24  C   UNL     1      -4.829 -16.274 -30.068  1.00  0.00     0.175 C 
HETATM   25  N   UNL     1      -5.234 -15.975 -28.797  1.00  0.00    -0.152 NA
HETATM   26  N   UNL     1      -4.227 -16.237 -27.980  1.00  0.00     0.011 NA
HETATM   27  N   UNL     1      -3.137 -16.584 -28.723  1.00  0.00    -0.231 N 
HETATM   28  C   UNL     1      -3.543 -16.779 -30.025  1.00  0.00     0.174 C 
BRANCH  27  29
HETATM   29  C   UNL     1      -1.856 -16.627 -28.104  1.00  0.00     0.058 A 
HETATM   30  C   UNL     1      -0.937 -15.601 -28.377  1.00  0.00     0.073 A 
HETATM   31  C   UNL     1       0.325 -15.628 -27.792  1.00  0.00     0.118 A 
HETATM   32  C   UNL     1       0.707 -16.667 -26.952  1.00  0.00     0.042 A 
HETATM   33  F   UNL     1       1.187 -14.635 -28.042  1.00  0.00    -0.206 F 
HETATM   34  C   UNL     1      -0.188 -17.703 -26.699  1.00  0.00     0.005 A 
HETATM   35  C   UNL     1      -1.464 -17.690 -27.277  1.00  0.00     0.031 A 
ENDBRANCH  27  29
BRANCH  28  36
HETATM   36  C   UNL     1      -2.764 -17.445 -31.064  1.00  0.00     0.436 C 
HETATM   37  F   UNL     1      -1.955 -18.412 -30.565  1.00  0.00    -0.165 F 
HETATM   38  F   UNL     1      -3.548 -18.074 -31.973  1.00  0.00    -0.165 F 
HETATM   39  F   UNL     1      -1.975 -16.575 -31.736  1.00  0.00    -0.165 F 
ENDBRANCH  28  36
ENDBRANCH   1  24
TORSDOF 7
ENDMDL
MODEL 6
REMARK VINA RESULT:      -8.2      4.125     11.221
REMARK  7 active torsions:
REMARK  status: ('A' for Active; 'I' for Inactive)
REMARK    1  A    between atoms: C_6  and  N_7 
REMARK    2  A    between atoms: C_10  and  C_11 
REMARK       I    between atoms: C_11  and  N_12 
REMARK    3  A    between atoms: N_12  and  C_13 
REMARK    4  A    between atoms: C_16  and  C_17 
REMARK    5  A    between atoms: C_17  and  N_18 
REMARK    6  A    between atoms: C_21  and  C_22 
REMARK       I    between atoms: C_22  and  N_23 
REMARK    7  A    between atoms: C_31  and  C_32 
ROOT
HETATM    1  C   UNL     1      -7.733   4.475 -33.146  1.00  0.00     0.278 C 
HETATM    2  N   UNL     1      -6.589   3.872 -33.636  1.00  0.00    -0.322 N 
HETATM    3  O   UNL     1      -7.779   5.450 -32.409  1.00  0.00    -0.265 OA
HETATM    4  H   UNL     1      -6.750   3.099 -34.276  1.00  0.00     0.169 HD
ENDROOT
BRANCH   2   5
HETATM    5  C   UNL     1      -5.252   4.232 -33.378  1.00  0.00     0.035 A 
HETATM    6  C   UNL     1      -4.443   3.593 -32.440  1.00  0.00     0.030 A 
HETATM    7  C   UNL     1      -3.125   4.011 -32.228  1.00  0.00     0.011 A 
HETATM    8  C   UNL     1      -2.586   5.077 -32.957  1.00  0.00    -0.032 A 
HETATM    9  C   UNL     1      -3.395   5.719 -33.903  1.00  0.00     0.011 A 
HETATM   10  C   UNL     1      -4.714   5.296 -34.112  1.00  0.00     0.030 A 
BRANCH   8  11
HETATM   11  C   UNL     1      -1.165   5.515 -32.715  1.00  0.00     0.273 C 
BRANCH  11  12
HETATM   12  N   UNL     1      -0.932   6.058 -31.324  1.00  0.00    -0.066 N 
HETATM   13  H   UNL     1      -1.045   5.248 -30.681  1.00  0.00     0.280 HD
HETATM   14  C   UNL     1       0.490   6.528 -31.100  1.00  0.00     0.249 C 
HETATM   15  C   UNL     1       0.705   6.919 -29.636  1.00  0.00     0.103 C 
HETATM   16  C   UNL     1      -0.333   7.946 -29.180  1.00  0.00     0.017 C 
HETATM   17  C   UNL     1      -1.764   7.497 -29.485  1.00  0.00     0.029 C 
HETATM   18  C   UNL     1      -1.951   7.093 -30.941  1.00  0.00     0.235 C 
BRANCH  15  19
HETATM   19  C   UNL     1       0.630   5.672 -28.774  1.00  0.00     0.221 C 
HETATM   20  N   UNL     1      -0.024   5.796 -27.592  1.00  0.00    -0.370 N 
HETATM   21  H   UNL     1      -0.350   6.675 -27.208  1.00  0.00     0.159 HD
HETATM   22  H   UNL     1      -0.088   4.981 -26.990  1.00  0.00     0.159 HD
HETATM   23  O   UNL     1       1.062   4.592 -29.171  1.00  0.00    -0.273 OA
ENDBRANCH  15  19
ENDBRANCH  11  12
ENDBRANCH   8  11
ENDBRANCH   2   5
BRANCH   1  24
HETATM   24  C   UNL     1      -8.955   3.843 -33.632  1.00  0.00     0.175 C 
HETATM   25  N   UNL     1      -9.532   4.167 -34.829  1.00  0.00    -0.152 NA
HETATM   26  N   UNL     1     -10.624   3.432 -34.963  1.00  0.00     0.011 NA
HETATM   27  N   UNL     1     -10.824   2.727 -33.813  1.00  0.00    -0.231 N 
HETATM   28  C   UNL     1      -9.694   2.840 -33.032  1.00  0.00     0.174 C 
BRANCH  27  29
HETATM   29  C   UNL     1     -12.078   2.091 -33.594  1.00  0.00     0.058 A 
HETATM   30  C   UNL     1     -12.179   0.705 -33.800  1.00  0.00     0.073 A 
HETATM   31  C   UNL     1     -13.398   0.063 -33.602  1.00  0.00     0.118 A 
HETATM   32  C   UNL     1     -14.530   0.771 -33.222  1.00  0.00     0.042 A 
HETATM   33  F   UNL     1     -13.479  -1.261 -33.781  1.00  0.00    -0.206 F 
HETATM   34  C   UNL     1     -14.446   2.148 -33.044  1.00  0.00     0.005 A 
HETATM   35  C   UNL     1     -13.227   2.811 -33.235  1.00  0.00     0.031 A 
ENDBRANCH  27  29
BRANCH  28  36
HETATM   36  C   UNL     1      -9.375   2.006 -31.879  1.00  0.00     0.436 C 
HETATM   37  F   UNL     1      -9.733   0.710 -32.062  1.00  0.00    -0.165 F 
HETATM   38  F   UNL     1      -8.045   1.973 -31.618  1.00  0.00    -0.165 F 
HETATM   39  F   UNL     1     -10.001   2.436 -30.758  1.00  0.00    -0.165 F 
ENDBRANCH  28  36
ENDBRANCH   1  24
TORSDOF 7
ENDMDL
MODEL 7
REMARK VINA RESULT:      -8.2      5.055     12.680
REMARK  7 active torsions:
REMARK  status: ('A' for Active; 'I' for Inactive)
REMARK    1  A    between atoms: C_6  and  N_7 
REMARK    2  A    between atoms: C_10  and  C_11 
REMARK       I    between atoms: C_11  and  N_12 
REMARK    3  A    between atoms: N_12  and  C_13 
REMARK    4  A    between atoms: C_16  and  C_17 
REMARK    5  A    between atoms: C_17  and  N_18 
REMARK    6  A    between atoms: C_21  and  C_22 
REMARK       I    between atoms: C_22  and  N_23 
REMARK    7  A    between atoms: C_31  and  C_32 
ROOT
HETATM    1  C   UNL     1      -0.749   7.291 -27.044  1.00  0.00     0.278 C 
HETATM    2  N   UNL     1       0.062   8.410 -26.982  1.00  0.00    -0.322 N 
HETATM    3  O   UNL     1      -0.983   6.515 -26.128  1.00  0.00    -0.265 OA
HETATM    4  H   UNL     1       0.099   8.963 -27.833  1.00  0.00     0.169 HD
ENDROOT
BRANCH   2   5
HETATM    5  C   UNL     1       0.798   8.875 -25.875  1.00  0.00     0.035 A 
HETATM    6  C   UNL     1       0.236   9.579 -24.811  1.00  0.00     0.030 A 
HETATM    7  C   UNL     1       1.030  10.020 -23.746  1.00  0.00     0.011 A 
HETATM    8  C   UNL     1       2.405   9.760 -23.722  1.00  0.00    -0.032 A 
HETATM    9  C   UNL     1       2.971   9.050 -24.788  1.00  0.00     0.011 A 
HETATM   10  C   UNL     1       2.172   8.610 -25.850  1.00  0.00     0.030 A 
BRANCH   8  11
HETATM   11  C   UNL     1       3.245  10.244 -22.569  1.00  0.00     0.273 C 
BRANCH  11  12
HETATM   12  N   UNL     1       4.461   9.386 -22.309  1.00  0.00    -0.066 N 
HETATM   13  H   UNL     1       4.819   9.676 -21.376  1.00  0.00     0.280 HD
HETATM   14  C   UNL     1       4.131   7.917 -22.152  1.00  0.00     0.249 C 
HETATM   15  C   UNL     1       5.372   7.125 -21.737  1.00  0.00     0.103 C 
HETATM   16  C   UNL     1       6.531   7.366 -22.708  1.00  0.00     0.017 C 
HETATM   17  C   UNL     1       6.805   8.857 -22.923  1.00  0.00     0.029 C 
HETATM   18  C   UNL     1       5.552   9.629 -23.314  1.00  0.00     0.235 C 
BRANCH  15  19
HETATM   19  C   UNL     1       5.770   7.526 -20.329  1.00  0.00     0.221 C 
HETATM   20  N   UNL     1       6.807   6.846 -19.778  1.00  0.00    -0.370 N 
HETATM   21  H   UNL     1       7.239   6.029 -20.193  1.00  0.00     0.159 HD
HETATM   22  H   UNL     1       7.094   7.088 -18.835  1.00  0.00     0.159 HD
HETATM   23  O   UNL     1       5.236   8.476 -19.759  1.00  0.00    -0.273 OA
ENDBRANCH  15  19
ENDBRANCH  11  12
ENDBRANCH   8  11
ENDBRANCH   2   5
BRANCH   1  24
HETATM   24  C   UNL     1      -1.368   7.117 -28.353  1.00  0.00     0.175 C 
HETATM   25  N   UNL     1      -2.554   7.703 -28.697  1.00  0.00    -0.152 NA
HETATM   26  N   UNL     1      -2.844   7.336 -29.934  1.00  0.00     0.011 NA
HETATM   27  N   UNL     1      -1.921   6.422 -30.349  1.00  0.00    -0.231 N 
HETATM   28  C   UNL     1      -0.890   6.400 -29.435  1.00  0.00     0.174 C 
BRANCH  27  29
HETATM   29  C   UNL     1      -2.173   5.660 -31.524  1.00  0.00     0.058 A 
HETATM   30  C   UNL     1      -1.494   5.995 -32.707  1.00  0.00     0.073 A 
HETATM   31  C   UNL     1      -1.732   5.270 -33.871  1.00  0.00     0.118 A 
HETATM   32  C   UNL     1      -2.649   4.227 -33.894  1.00  0.00     0.042 A 
HETATM   33  F   UNL     1      -1.065   5.584 -34.988  1.00  0.00    -0.206 F 
HETATM   34  C   UNL     1      -3.348   3.908 -32.734  1.00  0.00     0.005 A 
HETATM   35  C   UNL     1      -3.118   4.623 -31.552  1.00  0.00     0.031 A 
ENDBRANCH  27  29
BRANCH  28  36
HETATM   36  C   UNL     1       0.421   5.797 -29.651  1.00  0.00     0.436 C 
HETATM   37  F   UNL     1       1.218   5.884 -28.557  1.00  0.00    -0.165 F 
HETATM   38  F   UNL     1       0.340   4.472 -29.925  1.00  0.00    -0.165 F 
HETATM   39  F   UNL     1       1.084   6.386 -30.673  1.00  0.00    -0.165 F 
ENDBRANCH  28  36
ENDBRANCH   1  24
TORSDOF 7
ENDMDL
MODEL 8
REMARK VINA RESULT:      -8.1      4.087     12.152
REMARK  7 active torsions:
REMARK  status: ('A' for Active; 'I' for Inactive)
REMARK    1  A    between atoms: C_6  and  N_7 
REMARK    2  A    between atoms: C_10  and  C_11 
REMARK       I    between atoms: C_11  and  N_12 
REMARK    3  A    between atoms: N_12  and  C_13 
REMARK    4  A    between atoms: C_16  and  C_17 
REMARK    5  A    between atoms: C_17  and  N_18 
REMARK    6  A    between atoms: C_21  and  C_22 
REMARK       I    between atoms: C_22  and  N_23 
REMARK    7  A    between atoms: C_31  and  C_32 
ROOT
HETATM    1  C   UNL     1      -0.032   7.030 -29.387  1.00  0.00     0.278 C 
HETATM    2  N   UNL     1      -0.301   7.019 -28.030  1.00  0.00    -0.322 N 
HETATM    3  O   UNL     1       0.814   7.710 -29.952  1.00  0.00    -0.265 OA
HETATM    4  H   UNL     1      -1.010   6.352 -27.737  1.00  0.00     0.169 HD
ENDROOT
BRANCH   2   5
HETATM    5  C   UNL     1       0.316   7.791 -27.027  1.00  0.00     0.035 A 
HETATM    6  C   UNL     1       1.675   7.724 -26.722  1.00  0.00     0.030 A 
HETATM    7  C   UNL     1       2.220   8.515 -25.705  1.00  0.00     0.011 A 
HETATM    8  C   UNL     1       1.415   9.395 -24.973  1.00  0.00    -0.032 A 
HETATM    9  C   UNL     1       0.050   9.468 -25.280  1.00  0.00     0.011 A 
HETATM   10  C   UNL     1      -0.490   8.675 -26.300  1.00  0.00     0.030 A 
BRANCH   8  11
HETATM   11  C   UNL     1       2.017  10.238 -23.880  1.00  0.00     0.273 C 
BRANCH  11  12
HETATM   12  N   UNL     1       3.217   9.598 -23.219  1.00  0.00    -0.066 N 
HETATM   13  H   UNL     1       3.730   9.105 -23.978  1.00  0.00     0.280 HD
HETATM   14  C   UNL     1       4.208  10.607 -22.681  1.00  0.00     0.249 C 
HETATM   15  C   UNL     1       5.468   9.907 -22.167  1.00  0.00     0.103 C 
HETATM   16  C   UNL     1       5.119   8.823 -21.144  1.00  0.00     0.017 C 
HETATM   17  C   UNL     1       4.055   7.855 -21.668  1.00  0.00     0.029 C 
HETATM   18  C   UNL     1       2.820   8.574 -22.194  1.00  0.00     0.235 C 
BRANCH  15  19
HETATM   19  C   UNL     1       6.215   9.304 -23.343  1.00  0.00     0.221 C 
HETATM   20  N   UNL     1       7.118   8.335 -23.049  1.00  0.00    -0.370 N 
HETATM   21  H   UNL     1       7.401   8.082 -22.110  1.00  0.00     0.159 HD
HETATM   22  H   UNL     1       7.638   7.915 -23.813  1.00  0.00     0.159 HD
HETATM   23  O   UNL     1       5.948   9.618 -24.500  1.00  0.00    -0.273 OA
ENDBRANCH  15  19
ENDBRANCH  11  12
ENDBRANCH   8  11
ENDBRANCH   2   5
BRANCH   1  24
HETATM   24  C   UNL     1      -0.859   6.088 -30.133  1.00  0.00     0.175 C 
HETATM   25  N   UNL     1      -0.441   4.827 -30.454  1.00  0.00    -0.152 NA
HETATM   26  N   UNL     1      -1.410   4.242 -31.138  1.00  0.00     0.011 NA
HETATM   27  N   UNL     1      -2.399   5.153 -31.368  1.00  0.00    -0.231 N 
HETATM   28  C   UNL     1      -2.149   6.268 -30.598  1.00  0.00     0.174 C 
BRANCH  27  29
HETATM   29  C   UNL     1      -3.410   4.859 -32.326  1.00  0.00     0.058 A 
HETATM   30  C   UNL     1      -3.211   5.248 -33.661  1.00  0.00     0.073 A 
HETATM   31  C   UNL     1      -4.190   4.981 -34.613  1.00  0.00     0.118 A 
HETATM   32  C   UNL     1      -5.378   4.351 -34.265  1.00  0.00     0.042 A 
HETATM   33  F   UNL     1      -3.982   5.337 -35.887  1.00  0.00    -0.206 F 
HETATM   34  C   UNL     1      -5.595   3.988 -32.940  1.00  0.00     0.005 A 
HETATM   35  C   UNL     1      -4.619   4.246 -31.969  1.00  0.00     0.031 A 
ENDBRANCH  27  29
BRANCH  28  36
HETATM   36  C   UNL     1      -3.104   7.334 -30.317  1.00  0.00     0.436 C 
HETATM   37  F   UNL     1      -2.597   8.278 -29.485  1.00  0.00    -0.165 F 
HETATM   38  F   UNL     1      -3.470   8.008 -31.435  1.00  0.00    -0.165 F 
HETATM   39  F   UNL     1      -4.233   6.860 -29.738  1.00  0.00    -0.165 F 
ENDBRANCH  28  36
ENDBRANCH   1  24
TORSDOF 7
ENDMDL
MODEL 9
REMARK VINA RESULT:      -8.1      3.154      4.112
REMARK  7 active torsions:
REMARK  status: ('A' for Active; 'I' for Inactive)
REMARK    1  A    between atoms: C_6  and  N_7 
REMARK    2  A    between atoms: C_10  and  C_11 
REMARK       I    between atoms: C_11  and  N_12 
REMARK    3  A    between atoms: N_12  and  C_13 
REMARK    4  A    between atoms: C_16  and  C_17 
REMARK    5  A    between atoms: C_17  and  N_18 
REMARK    6  A    between atoms: C_21  and  C_22 
REMARK       I    between atoms: C_22  and  N_23 
REMARK    7  A    between atoms: C_31  and  C_32 
ROOT
HETATM    1  C   UNL     1      -4.460   7.235 -29.214  1.00  0.00     0.278 C 
HETATM    2  N   UNL     1      -4.160   6.029 -29.822  1.00  0.00    -0.322 N 
HETATM    3  O   UNL     1      -5.576   7.717 -29.074  1.00  0.00    -0.265 OA
HETATM    4  H   UNL     1      -3.177   5.770 -29.803  1.00  0.00     0.169 HD
ENDROOT
BRANCH   2   5
HETATM    5  C   UNL     1      -5.057   5.123 -30.420  1.00  0.00     0.035 A 
HETATM    6  C   UNL     1      -5.248   5.014 -31.797  1.00  0.00     0.030 A 
HETATM    7  C   UNL     1      -6.165   4.097 -32.321  1.00  0.00     0.011 A 
HETATM    8  C   UNL     1      -6.908   3.264 -31.477  1.00  0.00    -0.032 A 
HETATM    9  C   UNL     1      -6.715   3.368 -30.094  1.00  0.00     0.011 A 
HETATM   10  C   UNL     1      -5.795   4.287 -29.574  1.00  0.00     0.030 A 
BRANCH   8  11
HETATM   11  C   UNL     1      -7.892   2.284 -32.059  1.00  0.00     0.273 C 
BRANCH  11  12
HETATM   12  N   UNL     1      -7.256   1.263 -32.974  1.00  0.00    -0.066 N 
HETATM   13  H   UNL     1      -6.261   1.553 -33.074  1.00  0.00     0.280 HD
HETATM   14  C   UNL     1      -7.190  -0.122 -32.367  1.00  0.00     0.249 C 
HETATM   15  C   UNL     1      -6.400  -1.071 -33.269  1.00  0.00     0.103 C 
HETATM   16  C   UNL     1      -6.964  -1.079 -34.692  1.00  0.00     0.017 C 
HETATM   17  C   UNL     1      -7.102   0.333 -35.267  1.00  0.00     0.029 C 
HETATM   18  C   UNL     1      -7.874   1.266 -34.343  1.00  0.00     0.235 C 
BRANCH  15  19
HETATM   19  C   UNL     1      -4.943  -0.647 -33.280  1.00  0.00     0.221 C 
HETATM   20  N   UNL     1      -4.075  -1.487 -33.900  1.00  0.00    -0.370 N 
HETATM   21  H   UNL     1      -4.317  -2.410 -34.239  1.00  0.00     0.159 HD
HETATM   22  H   UNL     1      -3.093  -1.234 -33.921  1.00  0.00     0.159 HD
HETATM   23  O   UNL     1      -4.589   0.441 -32.830  1.00  0.00    -0.273 OA
ENDBRANCH  15  19
ENDBRANCH  11  12
ENDBRANCH   8  11
ENDBRANCH   2   5
BRANCH   1  24
HETATM   24  C   UNL     1      -3.278   7.911 -28.691  1.00  0.00     0.175 C 
HETATM   25  N   UNL     1      -2.621   8.894 -29.377  1.00  0.00    -0.152 NA
HETATM   26  N   UNL     1      -1.594   9.284 -28.641  1.00  0.00     0.011 NA
HETATM   27  N   UNL     1      -1.509   8.480 -27.543  1.00  0.00    -0.231 N 
HETATM   28  C   UNL     1      -2.658   7.723 -27.470  1.00  0.00     0.174 C 
BRANCH  27  29
HETATM   29  C   UNL     1      -0.327   8.503 -26.751  1.00  0.00     0.058 A 
HETATM   30  C   UNL     1      -0.273   9.364 -25.641  1.00  0.00     0.073 A 
HETATM   31  C   UNL     1       0.876   9.412 -24.858  1.00  0.00     0.118 A 
HETATM   32  C   UNL     1       1.987   8.636 -25.163  1.00  0.00     0.042 A 
HETATM   33  F   UNL     1       0.910  10.220 -23.791  1.00  0.00    -0.206 F 
HETATM   34  C   UNL     1       1.952   7.803 -26.277  1.00  0.00     0.005 A 
HETATM   35  C   UNL     1       0.803   7.739 -27.074  1.00  0.00     0.031 A 
ENDBRANCH  27  29
BRANCH  28  36
HETATM   36  C   UNL     1      -3.102   6.968 -26.303  1.00  0.00     0.436 C 
HETATM   37  F   UNL     1      -3.302   7.759 -25.219  1.00  0.00    -0.165 F 
HETATM   38  F   UNL     1      -4.288   6.346 -26.511  1.00  0.00    -0.165 F 
HETATM   39  F   UNL     1      -2.201   6.023 -25.943  1.00  0.00    -0.165 F 
ENDBRANCH  28  36
ENDBRANCH   1  24
TORSDOF 7
ENDMDL
MODEL 10
REMARK VINA RESULT:      -8.1      1.472      2.033
REMARK  7 active torsions:
REMARK  status: ('A' for Active; 'I' for Inactive)
REMARK    1  A    between atoms: C_6  and  N_7 
REMARK    2  A    between atoms: C_10  and  C_11 
REMARK       I    between atoms: C_11  and  N_12 
REMARK    3  A    between atoms: N_12  and  C_13 
REMARK    4  A    between atoms: C_16  and  C_17 
REMARK    5  A    between atoms: C_17  and  N_18 
REMARK    6  A    between atoms: C_21  and  C_22 
REMARK       I    between atoms: C_22  and  N_23 
REMARK    7  A    between atoms: C_31  and  C_32 
ROOT
HETATM    1  C   UNL     1      -2.329   4.591 -32.169  1.00  0.00     0.278 C 
HETATM    2  N   UNL     1      -3.477   4.096 -31.575  1.00  0.00    -0.322 N 
HETATM    3  O   UNL     1      -2.087   4.613 -33.368  1.00  0.00    -0.265 OA
HETATM    4  H   UNL     1      -3.521   4.207 -30.566  1.00  0.00     0.169 HD
ENDROOT
BRANCH   2   5
HETATM    5  C   UNL     1      -4.583   3.501 -32.211  1.00  0.00     0.035 A 
HETATM    6  C   UNL     1      -4.980   2.181 -32.004  1.00  0.00     0.030 A 
HETATM    7  C   UNL     1      -6.085   1.651 -32.678  1.00  0.00     0.011 A 
HETATM    8  C   UNL     1      -6.822   2.436 -33.574  1.00  0.00    -0.032 A 
HETATM    9  C   UNL     1      -6.428   3.763 -33.781  1.00  0.00     0.011 A 
HETATM   10  C   UNL     1      -5.321   4.289 -33.102  1.00  0.00     0.030 A 
BRANCH   8  11
HETATM   11  C   UNL     1      -8.008   1.849 -34.293  1.00  0.00     0.273 C 
BRANCH  11  12
HETATM   12  N   UNL     1      -9.316   2.518 -33.940  1.00  0.00    -0.066 N 
HETATM   13  H   UNL     1      -9.349   3.392 -34.503  1.00  0.00     0.280 HD
HETATM   14  C   UNL     1     -10.528   1.729 -34.389  1.00  0.00     0.249 C 
HETATM   15  C   UNL     1     -11.812   2.525 -34.146  1.00  0.00     0.103 C 
HETATM   16  C   UNL     1     -11.913   2.979 -32.687  1.00  0.00     0.017 C 
HETATM   17  C   UNL     1     -10.649   3.705 -32.219  1.00  0.00     0.029 C 
HETATM   18  C   UNL     1      -9.382   2.905 -32.489  1.00  0.00     0.235 C 
BRANCH  15  19
HETATM   19  C   UNL     1     -11.836   3.724 -35.076  1.00  0.00     0.221 C 
HETATM   20  N   UNL     1     -12.982   4.450 -35.094  1.00  0.00    -0.370 N 
HETATM   21  H   UNL     1     -13.839   4.177 -34.628  1.00  0.00     0.159 HD
HETATM   22  H   UNL     1     -13.032   5.256 -35.709  1.00  0.00     0.159 HD
HETATM   23  O   UNL     1     -10.838   4.065 -35.707  1.00  0.00    -0.273 OA
ENDBRANCH  15  19
ENDBRANCH  11  12
ENDBRANCH   8  11
ENDBRANCH   2   5
BRANCH   1  24
HETATM   24  C   UNL     1      -1.391   5.150 -31.202  1.00  0.00     0.175 C 
HETATM   25  N   UNL     1      -0.267   4.489 -30.792  1.00  0.00    -0.152 NA
HETATM   26  N   UNL     1       0.353   5.255 -29.909  1.00  0.00     0.011 NA
HETATM   27  N   UNL     1      -0.422   6.347 -29.654  1.00  0.00    -0.231 N 
HETATM   28  C   UNL     1      -1.439   6.385 -30.583  1.00  0.00     0.174 C 
BRANCH  27  29
HETATM   29  C   UNL     1      -0.121   7.170 -28.532  1.00  0.00     0.058 A 
HETATM   30  C   UNL     1      -1.003   7.174 -27.439  1.00  0.00     0.073 A 
HETATM   31  C   UNL     1      -0.734   7.979 -26.336  1.00  0.00     0.118 A 
HETATM   32  C   UNL     1       0.385   8.800 -26.300  1.00  0.00     0.042 A 
HETATM   33  F   UNL     1      -1.570   7.960 -25.290  1.00  0.00    -0.206 F 
HETATM   34  C   UNL     1       1.249   8.823 -27.391  1.00  0.00     0.005 A 
HETATM   35  C   UNL     1       0.996   8.017 -28.508  1.00  0.00     0.031 A 
ENDBRANCH  27  29
BRANCH  28  36
HETATM   36  C   UNL     1      -2.297   7.534 -30.853  1.00  0.00     0.436 C 
HETATM   37  F   UNL     1      -2.566   7.680 -32.174  1.00  0.00    -0.165 F 
HETATM   38  F   UNL     1      -3.509   7.425 -30.255  1.00  0.00    -0.165 F 
HETATM   39  F   UNL     1      -1.736   8.692 -30.432  1.00  0.00    -0.165 F 
ENDBRANCH  28  36
ENDBRANCH   1  24
TORSDOF 7
ENDMDL
