MODEL 1
REMARK VINA RESULT:      -9.0      0.000      0.000
REMARK  6 active torsions:
REMARK  status: ('A' for Active; 'I' for Inactive)
REMARK    1  A    between atoms: C_2  and  C_3 
REMARK    2  A    between atoms: C_3  and  C_4 
REMARK    3  A    between atoms: C_3  and  C_10 
REMARK    4  A    between atoms: C_10  and  C_11 
REMARK       I    between atoms: C_11  and  N_12 
REMARK    5  A    between atoms: N_12  and  C_13 
REMARK    6  A    between atoms: C_20  and  C_21 
REMARK       I    between atoms: C_21  and  N_22 
ROOT
HETATM    1  C   UNL     1      -9.001   1.169 -33.578  1.00  0.00     0.035 A 
HETATM    2  C   UNL     1     -10.300   0.644 -33.561  1.00  0.00     0.046 A 
HETATM    3  C   UNL     1     -11.387   1.458 -33.948  1.00  0.00     0.030 A 
HETATM    4  C   UNL     1     -11.140   2.775 -34.318  1.00  0.00     0.063 A 
HETATM    5  N   UNL     1     -12.364   3.301 -34.620  1.00  0.00    -0.277 N 
HETATM    6  H   UNL     1     -12.568   4.247 -34.922  1.00  0.00     0.189 HD
HETATM    7  N   UNL     1     -13.387   2.438 -34.504  1.00  0.00    -0.168 NA
HETATM    8  C   UNL     1     -12.798   1.292 -34.093  1.00  0.00     0.156 A 
HETATM    9  C   UNL     1      -9.860   3.332 -34.342  1.00  0.00     0.034 A 
HETATM   10  C   UNL     1      -8.797   2.496 -33.975  1.00  0.00     0.032 A 
ENDROOT
BRANCH   1  11
HETATM   11  N   UNL     1      -7.851   0.419 -33.245  1.00  0.00    -0.327 N 
HETATM   12  C   UNL     1      -7.188   0.394 -32.033  1.00  0.00     0.223 C 
HETATM   13  O   UNL     1      -7.423   1.106 -31.062  1.00  0.00    -0.273 OA
HETATM   14  H   UNL     1      -7.494  -0.188 -33.973  1.00  0.00     0.169 HD
BRANCH  12  15
HETATM   15  C   UNL     1      -6.077  -0.640 -31.974  1.00  0.00     0.116 C 
BRANCH  15  16
HETATM   16  C   UNL     1      -5.288  -0.795 -33.287  1.00  0.00     0.049 C 
BRANCH  16  17
HETATM   17  C   UNL     1      -3.864  -0.284 -33.193  1.00  0.00    -0.027 C 
HETATM   18  C   UNL     1      -3.381   0.437 -32.170  1.00  0.00     0.007 C 
ENDBRANCH  16  17
BRANCH  16  19
HETATM   19  C   UNL     1      -5.388  -2.203 -33.864  1.00  0.00    -0.050 A 
HETATM   20  C   UNL     1      -4.319  -3.112 -33.819  1.00  0.00     0.008 A 
HETATM   21  C   UNL     1      -4.455  -4.403 -34.336  1.00  0.00     0.001 A 
HETATM   22  C   UNL     1      -5.659  -4.802 -34.911  1.00  0.00     0.000 A 
HETATM   23  C   UNL     1      -6.728  -3.913 -34.968  1.00  0.00     0.001 A 
HETATM   24  C   UNL     1      -6.597  -2.626 -34.445  1.00  0.00     0.008 A 
ENDBRANCH  16  19
ENDBRANCH  15  16
ENDBRANCH  12  15
ENDBRANCH   1  11
BRANCH   8  25
HETATM   25  C   UNL     1     -13.584   0.071 -33.864  1.00  0.00     0.270 C 
HETATM   26  N   UNL     1     -14.873   0.144 -34.319  1.00  0.00    -0.365 N 
HETATM   27  H   UNL     1     -15.179   0.992 -34.778  1.00  0.00     0.159 HD
HETATM   28  H   UNL     1     -15.478  -0.657 -34.228  1.00  0.00     0.159 HD
HETATM   29  O   UNL     1     -13.158  -0.946 -33.329  1.00  0.00    -0.266 OA
ENDBRANCH   8  25
TORSDOF 6
ENDMDL
MODEL 2
REMARK VINA RESULT:      -8.6      5.158      8.511
REMARK  6 active torsions:
REMARK  status: ('A' for Active; 'I' for Inactive)
REMARK    1  A    between atoms: C_2  and  C_3 
REMARK    2  A    between atoms: C_3  and  C_4 
REMARK    3  A    between atoms: C_3  and  C_10 
REMARK    4  A    between atoms: C_10  and  C_11 
REMARK       I    between atoms: C_11  and  N_12 
REMARK    5  A    between atoms: N_12  and  C_13 
REMARK    6  A    between atoms: C_20  and  C_21 
REMARK       I    between atoms: C_21  and  N_22 
ROOT
HETATM    1  C   UNL     1      -3.407   3.942 -32.891  1.00  0.00     0.035 A 
HETATM    2  C   UNL     1      -2.384   4.091 -31.943  1.00  0.00     0.046 A 
HETATM    3  C   UNL     1      -1.543   5.223 -31.997  1.00  0.00     0.030 A 
HETATM    4  C   UNL     1      -1.739   6.157 -33.007  1.00  0.00     0.063 A 
HETATM    5  N   UNL     1      -0.782   7.112 -32.808  1.00  0.00    -0.277 N 
HETATM    6  H   UNL     1      -0.620   7.943 -33.364  1.00  0.00     0.189 HD
HETATM    7  N   UNL     1       0.006   6.897 -31.742  1.00  0.00    -0.168 NA
HETATM    8  C   UNL     1      -0.456   5.735 -31.226  1.00  0.00     0.156 A 
HETATM    9  C   UNL     1      -2.743   6.038 -33.970  1.00  0.00     0.034 A 
HETATM   10  C   UNL     1      -3.578   4.916 -33.882  1.00  0.00     0.032 A 
ENDROOT
BRANCH   1  11
HETATM   11  N   UNL     1      -4.319   2.863 -32.892  1.00  0.00    -0.327 N 
HETATM   12  C   UNL     1      -5.618   2.862 -32.419  1.00  0.00     0.223 C 
HETATM   13  O   UNL     1      -6.171   3.776 -31.816  1.00  0.00    -0.273 OA
HETATM   14  H   UNL     1      -3.986   2.004 -33.313  1.00  0.00     0.169 HD
BRANCH  12  15
HETATM   15  C   UNL     1      -6.367   1.574 -32.715  1.00  0.00     0.116 C 
BRANCH  15  16
HETATM   16  C   UNL     1      -5.716   0.314 -32.117  1.00  0.00     0.049 C 
BRANCH  16  17
HETATM   17  C   UNL     1      -6.249  -0.040 -30.743  1.00  0.00    -0.027 C 
HETATM   18  C   UNL     1      -5.907   0.590 -29.610  1.00  0.00     0.007 C 
ENDBRANCH  16  17
BRANCH  16  19
HETATM   19  C   UNL     1      -5.722  -0.862 -33.089  1.00  0.00    -0.050 A 
HETATM   20  C   UNL     1      -6.889  -1.298 -33.735  1.00  0.00     0.008 A 
HETATM   21  C   UNL     1      -6.852  -2.363 -34.639  1.00  0.00     0.001 A 
HETATM   22  C   UNL     1      -5.649  -3.013 -34.903  1.00  0.00     0.000 A 
HETATM   23  C   UNL     1      -4.482  -2.597 -34.269  1.00  0.00     0.001 A 
HETATM   24  C   UNL     1      -4.516  -1.528 -33.372  1.00  0.00     0.008 A 
ENDBRANCH  16  19
ENDBRANCH  15  16
ENDBRANCH  12  15
ENDBRANCH   1  11
BRANCH   8  25
HETATM   25  C   UNL     1       0.136   5.151 -30.014  1.00  0.00     0.270 C 
HETATM   26  N   UNL     1      -0.360   5.667 -28.847  1.00  0.00    -0.365 N 
HETATM   27  H   UNL     1      -1.082   6.374 -28.897  1.00  0.00     0.159 HD
HETATM   28  H   UNL     1      -0.030   5.307 -27.965  1.00  0.00     0.159 HD
HETATM   29  O   UNL     1       0.989   4.272 -30.004  1.00  0.00    -0.266 OA
ENDBRANCH   8  25
TORSDOF 6
ENDMDL
MODEL 3
REMARK VINA RESULT:      -8.4      4.591      7.807
REMARK  6 active torsions:
REMARK  status: ('A' for Active; 'I' for Inactive)
REMARK    1  A    between atoms: C_2  and  C_3 
REMARK    2  A    between atoms: C_3  and  C_4 
REMARK    3  A    between atoms: C_3  and  C_10 
REMARK    4  A    between atoms: C_10  and  C_11 
REMARK       I    between atoms: C_11  and  N_12 
REMARK    5  A    between atoms: N_12  and  C_13 
REMARK    6  A    between atoms: C_20  and  C_21 
REMARK       I    between atoms: C_21  and  N_22 
ROOT
HETATM    1  C   UNL     1      -3.856   2.868 -32.450  1.00  0.00     0.035 A 
HETATM    2  C   UNL     1      -2.708   3.362 -31.815  1.00  0.00     0.046 A 
HETATM    3  C   UNL     1      -2.393   4.734 -31.913  1.00  0.00     0.030 A 
HETATM    4  C   UNL     1      -3.223   5.562 -32.659  1.00  0.00     0.063 A 
HETATM    5  N   UNL     1      -2.661   6.805 -32.580  1.00  0.00    -0.277 N 
HETATM    6  H   UNL     1      -2.995   7.658 -33.012  1.00  0.00     0.189 HD
HETATM    7  N   UNL     1      -1.551   6.868 -31.826  1.00  0.00    -0.168 NA
HETATM    8  C   UNL     1      -1.374   5.595 -31.403  1.00  0.00     0.156 A 
HETATM    9  C   UNL     1      -4.370   5.103 -33.309  1.00  0.00     0.034 A 
HETATM   10  C   UNL     1      -4.674   3.742 -33.178  1.00  0.00     0.032 A 
ENDROOT
BRANCH   1  11
HETATM   11  N   UNL     1      -4.271   1.520 -32.376  1.00  0.00    -0.327 N 
HETATM   12  C   UNL     1      -5.532   1.045 -32.066  1.00  0.00     0.223 C 
HETATM   13  O   UNL     1      -6.489   1.717 -31.697  1.00  0.00    -0.273 OA
HETATM   14  H   UNL     1      -3.566   0.828 -32.602  1.00  0.00     0.169 HD
BRANCH  12  15
HETATM   15  C   UNL     1      -5.666  -0.460 -32.225  1.00  0.00     0.116 C 
BRANCH  15  16
HETATM   16  C   UNL     1      -6.419  -0.895 -33.495  1.00  0.00     0.049 C 
BRANCH  16  17
HETATM   17  C   UNL     1      -6.424   0.163 -34.580  1.00  0.00    -0.027 C 
HETATM   18  C   UNL     1      -7.493   0.489 -35.320  1.00  0.00     0.007 C 
ENDBRANCH  16  17
BRANCH  16  19
HETATM   19  C   UNL     1      -5.979  -2.268 -33.991  1.00  0.00    -0.050 A 
HETATM   20  C   UNL     1      -4.660  -2.730 -33.855  1.00  0.00     0.008 A 
HETATM   21  C   UNL     1      -4.299  -4.004 -34.299  1.00  0.00     0.001 A 
HETATM   22  C   UNL     1      -5.247  -4.833 -34.893  1.00  0.00     0.000 A 
HETATM   23  C   UNL     1      -6.559  -4.391 -35.039  1.00  0.00     0.001 A 
HETATM   24  C   UNL     1      -6.924  -3.121 -34.589  1.00  0.00     0.008 A 
ENDBRANCH  16  19
ENDBRANCH  15  16
ENDBRANCH  12  15
ENDBRANCH   1  11
BRANCH   8  25
HETATM   25  C   UNL     1      -0.258   5.235 -30.517  1.00  0.00     0.270 C 
HETATM   26  N   UNL     1      -0.476   5.523 -29.197  1.00  0.00    -0.365 N 
HETATM   27  H   UNL     1      -1.363   5.931 -28.930  1.00  0.00     0.159 HD
HETATM   28  H   UNL     1       0.226   5.286 -28.514  1.00  0.00     0.159 HD
HETATM   29  O   UNL     1       0.788   4.712 -30.886  1.00  0.00    -0.266 OA
ENDBRANCH   8  25
TORSDOF 6
ENDMDL
MODEL 4
REMARK VINA RESULT:      -8.3      2.393      3.475
REMARK  6 active torsions:
REMARK  status: ('A' for Active; 'I' for Inactive)
REMARK    1  A    between atoms: C_2  and  C_3 
REMARK    2  A    between atoms: C_3  and  C_4 
REMARK    3  A    between atoms: C_3  and  C_10 
REMARK    4  A    between atoms: C_10  and  C_11 
REMARK       I    between atoms: C_11  and  N_12 
REMARK    5  A    between atoms: N_12  and  C_13 
REMARK    6  A    between atoms: C_20  and  C_21 
REMARK       I    between atoms: C_21  and  N_22 
ROOT
HETATM    1  C   UNL     1     -10.376   1.621 -33.912  1.00  0.00     0.035 A 
HETATM    2  C   UNL     1     -10.093   2.928 -34.331  1.00  0.00     0.046 A 
HETATM    3  C   UNL     1     -11.145   3.766 -34.762  1.00  0.00     0.030 A 
HETATM    4  C   UNL     1     -12.440   3.262 -34.780  1.00  0.00     0.063 A 
HETATM    5  N   UNL     1     -13.219   4.282 -35.248  1.00  0.00    -0.277 N 
HETATM    6  H   UNL     1     -14.220   4.269 -35.400  1.00  0.00     0.189 HD
HETATM    7  N   UNL     1     -12.551   5.417 -35.513  1.00  0.00    -0.168 NA
HETATM    8  C   UNL     1     -11.267   5.115 -35.213  1.00  0.00     0.156 A 
HETATM    9  C   UNL     1     -12.757   1.964 -34.375  1.00  0.00     0.034 A 
HETATM   10  C   UNL     1     -11.699   1.160 -33.931  1.00  0.00     0.032 A 
ENDROOT
BRANCH   1  11
HETATM   11  N   UNL     1      -9.396   0.726 -33.430  1.00  0.00    -0.327 N 
HETATM   12  C   UNL     1      -8.370   0.139 -34.146  1.00  0.00     0.223 C 
HETATM   13  O   UNL     1      -8.197   0.213 -35.358  1.00  0.00    -0.273 OA
HETATM   14  H   UNL     1      -9.439   0.516 -32.439  1.00  0.00     0.169 HD
BRANCH  12  15
HETATM   15  C   UNL     1      -7.405  -0.653 -33.280  1.00  0.00     0.116 C 
BRANCH  15  16
HETATM   16  C   UNL     1      -6.006  -0.832 -33.896  1.00  0.00     0.049 C 
BRANCH  16  17
HETATM   17  C   UNL     1      -4.919  -0.105 -33.129  1.00  0.00    -0.027 C 
HETATM   18  C   UNL     1      -4.956   1.196 -32.807  1.00  0.00     0.007 C 
ENDBRANCH  16  17
BRANCH  16  19
HETATM   19  C   UNL     1      -5.674  -2.294 -34.174  1.00  0.00    -0.050 A 
HETATM   20  C   UNL     1      -4.417  -2.849 -33.887  1.00  0.00     0.008 A 
HETATM   21  C   UNL     1      -4.157  -4.199 -34.133  1.00  0.00     0.001 A 
HETATM   22  C   UNL     1      -5.147  -5.013 -34.676  1.00  0.00     0.000 A 
HETATM   23  C   UNL     1      -6.399  -4.481 -34.971  1.00  0.00     0.001 A 
HETATM   24  C   UNL     1      -6.663  -3.133 -34.718  1.00  0.00     0.008 A 
ENDBRANCH  16  19
ENDBRANCH  15  16
ENDBRANCH  12  15
ENDBRANCH   1  11
BRANCH   8  25
HETATM   25  C   UNL     1     -10.198   6.115 -35.349  1.00  0.00     0.270 C 
HETATM   26  N   UNL     1      -9.628   6.488 -34.162  1.00  0.00    -0.365 N 
HETATM   27  H   UNL     1      -9.958   6.055 -33.308  1.00  0.00     0.159 HD
HETATM   28  H   UNL     1      -8.869   7.150 -34.162  1.00  0.00     0.159 HD
HETATM   29  O   UNL     1      -9.812   6.588 -36.412  1.00  0.00    -0.266 OA
ENDBRANCH   8  25
TORSDOF 6
ENDMDL
MODEL 5
REMARK VINA RESULT:      -8.3      4.274      6.216
REMARK  6 active torsions:
REMARK  status: ('A' for Active; 'I' for Inactive)
REMARK    1  A    between atoms: C_2  and  C_3 
REMARK    2  A    between atoms: C_3  and  C_4 
REMARK    3  A    between atoms: C_3  and  C_10 
REMARK    4  A    between atoms: C_10  and  C_11 
REMARK       I    between atoms: C_11  and  N_12 
REMARK    5  A    between atoms: N_12  and  C_13 
REMARK    6  A    between atoms: C_20  and  C_21 
REMARK       I    between atoms: C_21  and  N_22 
ROOT
HETATM    1  C   UNL     1      -6.799   3.064 -31.143  1.00  0.00     0.035 A 
HETATM    2  C   UNL     1      -6.131   3.884 -30.222  1.00  0.00     0.046 A 
HETATM    3  C   UNL     1      -6.870   4.793 -29.435  1.00  0.00     0.030 A 
HETATM    4  C   UNL     1      -8.246   4.868 -29.610  1.00  0.00     0.063 A 
HETATM    5  N   UNL     1      -8.671   5.828 -28.735  1.00  0.00    -0.277 N 
HETATM    6  H   UNL     1      -9.620   6.154 -28.595  1.00  0.00     0.189 HD
HETATM    7  N   UNL     1      -7.697   6.370 -27.986  1.00  0.00    -0.168 NA
HETATM    8  C   UNL     1      -6.577   5.736 -28.404  1.00  0.00     0.156 A 
HETATM    9  C   UNL     1      -8.942   4.072 -30.521  1.00  0.00     0.034 A 
HETATM   10  C   UNL     1      -8.189   3.161 -31.274  1.00  0.00     0.032 A 
ENDROOT
BRANCH   1  11
HETATM   11  N   UNL     1      -6.148   2.100 -31.945  1.00  0.00    -0.327 N 
HETATM   12  C   UNL     1      -5.912   0.774 -31.636  1.00  0.00     0.223 C 
HETATM   13  O   UNL     1      -6.135   0.228 -30.560  1.00  0.00    -0.273 OA
HETATM   14  H   UNL     1      -5.847   2.416 -32.859  1.00  0.00     0.169 HD
BRANCH  12  15
HETATM   15  C   UNL     1      -5.322  -0.019 -32.790  1.00  0.00     0.116 C 
BRANCH  15  16
HETATM   16  C   UNL     1      -6.369  -0.719 -33.676  1.00  0.00     0.049 C 
BRANCH  16  17
HETATM   17  C   UNL     1      -6.786   0.109 -34.875  1.00  0.00    -0.027 C 
HETATM   18  C   UNL     1      -8.027   0.572 -35.084  1.00  0.00     0.007 C 
ENDBRANCH  16  17
BRANCH  16  19
HETATM   19  C   UNL     1      -5.967  -2.146 -34.036  1.00  0.00    -0.050 A 
HETATM   20  C   UNL     1      -6.877  -3.071 -34.571  1.00  0.00     0.008 A 
HETATM   21  C   UNL     1      -6.466  -4.362 -34.912  1.00  0.00     0.001 A 
HETATM   22  C   UNL     1      -5.143  -4.749 -34.717  1.00  0.00     0.000 A 
HETATM   23  C   UNL     1      -4.228  -3.847 -34.184  1.00  0.00     0.001 A 
HETATM   24  C   UNL     1      -4.634  -2.554 -33.850  1.00  0.00     0.008 A 
ENDBRANCH  16  19
ENDBRANCH  15  16
ENDBRANCH  12  15
ENDBRANCH   1  11
BRANCH   8  25
HETATM   25  C   UNL     1      -5.267   6.032 -27.806  1.00  0.00     0.270 C 
HETATM   26  N   UNL     1      -4.934   5.216 -26.759  1.00  0.00    -0.365 N 
HETATM   27  H   UNL     1      -5.579   4.484 -26.489  1.00  0.00     0.159 HD
HETATM   28  H   UNL     1      -4.041   5.329 -26.304  1.00  0.00     0.159 HD
HETATM   29  O   UNL     1      -4.505   6.912 -28.189  1.00  0.00    -0.266 OA
ENDBRANCH   8  25
TORSDOF 6
ENDMDL
MODEL 6
REMARK VINA RESULT:      -8.1      4.780      8.442
REMARK  6 active torsions:
REMARK  status: ('A' for Active; 'I' for Inactive)
REMARK    1  A    between atoms: C_2  and  C_3 
REMARK    2  A    between atoms: C_3  and  C_4 
REMARK    3  A    between atoms: C_3  and  C_10 
REMARK    4  A    between atoms: C_10  and  C_11 
REMARK       I    between atoms: C_11  and  N_12 
REMARK    5  A    between atoms: N_12  and  C_13 
REMARK    6  A    between atoms: C_20  and  C_21 
REMARK       I    between atoms: C_21  and  N_22 
ROOT
HETATM    1  C   UNL     1      -5.300   0.542 -33.334  1.00  0.00     0.035 A 
HETATM    2  C   UNL     1      -4.663  -0.692 -33.143  1.00  0.00     0.046 A 
HETATM    3  C   UNL     1      -5.144  -1.836 -33.817  1.00  0.00     0.030 A 
HETATM    4  C   UNL     1      -6.257  -1.712 -34.640  1.00  0.00     0.063 A 
HETATM    5  N   UNL     1      -6.486  -2.967 -35.130  1.00  0.00    -0.277 N 
HETATM    6  H   UNL     1      -7.226  -3.253 -35.760  1.00  0.00     0.189 HD
HETATM    7  N   UNL     1      -5.606  -3.895 -34.720  1.00  0.00    -0.168 NA
HETATM    8  C   UNL     1      -4.767  -3.210 -33.910  1.00  0.00     0.156 A 
HETATM    9  C   UNL     1      -6.918  -0.500 -34.848  1.00  0.00     0.034 A 
HETATM   10  C   UNL     1      -6.408   0.624 -34.186  1.00  0.00     0.032 A 
ENDROOT
BRANCH   1  11
HETATM   11  N   UNL     1      -4.866   1.745 -32.733  1.00  0.00    -0.327 N 
HETATM   12  C   UNL     1      -3.698   1.956 -32.026  1.00  0.00     0.223 C 
HETATM   13  O   UNL     1      -2.879   1.101 -31.705  1.00  0.00    -0.273 OA
HETATM   14  H   UNL     1      -5.473   2.546 -32.862  1.00  0.00     0.169 HD
BRANCH  12  15
HETATM   15  C   UNL     1      -3.476   3.411 -31.648  1.00  0.00     0.116 C 
BRANCH  15  16
HETATM   16  C   UNL     1      -2.368   4.111 -32.456  1.00  0.00     0.049 C 
BRANCH  16  17
HETATM   17  C   UNL     1      -2.837   4.605 -33.810  1.00  0.00    -0.027 C 
HETATM   18  C   UNL     1      -2.023   5.017 -34.792  1.00  0.00     0.007 C 
ENDBRANCH  16  17
BRANCH  16  19
HETATM   19  C   UNL     1      -1.639   5.176 -31.643  1.00  0.00    -0.050 A 
HETATM   20  C   UNL     1      -2.317   6.099 -30.832  1.00  0.00     0.008 A 
HETATM   21  C   UNL     1      -1.614   7.044 -30.081  1.00  0.00     0.001 A 
HETATM   22  C   UNL     1      -0.224   7.086 -30.137  1.00  0.00     0.000 A 
HETATM   23  C   UNL     1       0.467   6.182 -30.938  1.00  0.00     0.001 A 
HETATM   24  C   UNL     1      -0.234   5.231 -31.682  1.00  0.00     0.008 A 
ENDBRANCH  16  19
ENDBRANCH  15  16
ENDBRANCH  12  15
ENDBRANCH   1  11
BRANCH   8  25
HETATM   25  C   UNL     1      -3.626  -3.872 -33.261  1.00  0.00     0.270 C 
HETATM   26  N   UNL     1      -3.176  -4.983 -33.921  1.00  0.00    -0.365 N 
HETATM   27  H   UNL     1      -3.631  -5.253 -34.785  1.00  0.00     0.159 HD
HETATM   28  H   UNL     1      -2.380  -5.486 -33.562  1.00  0.00     0.159 HD
HETATM   29  O   UNL     1      -3.088  -3.489 -32.229  1.00  0.00    -0.266 OA
ENDBRANCH   8  25
TORSDOF 6
ENDMDL
MODEL 7
REMARK VINA RESULT:      -7.8      4.113      7.763
REMARK  6 active torsions:
REMARK  status: ('A' for Active; 'I' for Inactive)
REMARK    1  A    between atoms: C_2  and  C_3 
REMARK    2  A    between atoms: C_3  and  C_4 
REMARK    3  A    between atoms: C_3  and  C_10 
REMARK    4  A    between atoms: C_10  and  C_11 
REMARK       I    between atoms: C_11  and  N_12 
REMARK    5  A    between atoms: N_12  and  C_13 
REMARK    6  A    between atoms: C_20  and  C_21 
REMARK       I    between atoms: C_21  and  N_22 
ROOT
HETATM    1  C   UNL     1      -6.050   0.864 -33.798  1.00  0.00     0.035 A 
HETATM    2  C   UNL     1      -5.078   0.105 -33.129  1.00  0.00     0.046 A 
HETATM    3  C   UNL     1      -4.916  -1.260 -33.452  1.00  0.00     0.030 A 
HETATM    4  C   UNL     1      -5.743  -1.825 -34.414  1.00  0.00     0.063 A 
HETATM    5  N   UNL     1      -5.363  -3.135 -34.495  1.00  0.00    -0.277 N 
HETATM    6  H   UNL     1      -5.757  -3.852 -35.092  1.00  0.00     0.189 HD
HETATM    7  N   UNL     1      -4.343  -3.470 -33.688  1.00  0.00    -0.168 NA
HETATM    8  C   UNL     1      -4.052  -2.319 -33.039  1.00  0.00     0.156 A 
HETATM    9  C   UNL     1      -6.724  -1.101 -35.095  1.00  0.00     0.034 A 
HETATM   10  C   UNL     1      -6.850   0.257 -34.773  1.00  0.00     0.032 A 
ENDROOT
BRANCH   1  11
HETATM   11  N   UNL     1      -6.257   2.242 -33.569  1.00  0.00    -0.327 N 
HETATM   12  C   UNL     1      -6.974   2.824 -32.541  1.00  0.00     0.223 C 
HETATM   13  O   UNL     1      -7.649   2.234 -31.703  1.00  0.00    -0.273 OA
HETATM   14  H   UNL     1      -5.803   2.871 -34.221  1.00  0.00     0.169 HD
BRANCH  12  15
HETATM   15  C   UNL     1      -6.867   4.339 -32.511  1.00  0.00     0.116 C 
BRANCH  15  16
HETATM   16  C   UNL     1      -5.554   4.867 -31.905  1.00  0.00     0.049 C 
BRANCH  16  17
HETATM   17  C   UNL     1      -5.184   4.190 -30.600  1.00  0.00    -0.027 C 
HETATM   18  C   UNL     1      -5.769   4.441 -29.421  1.00  0.00     0.007 C 
ENDBRANCH  16  17
BRANCH  16  19
HETATM   19  C   UNL     1      -4.414   4.893 -32.917  1.00  0.00    -0.050 A 
HETATM   20  C   UNL     1      -4.607   5.259 -34.259  1.00  0.00     0.008 A 
HETATM   21  C   UNL     1      -3.533   5.297 -35.152  1.00  0.00     0.001 A 
HETATM   22  C   UNL     1      -2.253   4.961 -34.720  1.00  0.00     0.000 A 
HETATM   23  C   UNL     1      -2.042   4.592 -33.395  1.00  0.00     0.001 A 
HETATM   24  C   UNL     1      -3.113   4.562 -32.499  1.00  0.00     0.008 A 
ENDBRANCH  16  19
ENDBRANCH  15  16
ENDBRANCH  12  15
ENDBRANCH   1  11
BRANCH   8  25
HETATM   25  C   UNL     1      -2.958  -2.253 -32.060  1.00  0.00     0.270 C 
HETATM   26  N   UNL     1      -2.694  -3.442 -31.436  1.00  0.00    -0.365 N 
HETATM   27  H   UNL     1      -3.237  -4.257 -31.694  1.00  0.00     0.159 HD
HETATM   28  H   UNL     1      -1.942  -3.496 -30.767  1.00  0.00     0.159 HD
HETATM   29  O   UNL     1      -2.307  -1.247 -31.804  1.00  0.00    -0.266 OA
ENDBRANCH   8  25
TORSDOF 6
ENDMDL
MODEL 8
REMARK VINA RESULT:      -7.8      2.787      3.137
REMARK  6 active torsions:
REMARK  status: ('A' for Active; 'I' for Inactive)
REMARK    1  A    between atoms: C_2  and  C_3 
REMARK    2  A    between atoms: C_3  and  C_4 
REMARK    3  A    between atoms: C_3  and  C_10 
REMARK    4  A    between atoms: C_10  and  C_11 
REMARK       I    between atoms: C_11  and  N_12 
REMARK    5  A    between atoms: N_12  and  C_13 
REMARK    6  A    between atoms: C_20  and  C_21 
REMARK       I    between atoms: C_21  and  N_22 
ROOT
HETATM    1  C   UNL     1      -8.328   2.272 -30.852  1.00  0.00     0.035 A 
HETATM    2  C   UNL     1      -9.633   2.508 -31.308  1.00  0.00     0.046 A 
HETATM    3  C   UNL     1     -10.266   3.733 -31.007  1.00  0.00     0.030 A 
HETATM    4  C   UNL     1      -9.583   4.672 -30.244  1.00  0.00     0.063 A 
HETATM    5  N   UNL     1     -10.442   5.726 -30.112  1.00  0.00    -0.277 N 
HETATM    6  H   UNL     1     -10.280   6.590 -29.608  1.00  0.00     0.189 HD
HETATM    7  N   UNL     1     -11.617   5.570 -30.742  1.00  0.00    -0.168 NA
HETATM    8  C   UNL     1     -11.522   4.343 -31.305  1.00  0.00     0.156 A 
HETATM    9  C   UNL     1      -8.285   4.469 -29.769  1.00  0.00     0.034 A 
HETATM   10  C   UNL     1      -7.671   3.254 -30.100  1.00  0.00     0.032 A 
ENDROOT
BRANCH   1  11
HETATM   11  N   UNL     1      -7.603   1.094 -31.136  1.00  0.00    -0.327 N 
HETATM   12  C   UNL     1      -6.631   0.919 -32.103  1.00  0.00     0.223 C 
HETATM   13  O   UNL     1      -6.304   1.735 -32.958  1.00  0.00    -0.273 OA
HETATM   14  H   UNL     1      -7.804   0.298 -30.542  1.00  0.00     0.169 HD
BRANCH  12  15
HETATM   15  C   UNL     1      -5.948  -0.436 -32.034  1.00  0.00     0.116 C 
BRANCH  15  16
HETATM   16  C   UNL     1      -5.021  -0.737 -33.226  1.00  0.00     0.049 C 
BRANCH  16  17
HETATM   17  C   UNL     1      -3.558  -0.477 -32.926  1.00  0.00    -0.027 C 
HETATM   18  C   UNL     1      -3.054  -0.300 -31.697  1.00  0.00     0.007 C 
ENDBRANCH  16  17
BRANCH  16  19
HETATM   19  C   UNL     1      -5.279  -2.113 -33.832  1.00  0.00    -0.050 A 
HETATM   20  C   UNL     1      -4.294  -3.112 -33.878  1.00  0.00     0.008 A 
HETATM   21  C   UNL     1      -4.574  -4.369 -34.418  1.00  0.00     0.001 A 
HETATM   22  C   UNL     1      -5.840  -4.644 -34.926  1.00  0.00     0.000 A 
HETATM   23  C   UNL     1      -6.829  -3.666 -34.892  1.00  0.00     0.001 A 
HETATM   24  C   UNL     1      -6.553  -2.411 -34.346  1.00  0.00     0.008 A 
ENDBRANCH  16  19
ENDBRANCH  15  16
ENDBRANCH  12  15
ENDBRANCH   1  11
BRANCH   8  25
HETATM   25  C   UNL     1     -12.615   3.792 -32.119  1.00  0.00     0.270 C 
HETATM   26  N   UNL     1     -13.575   3.137 -31.395  1.00  0.00    -0.365 N 
HETATM   27  H   UNL     1     -13.478   3.093 -30.388  1.00  0.00     0.159 HD
HETATM   28  H   UNL     1     -14.375   2.749 -31.868  1.00  0.00     0.159 HD
HETATM   29  O   UNL     1     -12.704   3.897 -33.336  1.00  0.00    -0.266 OA
ENDBRANCH   8  25
TORSDOF 6
ENDMDL
MODEL 9
REMARK VINA RESULT:      -7.7      4.708      7.622
REMARK  6 active torsions:
REMARK  status: ('A' for Active; 'I' for Inactive)
REMARK    1  A    between atoms: C_2  and  C_3 
REMARK    2  A    between atoms: C_3  and  C_4 
REMARK    3  A    between atoms: C_3  and  C_10 
REMARK    4  A    between atoms: C_10  and  C_11 
REMARK       I    between atoms: C_11  and  N_12 
REMARK    5  A    between atoms: N_12  and  C_13 
REMARK    6  A    between atoms: C_20  and  C_21 
REMARK       I    between atoms: C_21  and  N_22 
ROOT
HETATM    1  C   UNL     1      -5.257   3.683 -32.248  1.00  0.00     0.035 A 
HETATM    2  C   UNL     1      -4.271   4.457 -32.875  1.00  0.00     0.046 A 
HETATM    3  C   UNL     1      -3.616   5.474 -32.148  1.00  0.00     0.030 A 
HETATM    4  C   UNL     1      -3.983   5.698 -30.827  1.00  0.00     0.063 A 
HETATM    5  N   UNL     1      -3.199   6.734 -30.403  1.00  0.00    -0.277 N 
HETATM    6  H   UNL     1      -3.201   7.170 -29.489  1.00  0.00     0.189 HD
HETATM    7  N   UNL     1      -2.334   7.190 -31.323  1.00  0.00    -0.168 NA
HETATM    8  C   UNL     1      -2.576   6.418 -32.407  1.00  0.00     0.156 A 
HETATM    9  C   UNL     1      -4.965   4.951 -30.173  1.00  0.00     0.034 A 
HETATM   10  C   UNL     1      -5.584   3.932 -30.909  1.00  0.00     0.032 A 
ENDROOT
BRANCH   1  11
HETATM   11  N   UNL     1      -5.937   2.620 -32.883  1.00  0.00    -0.327 N 
HETATM   12  C   UNL     1      -7.017   2.708 -33.741  1.00  0.00     0.223 C 
HETATM   13  O   UNL     1      -7.642   3.727 -34.019  1.00  0.00    -0.273 OA
HETATM   14  H   UNL     1      -5.570   1.692 -32.706  1.00  0.00     0.169 HD
BRANCH  12  15
HETATM   15  C   UNL     1      -7.404   1.378 -34.363  1.00  0.00     0.116 C 
BRANCH  15  16
HETATM   16  C   UNL     1      -7.451   0.205 -33.366  1.00  0.00     0.049 C 
BRANCH  16  17
HETATM   17  C   UNL     1      -8.859  -0.279 -33.079  1.00  0.00    -0.027 C 
HETATM   18  C   UNL     1      -9.960   0.478 -33.189  1.00  0.00     0.007 C 
ENDBRANCH  16  17
BRANCH  16  19
HETATM   19  C   UNL     1      -6.491  -0.918 -33.742  1.00  0.00    -0.050 A 
HETATM   20  C   UNL     1      -6.863  -1.975 -34.588  1.00  0.00     0.008 A 
HETATM   21  C   UNL     1      -5.948  -2.973 -34.931  1.00  0.00     0.001 A 
HETATM   22  C   UNL     1      -4.650  -2.934 -34.427  1.00  0.00     0.000 A 
HETATM   23  C   UNL     1      -4.264  -1.897 -33.585  1.00  0.00     0.001 A 
HETATM   24  C   UNL     1      -5.175  -0.894 -33.247  1.00  0.00     0.008 A 
ENDBRANCH  16  19
ENDBRANCH  15  16
ENDBRANCH  12  15
ENDBRANCH   1  11
BRANCH   8  25
HETATM   25  C   UNL     1      -1.808   6.586 -33.649  1.00  0.00     0.270 C 
HETATM   26  N   UNL     1      -1.262   5.426 -34.129  1.00  0.00    -0.365 N 
HETATM   27  H   UNL     1      -1.431   4.565 -33.626  1.00  0.00     0.159 HD
HETATM   28  H   UNL     1      -0.739   5.442 -34.991  1.00  0.00     0.159 HD
HETATM   29  O   UNL     1      -1.656   7.648 -34.240  1.00  0.00    -0.266 OA
ENDBRANCH   8  25
TORSDOF 6
ENDMDL
MODEL 10
REMARK VINA RESULT:      -7.7      5.000      8.705
REMARK  6 active torsions:
REMARK  status: ('A' for Active; 'I' for Inactive)
REMARK    1  A    between atoms: C_2  and  C_3 
REMARK    2  A    between atoms: C_3  and  C_4 
REMARK    3  A    between atoms: C_3  and  C_10 
REMARK    4  A    between atoms: C_10  and  C_11 
REMARK       I    between atoms: C_11  and  N_12 
REMARK    5  A    between atoms: N_12  and  C_13 
REMARK    6  A    between atoms: C_20  and  C_21 
REMARK       I    between atoms: C_21  and  N_22 
ROOT
HETATM    1  C   UNL     1      -3.556   3.503 -32.534  1.00  0.00     0.035 A 
HETATM    2  C   UNL     1      -2.403   3.773 -31.784  1.00  0.00     0.046 A 
HETATM    3  C   UNL     1      -1.749   5.015 -31.933  1.00  0.00     0.030 A 
HETATM    4  C   UNL     1      -2.256   5.937 -32.840  1.00  0.00     0.063 A 
HETATM    5  N   UNL     1      -1.418   7.013 -32.771  1.00  0.00    -0.277 N 
HETATM    6  H   UNL     1      -1.479   7.873 -33.302  1.00  0.00     0.189 HD
HETATM    7  N   UNL     1      -0.421   6.887 -31.880  1.00  0.00    -0.168 NA
HETATM    8  C   UNL     1      -0.615   5.657 -31.349  1.00  0.00     0.156 A 
HETATM    9  C   UNL     1      -3.399   5.699 -33.607  1.00  0.00     0.034 A 
HETATM   10  C   UNL     1      -4.043   4.468 -33.425  1.00  0.00     0.032 A 
ENDROOT
BRANCH   1  11
HETATM   11  N   UNL     1      -4.297   2.306 -32.423  1.00  0.00    -0.327 N 
HETATM   12  C   UNL     1      -3.937   1.155 -31.748  1.00  0.00     0.223 C 
HETATM   13  O   UNL     1      -2.855   0.937 -31.212  1.00  0.00    -0.273 OA
HETATM   14  H   UNL     1      -5.207   2.307 -32.870  1.00  0.00     0.169 HD
BRANCH  12  15
HETATM   15  C   UNL     1      -5.038   0.109 -31.707  1.00  0.00     0.116 C 
BRANCH  15  16
HETATM   16  C   UNL     1      -5.707  -0.157 -33.068  1.00  0.00     0.049 C 
BRANCH  16  17
HETATM   17  C   UNL     1      -5.423  -1.543 -33.612  1.00  0.00    -0.027 C 
HETATM   18  C   UNL     1      -4.230  -2.152 -33.557  1.00  0.00     0.007 C 
ENDBRANCH  16  17
BRANCH  16  19
HETATM   19  C   UNL     1      -7.189   0.201 -33.068  1.00  0.00    -0.050 A 
HETATM   20  C   UNL     1      -7.920   0.384 -31.884  1.00  0.00     0.008 A 
HETATM   21  C   UNL     1      -9.271   0.736 -31.923  1.00  0.00     0.001 A 
HETATM   22  C   UNL     1      -9.913   0.904 -33.147  1.00  0.00     0.000 A 
HETATM   23  C   UNL     1      -9.207   0.725 -34.332  1.00  0.00     0.001 A 
HETATM   24  C   UNL     1      -7.854   0.380 -34.294  1.00  0.00     0.008 A 
ENDBRANCH  16  19
ENDBRANCH  15  16
ENDBRANCH  12  15
ENDBRANCH   1  11
BRANCH   8  25
HETATM   25  C   UNL     1       0.269   5.134 -30.298  1.00  0.00     0.270 C 
HETATM   26  N   UNL     1      -0.113   5.472 -29.028  1.00  0.00    -0.365 N 
HETATM   27  H   UNL     1      -0.953   6.023 -28.904  1.00  0.00     0.159 HD
HETATM   28  H   UNL     1       0.421   5.134 -28.242  1.00  0.00     0.159 HD
HETATM   29  O   UNL     1       1.262   4.442 -30.497  1.00  0.00    -0.266 OA
ENDBRANCH   8  25
TORSDOF 6
ENDMDL
