MODEL 1
REMARK VINA RESULT:      -9.6      0.000      0.000
REMARK  3 active torsions:
REMARK  status: ('A' for Active; 'I' for Inactive)
REMARK    1  A    between atoms: O_2  and  C_3 
REMARK    2  A    between atoms: C_5  and  N_6 
REMARK       I    between atoms: N_6  and  C_7 
REMARK       I    between atoms: C_7  and  N_8 
REMARK    3  A    between atoms: C_11  and  C_12 
ROOT
HETATM    1  N   UNL     1     -12.421   1.629 -32.902  1.00  0.00    -0.306 N 
HETATM    2  C   UNL     1     -11.441   2.004 -33.794  1.00  0.00     0.323 C 
HETATM    3  N   UNL     1     -10.250   1.267 -33.712  1.00  0.00    -0.330 N 
HETATM    4  C   UNL     1     -10.004   0.256 -32.687  1.00  0.00     0.155 C 
HETATM    5  C   UNL     1      -8.694  -0.447 -32.824  1.00  0.00     0.001 C 
HETATM    6  C   UNL     1      -7.783  -0.213 -33.783  1.00  0.00    -0.046 C 
HETATM    7  C   UNL     1      -8.065   0.816 -34.844  1.00  0.00     0.059 C 
HETATM    8  C   UNL     1      -9.077   1.855 -34.361  1.00  0.00     0.132 C 
HETATM    9  O   UNL     1     -11.560   2.935 -34.588  1.00  0.00    -0.247 OA
HETATM   10  H   UNL     1     -12.204   0.913 -32.227  1.00  0.00     0.171 HD
ENDROOT
BRANCH   1  11
HETATM   11  C   UNL     1     -13.684   2.231 -32.688  1.00  0.00     0.077 A 
HETATM   12  C   UNL     1     -13.883   3.487 -32.108  1.00  0.00     0.069 A 
HETATM   13  C   UNL     1     -15.181   3.980 -31.920  1.00  0.00     0.070 A 
HETATM   14  C   UNL     1     -16.282   3.208 -32.305  1.00  0.00     0.040 A 
HETATM   15  C   UNL     1     -16.097   1.960 -32.893  1.00  0.00     0.047 A 
HETATM   16  C   UNL     1     -14.804   1.488 -33.084  1.00  0.00     0.143 A 
HETATM   17  F   UNL     1     -14.630   0.280 -33.644  1.00  0.00    -0.204 F 
BRANCH  13  18
HETATM   18  O   UNL     1     -15.507   5.190 -31.368  1.00  0.00    -0.356 OA
HETATM   19  C   UNL     1     -14.499   5.839 -30.602  1.00  0.00     0.210 C 
ENDBRANCH  13  18
ENDBRANCH   1  11
BRANCH   6  20
HETATM   20  C   UNL     1      -6.511  -0.867 -33.865  1.00  0.00    -0.002 A 
HETATM   21  C   UNL     1      -6.234  -2.231 -34.216  1.00  0.00     0.003 A 
HETATM   22  C   UNL     1      -4.848  -2.395 -34.167  1.00  0.00     0.043 A 
HETATM   23  C   UNL     1      -7.023  -3.352 -34.562  1.00  0.00     0.014 A 
HETATM   24  C   UNL     1      -4.215  -3.609 -34.462  1.00  0.00     0.030 A 
HETATM   25  N   UNL     1      -4.308  -1.188 -33.787  1.00  0.00    -0.364 N 
HETATM   26  C   UNL     1      -5.020  -4.695 -34.817  1.00  0.00     0.002 A 
HETATM   27  C   UNL     1      -6.406  -4.572 -34.865  1.00  0.00     0.001 A 
HETATM   28  H   UNL     1      -3.321  -1.017 -33.664  1.00  0.00     0.165 HD
HETATM   29  C   UNL     1      -5.300  -0.261 -33.600  1.00  0.00     0.101 A 
ENDBRANCH   6  20
TORSDOF 3
ENDMDL
MODEL 2
REMARK VINA RESULT:      -9.6      1.312      1.840
REMARK  3 active torsions:
REMARK  status: ('A' for Active; 'I' for Inactive)
REMARK    1  A    between atoms: O_2  and  C_3 
REMARK    2  A    between atoms: C_5  and  N_6 
REMARK       I    between atoms: N_6  and  C_7 
REMARK       I    between atoms: C_7  and  N_8 
REMARK    3  A    between atoms: C_11  and  C_12 
ROOT
HETATM    1  N   UNL     1     -12.359   1.840 -32.763  1.00  0.00    -0.306 N 
HETATM    2  C   UNL     1     -11.475   2.032 -33.802  1.00  0.00     0.323 C 
HETATM    3  N   UNL     1     -10.271   1.321 -33.698  1.00  0.00    -0.330 N 
HETATM    4  C   UNL     1      -9.912   0.525 -32.526  1.00  0.00     0.155 C 
HETATM    5  C   UNL     1      -8.610  -0.196 -32.654  1.00  0.00     0.001 C 
HETATM    6  C   UNL     1      -7.800  -0.155 -33.725  1.00  0.00    -0.046 C 
HETATM    7  C   UNL     1      -8.200   0.652 -34.931  1.00  0.00     0.059 C 
HETATM    8  C   UNL     1      -9.176   1.768 -34.560  1.00  0.00     0.132 C 
HETATM    9  O   UNL     1     -11.685   2.793 -34.745  1.00  0.00    -0.247 OA
HETATM   10  H   UNL     1     -12.066   1.267 -31.988  1.00  0.00     0.171 HD
ENDROOT
BRANCH   1  11
HETATM   11  C   UNL     1     -13.604   2.477 -32.546  1.00  0.00     0.077 A 
HETATM   12  C   UNL     1     -14.851   1.911 -32.829  1.00  0.00     0.069 A 
HETATM   13  C   UNL     1     -16.024   2.640 -32.597  1.00  0.00     0.070 A 
HETATM   14  C   UNL     1     -15.948   3.942 -32.091  1.00  0.00     0.040 A 
HETATM   15  C   UNL     1     -14.713   4.513 -31.797  1.00  0.00     0.047 A 
HETATM   16  C   UNL     1     -13.558   3.775 -32.020  1.00  0.00     0.143 A 
HETATM   17  F   UNL     1     -12.367   4.331 -31.742  1.00  0.00    -0.204 F 
BRANCH  13  18
HETATM   18  O   UNL     1     -17.300   2.200 -32.829  1.00  0.00    -0.356 OA
HETATM   19  C   UNL     1     -18.348   3.145 -32.648  1.00  0.00     0.210 C 
ENDBRANCH  13  18
ENDBRANCH   1  11
BRANCH   6  20
HETATM   20  C   UNL     1      -6.532  -0.817 -33.804  1.00  0.00    -0.002 A 
HETATM   21  C   UNL     1      -6.262  -2.176 -34.178  1.00  0.00     0.003 A 
HETATM   22  C   UNL     1      -4.878  -2.352 -34.115  1.00  0.00     0.043 A 
HETATM   23  C   UNL     1      -7.054  -3.284 -34.554  1.00  0.00     0.014 A 
HETATM   24  C   UNL     1      -4.250  -3.566 -34.426  1.00  0.00     0.030 A 
HETATM   25  N   UNL     1      -4.334  -1.156 -33.706  1.00  0.00    -0.364 N 
HETATM   26  C   UNL     1      -5.059  -4.638 -34.811  1.00  0.00     0.002 A 
HETATM   27  C   UNL     1      -6.443  -4.503 -34.872  1.00  0.00     0.001 A 
HETATM   28  H   UNL     1      -3.346  -0.995 -33.568  1.00  0.00     0.165 HD
HETATM   29  C   UNL     1      -5.320  -0.226 -33.514  1.00  0.00     0.101 A 
ENDBRANCH   6  20
TORSDOF 3
ENDMDL
MODEL 3
REMARK VINA RESULT:      -8.9      7.040      9.789
REMARK  3 active torsions:
REMARK  status: ('A' for Active; 'I' for Inactive)
REMARK    1  A    between atoms: O_2  and  C_3 
REMARK    2  A    between atoms: C_5  and  N_6 
REMARK       I    between atoms: N_6  and  C_7 
REMARK       I    between atoms: C_7  and  N_8 
REMARK    3  A    between atoms: C_11  and  C_12 
ROOT
HETATM    1  N   UNL     1      -2.334   4.717 -30.904  1.00  0.00    -0.306 N 
HETATM    2  C   UNL     1      -3.386   4.834 -31.785  1.00  0.00     0.323 C 
HETATM    3  N   UNL     1      -4.005   3.626 -32.135  1.00  0.00    -0.330 N 
HETATM    4  C   UNL     1      -3.512   2.320 -31.703  1.00  0.00     0.155 C 
HETATM    5  C   UNL     1      -4.360   1.172 -32.143  1.00  0.00     0.001 C 
HETATM    6  C   UNL     1      -5.485   1.269 -32.870  1.00  0.00    -0.046 C 
HETATM    7  C   UNL     1      -5.989   2.625 -33.285  1.00  0.00     0.059 C 
HETATM    8  C   UNL     1      -4.860   3.654 -33.323  1.00  0.00     0.132 C 
HETATM    9  O   UNL     1      -3.753   5.902 -32.273  1.00  0.00    -0.247 OA
HETATM   10  H   UNL     1      -2.046   3.793 -30.624  1.00  0.00     0.171 HD
ENDROOT
BRANCH   1  11
HETATM   11  C   UNL     1      -1.469   5.735 -30.436  1.00  0.00     0.077 A 
HETATM   12  C   UNL     1      -1.815   6.706 -29.491  1.00  0.00     0.069 A 
HETATM   13  C   UNL     1      -0.887   7.685 -29.115  1.00  0.00     0.070 A 
HETATM   14  C   UNL     1       0.387   7.698 -29.694  1.00  0.00     0.040 A 
HETATM   15  C   UNL     1       0.747   6.731 -30.628  1.00  0.00     0.047 A 
HETATM   16  C   UNL     1      -0.179   5.759 -30.984  1.00  0.00     0.143 A 
HETATM   17  F   UNL     1       0.168   4.832 -31.891  1.00  0.00    -0.204 F 
BRANCH  13  18
HETATM   18  O   UNL     1      -1.101   8.684 -28.203  1.00  0.00    -0.356 OA
HETATM   19  C   UNL     1       0.021   9.103 -27.434  1.00  0.00     0.210 C 
ENDBRANCH  13  18
ENDBRANCH   1  11
BRANCH   6  20
HETATM   20  C   UNL     1      -6.254   0.147 -33.321  1.00  0.00    -0.002 A 
HETATM   21  C   UNL     1      -5.779  -1.121 -33.797  1.00  0.00     0.003 A 
HETATM   22  C   UNL     1      -6.903  -1.890 -34.108  1.00  0.00     0.043 A 
HETATM   23  C   UNL     1      -4.505  -1.694 -34.008  1.00  0.00     0.014 A 
HETATM   24  C   UNL     1      -6.817  -3.200 -34.597  1.00  0.00     0.030 A 
HETATM   25  N   UNL     1      -8.010  -1.117 -33.846  1.00  0.00    -0.364 N 
HETATM   26  C   UNL     1      -5.543  -3.745 -34.780  1.00  0.00     0.002 A 
HETATM   27  C   UNL     1      -4.401  -3.004 -34.492  1.00  0.00     0.001 A 
HETATM   28  H   UNL     1      -8.964  -1.418 -33.986  1.00  0.00     0.165 HD
HETATM   29  C   UNL     1      -7.632   0.112 -33.373  1.00  0.00     0.101 A 
ENDBRANCH   6  20
TORSDOF 3
ENDMDL
MODEL 4
REMARK VINA RESULT:      -8.7      2.987      3.625
REMARK  3 active torsions:
REMARK  status: ('A' for Active; 'I' for Inactive)
REMARK    1  A    between atoms: O_2  and  C_3 
REMARK    2  A    between atoms: C_5  and  N_6 
REMARK       I    between atoms: N_6  and  C_7 
REMARK       I    between atoms: C_7  and  N_8 
REMARK    3  A    between atoms: C_11  and  C_12 
ROOT
HETATM    1  N   UNL     1      -9.595   3.303 -34.814  1.00  0.00    -0.306 N 
HETATM    2  C   UNL     1      -9.182   2.844 -33.583  1.00  0.00     0.323 C 
HETATM    3  N   UNL     1      -8.250   1.797 -33.621  1.00  0.00    -0.330 N 
HETATM    4  C   UNL     1      -7.828   1.147 -34.860  1.00  0.00     0.155 C 
HETATM    5  C   UNL     1      -6.783   0.096 -34.673  1.00  0.00     0.001 C 
HETATM    6  C   UNL     1      -6.243  -0.262 -33.497  1.00  0.00    -0.046 C 
HETATM    7  C   UNL     1      -6.675   0.434 -32.236  1.00  0.00     0.059 C 
HETATM    8  C   UNL     1      -8.069   1.042 -32.380  1.00  0.00     0.132 C 
HETATM    9  O   UNL     1      -9.609   3.276 -32.514  1.00  0.00    -0.247 OA
HETATM   10  H   UNL     1      -9.258   2.830 -35.637  1.00  0.00     0.171 HD
ENDROOT
BRANCH   1  11
HETATM   11  C   UNL     1     -10.578   4.281 -35.097  1.00  0.00     0.077 A 
HETATM   12  C   UNL     1     -10.323   5.646 -35.263  1.00  0.00     0.069 A 
HETATM   13  C   UNL     1     -11.377   6.534 -35.517  1.00  0.00     0.070 A 
HETATM   14  C   UNL     1     -12.689   6.055 -35.594  1.00  0.00     0.040 A 
HETATM   15  C   UNL     1     -12.954   4.698 -35.440  1.00  0.00     0.047 A 
HETATM   16  C   UNL     1     -11.899   3.826 -35.200  1.00  0.00     0.143 A 
HETATM   17  F   UNL     1     -12.159   2.518 -35.044  1.00  0.00    -0.204 F 
BRANCH  13  18
HETATM   18  O   UNL     1     -11.259   7.886 -35.700  1.00  0.00    -0.356 OA
HETATM   19  C   UNL     1     -10.492   8.318 -36.817  1.00  0.00     0.210 C 
ENDBRANCH  13  18
ENDBRANCH   1  11
BRANCH   6  20
HETATM   20  C   UNL     1      -5.277  -1.309 -33.339  1.00  0.00    -0.002 A 
HETATM   21  C   UNL     1      -5.306  -2.634 -33.887  1.00  0.00     0.003 A 
HETATM   22  C   UNL     1      -4.141  -3.280 -33.464  1.00  0.00     0.043 A 
HETATM   23  C   UNL     1      -6.210  -3.361 -34.694  1.00  0.00     0.014 A 
HETATM   24  C   UNL     1      -3.830  -4.598 -33.821  1.00  0.00     0.030 A 
HETATM   25  N   UNL     1      -3.444  -2.389 -32.681  1.00  0.00    -0.364 N 
HETATM   26  C   UNL     1      -4.736  -5.285 -34.633  1.00  0.00     0.002 A 
HETATM   27  C   UNL     1      -5.913  -4.678 -35.063  1.00  0.00     0.001 A 
HETATM   28  H   UNL     1      -2.561  -2.591 -32.234  1.00  0.00     0.165 HD
HETATM   29  C   UNL     1      -4.119  -1.200 -32.597  1.00  0.00     0.101 A 
ENDBRANCH   6  20
TORSDOF 3
ENDMDL
MODEL 5
REMARK VINA RESULT:      -8.3     11.193     13.838
REMARK  3 active torsions:
REMARK  status: ('A' for Active; 'I' for Inactive)
REMARK    1  A    between atoms: O_2  and  C_3 
REMARK    2  A    between atoms: C_5  and  N_6 
REMARK       I    between atoms: N_6  and  C_7 
REMARK       I    between atoms: C_7  and  N_8 
REMARK    3  A    between atoms: C_11  and  C_12 
ROOT
HETATM    1  N   UNL     1      -2.255   6.496 -31.527  1.00  0.00    -0.306 N 
HETATM    2  C   UNL     1      -1.379   5.816 -30.710  1.00  0.00     0.323 C 
HETATM    3  N   UNL     1      -0.842   6.569 -29.657  1.00  0.00    -0.330 N 
HETATM    4  C   UNL     1      -1.086   8.000 -29.491  1.00  0.00     0.155 C 
HETATM    5  C   UNL     1      -0.464   8.588 -28.267  1.00  0.00     0.001 C 
HETATM    6  C   UNL     1       0.264   7.912 -27.364  1.00  0.00    -0.046 C 
HETATM    7  C   UNL     1       0.485   6.434 -27.540  1.00  0.00     0.059 C 
HETATM    8  C   UNL     1       0.347   6.018 -29.004  1.00  0.00     0.132 C 
HETATM    9  O   UNL     1      -1.047   4.645 -30.890  1.00  0.00    -0.247 OA
HETATM   10  H   UNL     1      -2.401   7.479 -31.356  1.00  0.00     0.171 HD
ENDROOT
BRANCH   1  11
HETATM   11  C   UNL     1      -2.886   6.036 -32.707  1.00  0.00     0.077 A 
HETATM   12  C   UNL     1      -4.247   5.735 -32.820  1.00  0.00     0.069 A 
HETATM   13  C   UNL     1      -4.766   5.261 -34.032  1.00  0.00     0.070 A 
HETATM   14  C   UNL     1      -3.918   5.079 -35.130  1.00  0.00     0.040 A 
HETATM   15  C   UNL     1      -2.564   5.384 -35.032  1.00  0.00     0.047 A 
HETATM   16  C   UNL     1      -2.064   5.864 -33.828  1.00  0.00     0.143 A 
HETATM   17  F   UNL     1      -0.755   6.150 -33.735  1.00  0.00    -0.204 F 
BRANCH  13  18
HETATM   18  O   UNL     1      -6.074   4.935 -34.271  1.00  0.00    -0.356 OA
HETATM   19  C   UNL     1      -6.479   3.615 -33.928  1.00  0.00     0.210 C 
ENDBRANCH  13  18
ENDBRANCH   1  11
BRANCH   6  20
HETATM   20  C   UNL     1       0.892   8.509 -26.222  1.00  0.00    -0.002 A 
HETATM   21  C   UNL     1       0.268   9.147 -25.099  1.00  0.00     0.003 A 
HETATM   22  C   UNL     1       1.290   9.561 -24.241  1.00  0.00     0.043 A 
HETATM   23  C   UNL     1      -1.066   9.428 -24.724  1.00  0.00     0.014 A 
HETATM   24  C   UNL     1       1.046  10.220 -23.029  1.00  0.00     0.030 A 
HETATM   25  N   UNL     1       2.482   9.203 -24.827  1.00  0.00    -0.364 N 
HETATM   26  C   UNL     1      -0.283  10.468 -22.678  1.00  0.00     0.002 A 
HETATM   27  C   UNL     1      -1.327  10.080 -23.513  1.00  0.00     0.001 A 
HETATM   28  H   UNL     1       3.392   9.385 -24.428  1.00  0.00     0.165 HD
HETATM   29  C   UNL     1       2.255   8.571 -26.021  1.00  0.00     0.101 A 
ENDBRANCH   6  20
TORSDOF 3
ENDMDL
MODEL 6
REMARK VINA RESULT:      -8.3      5.992      9.948
REMARK  3 active torsions:
REMARK  status: ('A' for Active; 'I' for Inactive)
REMARK    1  A    between atoms: O_2  and  C_3 
REMARK    2  A    between atoms: C_5  and  N_6 
REMARK       I    between atoms: N_6  and  C_7 
REMARK       I    between atoms: C_7  and  N_8 
REMARK    3  A    between atoms: C_11  and  C_12 
ROOT
HETATM    1  N   UNL     1      -3.863   4.672 -32.504  1.00  0.00    -0.306 N 
HETATM    2  C   UNL     1      -4.045   3.316 -32.668  1.00  0.00     0.323 C 
HETATM    3  N   UNL     1      -5.382   2.900 -32.732  1.00  0.00    -0.330 N 
HETATM    4  C   UNL     1      -6.512   3.802 -32.523  1.00  0.00     0.155 C 
HETATM    5  C   UNL     1      -7.848   3.158 -32.697  1.00  0.00     0.001 C 
HETATM    6  C   UNL     1      -8.054   1.870 -33.016  1.00  0.00    -0.046 C 
HETATM    7  C   UNL     1      -6.878   0.962 -33.250  1.00  0.00     0.059 C 
HETATM    8  C   UNL     1      -5.627   1.470 -32.534  1.00  0.00     0.132 C 
HETATM    9  O   UNL     1      -3.122   2.505 -32.721  1.00  0.00    -0.247 OA
HETATM   10  H   UNL     1      -4.679   5.251 -32.382  1.00  0.00     0.171 HD
ENDROOT
BRANCH   1  11
HETATM   11  C   UNL     1      -2.648   5.375 -32.323  1.00  0.00     0.077 A 
HETATM   12  C   UNL     1      -1.830   5.278 -31.193  1.00  0.00     0.069 A 
HETATM   13  C   UNL     1      -0.657   6.039 -31.106  1.00  0.00     0.070 A 
HETATM   14  C   UNL     1      -0.309   6.906 -32.147  1.00  0.00     0.040 A 
HETATM   15  C   UNL     1      -1.110   7.004 -33.280  1.00  0.00     0.047 A 
HETATM   16  C   UNL     1      -2.265   6.236 -33.359  1.00  0.00     0.143 A 
HETATM   17  F   UNL     1      -3.040   6.339 -34.451  1.00  0.00    -0.204 F 
BRANCH  13  18
HETATM   18  O   UNL     1       0.227   6.032 -30.060  1.00  0.00    -0.356 OA
HETATM   19  C   UNL     1       0.721   4.764 -29.645  1.00  0.00     0.210 C 
ENDBRANCH  13  18
ENDBRANCH   1  11
BRANCH   6  20
HETATM   20  C   UNL     1      -9.348   1.264 -33.129  1.00  0.00    -0.002 A 
HETATM   21  C   UNL     1     -10.489   1.735 -33.861  1.00  0.00     0.003 A 
HETATM   22  C   UNL     1     -11.510   0.800 -33.677  1.00  0.00     0.043 A 
HETATM   23  C   UNL     1     -10.765   2.870 -34.656  1.00  0.00     0.014 A 
HETATM   24  C   UNL     1     -12.778   0.934 -34.259  1.00  0.00     0.030 A 
HETATM   25  N   UNL     1     -11.015  -0.187 -32.857  1.00  0.00    -0.364 N 
HETATM   26  C   UNL     1     -13.014   2.059 -35.054  1.00  0.00     0.002 A 
HETATM   27  C   UNL     1     -12.024   3.017 -35.249  1.00  0.00     0.001 A 
HETATM   28  H   UNL     1     -11.542  -0.992 -32.550  1.00  0.00     0.165 HD
HETATM   29  C   UNL     1      -9.716   0.082 -32.519  1.00  0.00     0.101 A 
ENDBRANCH   6  20
TORSDOF 3
ENDMDL
MODEL 7
REMARK VINA RESULT:      -8.2      6.796     10.526
REMARK  3 active torsions:
REMARK  status: ('A' for Active; 'I' for Inactive)
REMARK    1  A    between atoms: O_2  and  C_3 
REMARK    2  A    between atoms: C_5  and  N_6 
REMARK       I    between atoms: N_6  and  C_7 
REMARK       I    between atoms: C_7  and  N_8 
REMARK    3  A    between atoms: C_11  and  C_12 
ROOT
HETATM    1  N   UNL     1      -4.150  -0.897 -32.826  1.00  0.00    -0.306 N 
HETATM    2  C   UNL     1      -5.015  -0.245 -31.976  1.00  0.00     0.323 C 
HETATM    3  N   UNL     1      -4.708   1.101 -31.732  1.00  0.00    -0.330 N 
HETATM    4  C   UNL     1      -3.499   1.750 -32.237  1.00  0.00     0.155 C 
HETATM    5  C   UNL     1      -3.403   3.203 -31.908  1.00  0.00     0.001 C 
HETATM    6  C   UNL     1      -4.314   3.905 -31.215  1.00  0.00    -0.046 C 
HETATM    7  C   UNL     1      -5.563   3.225 -30.723  1.00  0.00     0.059 C 
HETATM    8  C   UNL     1      -5.359   1.718 -30.575  1.00  0.00     0.132 C 
HETATM    9  O   UNL     1      -5.973  -0.788 -31.428  1.00  0.00    -0.247 OA
HETATM   10  H   UNL     1      -3.341  -0.396 -33.160  1.00  0.00     0.171 HD
ENDROOT
BRANCH   1  11
HETATM   11  C   UNL     1      -4.149  -2.264 -33.192  1.00  0.00     0.077 A 
HETATM   12  C   UNL     1      -4.951  -2.824 -34.191  1.00  0.00     0.069 A 
HETATM   13  C   UNL     1      -4.888  -4.198 -34.457  1.00  0.00     0.070 A 
HETATM   14  C   UNL     1      -4.028  -5.014 -33.714  1.00  0.00     0.040 A 
HETATM   15  C   UNL     1      -3.218  -4.466 -32.724  1.00  0.00     0.047 A 
HETATM   16  C   UNL     1      -3.281  -3.100 -32.478  1.00  0.00     0.143 A 
HETATM   17  F   UNL     1      -2.504  -2.576 -31.517  1.00  0.00    -0.204 F 
BRANCH  13  18
HETATM   18  O   UNL     1      -5.617  -4.865 -35.406  1.00  0.00    -0.356 OA
HETATM   19  C   UNL     1      -6.992  -4.519 -35.520  1.00  0.00     0.210 C 
ENDBRANCH  13  18
ENDBRANCH   1  11
BRANCH   6  20
HETATM   20  C   UNL     1      -4.175   5.289 -30.870  1.00  0.00    -0.002 A 
HETATM   21  C   UNL     1      -3.250   6.248 -31.404  1.00  0.00     0.003 A 
HETATM   22  C   UNL     1      -3.505   7.464 -30.765  1.00  0.00     0.043 A 
HETATM   23  C   UNL     1      -2.210   6.207 -32.360  1.00  0.00     0.014 A 
HETATM   24  C   UNL     1      -2.790   8.636 -31.047  1.00  0.00     0.030 A 
HETATM   25  N   UNL     1      -4.530   7.248 -29.873  1.00  0.00    -0.364 N 
HETATM   26  C   UNL     1      -1.779   8.567 -32.009  1.00  0.00     0.002 A 
HETATM   27  C   UNL     1      -1.489   7.370 -32.656  1.00  0.00     0.001 A 
HETATM   28  H   UNL     1      -4.918   7.956 -29.267  1.00  0.00     0.165 HD
HETATM   29  C   UNL     1      -4.939   5.942 -29.926  1.00  0.00     0.101 A 
ENDBRANCH   6  20
TORSDOF 3
ENDMDL
MODEL 8
REMARK VINA RESULT:      -8.2      2.205      2.637
REMARK  3 active torsions:
REMARK  status: ('A' for Active; 'I' for Inactive)
REMARK    1  A    between atoms: O_2  and  C_3 
REMARK    2  A    between atoms: C_5  and  N_6 
REMARK       I    between atoms: N_6  and  C_7 
REMARK       I    between atoms: C_7  and  N_8 
REMARK    3  A    between atoms: C_11  and  C_12 
ROOT
HETATM    1  N   UNL     1     -10.549   3.016 -34.001  1.00  0.00    -0.306 N 
HETATM    2  C   UNL     1      -9.233   3.242 -33.664  1.00  0.00     0.323 C 
HETATM    3  N   UNL     1      -8.423   2.097 -33.628  1.00  0.00    -0.330 N 
HETATM    4  C   UNL     1      -8.943   0.744 -33.813  1.00  0.00     0.155 C 
HETATM    5  C   UNL     1      -7.896  -0.320 -33.796  1.00  0.00     0.001 C 
HETATM    6  C   UNL     1      -6.579  -0.112 -33.629  1.00  0.00    -0.046 C 
HETATM    7  C   UNL     1      -6.061   1.290 -33.463  1.00  0.00     0.059 C 
HETATM    8  C   UNL     1      -7.143   2.228 -32.930  1.00  0.00     0.132 C 
HETATM    9  O   UNL     1      -8.782   4.349 -33.376  1.00  0.00    -0.247 OA
HETATM   10  H   UNL     1     -10.850   2.064 -34.135  1.00  0.00     0.171 HD
ENDROOT
BRANCH   1  11
HETATM   11  C   UNL     1     -11.613   3.948 -34.038  1.00  0.00     0.077 A 
HETATM   12  C   UNL     1     -12.604   4.068 -33.059  1.00  0.00     0.069 A 
HETATM   13  C   UNL     1     -13.630   5.011 -33.207  1.00  0.00     0.070 A 
HETATM   14  C   UNL     1     -13.668   5.828 -34.342  1.00  0.00     0.040 A 
HETATM   15  C   UNL     1     -12.682   5.724 -35.319  1.00  0.00     0.047 A 
HETATM   16  C   UNL     1     -11.665   4.792 -35.155  1.00  0.00     0.143 A 
HETATM   17  F   UNL     1     -10.719   4.689 -36.103  1.00  0.00    -0.204 F 
BRANCH  13  18
HETATM   18  O   UNL     1     -14.652   5.229 -32.322  1.00  0.00    -0.356 OA
HETATM   19  C   UNL     1     -14.296   5.724 -31.037  1.00  0.00     0.210 C 
ENDBRANCH  13  18
ENDBRANCH   1  11
BRANCH   6  20
HETATM   20  C   UNL     1      -5.599  -1.156 -33.567  1.00  0.00    -0.002 A 
HETATM   21  C   UNL     1      -5.685  -2.487 -34.098  1.00  0.00     0.003 A 
HETATM   22  C   UNL     1      -4.480  -3.127 -33.797  1.00  0.00     0.043 A 
HETATM   23  C   UNL     1      -6.669  -3.221 -34.798  1.00  0.00     0.014 A 
HETATM   24  C   UNL     1      -4.206  -4.448 -34.175  1.00  0.00     0.030 A 
HETATM   25  N   UNL     1      -3.705  -2.229 -33.101  1.00  0.00    -0.364 N 
HETATM   26  C   UNL     1      -5.193  -5.143 -34.879  1.00  0.00     0.002 A 
HETATM   27  C   UNL     1      -6.410  -4.541 -35.186  1.00  0.00     0.001 A 
HETATM   28  H   UNL     1      -2.779  -2.426 -32.749  1.00  0.00     0.165 HD
HETATM   29  C   UNL     1      -4.369  -1.040 -32.954  1.00  0.00     0.101 A 
ENDBRANCH   6  20
TORSDOF 3
ENDMDL
MODEL 9
REMARK VINA RESULT:      -8.2      7.828     10.282
REMARK  3 active torsions:
REMARK  status: ('A' for Active; 'I' for Inactive)
REMARK    1  A    between atoms: O_2  and  C_3 
REMARK    2  A    between atoms: C_5  and  N_6 
REMARK       I    between atoms: N_6  and  C_7 
REMARK       I    between atoms: C_7  and  N_8 
REMARK    3  A    between atoms: C_11  and  C_12 
ROOT
HETATM    1  N   UNL     1      -2.104   5.702 -30.092  1.00  0.00    -0.306 N 
HETATM    2  C   UNL     1      -3.247   5.985 -30.806  1.00  0.00     0.323 C 
HETATM    3  N   UNL     1      -3.815   4.891 -31.475  1.00  0.00    -0.330 N 
HETATM    4  C   UNL     1      -3.192   3.571 -31.522  1.00  0.00     0.155 C 
HETATM    5  C   UNL     1      -3.999   2.539 -32.239  1.00  0.00     0.001 C 
HETATM    6  C   UNL     1      -5.198   2.748 -32.809  1.00  0.00    -0.046 C 
HETATM    7  C   UNL     1      -5.834   4.108 -32.729  1.00  0.00     0.059 C 
HETATM    8  C   UNL     1      -4.789   5.204 -32.522  1.00  0.00     0.132 C 
HETATM    9  O   UNL     1      -3.736   7.110 -30.897  1.00  0.00    -0.247 OA
HETATM   10  H   UNL     1      -1.726   4.770 -30.146  1.00  0.00     0.171 HD
ENDROOT
BRANCH   1  11
HETATM   11  C   UNL     1      -1.267   6.603 -29.391  1.00  0.00     0.077 A 
HETATM   12  C   UNL     1      -1.639   7.314 -28.247  1.00  0.00     0.069 A 
HETATM   13  C   UNL     1      -0.738   8.201 -27.644  1.00  0.00     0.070 A 
HETATM   14  C   UNL     1       0.535   8.384 -28.195  1.00  0.00     0.040 A 
HETATM   15  C   UNL     1       0.921   7.674 -29.328  1.00  0.00     0.047 A 
HETATM   16  C   UNL     1       0.022   6.789 -29.909  1.00  0.00     0.143 A 
HETATM   17  F   UNL     1       0.394   6.112 -31.007  1.00  0.00    -0.204 F 
BRANCH  13  18
HETATM   18  O   UNL     1      -0.979   8.951 -26.524  1.00  0.00    -0.356 OA
HETATM   19  C   UNL     1      -2.076   8.554 -25.709  1.00  0.00     0.210 C 
ENDBRANCH  13  18
ENDBRANCH   1  11
BRANCH   6  20
HETATM   20  C   UNL     1      -5.931   1.752 -33.534  1.00  0.00    -0.002 A 
HETATM   21  C   UNL     1      -5.623   0.359 -33.686  1.00  0.00     0.003 A 
HETATM   22  C   UNL     1      -6.636  -0.202 -34.468  1.00  0.00     0.043 A 
HETATM   23  C   UNL     1      -4.579  -0.487 -33.248  1.00  0.00     0.014 A 
HETATM   24  C   UNL     1      -6.665  -1.559 -34.815  1.00  0.00     0.030 A 
HETATM   25  N   UNL     1      -7.511   0.810 -34.788  1.00  0.00    -0.364 N 
HETATM   26  C   UNL     1      -5.627  -2.373 -34.353  1.00  0.00     0.002 A 
HETATM   27  C   UNL     1      -4.595  -1.846 -33.582  1.00  0.00     0.001 A 
HETATM   28  H   UNL     1      -8.338   0.692 -35.355  1.00  0.00     0.165 HD
HETATM   29  C   UNL     1      -7.095   1.991 -34.233  1.00  0.00     0.101 A 
ENDBRANCH   6  20
TORSDOF 3
ENDMDL
MODEL 10
REMARK VINA RESULT:      -8.0      6.734     10.381
REMARK  3 active torsions:
REMARK  status: ('A' for Active; 'I' for Inactive)
REMARK    1  A    between atoms: O_2  and  C_3 
REMARK    2  A    between atoms: C_5  and  N_6 
REMARK       I    between atoms: N_6  and  C_7 
REMARK       I    between atoms: C_7  and  N_8 
REMARK    3  A    between atoms: C_11  and  C_12 
ROOT
HETATM    1  N   UNL     1      -4.812   0.784 -33.117  1.00  0.00    -0.306 N 
HETATM    2  C   UNL     1      -5.411   1.451 -32.071  1.00  0.00     0.323 C 
HETATM    3  N   UNL     1      -4.779   2.641 -31.685  1.00  0.00    -0.330 N 
HETATM    4  C   UNL     1      -3.513   3.096 -32.256  1.00  0.00     0.155 C 
HETATM    5  C   UNL     1      -3.052   4.420 -31.741  1.00  0.00     0.001 C 
HETATM    6  C   UNL     1      -3.701   5.171 -30.836  1.00  0.00    -0.046 C 
HETATM    7  C   UNL     1      -5.014   4.697 -30.278  1.00  0.00     0.059 C 
HETATM    8  C   UNL     1      -5.148   3.177 -30.373  1.00  0.00     0.132 C 
HETATM    9  O   UNL     1      -6.406   1.037 -31.478  1.00  0.00    -0.247 OA
HETATM   10  H   UNL     1      -3.949   1.152 -33.485  1.00  0.00     0.171 HD
ENDROOT
BRANCH   1  11
HETATM   11  C   UNL     1      -5.164  -0.471 -33.669  1.00  0.00     0.077 A 
HETATM   12  C   UNL     1      -4.429  -1.649 -33.507  1.00  0.00     0.069 A 
HETATM   13  C   UNL     1      -4.855  -2.835 -34.119  1.00  0.00     0.070 A 
HETATM   14  C   UNL     1      -6.014  -2.838 -34.903  1.00  0.00     0.040 A 
HETATM   15  C   UNL     1      -6.759  -1.674 -35.063  1.00  0.00     0.047 A 
HETATM   16  C   UNL     1      -6.332  -0.507 -34.442  1.00  0.00     0.143 A 
HETATM   17  F   UNL     1      -7.049   0.617 -34.606  1.00  0.00    -0.204 F 
BRANCH  13  18
HETATM   18  O   UNL     1      -4.229  -4.050 -34.035  1.00  0.00    -0.356 OA
HETATM   19  C   UNL     1      -3.358  -4.248 -32.928  1.00  0.00     0.210 C 
ENDBRANCH  13  18
ENDBRANCH   1  11
BRANCH   6  20
HETATM   20  C   UNL     1      -3.212   6.417 -30.322  1.00  0.00    -0.002 A 
HETATM   21  C   UNL     1      -1.905   6.714 -29.810  1.00  0.00     0.003 A 
HETATM   22  C   UNL     1      -1.905   8.061 -29.440  1.00  0.00     0.043 A 
HETATM   23  C   UNL     1      -0.718   5.972 -29.611  1.00  0.00     0.014 A 
HETATM   24  C   UNL     1      -0.781   8.702 -28.903  1.00  0.00     0.030 A 
HETATM   25  N   UNL     1      -3.162   8.555 -29.703  1.00  0.00    -0.364 N 
HETATM   26  C   UNL     1       0.382   7.946 -28.733  1.00  0.00     0.002 A 
HETATM   27  C   UNL     1       0.415   6.598 -29.079  1.00  0.00     0.001 A 
HETATM   28  H   UNL     1      -3.450   9.506 -29.526  1.00  0.00     0.165 HD
HETATM   29  C   UNL     1      -3.958   7.574 -30.232  1.00  0.00     0.101 A 
ENDBRANCH   6  20
TORSDOF 3
ENDMDL
