MODEL 1
REMARK VINA RESULT:      -9.3      0.000      0.000
REMARK  4 active torsions:
REMARK  status: ('A' for Active; 'I' for Inactive)
REMARK    1  A    between atoms: C_3  and  C_4 
REMARK    2  A    between atoms: C_5  and  C_6 
REMARK       I    between atoms: C_6  and  N_7 
REMARK    3  A    between atoms: N_7  and  C_8 
REMARK    4  A    between atoms: C_15  and  C_16 
REMARK       I    between atoms: C_16  and  N_17 
ROOT
HETATM    1  C   UNL     1      -8.931   1.155 -33.354  1.00  0.00     0.035 A 
HETATM    2  C   UNL     1     -10.221   0.610 -33.405  1.00  0.00     0.046 A 
HETATM    3  C   UNL     1     -11.279   1.366 -33.956  1.00  0.00     0.030 A 
HETATM    4  C   UNL     1     -11.011   2.641 -34.438  1.00  0.00     0.063 A 
HETATM    5  N   UNL     1     -12.206   3.108 -34.909  1.00  0.00    -0.277 N 
HETATM    6  H   UNL     1     -12.386   4.008 -35.339  1.00  0.00     0.189 HD
HETATM    7  N   UNL     1     -13.232   2.254 -34.770  1.00  0.00    -0.168 NA
HETATM    8  C   UNL     1     -12.675   1.170 -34.180  1.00  0.00     0.156 A 
HETATM    9  C   UNL     1      -9.741   3.219 -34.396  1.00  0.00     0.034 A 
HETATM   10  C   UNL     1      -8.710   2.451 -33.841  1.00  0.00     0.032 A 
ENDROOT
BRANCH   1  11
HETATM   11  N   UNL     1      -7.808   0.461 -32.852  1.00  0.00    -0.327 N 
HETATM   12  C   UNL     1      -7.106   0.739 -31.702  1.00  0.00     0.227 C 
HETATM   13  O   UNL     1      -7.258   1.686 -30.946  1.00  0.00    -0.273 OA
HETATM   14  H   UNL     1      -7.520  -0.355 -33.371  1.00  0.00     0.169 HD
BRANCH  12  15
HETATM   15  C   UNL     1      -6.053  -0.252 -31.347  1.00  0.00     0.087 A 
HETATM   16  C   UNL     1      -4.884  -0.351 -32.326  1.00  0.00     0.034 A 
HETATM   17  C   UNL     1      -4.652   0.028 -30.886  1.00  0.00     0.025 A 
BRANCH  16  18
HETATM   18  C   UNL     1      -4.514  -1.703 -32.894  1.00  0.00    -0.031 A 
HETATM   19  C   UNL     1      -3.583  -2.508 -32.207  1.00  0.00     0.009 A 
HETATM   20  C   UNL     1      -3.241  -3.787 -32.653  1.00  0.00     0.001 A 
HETATM   21  C   UNL     1      -3.831  -4.303 -33.801  1.00  0.00     0.002 A 
HETATM   22  C   UNL     1      -4.765  -3.539 -34.496  1.00  0.00     0.024 A 
HETATM   23  C   UNL     1      -5.107  -2.258 -34.045  1.00  0.00     0.040 A 
HETATM   24 CL   UNL     1      -6.314  -1.395 -34.935  1.00  0.00    -0.084 Cl
ENDBRANCH  16  18
ENDBRANCH  12  15
ENDBRANCH   1  11
BRANCH   8  25
HETATM   25  C   UNL     1     -13.479  -0.014 -33.847  1.00  0.00     0.270 C 
HETATM   26  N   UNL     1     -14.787   0.070 -34.238  1.00  0.00    -0.365 N 
HETATM   27  H   UNL     1     -15.100   0.911 -34.709  1.00  0.00     0.159 HD
HETATM   28  H   UNL     1     -15.415  -0.695 -34.047  1.00  0.00     0.159 HD
HETATM   29  O   UNL     1     -13.054  -1.009 -33.270  1.00  0.00    -0.266 OA
ENDBRANCH   8  25
TORSDOF 4
ENDMDL
MODEL 2
REMARK VINA RESULT:      -9.1      5.473      8.491
REMARK  4 active torsions:
REMARK  status: ('A' for Active; 'I' for Inactive)
REMARK    1  A    between atoms: C_3  and  C_4 
REMARK    2  A    between atoms: C_5  and  C_6 
REMARK       I    between atoms: C_6  and  N_7 
REMARK    3  A    between atoms: N_7  and  C_8 
REMARK    4  A    between atoms: C_15  and  C_16 
REMARK       I    between atoms: C_16  and  N_17 
ROOT
HETATM    1  C   UNL     1      -3.392   3.965 -32.791  1.00  0.00     0.035 A 
HETATM    2  C   UNL     1      -2.381   4.116 -31.832  1.00  0.00     0.046 A 
HETATM    3  C   UNL     1      -1.526   5.239 -31.888  1.00  0.00     0.030 A 
HETATM    4  C   UNL     1      -1.712   6.173 -32.900  1.00  0.00     0.063 A 
HETATM    5  N   UNL     1      -0.760   7.130 -32.687  1.00  0.00    -0.277 N 
HETATM    6  H   UNL     1      -0.602   7.970 -33.232  1.00  0.00     0.189 HD
HETATM    7  N   UNL     1       0.037   6.899 -31.631  1.00  0.00    -0.168 NA
HETATM    8  C   UNL     1      -0.425   5.731 -31.126  1.00  0.00     0.156 A 
HETATM    9  C   UNL     1      -2.703   6.051 -33.875  1.00  0.00     0.034 A 
HETATM   10  C   UNL     1      -3.535   4.927 -33.800  1.00  0.00     0.032 A 
ENDROOT
BRANCH   1  11
HETATM   11  N   UNL     1      -4.313   2.895 -32.794  1.00  0.00    -0.327 N 
HETATM   12  C   UNL     1      -5.350   2.689 -31.913  1.00  0.00     0.227 C 
HETATM   13  O   UNL     1      -5.618   3.336 -30.912  1.00  0.00    -0.273 OA
HETATM   14  H   UNL     1      -4.227   2.234 -33.552  1.00  0.00     0.169 HD
BRANCH  12  15
HETATM   15  C   UNL     1      -6.248   1.549 -32.246  1.00  0.00     0.087 A 
HETATM   16  C   UNL     1      -5.763   0.173 -31.792  1.00  0.00     0.034 A 
HETATM   17  C   UNL     1      -7.074   0.729 -31.298  1.00  0.00     0.025 A 
BRANCH  16  18
HETATM   18  C   UNL     1      -5.670  -0.945 -32.806  1.00  0.00    -0.031 A 
HETATM   19  C   UNL     1      -6.801  -1.268 -33.582  1.00  0.00     0.009 A 
HETATM   20  C   UNL     1      -6.762  -2.254 -34.572  1.00  0.00     0.001 A 
HETATM   21  C   UNL     1      -5.580  -2.941 -34.819  1.00  0.00     0.002 A 
HETATM   22  C   UNL     1      -4.439  -2.638 -34.079  1.00  0.00     0.024 A 
HETATM   23  C   UNL     1      -4.483  -1.648 -33.090  1.00  0.00     0.040 A 
HETATM   24 CL   UNL     1      -3.011  -1.293 -32.253  1.00  0.00    -0.084 Cl
ENDBRANCH  16  18
ENDBRANCH  12  15
ENDBRANCH   1  11
BRANCH   8  25
HETATM   25  C   UNL     1       0.191   5.118 -29.940  1.00  0.00     0.270 C 
HETATM   26  N   UNL     1      -0.252   5.629 -28.752  1.00  0.00    -0.365 N 
HETATM   27  H   UNL     1      -0.945   6.368 -28.769  1.00  0.00     0.159 HD
HETATM   28  H   UNL     1       0.119   5.271 -27.886  1.00  0.00     0.159 HD
HETATM   29  O   UNL     1       1.032   4.226 -29.971  1.00  0.00    -0.266 OA
ENDBRANCH   8  25
TORSDOF 4
ENDMDL
MODEL 3
REMARK VINA RESULT:      -9.1      5.361      7.226
REMARK  4 active torsions:
REMARK  status: ('A' for Active; 'I' for Inactive)
REMARK    1  A    between atoms: C_3  and  C_4 
REMARK    2  A    between atoms: C_5  and  C_6 
REMARK       I    between atoms: C_6  and  N_7 
REMARK    3  A    between atoms: N_7  and  C_8 
REMARK    4  A    between atoms: C_15  and  C_16 
REMARK       I    between atoms: C_16  and  N_17 
ROOT
HETATM    1  C   UNL     1      -3.950   2.849 -31.564  1.00  0.00     0.035 A 
HETATM    2  C   UNL     1      -3.190   3.650 -32.427  1.00  0.00     0.046 A 
HETATM    3  C   UNL     1      -3.264   5.056 -32.322  1.00  0.00     0.030 A 
HETATM    4  C   UNL     1      -4.094   5.613 -31.357  1.00  0.00     0.063 A 
HETATM    5  N   UNL     1      -3.946   6.966 -31.491  1.00  0.00    -0.277 N 
HETATM    6  H   UNL     1      -4.399   7.689 -30.945  1.00  0.00     0.189 HD
HETATM    7  N   UNL     1      -3.099   7.341 -32.463  1.00  0.00    -0.168 NA
HETATM    8  C   UNL     1      -2.669   6.169 -32.988  1.00  0.00     0.156 A 
HETATM    9  C   UNL     1      -4.870   4.847 -30.487  1.00  0.00     0.034 A 
HETATM   10  C   UNL     1      -4.782   3.455 -30.614  1.00  0.00     0.032 A 
ENDROOT
BRANCH   1  11
HETATM   11  N   UNL     1      -3.914   1.437 -31.574  1.00  0.00    -0.327 N 
HETATM   12  C   UNL     1      -4.926   0.583 -31.949  1.00  0.00     0.227 C 
HETATM   13  O   UNL     1      -6.072   0.874 -32.255  1.00  0.00    -0.273 OA
HETATM   14  H   UNL     1      -3.034   1.011 -31.322  1.00  0.00     0.169 HD
BRANCH  12  15
HETATM   15  C   UNL     1      -4.555  -0.858 -31.995  1.00  0.00     0.087 A 
HETATM   16  C   UNL     1      -4.038  -1.363 -33.341  1.00  0.00     0.034 A 
HETATM   17  C   UNL     1      -3.176  -1.443 -32.108  1.00  0.00     0.025 A 
BRANCH  16  18
HETATM   18  C   UNL     1      -4.692  -2.572 -33.972  1.00  0.00    -0.031 A 
HETATM   19  C   UNL     1      -4.104  -3.842 -33.802  1.00  0.00     0.009 A 
HETATM   20  C   UNL     1      -4.689  -5.002 -34.315  1.00  0.00     0.001 A 
HETATM   21  C   UNL     1      -5.891  -4.924 -35.009  1.00  0.00     0.002 A 
HETATM   22  C   UNL     1      -6.505  -3.687 -35.184  1.00  0.00     0.024 A 
HETATM   23  C   UNL     1      -5.917  -2.527 -34.667  1.00  0.00     0.040 A 
HETATM   24 CL   UNL     1      -6.770  -1.037 -34.880  1.00  0.00    -0.084 Cl
ENDBRANCH  16  18
ENDBRANCH  12  15
ENDBRANCH   1  11
BRANCH   8  25
HETATM   25  C   UNL     1      -1.711   6.141 -34.102  1.00  0.00     0.270 C 
HETATM   26  N   UNL     1      -1.941   5.148 -35.014  1.00  0.00    -0.365 N 
HETATM   27  H   UNL     1      -2.724   4.522 -34.864  1.00  0.00     0.159 HD
HETATM   28  H   UNL     1      -1.330   5.050 -35.810  1.00  0.00     0.159 HD
HETATM   29  O   UNL     1      -0.773   6.919 -34.239  1.00  0.00    -0.266 OA
ENDBRANCH   8  25
TORSDOF 4
ENDMDL
MODEL 4
REMARK VINA RESULT:      -8.7      4.747      7.483
REMARK  4 active torsions:
REMARK  status: ('A' for Active; 'I' for Inactive)
REMARK    1  A    between atoms: C_3  and  C_4 
REMARK    2  A    between atoms: C_5  and  C_6 
REMARK       I    between atoms: C_6  and  N_7 
REMARK    3  A    between atoms: N_7  and  C_8 
REMARK    4  A    between atoms: C_15  and  C_16 
REMARK       I    between atoms: C_16  and  N_17 
ROOT
HETATM    1  C   UNL     1      -4.824   3.115 -32.508  1.00  0.00     0.035 A 
HETATM    2  C   UNL     1      -3.924   4.042 -33.050  1.00  0.00     0.046 A 
HETATM    3  C   UNL     1      -3.426   5.087 -32.241  1.00  0.00     0.030 A 
HETATM    4  C   UNL     1      -3.844   5.169 -30.919  1.00  0.00     0.063 A 
HETATM    5  N   UNL     1      -3.195   6.255 -30.401  1.00  0.00    -0.277 N 
HETATM    6  H   UNL     1      -3.256   6.612 -29.455  1.00  0.00     0.189 HD
HETATM    7  N   UNL     1      -2.397   6.894 -31.271  1.00  0.00    -0.168 NA
HETATM    8  C   UNL     1      -2.530   6.184 -32.416  1.00  0.00     0.156 A 
HETATM    9  C   UNL     1      -4.744   4.268 -30.349  1.00  0.00     0.034 A 
HETATM   10  C   UNL     1      -5.227   3.243 -31.172  1.00  0.00     0.032 A 
ENDROOT
BRANCH   1  11
HETATM   11  N   UNL     1      -5.347   2.020 -33.231  1.00  0.00    -0.327 N 
HETATM   12  C   UNL     1      -6.510   1.988 -33.965  1.00  0.00     0.227 C 
HETATM   13  O   UNL     1      -7.356   2.864 -34.058  1.00  0.00    -0.273 OA
HETATM   14  H   UNL     1      -4.781   1.184 -33.246  1.00  0.00     0.169 HD
BRANCH  12  15
HETATM   15  C   UNL     1      -6.737   0.738 -34.740  1.00  0.00     0.087 A 
HETATM   16  C   UNL     1      -7.115  -0.491 -33.914  1.00  0.00     0.034 A 
HETATM   17  C   UNL     1      -8.042   0.035 -34.980  1.00  0.00     0.025 A 
BRANCH  16  18
HETATM   18  C   UNL     1      -6.308  -1.760 -34.075  1.00  0.00    -0.031 A 
HETATM   19  C   UNL     1      -6.886  -2.867 -34.728  1.00  0.00     0.009 A 
HETATM   20  C   UNL     1      -6.174  -4.047 -34.954  1.00  0.00     0.001 A 
HETATM   21  C   UNL     1      -4.852  -4.150 -34.537  1.00  0.00     0.002 A 
HETATM   22  C   UNL     1      -4.245  -3.070 -33.899  1.00  0.00     0.024 A 
HETATM   23  C   UNL     1      -4.962  -1.888 -33.678  1.00  0.00     0.040 A 
HETATM   24 CL   UNL     1      -4.122  -0.575 -32.928  1.00  0.00    -0.084 Cl
ENDBRANCH  16  18
ENDBRANCH  12  15
ENDBRANCH   1  11
BRANCH   8  25
HETATM   25  C   UNL     1      -1.805   6.566 -33.637  1.00  0.00     0.270 C 
HETATM   26  N   UNL     1      -1.240   5.515 -34.304  1.00  0.00    -0.365 N 
HETATM   27  H   UNL     1      -1.351   4.582 -33.924  1.00  0.00     0.159 HD
HETATM   28  H   UNL     1      -0.719   5.683 -35.150  1.00  0.00     0.159 HD
HETATM   29  O   UNL     1      -1.694   7.714 -34.054  1.00  0.00    -0.266 OA
ENDBRANCH   8  25
TORSDOF 4
ENDMDL
MODEL 5
REMARK VINA RESULT:      -8.6      5.395      6.516
REMARK  4 active torsions:
REMARK  status: ('A' for Active; 'I' for Inactive)
REMARK    1  A    between atoms: C_3  and  C_4 
REMARK    2  A    between atoms: C_5  and  C_6 
REMARK       I    between atoms: C_6  and  N_7 
REMARK    3  A    between atoms: N_7  and  C_8 
REMARK    4  A    between atoms: C_15  and  C_16 
REMARK       I    between atoms: C_16  and  N_17 
ROOT
HETATM    1  C   UNL     1      -3.810   2.787 -31.644  1.00  0.00     0.035 A 
HETATM    2  C   UNL     1      -4.497   3.537 -30.679  1.00  0.00     0.046 A 
HETATM    3  C   UNL     1      -4.499   4.946 -30.760  1.00  0.00     0.030 A 
HETATM    4  C   UNL     1      -3.815   5.559 -31.803  1.00  0.00     0.063 A 
HETATM    5  N   UNL     1      -4.006   6.900 -31.623  1.00  0.00    -0.277 N 
HETATM    6  H   UNL     1      -3.654   7.653 -32.202  1.00  0.00     0.189 HD
HETATM    7  N   UNL     1      -4.748   7.218 -30.549  1.00  0.00    -0.168 NA
HETATM    8  C   UNL     1      -5.060   6.019 -30.004  1.00  0.00     0.156 A 
HETATM    9  C   UNL     1      -3.114   4.845 -32.776  1.00  0.00     0.034 A 
HETATM   10  C   UNL     1      -3.124   3.448 -32.671  1.00  0.00     0.032 A 
ENDROOT
BRANCH   1  11
HETATM   11  N   UNL     1      -3.781   1.375 -31.661  1.00  0.00    -0.327 N 
HETATM   12  C   UNL     1      -4.840   0.526 -31.888  1.00  0.00     0.227 C 
HETATM   13  O   UNL     1      -6.017   0.822 -32.025  1.00  0.00    -0.273 OA
HETATM   14  H   UNL     1      -2.876   0.946 -31.538  1.00  0.00     0.169 HD
BRANCH  12  15
HETATM   15  C   UNL     1      -4.485  -0.916 -31.989  1.00  0.00     0.087 A 
HETATM   16  C   UNL     1      -4.032  -1.388 -33.370  1.00  0.00     0.034 A 
HETATM   17  C   UNL     1      -3.118  -1.510 -32.178  1.00  0.00     0.025 A 
BRANCH  16  18
HETATM   18  C   UNL     1      -4.724  -2.573 -34.005  1.00  0.00    -0.031 A 
HETATM   19  C   UNL     1      -4.148  -3.854 -33.884  1.00  0.00     0.009 A 
HETATM   20  C   UNL     1      -4.767  -4.995 -34.402  1.00  0.00     0.001 A 
HETATM   21  C   UNL     1      -5.990  -4.885 -35.053  1.00  0.00     0.002 A 
HETATM   22  C   UNL     1      -6.593  -3.636 -35.179  1.00  0.00     0.024 A 
HETATM   23  C   UNL     1      -5.971  -2.496 -34.656  1.00  0.00     0.040 A 
HETATM   24 CL   UNL     1      -6.809  -0.990 -34.807  1.00  0.00    -0.084 Cl
ENDBRANCH  16  18
ENDBRANCH  12  15
ENDBRANCH   1  11
BRANCH   8  25
HETATM   25  C   UNL     1      -5.877   5.926 -28.786  1.00  0.00     0.270 C 
HETATM   26  N   UNL     1      -5.292   5.220 -27.771  1.00  0.00    -0.365 N 
HETATM   27  H   UNL     1      -4.373   4.822 -27.924  1.00  0.00     0.159 HD
HETATM   28  H   UNL     1      -5.783   5.101 -26.899  1.00  0.00     0.159 HD
HETATM   29  O   UNL     1      -6.991   6.423 -28.651  1.00  0.00    -0.266 OA
ENDBRANCH   8  25
TORSDOF 4
ENDMDL
MODEL 6
REMARK VINA RESULT:      -8.4      1.688      2.854
REMARK  4 active torsions:
REMARK  status: ('A' for Active; 'I' for Inactive)
REMARK    1  A    between atoms: C_3  and  C_4 
REMARK    2  A    between atoms: C_5  and  C_6 
REMARK       I    between atoms: C_6  and  N_7 
REMARK    3  A    between atoms: N_7  and  C_8 
REMARK    4  A    between atoms: C_15  and  C_16 
REMARK       I    between atoms: C_16  and  N_17 
ROOT
HETATM    1  C   UNL     1      -9.316   0.998 -33.135  1.00  0.00     0.035 A 
HETATM    2  C   UNL     1      -9.386   2.337 -33.544  1.00  0.00     0.046 A 
HETATM    3  C   UNL     1     -10.627   2.885 -33.935  1.00  0.00     0.030 A 
HETATM    4  C   UNL     1     -11.756   2.077 -33.903  1.00  0.00     0.063 A 
HETATM    5  N   UNL     1     -12.785   2.876 -34.317  1.00  0.00    -0.277 N 
HETATM    6  H   UNL     1     -13.760   2.621 -34.412  1.00  0.00     0.189 HD
HETATM    7  N   UNL     1     -12.425   4.133 -34.625  1.00  0.00    -0.168 NA
HETATM    8  C   UNL     1     -11.091   4.154 -34.394  1.00  0.00     0.156 A 
HETATM    9  C   UNL     1     -11.723   0.738 -33.509  1.00  0.00     0.034 A 
HETATM   10  C   UNL     1     -10.480   0.217 -33.130  1.00  0.00     0.032 A 
ENDROOT
BRANCH   1  11
HETATM   11  N   UNL     1      -8.127   0.375 -32.696  1.00  0.00    -0.327 N 
HETATM   12  C   UNL     1      -7.334   0.754 -31.637  1.00  0.00     0.227 C 
HETATM   13  O   UNL     1      -7.452   1.746 -30.935  1.00  0.00    -0.273 OA
HETATM   14  H   UNL     1      -7.856  -0.465 -33.185  1.00  0.00     0.169 HD
BRANCH  12  15
HETATM   15  C   UNL     1      -6.216  -0.176 -31.318  1.00  0.00     0.087 A 
HETATM   16  C   UNL     1      -5.082  -0.221 -32.341  1.00  0.00     0.034 A 
HETATM   17  C   UNL     1      -4.815   0.182 -30.914  1.00  0.00     0.025 A 
BRANCH  16  18
HETATM   18  C   UNL     1      -4.662  -1.556 -32.915  1.00  0.00    -0.031 A 
HETATM   19  C   UNL     1      -3.698  -2.326 -32.234  1.00  0.00     0.009 A 
HETATM   20  C   UNL     1      -3.309  -3.589 -32.686  1.00  0.00     0.001 A 
HETATM   21  C   UNL     1      -3.883  -4.124 -33.833  1.00  0.00     0.002 A 
HETATM   22  C   UNL     1      -4.849  -3.394 -34.523  1.00  0.00     0.024 A 
HETATM   23  C   UNL     1      -5.238  -2.129 -34.065  1.00  0.00     0.040 A 
HETATM   24 CL   UNL     1      -6.481  -1.311 -34.948  1.00  0.00    -0.084 Cl
ENDBRANCH  16  18
ENDBRANCH  12  15
ENDBRANCH   1  11
BRANCH   8  25
HETATM   25  C   UNL     1     -10.299   5.372 -34.616  1.00  0.00     0.270 C 
HETATM   26  N   UNL     1     -10.330   6.258 -33.575  1.00  0.00    -0.365 N 
HETATM   27  H   UNL     1     -10.878   6.024 -32.755  1.00  0.00     0.159 HD
HETATM   28  H   UNL     1      -9.819   7.124 -33.641  1.00  0.00     0.159 HD
HETATM   29  O   UNL     1      -9.654   5.613 -35.631  1.00  0.00    -0.266 OA
ENDBRANCH   8  25
TORSDOF 4
ENDMDL
MODEL 7
REMARK VINA RESULT:      -8.4      4.573      7.465
REMARK  4 active torsions:
REMARK  status: ('A' for Active; 'I' for Inactive)
REMARK    1  A    between atoms: C_3  and  C_4 
REMARK    2  A    between atoms: C_5  and  C_6 
REMARK       I    between atoms: C_6  and  N_7 
REMARK    3  A    between atoms: N_7  and  C_8 
REMARK    4  A    between atoms: C_15  and  C_16 
REMARK       I    between atoms: C_16  and  N_17 
ROOT
HETATM    1  C   UNL     1      -5.462   0.024 -33.432  1.00  0.00     0.035 A 
HETATM    2  C   UNL     1      -4.750  -1.176 -33.302  1.00  0.00     0.046 A 
HETATM    3  C   UNL     1      -5.218  -2.340 -33.951  1.00  0.00     0.030 A 
HETATM    4  C   UNL     1      -6.380  -2.264 -34.708  1.00  0.00     0.063 A 
HETATM    5  N   UNL     1      -6.567  -3.522 -35.210  1.00  0.00    -0.277 N 
HETATM    6  H   UNL     1      -7.317  -3.835 -35.814  1.00  0.00     0.189 HD
HETATM    7  N   UNL     1      -5.634  -4.414 -34.840  1.00  0.00    -0.168 NA
HETATM    8  C   UNL     1      -4.792  -3.698 -34.059  1.00  0.00     0.156 A 
HETATM    9  C   UNL     1      -7.118  -1.088 -34.854  1.00  0.00     0.034 A 
HETATM   10  C   UNL     1      -6.636   0.051 -34.197  1.00  0.00     0.032 A 
ENDROOT
BRANCH   1  11
HETATM   11  N   UNL     1      -5.052   1.243 -32.848  1.00  0.00    -0.327 N 
HETATM   12  C   UNL     1      -5.494   1.786 -31.664  1.00  0.00     0.227 C 
HETATM   13  O   UNL     1      -6.385   1.370 -30.939  1.00  0.00    -0.273 OA
HETATM   14  H   UNL     1      -4.323   1.746 -33.332  1.00  0.00     0.169 HD
BRANCH  12  15
HETATM   15  C   UNL     1      -4.778   3.016 -31.225  1.00  0.00     0.087 A 
HETATM   16  C   UNL     1      -4.721   4.148 -32.249  1.00  0.00     0.034 A 
HETATM   17  C   UNL     1      -5.374   4.357 -30.907  1.00  0.00     0.025 A 
BRANCH  16  18
HETATM   18  C   UNL     1      -3.379   4.740 -32.616  1.00  0.00    -0.031 A 
HETATM   19  C   UNL     1      -2.366   4.810 -31.638  1.00  0.00     0.009 A 
HETATM   20  C   UNL     1      -1.090   5.297 -31.930  1.00  0.00     0.001 A 
HETATM   21  C   UNL     1      -0.787   5.723 -33.218  1.00  0.00     0.002 A 
HETATM   22  C   UNL     1      -1.762   5.656 -34.211  1.00  0.00     0.024 A 
HETATM   23  C   UNL     1      -3.039   5.165 -33.915  1.00  0.00     0.040 A 
HETATM   24 CL   UNL     1      -4.175   5.065 -35.216  1.00  0.00    -0.084 Cl
ENDBRANCH  16  18
ENDBRANCH  12  15
ENDBRANCH   1  11
BRANCH   8  25
HETATM   25  C   UNL     1      -3.612  -4.320 -33.441  1.00  0.00     0.270 C 
HETATM   26  N   UNL     1      -3.071  -5.341 -34.172  1.00  0.00    -0.365 N 
HETATM   27  H   UNL     1      -3.504  -5.592 -35.053  1.00  0.00     0.159 HD
HETATM   28  H   UNL     1      -2.261  -5.830 -33.822  1.00  0.00     0.159 HD
HETATM   29  O   UNL     1      -3.126  -3.984 -32.366  1.00  0.00    -0.266 OA
ENDBRANCH   8  25
TORSDOF 4
ENDMDL
MODEL 8
REMARK VINA RESULT:      -8.3      5.582      8.134
REMARK  4 active torsions:
REMARK  status: ('A' for Active; 'I' for Inactive)
REMARK    1  A    between atoms: C_3  and  C_4 
REMARK    2  A    between atoms: C_5  and  C_6 
REMARK       I    between atoms: C_6  and  N_7 
REMARK    3  A    between atoms: N_7  and  C_8 
REMARK    4  A    between atoms: C_15  and  C_16 
REMARK       I    between atoms: C_16  and  N_17 
ROOT
HETATM    1  C   UNL     1      -2.743   3.900 -32.655  1.00  0.00     0.035 A 
HETATM    2  C   UNL     1      -2.530   4.886 -31.683  1.00  0.00     0.046 A 
HETATM    3  C   UNL     1      -2.232   6.208 -32.080  1.00  0.00     0.030 A 
HETATM    4  C   UNL     1      -2.159   6.499 -33.437  1.00  0.00     0.063 A 
HETATM    5  N   UNL     1      -1.872   7.833 -33.505  1.00  0.00    -0.277 N 
HETATM    6  H   UNL     1      -1.751   8.392 -34.342  1.00  0.00     0.189 HD
HETATM    7  N   UNL     1      -1.743   8.438 -32.313  1.00  0.00    -0.168 NA
HETATM    8  C   UNL     1      -1.962   7.444 -31.420  1.00  0.00     0.156 A 
HETATM    9  C   UNL     1      -2.358   5.541 -34.432  1.00  0.00     0.034 A 
HETATM   10  C   UNL     1      -2.648   4.237 -34.012  1.00  0.00     0.032 A 
ENDROOT
BRANCH   1  11
HETATM   11  N   UNL     1      -3.079   2.562 -32.351  1.00  0.00    -0.327 N 
HETATM   12  C   UNL     1      -4.339   2.013 -32.301  1.00  0.00     0.227 C 
HETATM   13  O   UNL     1      -5.409   2.590 -32.419  1.00  0.00    -0.273 OA
HETATM   14  H   UNL     1      -2.305   1.932 -32.198  1.00  0.00     0.169 HD
BRANCH  12  15
HETATM   15  C   UNL     1      -4.381   0.539 -32.095  1.00  0.00     0.087 A 
HETATM   16  C   UNL     1      -3.829  -0.303 -33.244  1.00  0.00     0.034 A 
HETATM   17  C   UNL     1      -3.219  -0.385 -31.869  1.00  0.00     0.025 A 
BRANCH  16  18
HETATM   18  C   UNL     1      -4.691  -1.398 -33.832  1.00  0.00    -0.031 A 
HETATM   19  C   UNL     1      -4.262  -2.738 -33.740  1.00  0.00     0.009 A 
HETATM   20  C   UNL     1      -5.039  -3.797 -34.216  1.00  0.00     0.001 A 
HETATM   21  C   UNL     1      -6.277  -3.544 -34.794  1.00  0.00     0.002 A 
HETATM   22  C   UNL     1      -6.737  -2.233 -34.889  1.00  0.00     0.024 A 
HETATM   23  C   UNL     1      -5.957  -1.175 -34.408  1.00  0.00     0.040 A 
HETATM   24 CL   UNL     1      -6.622   0.419 -34.515  1.00  0.00    -0.084 Cl
ENDBRANCH  16  18
ENDBRANCH  12  15
ENDBRANCH   1  11
BRANCH   8  25
HETATM   25  C   UNL     1      -1.910   7.695 -29.973  1.00  0.00     0.270 C 
HETATM   26  N   UNL     1      -2.504   8.865 -29.586  1.00  0.00    -0.365 N 
HETATM   27  H   UNL     1      -2.920   9.456 -30.296  1.00  0.00     0.159 HD
HETATM   28  H   UNL     1      -2.511   9.121 -28.611  1.00  0.00     0.159 HD
HETATM   29  O   UNL     1      -1.388   6.949 -29.152  1.00  0.00    -0.266 OA
ENDBRANCH   8  25
TORSDOF 4
ENDMDL
MODEL 9
REMARK VINA RESULT:      -8.2      3.353      3.724
REMARK  4 active torsions:
REMARK  status: ('A' for Active; 'I' for Inactive)
REMARK    1  A    between atoms: C_3  and  C_4 
REMARK    2  A    between atoms: C_5  and  C_6 
REMARK       I    between atoms: C_6  and  N_7 
REMARK    3  A    between atoms: N_7  and  C_8 
REMARK    4  A    between atoms: C_15  and  C_16 
REMARK       I    between atoms: C_16  and  N_17 
ROOT
HETATM    1  C   UNL     1      -6.394   2.444 -32.992  1.00  0.00     0.035 A 
HETATM    2  C   UNL     1      -7.640   2.800 -32.459  1.00  0.00     0.046 A 
HETATM    3  C   UNL     1      -8.142   4.104 -32.663  1.00  0.00     0.030 A 
HETATM    4  C   UNL     1      -7.380   5.008 -33.393  1.00  0.00     0.063 A 
HETATM    5  N   UNL     1      -8.119   6.157 -33.429  1.00  0.00    -0.277 N 
HETATM    6  H   UNL     1      -7.875   7.029 -33.883  1.00  0.00     0.189 HD
HETATM    7  N   UNL     1      -9.292   6.086 -32.778  1.00  0.00    -0.168 NA
HETATM    8  C   UNL     1      -9.320   4.821 -32.297  1.00  0.00     0.156 A 
HETATM    9  C   UNL     1      -6.133   4.691 -33.932  1.00  0.00     0.034 A 
HETATM   10  C   UNL     1      -5.655   3.393 -33.713  1.00  0.00     0.032 A 
ENDROOT
BRANCH   1  11
HETATM   11  N   UNL     1      -5.830   1.155 -32.867  1.00  0.00    -0.327 N 
HETATM   12  C   UNL     1      -4.740   0.796 -32.108  1.00  0.00     0.227 C 
HETATM   13  O   UNL     1      -3.999   1.530 -31.473  1.00  0.00    -0.273 OA
HETATM   14  H   UNL     1      -6.306   0.410 -33.353  1.00  0.00     0.169 HD
BRANCH  12  15
HETATM   15  C   UNL     1      -4.458  -0.665 -32.056  1.00  0.00     0.087 A 
HETATM   16  C   UNL     1      -3.903  -1.276 -33.343  1.00  0.00     0.034 A 
HETATM   17  C   UNL     1      -3.115  -1.337 -32.060  1.00  0.00     0.025 A 
BRANCH  16  18
HETATM   18  C   UNL     1      -4.598  -2.477 -33.944  1.00  0.00    -0.031 A 
HETATM   19  C   UNL     1      -4.049  -3.761 -33.747  1.00  0.00     0.009 A 
HETATM   20  C   UNL     1      -4.672  -4.913 -34.232  1.00  0.00     0.001 A 
HETATM   21  C   UNL     1      -5.874  -4.813 -34.923  1.00  0.00     0.002 A 
HETATM   22  C   UNL     1      -6.450  -3.562 -35.124  1.00  0.00     0.024 A 
HETATM   23  C   UNL     1      -5.823  -2.409 -34.635  1.00  0.00     0.040 A 
HETATM   24 CL   UNL     1      -6.630  -0.898 -34.879  1.00  0.00    -0.084 Cl
ENDBRANCH  16  18
ENDBRANCH  12  15
ENDBRANCH   1  11
BRANCH   8  25
HETATM   25  C   UNL     1     -10.460   4.331 -31.509  1.00  0.00     0.270 C 
HETATM   26  N   UNL     1     -10.443   4.722 -30.198  1.00  0.00    -0.365 N 
HETATM   27  H   UNL     1      -9.674   5.297 -29.873  1.00  0.00     0.159 HD
HETATM   28  H   UNL     1     -11.183   4.429 -29.581  1.00  0.00     0.159 HD
HETATM   29  O   UNL     1     -11.366   3.632 -31.948  1.00  0.00    -0.266 OA
ENDBRANCH   8  25
TORSDOF 4
ENDMDL
MODEL 10
REMARK VINA RESULT:      -8.2      5.449      9.012
REMARK  4 active torsions:
REMARK  status: ('A' for Active; 'I' for Inactive)
REMARK    1  A    between atoms: C_3  and  C_4 
REMARK    2  A    between atoms: C_5  and  C_6 
REMARK       I    between atoms: C_6  and  N_7 
REMARK    3  A    between atoms: N_7  and  C_8 
REMARK    4  A    between atoms: C_15  and  C_16 
REMARK       I    between atoms: C_16  and  N_17 
ROOT
HETATM    1  C   UNL     1      -3.596   3.928 -32.588  1.00  0.00     0.035 A 
HETATM    2  C   UNL     1      -2.553   4.106 -31.669  1.00  0.00     0.046 A 
HETATM    3  C   UNL     1      -1.630   5.159 -31.854  1.00  0.00     0.030 A 
HETATM    4  C   UNL     1      -1.783   5.998 -32.950  1.00  0.00     0.063 A 
HETATM    5  N   UNL     1      -0.766   6.907 -32.853  1.00  0.00    -0.277 N 
HETATM    6  H   UNL     1      -0.570   7.676 -33.482  1.00  0.00     0.189 HD
HETATM    7  N   UNL     1       0.041   6.730 -31.795  1.00  0.00    -0.168 NA
HETATM    8  C   UNL     1      -0.480   5.650 -31.167  1.00  0.00     0.156 A 
HETATM    9  C   UNL     1      -2.804   5.846 -33.889  1.00  0.00     0.034 A 
HETATM   10  C   UNL     1      -3.704   4.792 -33.686  1.00  0.00     0.032 A 
ENDROOT
BRANCH   1  11
HETATM   11  N   UNL     1      -4.583   2.925 -32.465  1.00  0.00    -0.327 N 
HETATM   12  C   UNL     1      -4.381   1.566 -32.390  1.00  0.00     0.227 C 
HETATM   13  O   UNL     1      -3.326   0.961 -32.506  1.00  0.00    -0.273 OA
HETATM   14  H   UNL     1      -5.536   3.245 -32.378  1.00  0.00     0.169 HD
BRANCH  12  15
HETATM   15  C   UNL     1      -5.601   0.758 -32.119  1.00  0.00     0.087 A 
HETATM   16  C   UNL     1      -6.431   0.384 -33.347  1.00  0.00     0.034 A 
HETATM   17  C   UNL     1      -5.838  -0.684 -32.465  1.00  0.00     0.025 A 
BRANCH  16  18
HETATM   18  C   UNL     1      -7.907   0.716 -33.365  1.00  0.00    -0.031 A 
HETATM   19  C   UNL     1      -8.838  -0.263 -32.963  1.00  0.00     0.009 A 
HETATM   20  C   UNL     1     -10.209   0.001 -32.907  1.00  0.00     0.001 A 
HETATM   21  C   UNL     1     -10.688   1.261 -33.246  1.00  0.00     0.002 A 
HETATM   22  C   UNL     1      -9.793   2.255 -33.635  1.00  0.00     0.024 A 
HETATM   23  C   UNL     1      -8.420   1.987 -33.687  1.00  0.00     0.040 A 
HETATM   24 CL   UNL     1      -7.370   3.290 -34.128  1.00  0.00    -0.084 Cl
ENDBRANCH  16  18
ENDBRANCH  12  15
ENDBRANCH   1  11
BRANCH   8  25
HETATM   25  C   UNL     1       0.126   5.118 -29.938  1.00  0.00     0.270 C 
HETATM   26  N   UNL     1      -0.341   5.694 -28.788  1.00  0.00    -0.365 N 
HETATM   27  H   UNL     1      -1.043   6.421 -28.860  1.00  0.00     0.159 HD
HETATM   28  H   UNL     1       0.022   5.394 -27.897  1.00  0.00     0.159 HD
HETATM   29  O   UNL     1       0.979   4.237 -29.902  1.00  0.00    -0.266 OA
ENDBRANCH   8  25
TORSDOF 4
ENDMDL
