MODEL 1
REMARK VINA RESULT:      -8.4      0.000      0.000
REMARK  4 active torsions:
REMARK  status: ('A' for Active; 'I' for Inactive)
REMARK    1  A    between atoms: C_3  and  N_4 
REMARK    2  A    between atoms: N_4  and  C_5 
REMARK    3  A    between atoms: C_5  and  C_6 
REMARK    4  A    between atoms: C_14  and  C_15 
ROOT
HETATM    1  C   UNL     1      -5.946   0.675 -30.110  1.00  0.00     0.006 A 
HETATM    2  C   UNL     1      -6.547  -0.220 -30.992  1.00  0.00     0.048 A 
HETATM    3  C   UNL     1      -6.505   0.007 -32.376  1.00  0.00     0.101 A 
HETATM    4  N   UNL     1      -5.918   1.137 -32.805  1.00  0.00    -0.342 N 
HETATM    5  H   UNL     1      -5.913   1.338 -33.797  1.00  0.00     0.167 HD
HETATM    6  C   UNL     1      -5.335   2.035 -31.989  1.00  0.00     0.044 A 
HETATM    7  C   UNL     1      -5.327   1.810 -30.613  1.00  0.00     0.030 A 
ENDROOT
BRANCH   6   8
HETATM    8  C   UNL     1      -4.724   3.183 -32.657  1.00  0.00    -0.007 A 
HETATM    9  C   UNL     1      -3.454   3.643 -32.264  1.00  0.00     0.053 A 
HETATM   10  C   UNL     1      -2.858   4.737 -32.895  1.00  0.00     0.103 A 
HETATM   11  C   UNL     1      -3.531   5.409 -33.913  1.00  0.00     0.102 A 
HETATM   12  O   UNL     1      -1.615   5.096 -32.447  1.00  0.00    -0.346 OA
HETATM   13  O   UNL     1      -3.024   6.510 -34.548  1.00  0.00    -0.346 OA
HETATM   14  C   UNL     1      -4.782   4.962 -34.329  1.00  0.00     0.040 A 
HETATM   15  C   UNL     1      -1.944   7.092 -33.804  1.00  0.00     0.202 C 
HETATM   16  C   UNL     1      -0.973   6.017 -33.342  1.00  0.00     0.202 C 
HETATM   17  C   UNL     1      -5.378   3.862 -33.703  1.00  0.00     0.016 A 
ENDBRANCH   6   8
BRANCH   3  18
HETATM   18  N   UNL     1      -7.172  -0.865 -33.227  1.00  0.00    -0.372 N 
HETATM   19  H   UNL     1      -7.542  -1.669 -32.713  1.00  0.00     0.161 HD
BRANCH  18  20
HETATM   20  C   UNL     1      -6.684  -1.274 -34.544  1.00  0.00     0.162 C 
BRANCH  20  21
HETATM   21  C   UNL     1      -5.995  -2.599 -34.513  1.00  0.00    -0.005 A 
HETATM   22  C   UNL     1      -6.637  -3.762 -34.892  1.00  0.00     0.128 A 
HETATM   23  N   UNL     1      -6.069  -4.979 -34.832  1.00  0.00    -0.254 NA
HETATM   24  C   UNL     1      -4.787  -5.018 -34.443  1.00  0.00     0.232 A 
HETATM   25  N   UNL     1      -4.060  -3.956 -34.074  1.00  0.00    -0.254 NA
HETATM   26  C   UNL     1      -4.673  -2.760 -34.145  1.00  0.00     0.128 A 
ENDBRANCH  20  21
ENDBRANCH  18  20
ENDBRANCH   3  18
TORSDOF 4
ENDMDL
MODEL 2
REMARK VINA RESULT:      -8.2      5.174      8.022
REMARK  4 active torsions:
REMARK  status: ('A' for Active; 'I' for Inactive)
REMARK    1  A    between atoms: C_3  and  N_4 
REMARK    2  A    between atoms: N_4  and  C_5 
REMARK    3  A    between atoms: C_5  and  C_6 
REMARK    4  A    between atoms: C_14  and  C_15 
ROOT
HETATM    1  C   UNL     1      -7.001   3.424 -33.165  1.00  0.00     0.006 A 
HETATM    2  C   UNL     1      -8.315   3.411 -33.626  1.00  0.00     0.048 A 
HETATM    3  C   UNL     1      -8.882   2.230 -34.129  1.00  0.00     0.101 A 
HETATM    4  N   UNL     1      -8.097   1.143 -34.198  1.00  0.00    -0.342 N 
HETATM    5  H   UNL     1      -8.476   0.292 -34.594  1.00  0.00     0.167 HD
HETATM    6  C   UNL     1      -6.819   1.112 -33.774  1.00  0.00     0.044 A 
HETATM    7  C   UNL     1      -6.247   2.262 -33.232  1.00  0.00     0.030 A 
ENDROOT
BRANCH   6   8
HETATM    8  C   UNL     1      -6.146  -0.179 -33.907  1.00  0.00    -0.007 A 
HETATM    9  C   UNL     1      -6.835  -1.291 -34.424  1.00  0.00     0.053 A 
HETATM   10  C   UNL     1      -6.203  -2.529 -34.559  1.00  0.00     0.103 A 
HETATM   11  C   UNL     1      -4.879  -2.686 -34.155  1.00  0.00     0.102 A 
HETATM   12  O   UNL     1      -6.956  -3.545 -35.085  1.00  0.00    -0.346 OA
HETATM   13  O   UNL     1      -4.210  -3.879 -34.223  1.00  0.00    -0.346 OA
HETATM   14  C   UNL     1      -4.173  -1.596 -33.655  1.00  0.00     0.040 A 
HETATM   15  C   UNL     1      -5.117  -4.978 -34.383  1.00  0.00     0.202 C 
HETATM   16  C   UNL     1      -6.147  -4.669 -35.458  1.00  0.00     0.202 C 
HETATM   17  C   UNL     1      -4.801  -0.352 -33.526  1.00  0.00     0.016 A 
ENDBRANCH   6   8
BRANCH   3  18
HETATM   18  N   UNL     1     -10.171   2.263 -34.645  1.00  0.00    -0.372 N 
HETATM   19  H   UNL     1     -10.160   2.206 -35.667  1.00  0.00     0.161 HD
BRANCH  18  20
HETATM   20  C   UNL     1     -11.224   3.170 -34.189  1.00  0.00     0.162 C 
BRANCH  20  21
HETATM   21  C   UNL     1     -12.532   2.475 -33.994  1.00  0.00    -0.005 A 
HETATM   22  C   UNL     1     -12.995   1.529 -34.888  1.00  0.00     0.128 A 
HETATM   23  N   UNL     1     -14.187   0.918 -34.774  1.00  0.00    -0.254 NA
HETATM   24  C   UNL     1     -14.907   1.218 -33.684  1.00  0.00     0.232 A 
HETATM   25  N   UNL     1     -14.550   2.101 -32.743  1.00  0.00    -0.254 NA
HETATM   26  C   UNL     1     -13.352   2.691 -32.902  1.00  0.00     0.128 A 
ENDBRANCH  20  21
ENDBRANCH  18  20
ENDBRANCH   3  18
TORSDOF 4
ENDMDL
MODEL 3
REMARK VINA RESULT:      -7.9      3.777      7.824
REMARK  4 active torsions:
REMARK  status: ('A' for Active; 'I' for Inactive)
REMARK    1  A    between atoms: C_3  and  N_4 
REMARK    2  A    between atoms: N_4  and  C_5 
REMARK    3  A    between atoms: C_5  and  C_6 
REMARK    4  A    between atoms: C_14  and  C_15 
ROOT
HETATM    1  C   UNL     1      -8.311   2.505 -31.965  1.00  0.00     0.006 A 
HETATM    2  C   UNL     1      -7.656   3.624 -32.472  1.00  0.00     0.048 A 
HETATM    3  C   UNL     1      -6.519   3.478 -33.281  1.00  0.00     0.101 A 
HETATM    4  N   UNL     1      -6.062   2.234 -33.496  1.00  0.00    -0.342 N 
HETATM    5  H   UNL     1      -5.220   2.111 -34.044  1.00  0.00     0.167 HD
HETATM    6  C   UNL     1      -6.656   1.125 -33.017  1.00  0.00     0.044 A 
HETATM    7  C   UNL     1      -7.811   1.241 -32.246  1.00  0.00     0.030 A 
ENDROOT
BRANCH   6   8
HETATM    8  C   UNL     1      -6.019  -0.137 -33.391  1.00  0.00    -0.007 A 
HETATM    9  C   UNL     1      -6.791  -1.208 -33.877  1.00  0.00     0.053 A 
HETATM   10  C   UNL     1      -6.195  -2.418 -34.240  1.00  0.00     0.103 A 
HETATM   11  C   UNL     1      -4.820  -2.590 -34.100  1.00  0.00     0.102 A 
HETATM   12  O   UNL     1      -7.033  -3.392 -34.714  1.00  0.00    -0.346 OA
HETATM   13  O   UNL     1      -4.176  -3.759 -34.400  1.00  0.00    -0.346 OA
HETATM   14  C   UNL     1      -4.034  -1.538 -33.637  1.00  0.00     0.040 A 
HETATM   15  C   UNL     1      -5.097  -4.854 -34.496  1.00  0.00     0.202 C 
HETATM   16  C   UNL     1      -6.306  -4.464 -35.332  1.00  0.00     0.202 C 
HETATM   17  C   UNL     1      -4.627  -0.323 -33.279  1.00  0.00     0.016 A 
ENDBRANCH   6   8
BRANCH   3  18
HETATM   18  N   UNL     1      -5.846   4.614 -33.716  1.00  0.00    -0.372 N 
HETATM   19  H   UNL     1      -6.503   5.358 -33.966  1.00  0.00     0.161 HD
BRANCH  18  20
HETATM   20  C   UNL     1      -4.707   4.601 -34.633  1.00  0.00     0.162 C 
BRANCH  20  21
HETATM   21  C   UNL     1      -3.422   4.949 -33.954  1.00  0.00    -0.005 A 
HETATM   22  C   UNL     1      -2.745   6.120 -34.233  1.00  0.00     0.128 A 
HETATM   23  N   UNL     1      -1.563   6.446 -33.681  1.00  0.00    -0.254 NA
HETATM   24  C   UNL     1      -1.082   5.597 -32.762  1.00  0.00     0.232 A 
HETATM   25  N   UNL     1      -1.662   4.447 -32.397  1.00  0.00    -0.254 NA
HETATM   26  C   UNL     1      -2.839   4.160 -32.981  1.00  0.00     0.128 A 
ENDBRANCH  20  21
ENDBRANCH  18  20
ENDBRANCH   3  18
TORSDOF 4
ENDMDL
MODEL 4
REMARK VINA RESULT:      -7.9      3.764      8.253
REMARK  4 active torsions:
REMARK  status: ('A' for Active; 'I' for Inactive)
REMARK    1  A    between atoms: C_3  and  N_4 
REMARK    2  A    between atoms: N_4  and  C_5 
REMARK    3  A    between atoms: C_5  and  C_6 
REMARK    4  A    between atoms: C_14  and  C_15 
ROOT
HETATM    1  C   UNL     1      -7.655   2.961 -33.276  1.00  0.00     0.006 A 
HETATM    2  C   UNL     1      -6.567   3.733 -32.878  1.00  0.00     0.048 A 
HETATM    3  C   UNL     1      -5.285   3.169 -32.795  1.00  0.00     0.101 A 
HETATM    4  N   UNL     1      -5.164   1.857 -33.058  1.00  0.00    -0.342 N 
HETATM    5  H   UNL     1      -4.254   1.423 -32.965  1.00  0.00     0.167 HD
HETATM    6  C   UNL     1      -6.189   1.071 -33.435  1.00  0.00     0.044 A 
HETATM    7  C   UNL     1      -7.464   1.618 -33.565  1.00  0.00     0.030 A 
ENDROOT
BRANCH   6   8
HETATM    8  C   UNL     1      -5.841  -0.323 -33.706  1.00  0.00    -0.007 A 
HETATM    9  C   UNL     1      -4.772  -0.936 -33.028  1.00  0.00     0.053 A 
HETATM   10  C   UNL     1      -4.431  -2.267 -33.274  1.00  0.00     0.103 A 
HETATM   11  C   UNL     1      -5.136  -3.005 -34.224  1.00  0.00     0.102 A 
HETATM   12  O   UNL     1      -3.384  -2.773 -32.552  1.00  0.00    -0.346 OA
HETATM   13  O   UNL     1      -4.832  -4.301 -34.543  1.00  0.00    -0.346 OA
HETATM   14  C   UNL     1      -6.207  -2.424 -34.896  1.00  0.00     0.040 A 
HETATM   15  C   UNL     1      -3.520  -4.658 -34.088  1.00  0.00     0.202 C 
HETATM   16  C   UNL     1      -3.309  -4.203 -32.653  1.00  0.00     0.202 C 
HETATM   17  C   UNL     1      -6.555  -1.093 -34.645  1.00  0.00     0.016 A 
ENDBRANCH   6   8
BRANCH   3  18
HETATM   18  N   UNL     1      -4.231   3.945 -32.329  1.00  0.00    -0.372 N 
HETATM   19  H   UNL     1      -4.572   4.801 -31.884  1.00  0.00     0.161 HD
BRANCH  18  20
HETATM   20  C   UNL     1      -3.001   4.206 -33.076  1.00  0.00     0.162 C 
BRANCH  20  21
HETATM   21  C   UNL     1      -2.500   5.601 -32.883  1.00  0.00    -0.005 A 
HETATM   22  C   UNL     1      -2.143   6.400 -33.951  1.00  0.00     0.128 A 
HETATM   23  N   UNL     1      -1.643   7.640 -33.818  1.00  0.00    -0.254 NA
HETATM   24  C   UNL     1      -1.566   8.119 -32.568  1.00  0.00     0.232 A 
HETATM   25  N   UNL     1      -1.902   7.444 -31.462  1.00  0.00    -0.254 NA
HETATM   26  C   UNL     1      -2.393   6.205 -31.645  1.00  0.00     0.128 A 
ENDBRANCH  20  21
ENDBRANCH  18  20
ENDBRANCH   3  18
TORSDOF 4
ENDMDL
MODEL 5
REMARK VINA RESULT:      -7.5      4.964      7.428
REMARK  4 active torsions:
REMARK  status: ('A' for Active; 'I' for Inactive)
REMARK    1  A    between atoms: C_3  and  N_4 
REMARK    2  A    between atoms: N_4  and  C_5 
REMARK    3  A    between atoms: C_5  and  C_6 
REMARK    4  A    between atoms: C_14  and  C_15 
ROOT
HETATM    1  C   UNL     1      -7.283   3.280 -30.654  1.00  0.00     0.006 A 
HETATM    2  C   UNL     1      -8.658   3.452 -30.794  1.00  0.00     0.048 A 
HETATM    3  C   UNL     1      -9.415   2.546 -31.553  1.00  0.00     0.101 A 
HETATM    4  N   UNL     1      -8.759   1.553 -32.175  1.00  0.00    -0.342 N 
HETATM    5  H   UNL     1      -9.283   0.913 -32.758  1.00  0.00     0.167 HD
HETATM    6  C   UNL     1      -7.431   1.355 -32.077  1.00  0.00     0.044 A 
HETATM    7  C   UNL     1      -6.664   2.217 -31.295  1.00  0.00     0.030 A 
ENDROOT
BRANCH   6   8
HETATM    8  C   UNL     1      -6.915   0.198 -32.806  1.00  0.00    -0.007 A 
HETATM    9  C   UNL     1      -5.710  -0.411 -32.415  1.00  0.00     0.053 A 
HETATM   10  C   UNL     1      -5.207  -1.519 -33.101  1.00  0.00     0.103 A 
HETATM   11  C   UNL     1      -5.886  -2.023 -34.208  1.00  0.00     0.102 A 
HETATM   12  O   UNL     1      -4.033  -2.047 -32.632  1.00  0.00    -0.346 OA
HETATM   13  O   UNL     1      -5.432  -3.080 -34.950  1.00  0.00    -0.346 OA
HETATM   14  C   UNL     1      -7.089  -1.446 -34.604  1.00  0.00     0.040 A 
HETATM   15  C   UNL     1      -4.044  -3.339 -34.696  1.00  0.00     0.202 C 
HETATM   16  C   UNL     1      -3.764  -3.336 -33.201  1.00  0.00     0.202 C 
HETATM   17  C   UNL     1      -7.598  -0.340 -33.914  1.00  0.00     0.016 A 
ENDBRANCH   6   8
BRANCH   3  18
HETATM   18  N   UNL     1     -10.773   2.780 -31.732  1.00  0.00    -0.372 N 
HETATM   19  H   UNL     1     -11.332   2.009 -31.358  1.00  0.00     0.161 HD
BRANCH  18  20
HETATM   20  C   UNL     1     -11.369   3.301 -32.962  1.00  0.00     0.162 C 
BRANCH  20  21
HETATM   21  C   UNL     1     -12.533   2.485 -33.423  1.00  0.00    -0.005 A 
HETATM   22  C   UNL     1     -13.741   2.498 -32.753  1.00  0.00     0.128 A 
HETATM   23  N   UNL     1     -14.796   1.743 -33.106  1.00  0.00    -0.254 NA
HETATM   24  C   UNL     1     -14.652   1.003 -34.215  1.00  0.00     0.232 A 
HETATM   25  N   UNL     1     -13.539   0.930 -34.954  1.00  0.00    -0.254 NA
HETATM   26  C   UNL     1     -12.508   1.698 -34.559  1.00  0.00     0.128 A 
ENDBRANCH  20  21
ENDBRANCH  18  20
ENDBRANCH   3  18
TORSDOF 4
ENDMDL
MODEL 6
REMARK VINA RESULT:      -7.3      4.338      6.173
REMARK  4 active torsions:
REMARK  status: ('A' for Active; 'I' for Inactive)
REMARK    1  A    between atoms: C_3  and  N_4 
REMARK    2  A    between atoms: N_4  and  C_5 
REMARK    3  A    between atoms: C_5  and  C_6 
REMARK    4  A    between atoms: C_14  and  C_15 
ROOT
HETATM    1  C   UNL     1      -1.561   5.115 -33.456  1.00  0.00     0.006 A 
HETATM    2  C   UNL     1      -2.447   4.108 -33.084  1.00  0.00     0.048 A 
HETATM    3  C   UNL     1      -2.850   3.971 -31.747  1.00  0.00     0.101 A 
HETATM    4  N   UNL     1      -2.308   4.805 -30.845  1.00  0.00    -0.342 N 
HETATM    5  H   UNL     1      -2.556   4.697 -29.869  1.00  0.00     0.167 HD
HETATM    6  C   UNL     1      -1.440   5.785 -31.157  1.00  0.00     0.044 A 
HETATM    7  C   UNL     1      -1.057   5.968 -32.485  1.00  0.00     0.030 A 
ENDROOT
BRANCH   6   8
HETATM    8  C   UNL     1      -0.990   6.605 -30.033  1.00  0.00    -0.007 A 
HETATM    9  C   UNL     1      -1.892   6.983 -29.022  1.00  0.00     0.053 A 
HETATM   10  C   UNL     1      -1.475   7.764 -27.941  1.00  0.00     0.103 A 
HETATM   11  C   UNL     1      -0.156   8.204 -27.864  1.00  0.00     0.102 A 
HETATM   12  O   UNL     1      -2.427   8.066 -27.003  1.00  0.00    -0.346 OA
HETATM   13  O   UNL     1       0.311   9.002 -26.855  1.00  0.00    -0.346 OA
HETATM   14  C   UNL     1       0.757   7.829 -28.845  1.00  0.00     0.040 A 
HETATM   15  C   UNL     1      -0.765   9.621 -26.137  1.00  0.00     0.202 C 
HETATM   16  C   UNL     1      -1.844   8.601 -25.807  1.00  0.00     0.202 C 
HETATM   17  C   UNL     1       0.345   7.041 -29.925  1.00  0.00     0.016 A 
ENDBRANCH   6   8
BRANCH   3  18
HETATM   18  N   UNL     1      -3.682   2.915 -31.393  1.00  0.00    -0.372 N 
HETATM   19  H   UNL     1      -3.217   2.287 -30.733  1.00  0.00     0.161 HD
BRANCH  18  20
HETATM   20  C   UNL     1      -4.506   2.159 -32.335  1.00  0.00     0.162 C 
BRANCH  20  21
HETATM   21  C   UNL     1      -4.170   0.703 -32.347  1.00  0.00    -0.005 A 
HETATM   22  C   UNL     1      -3.142   0.187 -31.583  1.00  0.00     0.128 A 
HETATM   23  N   UNL     1      -2.776  -1.106 -31.602  1.00  0.00    -0.254 NA
HETATM   24  C   UNL     1      -3.518  -1.922 -32.366  1.00  0.00     0.232 A 
HETATM   25  N   UNL     1      -4.548  -1.538 -33.130  1.00  0.00    -0.254 NA
HETATM   26  C   UNL     1      -4.873  -0.233 -33.081  1.00  0.00     0.128 A 
ENDBRANCH  20  21
ENDBRANCH  18  20
ENDBRANCH   3  18
TORSDOF 4
ENDMDL
MODEL 7
REMARK VINA RESULT:      -7.3      4.071      7.377
REMARK  4 active torsions:
REMARK  status: ('A' for Active; 'I' for Inactive)
REMARK    1  A    between atoms: C_3  and  N_4 
REMARK    2  A    between atoms: N_4  and  C_5 
REMARK    3  A    between atoms: C_5  and  C_6 
REMARK    4  A    between atoms: C_14  and  C_15 
ROOT
HETATM    1  C   UNL     1      -4.896  -1.603 -33.705  1.00  0.00     0.006 A 
HETATM    2  C   UNL     1      -3.967  -0.714 -33.170  1.00  0.00     0.048 A 
HETATM    3  C   UNL     1      -4.369   0.555 -32.725  1.00  0.00     0.101 A 
HETATM    4  N   UNL     1      -5.658   0.893 -32.887  1.00  0.00    -0.342 N 
HETATM    5  H   UNL     1      -5.959   1.818 -32.609  1.00  0.00     0.167 HD
HETATM    6  C   UNL     1      -6.588   0.071 -33.410  1.00  0.00     0.044 A 
HETATM    7  C   UNL     1      -6.222  -1.210 -33.819  1.00  0.00     0.030 A 
ENDROOT
BRANCH   6   8
HETATM    8  C   UNL     1      -7.943   0.618 -33.471  1.00  0.00    -0.007 A 
HETATM    9  C   UNL     1      -8.168   1.907 -33.986  1.00  0.00     0.053 A 
HETATM   10  C   UNL     1      -9.457   2.440 -34.053  1.00  0.00     0.103 A 
HETATM   11  C   UNL     1     -10.543   1.706 -33.581  1.00  0.00     0.102 A 
HETATM   12  O   UNL     1      -9.571   3.698 -34.584  1.00  0.00    -0.346 OA
HETATM   13  O   UNL     1     -11.826   2.181 -33.581  1.00  0.00    -0.346 OA
HETATM   14  C   UNL     1     -10.346   0.422 -33.082  1.00  0.00     0.040 A 
HETATM   15  C   UNL     1     -11.857   3.604 -33.752  1.00  0.00     0.202 C 
HETATM   16  C   UNL     1     -10.934   4.027 -34.884  1.00  0.00     0.202 C 
HETATM   17  C   UNL     1      -9.056  -0.118 -33.020  1.00  0.00     0.016 A 
ENDBRANCH   6   8
BRANCH   3  18
HETATM   18  N   UNL     1      -3.409   1.445 -32.259  1.00  0.00    -0.372 N 
HETATM   19  H   UNL     1      -2.673   0.956 -31.743  1.00  0.00     0.161 HD
BRANCH  18  20
HETATM   20  C   UNL     1      -3.708   2.735 -31.637  1.00  0.00     0.162 C 
BRANCH  20  21
HETATM   21  C   UNL     1      -2.791   3.820 -32.100  1.00  0.00    -0.005 A 
HETATM   22  C   UNL     1      -2.581   4.071 -33.442  1.00  0.00     0.128 A 
HETATM   23  N   UNL     1      -1.728   5.003 -33.900  1.00  0.00    -0.254 NA
HETATM   24  C   UNL     1      -1.119   5.758 -32.974  1.00  0.00     0.232 A 
HETATM   25  N   UNL     1      -1.263   5.619 -31.650  1.00  0.00    -0.254 NA
HETATM   26  C   UNL     1      -2.122   4.669 -31.240  1.00  0.00     0.128 A 
ENDBRANCH  20  21
ENDBRANCH  18  20
ENDBRANCH   3  18
TORSDOF 4
ENDMDL
MODEL 8
REMARK VINA RESULT:      -7.2      3.998      8.194
REMARK  4 active torsions:
REMARK  status: ('A' for Active; 'I' for Inactive)
REMARK    1  A    between atoms: C_3  and  N_4 
REMARK    2  A    between atoms: N_4  and  C_5 
REMARK    3  A    between atoms: C_5  and  C_6 
REMARK    4  A    between atoms: C_14  and  C_15 
ROOT
HETATM    1  C   UNL     1      -7.137   3.328 -30.017  1.00  0.00     0.006 A 
HETATM    2  C   UNL     1      -5.882   3.932 -30.052  1.00  0.00     0.048 A 
HETATM    3  C   UNL     1      -4.862   3.410 -30.862  1.00  0.00     0.101 A 
HETATM    4  N   UNL     1      -5.126   2.287 -31.550  1.00  0.00    -0.342 N 
HETATM    5  H   UNL     1      -4.391   1.874 -32.109  1.00  0.00     0.167 HD
HETATM    6  C   UNL     1      -6.319   1.664 -31.538  1.00  0.00     0.044 A 
HETATM    7  C   UNL     1      -7.360   2.187 -30.773  1.00  0.00     0.030 A 
ENDROOT
BRANCH   6   8
HETATM    8  C   UNL     1      -6.411   0.472 -32.380  1.00  0.00    -0.007 A 
HETATM    9  C   UNL     1      -5.274  -0.321 -32.618  1.00  0.00     0.053 A 
HETATM   10  C   UNL     1      -5.349  -1.463 -33.419  1.00  0.00     0.103 A 
HETATM   11  C   UNL     1      -6.555  -1.820 -34.018  1.00  0.00     0.102 A 
HETATM   12  O   UNL     1      -4.189  -2.174 -33.577  1.00  0.00    -0.346 OA
HETATM   13  O   UNL     1      -6.691  -2.902 -34.844  1.00  0.00    -0.346 OA
HETATM   14  C   UNL     1      -7.696  -1.058 -33.784  1.00  0.00     0.040 A 
HETATM   15  C   UNL     1      -5.417  -3.371 -35.306  1.00  0.00     0.202 C 
HETATM   16  C   UNL     1      -4.431  -3.466 -34.152  1.00  0.00     0.202 C 
HETATM   17  C   UNL     1      -7.626   0.083 -32.977  1.00  0.00     0.016 A 
ENDBRANCH   6   8
BRANCH   3  18
HETATM   18  N   UNL     1      -3.601   3.992 -30.824  1.00  0.00    -0.372 N 
HETATM   19  H   UNL     1      -3.257   4.063 -29.863  1.00  0.00     0.161 HD
BRANCH  18  20
HETATM   20  C   UNL     1      -3.207   5.167 -31.602  1.00  0.00     0.162 C 
BRANCH  20  21
HETATM   21  C   UNL     1      -1.938   5.781 -31.106  1.00  0.00    -0.005 A 
HETATM   22  C   UNL     1      -1.940   6.894 -30.288  1.00  0.00     0.128 A 
HETATM   23  N   UNL     1      -0.823   7.506 -29.860  1.00  0.00    -0.254 NA
HETATM   24  C   UNL     1       0.339   6.935 -30.211  1.00  0.00     0.232 A 
HETATM   25  N   UNL     1       0.461   5.846 -30.980  1.00  0.00    -0.254 NA
HETATM   26  C   UNL     1      -0.686   5.272 -31.389  1.00  0.00     0.128 A 
ENDBRANCH  20  21
ENDBRANCH  18  20
ENDBRANCH   3  18
TORSDOF 4
ENDMDL
MODEL 9
REMARK VINA RESULT:      -7.2      4.468      6.749
REMARK  4 active torsions:
REMARK  status: ('A' for Active; 'I' for Inactive)
REMARK    1  A    between atoms: C_3  and  N_4 
REMARK    2  A    between atoms: N_4  and  C_5 
REMARK    3  A    between atoms: C_5  and  C_6 
REMARK    4  A    between atoms: C_14  and  C_15 
ROOT
HETATM    1  C   UNL     1      -1.178   5.548 -33.209  1.00  0.00     0.006 A 
HETATM    2  C   UNL     1      -2.013   4.491 -32.853  1.00  0.00     0.048 A 
HETATM    3  C   UNL     1      -2.467   4.357 -31.532  1.00  0.00     0.101 A 
HETATM    4  N   UNL     1      -2.024   5.244 -30.627  1.00  0.00    -0.342 N 
HETATM    5  H   UNL     1      -2.308   5.140 -29.662  1.00  0.00     0.167 HD
HETATM    6  C   UNL     1      -1.208   6.273 -30.924  1.00  0.00     0.044 A 
HETATM    7  C   UNL     1      -0.777   6.453 -32.237  1.00  0.00     0.030 A 
ENDROOT
BRANCH   6   8
HETATM    8  C   UNL     1      -0.867   7.145 -29.801  1.00  0.00    -0.007 A 
HETATM    9  C   UNL     1       0.138   6.773 -28.890  1.00  0.00     0.053 A 
HETATM   10  C   UNL     1       0.476   7.598 -27.815  1.00  0.00     0.103 A 
HETATM   11  C   UNL     1      -0.202   8.798 -27.614  1.00  0.00     0.102 A 
HETATM   12  O   UNL     1       1.478   7.151 -26.995  1.00  0.00    -0.346 OA
HETATM   13  O   UNL     1       0.050   9.635 -26.561  1.00  0.00    -0.346 OA
HETATM   14  C   UNL     1      -1.190   9.193 -28.511  1.00  0.00     0.040 A 
HETATM   15  C   UNL     1       0.787   8.968 -25.527  1.00  0.00     0.202 C 
HETATM   16  C   UNL     1       1.949   8.186 -26.119  1.00  0.00     0.202 C 
HETATM   17  C   UNL     1      -1.526   8.373 -29.593  1.00  0.00     0.016 A 
ENDBRANCH   6   8
BRANCH   3  18
HETATM   18  N   UNL     1      -3.242   3.255 -31.190  1.00  0.00    -0.372 N 
HETATM   19  H   UNL     1      -3.067   2.968 -30.224  1.00  0.00     0.161 HD
BRANCH  18  20
HETATM   20  C   UNL     1      -3.447   2.088 -32.048  1.00  0.00     0.162 C 
BRANCH  20  21
HETATM   21  C   UNL     1      -4.808   1.492 -31.887  1.00  0.00    -0.005 A 
HETATM   22  C   UNL     1      -5.079   0.188 -32.254  1.00  0.00     0.128 A 
HETATM   23  N   UNL     1      -6.299  -0.369 -32.171  1.00  0.00    -0.254 NA
HETATM   24  C   UNL     1      -7.265   0.391 -31.634  1.00  0.00     0.232 A 
HETATM   25  N   UNL     1      -7.112   1.656 -31.225  1.00  0.00    -0.254 NA
HETATM   26  C   UNL     1      -5.875   2.173 -31.333  1.00  0.00     0.128 A 
ENDBRANCH  20  21
ENDBRANCH  18  20
ENDBRANCH   3  18
TORSDOF 4
ENDMDL
MODEL 10
REMARK VINA RESULT:      -7.1      2.393      3.730
REMARK  4 active torsions:
REMARK  status: ('A' for Active; 'I' for Inactive)
REMARK    1  A    between atoms: C_3  and  N_4 
REMARK    2  A    between atoms: N_4  and  C_5 
REMARK    3  A    between atoms: C_5  and  C_6 
REMARK    4  A    between atoms: C_14  and  C_15 
ROOT
HETATM    1  C   UNL     1      -3.375  -0.946 -31.587  1.00  0.00     0.006 A 
HETATM    2  C   UNL     1      -4.338  -1.318 -32.521  1.00  0.00     0.048 A 
HETATM    3  C   UNL     1      -5.016  -0.344 -33.271  1.00  0.00     0.101 A 
HETATM    4  N   UNL     1      -4.741   0.945 -33.013  1.00  0.00    -0.342 N 
HETATM    5  H   UNL     1      -5.248   1.662 -33.515  1.00  0.00     0.167 HD
HETATM    6  C   UNL     1      -3.826   1.350 -32.112  1.00  0.00     0.044 A 
HETATM    7  C   UNL     1      -3.110   0.401 -31.385  1.00  0.00     0.030 A 
ENDROOT
BRANCH   6   8
HETATM    8  C   UNL     1      -3.653   2.797 -32.003  1.00  0.00    -0.007 A 
HETATM    9  C   UNL     1      -2.736   3.469 -32.830  1.00  0.00     0.053 A 
HETATM   10  C   UNL     1      -2.563   4.852 -32.738  1.00  0.00     0.103 A 
HETATM   11  C   UNL     1      -3.284   5.587 -31.800  1.00  0.00     0.102 A 
HETATM   12  O   UNL     1      -1.655   5.412 -33.598  1.00  0.00    -0.346 OA
HETATM   13  O   UNL     1      -3.137   6.936 -31.629  1.00  0.00    -0.346 OA
HETATM   14  C   UNL     1      -4.209   4.945 -30.981  1.00  0.00     0.040 A 
HETATM   15  C   UNL     1      -1.926   7.411 -32.234  1.00  0.00     0.202 C 
HETATM   16  C   UNL     1      -1.770   6.842 -33.635  1.00  0.00     0.202 C 
HETATM   17  C   UNL     1      -4.389   3.561 -31.076  1.00  0.00     0.016 A 
ENDBRANCH   6   8
BRANCH   3  18
HETATM   18  N   UNL     1      -6.021  -0.739 -34.146  1.00  0.00    -0.372 N 
HETATM   19  H   UNL     1      -5.722  -1.537 -34.713  1.00  0.00     0.161 HD
BRANCH  18  20
HETATM   20  C   UNL     1      -6.839   0.179 -34.937  1.00  0.00     0.162 C 
BRANCH  20  21
HETATM   21  C   UNL     1      -8.145   0.491 -34.280  1.00  0.00    -0.005 A 
HETATM   22  C   UNL     1      -8.687  -0.331 -33.311  1.00  0.00     0.128 A 
HETATM   23  N   UNL     1      -9.880  -0.112 -32.732  1.00  0.00    -0.254 NA
HETATM   24  C   UNL     1     -10.518   1.012 -33.091  1.00  0.00     0.232 A 
HETATM   25  N   UNL     1     -10.079   1.890 -34.001  1.00  0.00    -0.254 NA
HETATM   26  C   UNL     1      -8.883   1.626 -34.558  1.00  0.00     0.128 A 
ENDBRANCH  20  21
ENDBRANCH  18  20
ENDBRANCH   3  18
TORSDOF 4
ENDMDL
