MODEL 1
REMARK VINA RESULT:      -9.9      0.000      0.000
REMARK  3 active torsions:
REMARK  status: ('A' for Active; 'I' for Inactive)
REMARK    1  A    between atoms: C_5  and  C_6 
REMARK    2  A    between atoms: C_10  and  C_11 
REMARK    3  A    between atoms: C_24  and  N_25 
ROOT
HETATM    1  C   UNL     1      -7.029  -0.275 -32.914  1.00  0.00     0.070 A 
HETATM    2  N   UNL     1      -6.556   0.519 -31.930  1.00  0.00    -0.228 NA
HETATM    3  C   UNL     1      -7.302   1.487 -31.407  1.00  0.00     0.165 A 
HETATM    4  C   UNL     1      -8.612   1.731 -31.836  1.00  0.00     0.063 A 
HETATM    5  C   UNL     1      -9.115   0.928 -32.914  1.00  0.00    -0.006 A 
HETATM    6  C   UNL     1      -8.294  -0.078 -33.440  1.00  0.00     0.046 A 
HETATM    7  N   UNL     1      -6.715   2.182 -30.447  1.00  0.00    -0.222 NA
HETATM    8  C   UNL     1      -7.417   3.148 -29.863  1.00  0.00     0.237 A 
HETATM    9  N   UNL     1      -8.676   3.468 -30.141  1.00  0.00    -0.229 NA
HETATM   10  C   UNL     1      -9.262   2.754 -31.109  1.00  0.00     0.117 A 
ENDROOT
BRANCH   5  11
HETATM   11  C   UNL     1     -10.455   1.090 -33.506  1.00  0.00    -0.022 A 
HETATM   12  C   UNL     1     -11.531   0.283 -33.092  1.00  0.00     0.052 A 
HETATM   13  C   UNL     1     -12.759   0.466 -33.693  1.00  0.00     0.105 A 
HETATM   14  C   UNL     1     -12.959   1.425 -34.658  1.00  0.00     0.105 A 
HETATM   15  O   UNL     1     -13.886  -0.250 -33.434  1.00  0.00    -0.323 OA
HETATM   16  O   UNL     1     -14.235   1.433 -35.125  1.00  0.00    -0.323 OA
HETATM   17  C   UNL     1     -11.944   2.255 -35.073  1.00  0.00     0.040 A 
HETATM   18  C   UNL     1     -14.808   0.344 -34.370  1.00  0.00     0.352 A 
HETATM   19  C   UNL     1     -10.683   2.083 -34.492  1.00  0.00     0.015 A 
ENDBRANCH   5  11
BRANCH  10  20
HETATM   20  N   UNL     1     -10.578   3.144 -31.344  1.00  0.00    -0.286 NA
HETATM   21  H   UNL     1     -10.557   3.968 -31.940  1.00  0.00     0.125 HD
HETATM   22  H   UNL     1     -11.097   3.307 -30.490  1.00  0.00     0.125 HD
ENDBRANCH  10  20
BRANCH   1  23
HETATM   23  C   UNL     1      -6.121  -1.357 -33.353  1.00  0.00    -0.007 A 
HETATM   24  C   UNL     1      -6.502  -2.316 -34.308  1.00  0.00     0.014 A 
HETATM   25  C   UNL     1      -5.644  -3.359 -34.682  1.00  0.00     0.007 A 
HETATM   26  C   UNL     1      -4.378  -3.478 -34.103  1.00  0.00    -0.062 A 
HETATM   27  C   UNL     1      -3.452  -4.590 -34.494  1.00  0.00     0.048 C 
HETATM   28  C   UNL     1      -3.976  -2.527 -33.164  1.00  0.00     0.007 A 
HETATM   29  C   UNL     1      -4.837  -1.488 -32.793  1.00  0.00     0.014 A 
ENDBRANCH   1  23
TORSDOF 3
ENDMDL
MODEL 2
REMARK VINA RESULT:      -9.7      5.106      7.021
REMARK  3 active torsions:
REMARK  status: ('A' for Active; 'I' for Inactive)
REMARK    1  A    between atoms: C_5  and  C_6 
REMARK    2  A    between atoms: C_10  and  C_11 
REMARK    3  A    between atoms: C_24  and  N_25 
ROOT
HETATM    1  C   UNL     1      -6.014   0.491 -32.887  1.00  0.00     0.070 A 
HETATM    2  N   UNL     1      -7.143   0.786 -32.209  1.00  0.00    -0.228 NA
HETATM    3  C   UNL     1      -7.306   1.968 -31.623  1.00  0.00     0.165 A 
HETATM    4  C   UNL     1      -6.329   2.968 -31.680  1.00  0.00     0.063 A 
HETATM    5  C   UNL     1      -5.102   2.655 -32.355  1.00  0.00    -0.006 A 
HETATM    6  C   UNL     1      -4.969   1.396 -32.955  1.00  0.00     0.046 A 
HETATM    7  N   UNL     1      -8.463   2.124 -31.001  1.00  0.00    -0.222 NA
HETATM    8  C   UNL     1      -8.700   3.293 -30.416  1.00  0.00     0.237 A 
HETATM    9  N   UNL     1      -7.883   4.341 -30.418  1.00  0.00    -0.229 NA
HETATM   10  C   UNL     1      -6.719   4.175 -31.056  1.00  0.00     0.117 A 
ENDROOT
BRANCH   5  11
HETATM   11  C   UNL     1      -3.961   3.582 -32.465  1.00  0.00    -0.022 A 
HETATM   12  C   UNL     1      -2.918   3.561 -31.521  1.00  0.00     0.052 A 
HETATM   13  C   UNL     1      -1.884   4.464 -31.664  1.00  0.00     0.105 A 
HETATM   14  C   UNL     1      -1.839   5.356 -32.709  1.00  0.00     0.105 A 
HETATM   15  O   UNL     1      -0.822   4.598 -30.824  1.00  0.00    -0.323 OA
HETATM   16  O   UNL     1      -0.745   6.160 -32.658  1.00  0.00    -0.323 OA
HETATM   17  C   UNL     1      -2.822   5.394 -33.671  1.00  0.00     0.040 A 
HETATM   18  C   UNL     1      -0.124   5.698 -31.441  1.00  0.00     0.352 A 
HETATM   19  C   UNL     1      -3.891   4.500 -33.544  1.00  0.00     0.015 A 
ENDBRANCH   5  11
BRANCH  10  20
HETATM   20  N   UNL     1      -5.917   5.313 -31.018  1.00  0.00    -0.286 NA
HETATM   21  H   UNL     1      -5.660   5.481 -30.049  1.00  0.00     0.125 HD
HETATM   22  H   UNL     1      -6.362   6.120 -31.439  1.00  0.00     0.125 HD
ENDBRANCH  10  20
BRANCH   1  23
HETATM   23  C   UNL     1      -5.994  -0.831 -33.550  1.00  0.00    -0.007 A 
HETATM   24  C   UNL     1      -7.172  -1.486 -33.953  1.00  0.00     0.014 A 
HETATM   25  C   UNL     1      -7.138  -2.757 -34.542  1.00  0.00     0.007 A 
HETATM   26  C   UNL     1      -5.921  -3.417 -34.737  1.00  0.00    -0.062 A 
HETATM   27  C   UNL     1      -5.873  -4.777 -35.364  1.00  0.00     0.048 C 
HETATM   28  C   UNL     1      -4.741  -2.776 -34.355  1.00  0.00     0.007 A 
HETATM   29  C   UNL     1      -4.780  -1.507 -33.767  1.00  0.00     0.014 A 
ENDBRANCH   1  23
TORSDOF 3
ENDMDL
MODEL 3
REMARK VINA RESULT:      -9.5      4.799      6.648
REMARK  3 active torsions:
REMARK  status: ('A' for Active; 'I' for Inactive)
REMARK    1  A    between atoms: C_5  and  C_6 
REMARK    2  A    between atoms: C_10  and  C_11 
REMARK    3  A    between atoms: C_24  and  N_25 
ROOT
HETATM    1  C   UNL     1      -6.632   0.642 -33.909  1.00  0.00     0.070 A 
HETATM    2  N   UNL     1      -7.940   0.885 -34.142  1.00  0.00    -0.228 NA
HETATM    3  C   UNL     1      -8.426   2.122 -34.112  1.00  0.00     0.165 A 
HETATM    4  C   UNL     1      -7.619   3.234 -33.846  1.00  0.00     0.063 A 
HETATM    5  C   UNL     1      -6.236   2.989 -33.548  1.00  0.00    -0.006 A 
HETATM    6  C   UNL     1      -5.765   1.671 -33.585  1.00  0.00     0.046 A 
HETATM    7  N   UNL     1      -9.721   2.214 -34.367  1.00  0.00    -0.222 NA
HETATM    8  C   UNL     1     -10.266   3.426 -34.379  1.00  0.00     0.237 A 
HETATM    9  N   UNL     1      -9.618   4.570 -34.179  1.00  0.00    -0.229 NA
HETATM   10  C   UNL     1      -8.308   4.464 -33.929  1.00  0.00     0.117 A 
ENDROOT
BRANCH   5  11
HETATM   11  C   UNL     1      -5.268   4.047 -33.206  1.00  0.00    -0.022 A 
HETATM   12  C   UNL     1      -4.544   4.716 -34.210  1.00  0.00     0.052 A 
HETATM   13  C   UNL     1      -3.638   5.685 -33.831  1.00  0.00     0.105 A 
HETATM   14  C   UNL     1      -3.447   6.025 -32.513  1.00  0.00     0.105 A 
HETATM   15  O   UNL     1      -2.838   6.398 -34.670  1.00  0.00    -0.323 OA
HETATM   16  O   UNL     1      -2.506   6.994 -32.357  1.00  0.00    -0.323 OA
HETATM   17  C   UNL     1      -4.154   5.419 -31.500  1.00  0.00     0.040 A 
HETATM   18  C   UNL     1      -2.098   7.198 -33.726  1.00  0.00     0.352 A 
HETATM   19  C   UNL     1      -5.069   4.421 -31.853  1.00  0.00     0.015 A 
ENDBRANCH   5  11
BRANCH  10  20
HETATM   20  N   UNL     1      -7.697   5.701 -33.732  1.00  0.00    -0.286 NA
HETATM   21  H   UNL     1      -6.772   5.532 -33.344  1.00  0.00     0.125 HD
HETATM   22  H   UNL     1      -8.246   6.321 -33.151  1.00  0.00     0.125 HD
ENDBRANCH  10  20
BRANCH   1  23
HETATM   23  C   UNL     1      -6.212  -0.770 -34.044  1.00  0.00    -0.007 A 
HETATM   24  C   UNL     1      -4.907  -1.197 -33.738  1.00  0.00     0.014 A 
HETATM   25  C   UNL     1      -4.514  -2.531 -33.913  1.00  0.00     0.007 A 
HETATM   26  C   UNL     1      -5.414  -3.477 -34.410  1.00  0.00    -0.062 A 
HETATM   27  C   UNL     1      -5.004  -4.906 -34.603  1.00  0.00     0.048 C 
HETATM   28  C   UNL     1      -6.717  -3.074 -34.707  1.00  0.00     0.007 A 
HETATM   29  C   UNL     1      -7.105  -1.741 -34.531  1.00  0.00     0.014 A 
ENDBRANCH   1  23
TORSDOF 3
ENDMDL
MODEL 4
REMARK VINA RESULT:      -9.2      5.755      7.797
REMARK  3 active torsions:
REMARK  status: ('A' for Active; 'I' for Inactive)
REMARK    1  A    between atoms: C_5  and  C_6 
REMARK    2  A    between atoms: C_10  and  C_11 
REMARK    3  A    between atoms: C_24  and  N_25 
ROOT
HETATM    1  C   UNL     1      -4.683   0.795 -32.902  1.00  0.00     0.070 A 
HETATM    2  N   UNL     1      -5.977   1.143 -33.066  1.00  0.00    -0.228 NA
HETATM    3  C   UNL     1      -6.348   2.419 -33.097  1.00  0.00     0.165 A 
HETATM    4  C   UNL     1      -5.427   3.466 -32.970  1.00  0.00     0.063 A 
HETATM    5  C   UNL     1      -4.054   3.113 -32.747  1.00  0.00    -0.006 A 
HETATM    6  C   UNL     1      -3.706   1.757 -32.716  1.00  0.00     0.046 A 
HETATM    7  N   UNL     1      -7.645   2.615 -33.272  1.00  0.00    -0.222 NA
HETATM    8  C   UNL     1      -8.079   3.869 -33.338  1.00  0.00     0.237 A 
HETATM    9  N   UNL     1      -7.319   4.958 -33.269  1.00  0.00    -0.229 NA
HETATM   10  C   UNL     1      -6.009   4.747 -33.100  1.00  0.00     0.117 A 
ENDROOT
BRANCH   5  11
HETATM   11  C   UNL     1      -2.973   4.096 -32.551  1.00  0.00    -0.022 A 
HETATM   12  C   UNL     1      -2.625   4.543 -31.263  1.00  0.00     0.052 A 
HETATM   13  C   UNL     1      -1.617   5.476 -31.141  1.00  0.00     0.105 A 
HETATM   14  C   UNL     1      -0.935   5.955 -32.235  1.00  0.00     0.105 A 
HETATM   15  O   UNL     1      -1.185   6.034 -29.978  1.00  0.00    -0.323 OA
HETATM   16  O   UNL     1       0.010   6.872 -31.897  1.00  0.00    -0.323 OA
HETATM   17  C   UNL     1      -1.221   5.526 -33.510  1.00  0.00     0.040 A 
HETATM   18  C   UNL     1      -0.179   6.943 -30.468  1.00  0.00     0.352 A 
HETATM   19  C   UNL     1      -2.250   4.590 -33.666  1.00  0.00     0.015 A 
ENDBRANCH   5  11
BRANCH  10  20
HETATM   20  N   UNL     1      -5.277   5.931 -33.038  1.00  0.00    -0.286 NA
HETATM   21  H   UNL     1      -4.690   5.977 -33.867  1.00  0.00     0.125 HD
HETATM   22  H   UNL     1      -4.738   6.015 -32.185  1.00  0.00     0.125 HD
ENDBRANCH  10  20
BRANCH   1  23
HETATM   23  C   UNL     1      -4.401  -0.656 -32.959  1.00  0.00    -0.007 A 
HETATM   24  C   UNL     1      -3.562  -1.295 -32.028  1.00  0.00     0.014 A 
HETATM   25  C   UNL     1      -3.272  -2.663 -32.121  1.00  0.00     0.007 A 
HETATM   26  C   UNL     1      -3.806  -3.432 -33.159  1.00  0.00    -0.062 A 
HETATM   27  C   UNL     1      -3.502  -4.896 -33.270  1.00  0.00     0.048 C 
HETATM   28  C   UNL     1      -4.652  -2.818 -34.084  1.00  0.00     0.007 A 
HETATM   29  C   UNL     1      -4.938  -1.452 -33.988  1.00  0.00     0.014 A 
ENDBRANCH   1  23
TORSDOF 3
ENDMDL
MODEL 5
REMARK VINA RESULT:      -8.6      4.463      6.906
REMARK  3 active torsions:
REMARK  status: ('A' for Active; 'I' for Inactive)
REMARK    1  A    between atoms: C_5  and  C_6 
REMARK    2  A    between atoms: C_10  and  C_11 
REMARK    3  A    between atoms: C_24  and  N_25 
ROOT
HETATM    1  C   UNL     1      -4.568   3.610 -32.028  1.00  0.00     0.070 A 
HETATM    2  N   UNL     1      -5.665   4.103 -31.414  1.00  0.00    -0.228 NA
HETATM    3  C   UNL     1      -6.799   3.411 -31.370  1.00  0.00     0.165 A 
HETATM    4  C   UNL     1      -6.920   2.141 -31.945  1.00  0.00     0.063 A 
HETATM    5  C   UNL     1      -5.779   1.622 -32.644  1.00  0.00    -0.006 A 
HETATM    6  C   UNL     1      -4.605   2.385 -32.671  1.00  0.00     0.046 A 
HETATM    7  N   UNL     1      -7.789   4.011 -30.730  1.00  0.00    -0.222 NA
HETATM    8  C   UNL     1      -8.944   3.362 -30.626  1.00  0.00     0.237 A 
HETATM    9  N   UNL     1      -9.192   2.141 -31.091  1.00  0.00    -0.229 NA
HETATM   10  C   UNL     1      -8.182   1.542 -31.731  1.00  0.00     0.117 A 
ENDROOT
BRANCH   5  11
HETATM   11  C   UNL     1      -5.760   0.322 -33.339  1.00  0.00    -0.022 A 
HETATM   12  C   UNL     1      -4.901  -0.710 -32.918  1.00  0.00     0.052 A 
HETATM   13  C   UNL     1      -4.912  -1.900 -33.616  1.00  0.00     0.105 A 
HETATM   14  C   UNL     1      -5.752  -2.107 -34.684  1.00  0.00     0.105 A 
HETATM   15  O   UNL     1      -4.123  -2.979 -33.361  1.00  0.00    -0.323 OA
HETATM   16  O   UNL     1      -5.599  -3.341 -35.234  1.00  0.00    -0.323 OA
HETATM   17  C   UNL     1      -6.630  -1.138 -35.112  1.00  0.00     0.040 A 
HETATM   18  C   UNL     1      -4.538  -3.874 -34.413  1.00  0.00     0.352 A 
HETATM   19  C   UNL     1      -6.629   0.085 -34.433  1.00  0.00     0.015 A 
ENDBRANCH   5  11
BRANCH  10  20
HETATM   20  N   UNL     1      -8.514   0.268 -32.187  1.00  0.00    -0.286 NA
HETATM   21  H   UNL     1      -7.854  -0.390 -31.780  1.00  0.00     0.125 HD
HETATM   22  H   UNL     1      -8.537   0.208 -33.198  1.00  0.00     0.125 HD
ENDBRANCH  10  20
BRANCH   1  23
HETATM   23  C   UNL     1      -3.355   4.451 -31.940  1.00  0.00    -0.007 A 
HETATM   24  C   UNL     1      -2.261   4.285 -32.809  1.00  0.00     0.014 A 
HETATM   25  C   UNL     1      -1.102   5.064 -32.684  1.00  0.00     0.007 A 
HETATM   26  C   UNL     1      -0.999   6.027 -31.677  1.00  0.00    -0.062 A 
HETATM   27  C   UNL     1       0.236   6.864 -31.533  1.00  0.00     0.048 C 
HETATM   28  C   UNL     1      -2.081   6.215 -30.814  1.00  0.00     0.007 A 
HETATM   29  C   UNL     1      -3.235   5.435 -30.942  1.00  0.00     0.014 A 
ENDBRANCH   1  23
TORSDOF 3
ENDMDL
MODEL 6
REMARK VINA RESULT:      -8.5      3.472      3.999
REMARK  3 active torsions:
REMARK  status: ('A' for Active; 'I' for Inactive)
REMARK    1  A    between atoms: C_5  and  C_6 
REMARK    2  A    between atoms: C_10  and  C_11 
REMARK    3  A    between atoms: C_24  and  N_25 
ROOT
HETATM    1  C   UNL     1      -5.629   0.567 -33.238  1.00  0.00     0.070 A 
HETATM    2  N   UNL     1      -4.413   1.007 -32.849  1.00  0.00    -0.228 NA
HETATM    3  C   UNL     1      -4.251   2.229 -32.350  1.00  0.00     0.165 A 
HETATM    4  C   UNL     1      -5.320   3.117 -32.194  1.00  0.00     0.063 A 
HETATM    5  C   UNL     1      -6.611   2.684 -32.647  1.00  0.00    -0.006 A 
HETATM    6  C   UNL     1      -6.738   1.391 -33.171  1.00  0.00     0.046 A 
HETATM    7  N   UNL     1      -3.009   2.525 -32.003  1.00  0.00    -0.222 NA
HETATM    8  C   UNL     1      -2.782   3.722 -31.473  1.00  0.00     0.237 A 
HETATM    9  N   UNL     1      -3.702   4.651 -31.234  1.00  0.00    -0.229 NA
HETATM   10  C   UNL     1      -4.955   4.338 -31.582  1.00  0.00     0.117 A 
ENDROOT
BRANCH   5  11
HETATM   11  C   UNL     1      -7.827   3.516 -32.591  1.00  0.00    -0.022 A 
HETATM   12  C   UNL     1      -8.697   3.451 -31.487  1.00  0.00     0.052 A 
HETATM   13  C   UNL     1      -9.829   4.239 -31.496  1.00  0.00     0.105 A 
HETATM   14  C   UNL     1     -10.109   5.096 -32.535  1.00  0.00     0.105 A 
HETATM   15  O   UNL     1     -10.786   4.270 -30.529  1.00  0.00    -0.323 OA
HETATM   16  O   UNL     1     -11.274   5.772 -32.351  1.00  0.00    -0.323 OA
HETATM   17  C   UNL     1      -9.272   5.214 -33.620  1.00  0.00     0.040 A 
HETATM   18  C   UNL     1     -11.715   5.216 -31.094  1.00  0.00     0.352 A 
HETATM   19  C   UNL     1      -8.124   4.415 -33.646  1.00  0.00     0.015 A 
ENDBRANCH   5  11
BRANCH  10  20
HETATM   20  N   UNL     1      -5.862   5.357 -31.300  1.00  0.00    -0.286 NA
HETATM   21  H   UNL     1      -6.101   5.296 -30.314  1.00  0.00     0.125 HD
HETATM   22  H   UNL     1      -6.682   5.326 -31.893  1.00  0.00     0.125 HD
ENDBRANCH  10  20
BRANCH   1  23
HETATM   23  C   UNL     1      -5.679  -0.836 -33.707  1.00  0.00    -0.007 A 
HETATM   24  C   UNL     1      -4.527  -1.635 -33.809  1.00  0.00     0.014 A 
HETATM   25  C   UNL     1      -4.587  -2.948 -34.295  1.00  0.00     0.007 A 
HETATM   26  C   UNL     1      -5.805  -3.498 -34.704  1.00  0.00    -0.062 A 
HETATM   27  C   UNL     1      -5.881  -4.901 -35.227  1.00  0.00     0.048 C 
HETATM   28  C   UNL     1      -6.961  -2.724 -34.597  1.00  0.00     0.007 A 
HETATM   29  C   UNL     1      -6.896  -1.413 -34.112  1.00  0.00     0.014 A 
ENDBRANCH   1  23
TORSDOF 3
ENDMDL
MODEL 7
REMARK VINA RESULT:      -8.3      4.849      7.977
REMARK  3 active torsions:
REMARK  status: ('A' for Active; 'I' for Inactive)
REMARK    1  A    between atoms: C_5  and  C_6 
REMARK    2  A    between atoms: C_10  and  C_11 
REMARK    3  A    between atoms: C_24  and  N_25 
ROOT
HETATM    1  C   UNL     1      -7.454   1.705 -33.002  1.00  0.00     0.070 A 
HETATM    2  N   UNL     1      -6.889   0.540 -32.620  1.00  0.00    -0.228 NA
HETATM    3  C   UNL     1      -5.646   0.500 -32.149  1.00  0.00     0.165 A 
HETATM    4  C   UNL     1      -4.863   1.652 -32.016  1.00  0.00     0.063 A 
HETATM    5  C   UNL     1      -5.430   2.892 -32.463  1.00  0.00    -0.006 A 
HETATM    6  C   UNL     1      -6.741   2.890 -32.958  1.00  0.00     0.046 A 
HETATM    7  N   UNL     1      -5.222  -0.705 -31.805  1.00  0.00    -0.222 NA
HETATM    8  C   UNL     1      -3.997  -0.811 -31.301  1.00  0.00     0.237 A 
HETATM    9  N   UNL     1      -3.157   0.196 -31.087  1.00  0.00    -0.229 NA
HETATM   10  C   UNL     1      -3.599   1.411 -31.432  1.00  0.00     0.117 A 
ENDROOT
BRANCH   5  11
HETATM   11  C   UNL     1      -4.720   4.183 -32.430  1.00  0.00    -0.022 A 
HETATM   12  C   UNL     1      -3.827   4.544 -33.456  1.00  0.00     0.052 A 
HETATM   13  C   UNL     1      -3.177   5.757 -33.365  1.00  0.00     0.105 A 
HETATM   14  C   UNL     1      -3.397   6.622 -32.319  1.00  0.00     0.105 A 
HETATM   15  O   UNL     1      -2.262   6.238 -34.250  1.00  0.00    -0.323 OA
HETATM   16  O   UNL     1      -2.651   7.754 -32.416  1.00  0.00    -0.323 OA
HETATM   17  C   UNL     1      -4.282   6.324 -31.309  1.00  0.00     0.040 A 
HETATM   18  C   UNL     1      -1.907   7.487 -33.623  1.00  0.00     0.352 A 
HETATM   19  C   UNL     1      -4.945   5.093 -31.367  1.00  0.00     0.015 A 
ENDBRANCH   5  11
BRANCH  10  20
HETATM   20  N   UNL     1      -2.667   2.414 -31.177  1.00  0.00    -0.286 NA
HETATM   21  H   UNL     1      -2.247   2.681 -32.063  1.00  0.00     0.125 HD
HETATM   22  H   UNL     1      -1.972   2.139 -30.494  1.00  0.00     0.125 HD
ENDBRANCH  10  20
BRANCH   1  23
HETATM   23  C   UNL     1      -8.865   1.616 -33.438  1.00  0.00    -0.007 A 
HETATM   24  C   UNL     1      -9.468   2.605 -34.236  1.00  0.00     0.014 A 
HETATM   25  C   UNL     1     -10.818   2.525 -34.605  1.00  0.00     0.007 A 
HETATM   26  C   UNL     1     -11.609   1.456 -34.178  1.00  0.00    -0.062 A 
HETATM   27  C   UNL     1     -13.054   1.361 -34.565  1.00  0.00     0.048 C 
HETATM   28  C   UNL     1     -11.024   0.457 -33.397  1.00  0.00     0.007 A 
HETATM   29  C   UNL     1      -9.676   0.541 -33.030  1.00  0.00     0.014 A 
ENDBRANCH   1  23
TORSDOF 3
ENDMDL
MODEL 8
REMARK VINA RESULT:      -8.2      4.718      7.768
REMARK  3 active torsions:
REMARK  status: ('A' for Active; 'I' for Inactive)
REMARK    1  A    between atoms: C_5  and  C_6 
REMARK    2  A    between atoms: C_10  and  C_11 
REMARK    3  A    between atoms: C_24  and  N_25 
ROOT
HETATM    1  C   UNL     1      -4.132   3.022 -32.577  1.00  0.00     0.070 A 
HETATM    2  N   UNL     1      -5.405   3.436 -32.749  1.00  0.00    -0.228 NA
HETATM    3  C   UNL     1      -6.393   2.566 -32.938  1.00  0.00     0.165 A 
HETATM    4  C   UNL     1      -6.173   1.184 -32.960  1.00  0.00     0.063 A 
HETATM    5  C   UNL     1      -4.819   0.728 -32.827  1.00  0.00    -0.006 A 
HETATM    6  C   UNL     1      -3.808   1.678 -32.636  1.00  0.00     0.046 A 
HETATM    7  N   UNL     1      -7.590   3.109 -33.084  1.00  0.00    -0.222 NA
HETATM    8  C   UNL     1      -8.626   2.293 -33.250  1.00  0.00     0.237 A 
HETATM    9  N   UNL     1      -8.573   0.965 -33.258  1.00  0.00    -0.229 NA
HETATM   10  C   UNL     1      -7.358   0.427 -33.102  1.00  0.00     0.117 A 
ENDROOT
BRANCH   5  11
HETATM   11  C   UNL     1      -4.419  -0.690 -32.873  1.00  0.00    -0.022 A 
HETATM   12  C   UNL     1      -4.814  -1.519 -33.939  1.00  0.00     0.052 A 
HETATM   13  C   UNL     1      -4.425  -2.843 -33.922  1.00  0.00     0.105 A 
HETATM   14  C   UNL     1      -3.648  -3.357 -32.911  1.00  0.00     0.105 A 
HETATM   15  O   UNL     1      -4.750  -3.780 -34.853  1.00  0.00    -0.323 OA
HETATM   16  O   UNL     1      -3.386  -4.680 -33.080  1.00  0.00    -0.323 OA
HETATM   17  C   UNL     1      -3.214  -2.578 -31.864  1.00  0.00     0.040 A 
HETATM   18  C   UNL     1      -4.118  -4.950 -34.294  1.00  0.00     0.352 A 
HETATM   19  C   UNL     1      -3.606  -1.234 -31.847  1.00  0.00     0.015 A 
ENDBRANCH   5  11
BRANCH  10  20
HETATM   20  N   UNL     1      -7.381  -0.966 -33.119  1.00  0.00    -0.286 NA
HETATM   21  H   UNL     1      -6.753  -1.278 -33.854  1.00  0.00     0.125 HD
HETATM   22  H   UNL     1      -8.315  -1.341 -33.232  1.00  0.00     0.125 HD
ENDBRANCH  10  20
BRANCH   1  23
HETATM   23  C   UNL     1      -3.145   4.090 -32.306  1.00  0.00    -0.007 A 
HETATM   24  C   UNL     1      -3.228   4.919 -31.174  1.00  0.00     0.014 A 
HETATM   25  C   UNL     1      -2.308   5.954 -30.954  1.00  0.00     0.007 A 
HETATM   26  C   UNL     1      -1.281   6.195 -31.870  1.00  0.00    -0.062 A 
HETATM   27  C   UNL     1      -0.292   7.300 -31.646  1.00  0.00     0.048 C 
HETATM   28  C   UNL     1      -1.174   5.373 -32.993  1.00  0.00     0.007 A 
HETATM   29  C   UNL     1      -2.095   4.342 -33.208  1.00  0.00     0.014 A 
ENDBRANCH   1  23
TORSDOF 3
ENDMDL
MODEL 9
REMARK VINA RESULT:      -8.2      3.618      5.130
REMARK  3 active torsions:
REMARK  status: ('A' for Active; 'I' for Inactive)
REMARK    1  A    between atoms: C_5  and  C_6 
REMARK    2  A    between atoms: C_10  and  C_11 
REMARK    3  A    between atoms: C_24  and  N_25 
ROOT
HETATM    1  C   UNL     1      -9.301   1.027 -33.746  1.00  0.00     0.070 A 
HETATM    2  N   UNL     1     -10.439   0.317 -33.599  1.00  0.00    -0.228 NA
HETATM    3  C   UNL     1     -11.629   0.911 -33.617  1.00  0.00     0.165 A 
HETATM    4  C   UNL     1     -11.768   2.292 -33.795  1.00  0.00     0.063 A 
HETATM    5  C   UNL     1     -10.567   3.069 -33.903  1.00  0.00    -0.006 A 
HETATM    6  C   UNL     1      -9.334   2.404 -33.875  1.00  0.00     0.046 A 
HETATM    7  N   UNL     1     -12.659   0.094 -33.471  1.00  0.00    -0.222 NA
HETATM    8  C   UNL     1     -13.878   0.620 -33.506  1.00  0.00     0.237 A 
HETATM    9  N   UNL     1     -14.163   1.904 -33.701  1.00  0.00    -0.229 NA
HETATM   10  C   UNL     1     -13.114   2.720 -33.855  1.00  0.00     0.117 A 
ENDROOT
BRANCH   5  11
HETATM   11  C   UNL     1     -10.544   4.535 -34.051  1.00  0.00    -0.022 A 
HETATM   12  C   UNL     1     -10.533   5.376 -32.923  1.00  0.00     0.052 A 
HETATM   13  C   UNL     1     -10.530   6.741 -33.120  1.00  0.00     0.105 A 
HETATM   14  C   UNL     1     -10.511   7.292 -34.380  1.00  0.00     0.105 A 
HETATM   15  O   UNL     1     -10.554   7.687 -32.143  1.00  0.00    -0.323 OA
HETATM   16  O   UNL     1     -10.519   8.651 -34.352  1.00  0.00    -0.323 OA
HETATM   17  C   UNL     1     -10.491   6.510 -35.511  1.00  0.00     0.040 A 
HETATM   18  C   UNL     1     -10.584   8.894 -32.931  1.00  0.00     0.352 A 
HETATM   19  C   UNL     1     -10.510   5.121 -35.342  1.00  0.00     0.015 A 
ENDBRANCH   5  11
BRANCH  10  20
HETATM   20  N   UNL     1     -13.489   4.046 -34.056  1.00  0.00    -0.286 NA
HETATM   21  H   UNL     1     -14.460   4.052 -34.358  1.00  0.00     0.125 HD
HETATM   22  H   UNL     1     -12.885   4.529 -34.709  1.00  0.00     0.125 HD
ENDBRANCH  10  20
BRANCH   1  23
HETATM   23  C   UNL     1      -8.053   0.233 -33.779  1.00  0.00    -0.007 A 
HETATM   24  C   UNL     1      -7.560  -0.343 -34.963  1.00  0.00     0.014 A 
HETATM   25  C   UNL     1      -6.399  -1.127 -34.969  1.00  0.00     0.007 A 
HETATM   26  C   UNL     1      -5.701  -1.369 -33.783  1.00  0.00    -0.062 A 
HETATM   27  C   UNL     1      -4.458  -2.208 -33.776  1.00  0.00     0.048 C 
HETATM   28  C   UNL     1      -6.167  -0.795 -32.599  1.00  0.00     0.007 A 
HETATM   29  C   UNL     1      -7.327  -0.012 -32.598  1.00  0.00     0.014 A 
ENDBRANCH   1  23
TORSDOF 3
ENDMDL
MODEL 10
REMARK VINA RESULT:      -8.2      1.952      2.157
REMARK  3 active torsions:
REMARK  status: ('A' for Active; 'I' for Inactive)
REMARK    1  A    between atoms: C_5  and  C_6 
REMARK    2  A    between atoms: C_10  and  C_11 
REMARK    3  A    between atoms: C_24  and  N_25 
ROOT
HETATM    1  C   UNL     1      -6.553   0.288 -33.081  1.00  0.00     0.070 A 
HETATM    2  N   UNL     1      -5.695   0.827 -32.189  1.00  0.00    -0.228 NA
HETATM    3  C   UNL     1      -5.954   1.989 -31.598  1.00  0.00     0.165 A 
HETATM    4  C   UNL     1      -7.124   2.712 -31.858  1.00  0.00     0.063 A 
HETATM    5  C   UNL     1      -8.025   2.179 -32.839  1.00  0.00    -0.006 A 
HETATM    6  C   UNL     1      -7.712   0.953 -33.442  1.00  0.00     0.046 A 
HETATM    7  N   UNL     1      -5.031   2.393 -30.741  1.00  0.00    -0.222 NA
HETATM    8  C   UNL     1      -5.241   3.536 -30.096  1.00  0.00     0.237 A 
HETATM    9  N   UNL     1      -6.317   4.307 -30.215  1.00  0.00    -0.229 NA
HETATM   10  C   UNL     1      -7.247   3.885 -31.079  1.00  0.00     0.117 A 
ENDROOT
BRANCH   5  11
HETATM   11  C   UNL     1      -9.276   2.840 -33.255  1.00  0.00    -0.022 A 
HETATM   12  C   UNL     1     -10.502   2.517 -32.645  1.00  0.00     0.052 A 
HETATM   13  C   UNL     1     -11.643   3.154 -33.086  1.00  0.00     0.105 A 
HETATM   14  C   UNL     1     -11.606   4.105 -34.079  1.00  0.00     0.105 A 
HETATM   15  O   UNL     1     -12.905   2.933 -32.629  1.00  0.00    -0.323 OA
HETATM   16  O   UNL     1     -12.837   4.601 -34.369  1.00  0.00    -0.323 OA
HETATM   17  C   UNL     1     -10.426   4.473 -34.683  1.00  0.00     0.040 A 
HETATM   18  C   UNL     1     -13.661   3.827 -33.471  1.00  0.00     0.352 A 
HETATM   19  C   UNL     1      -9.254   3.832 -34.267  1.00  0.00     0.015 A 
ENDBRANCH   5  11
BRANCH  10  20
HETATM   20  N   UNL     1      -8.344   4.740 -31.150  1.00  0.00    -0.286 NA
HETATM   21  H   UNL     1      -8.143   5.552 -30.571  1.00  0.00     0.125 HD
HETATM   22  H   UNL     1      -9.210   4.290 -30.884  1.00  0.00     0.125 HD
ENDBRANCH  10  20
BRANCH   1  23
HETATM   23  C   UNL     1      -6.176  -1.041 -33.607  1.00  0.00    -0.007 A 
HETATM   24  C   UNL     1      -7.108  -1.898 -34.221  1.00  0.00     0.014 A 
HETATM   25  C   UNL     1      -6.742  -3.172 -34.677  1.00  0.00     0.007 A 
HETATM   26  C   UNL     1      -5.432  -3.632 -34.522  1.00  0.00    -0.062 A 
HETATM   27  C   UNL     1      -5.030  -4.993 -35.003  1.00  0.00     0.048 C 
HETATM   28  C   UNL     1      -4.490  -2.790 -33.927  1.00  0.00     0.007 A 
HETATM   29  C   UNL     1      -4.860  -1.519 -33.473  1.00  0.00     0.014 A 
ENDBRANCH   1  23
TORSDOF 3
ENDMDL
