MODEL 1
REMARK VINA RESULT:      -7.9      0.000      0.000
REMARK  9 active torsions:
REMARK  status: ('A' for Active; 'I' for Inactive)
REMARK    1  A    between atoms: C_4  and  S_5 
REMARK    2  A    between atoms: S_5  and  C_6 
REMARK    3  A    between atoms: C_6  and  C_7 
REMARK       I    between atoms: C_7  and  N_8 
REMARK    4  A    between atoms: C_13  and  C_14 
REMARK    5  A    between atoms: C_14  and  C_15 
REMARK    6  A    between atoms: C_15  and  C_16 
REMARK       I    between atoms: C_16  and  N_17 
REMARK    7  A    between atoms: N_17  and  C_18 
REMARK    8  A    between atoms: C_19  and  O_20 
REMARK    9  A    between atoms: C_24  and  C_25 
ROOT
HETATM    1  C   UNL     1      -4.009   3.638 -31.854  1.00  0.00     0.108 C 
ENDROOT
BRANCH   1   2
HETATM    2  C   UNL     1      -4.887   2.511 -31.290  1.00  0.00     0.052 C 
BRANCH   2   3
HETATM    3  C   UNL     1      -5.126   1.290 -32.151  1.00  0.00    -0.009 A 
HETATM    4  C   UNL     1      -6.191   1.227 -33.055  1.00  0.00     0.042 A 
HETATM    5  C   UNL     1      -7.170   2.352 -33.240  1.00  0.00     0.071 C 
HETATM    6  N   UNL     1      -6.449   0.139 -33.812  1.00  0.00    -0.228 NA
HETATM    7  C   UNL     1      -5.625  -0.906 -33.687  1.00  0.00     0.189 A 
HETATM    8  N   UNL     1      -4.593  -0.960 -32.839  1.00  0.00    -0.228 NA
HETATM    9  C   UNL     1      -4.356   0.130 -32.074  1.00  0.00     0.042 A 
HETATM   10  C   UNL     1      -3.185  -0.014 -31.146  1.00  0.00     0.071 C 
BRANCH   7  11
HETATM   11  S   UNL     1      -5.949  -2.355 -34.657  1.00  0.00    -0.081 SA
BRANCH  11  12
HETATM   12  C   UNL     1      -4.368  -3.224 -34.405  1.00  0.00     0.185 C 
BRANCH  12  13
HETATM   13  C   UNL     1      -4.598  -4.720 -34.345  1.00  0.00     0.225 C 
HETATM   14  N   UNL     1      -3.754  -5.423 -33.530  1.00  0.00    -0.370 N 
HETATM   15  H   UNL     1      -2.847  -5.037 -33.299  1.00  0.00     0.159 HD
HETATM   16  H   UNL     1      -3.846  -6.430 -33.551  1.00  0.00     0.159 HD
HETATM   17  O   UNL     1      -5.523  -5.288 -34.918  1.00  0.00    -0.273 OA
ENDBRANCH  12  13
ENDBRANCH  11  12
ENDBRANCH   7  11
ENDBRANCH   2   3
ENDBRANCH   1   2
BRANCH   1  18
HETATM   18  C   UNL     1      -4.660   5.008 -31.834  1.00  0.00     0.222 C 
HETATM   19  N   UNL     1      -3.876   6.123 -31.895  1.00  0.00    -0.325 N 
HETATM   20  H   UNL     1      -4.384   6.947 -32.210  1.00  0.00     0.169 HD
HETATM   21  O   UNL     1      -5.884   5.145 -31.831  1.00  0.00    -0.273 OA
BRANCH  19  22
HETATM   22  C   UNL     1      -2.513   6.357 -31.623  1.00  0.00     0.069 A 
HETATM   23  C   UNL     1      -1.667   6.569 -32.727  1.00  0.00     0.095 A 
HETATM   24  C   UNL     1      -0.320   6.862 -32.514  1.00  0.00     0.039 A 
HETATM   25  C   UNL     1       0.179   6.971 -31.213  1.00  0.00     0.011 A 
HETATM   26  C   UNL     1      -0.648   6.803 -30.088  1.00  0.00    -0.048 A 
HETATM   27  C   UNL     1      -2.001   6.490 -30.325  1.00  0.00     0.040 A 
BRANCH  23  28
HETATM   28  O   UNL     1      -2.261   6.466 -33.962  1.00  0.00    -0.354 OA
HETATM   29  C   UNL     1      -1.844   5.387 -34.791  1.00  0.00     0.210 C 
ENDBRANCH  23  28
BRANCH  26  30
HETATM   30  C   UNL     1      -0.078   7.007 -28.672  1.00  0.00    -0.024 C 
HETATM   31  C   UNL     1       0.538   5.682 -28.171  1.00  0.00     0.019 C 
HETATM   32  C   UNL     1       1.028   8.083 -28.589  1.00  0.00     0.019 C 
HETATM   33  C   UNL     1      -1.204   7.438 -27.710  1.00  0.00     0.019 C 
ENDBRANCH  26  30
ENDBRANCH  19  22
ENDBRANCH   1  18
TORSDOF 9
ENDMDL
MODEL 2
REMARK VINA RESULT:      -7.8      0.819      1.762
REMARK  9 active torsions:
REMARK  status: ('A' for Active; 'I' for Inactive)
REMARK    1  A    between atoms: C_4  and  S_5 
REMARK    2  A    between atoms: S_5  and  C_6 
REMARK    3  A    between atoms: C_6  and  C_7 
REMARK       I    between atoms: C_7  and  N_8 
REMARK    4  A    between atoms: C_13  and  C_14 
REMARK    5  A    between atoms: C_14  and  C_15 
REMARK    6  A    between atoms: C_15  and  C_16 
REMARK       I    between atoms: C_16  and  N_17 
REMARK    7  A    between atoms: N_17  and  C_18 
REMARK    8  A    between atoms: C_19  and  O_20 
REMARK    9  A    between atoms: C_24  and  C_25 
ROOT
HETATM    1  C   UNL     1      -4.003   3.219 -31.512  1.00  0.00     0.108 C 
ENDROOT
BRANCH   1   2
HETATM    2  C   UNL     1      -5.058   2.270 -30.923  1.00  0.00     0.052 C 
BRANCH   2   3
HETATM    3  C   UNL     1      -5.495   1.082 -31.751  1.00  0.00    -0.009 A 
HETATM    4  C   UNL     1      -4.696  -0.060 -31.874  1.00  0.00     0.042 A 
HETATM    5  C   UNL     1      -3.359  -0.195 -31.201  1.00  0.00     0.071 C 
HETATM    6  N   UNL     1      -5.044  -1.122 -32.632  1.00  0.00    -0.228 NA
HETATM    7  C   UNL     1      -6.216  -1.064 -33.271  1.00  0.00     0.189 A 
HETATM    8  N   UNL     1      -7.044  -0.014 -33.241  1.00  0.00    -0.228 NA
HETATM    9  C   UNL     1      -6.676   1.050 -32.492  1.00  0.00     0.042 A 
HETATM   10  C   UNL     1      -7.655   2.187 -32.517  1.00  0.00     0.071 C 
BRANCH   7  11
HETATM   11  S   UNL     1      -6.692  -2.437 -34.287  1.00  0.00    -0.081 SA
BRANCH  11  12
HETATM   12  C   UNL     1      -5.042  -3.138 -34.607  1.00  0.00     0.185 C 
BRANCH  12  13
HETATM   13  C   UNL     1      -5.113  -4.651 -34.631  1.00  0.00     0.225 C 
HETATM   14  N   UNL     1      -4.209  -5.306 -33.840  1.00  0.00    -0.370 N 
HETATM   15  H   UNL     1      -3.351  -4.840 -33.571  1.00  0.00     0.159 HD
HETATM   16  H   UNL     1      -4.194  -6.314 -33.916  1.00  0.00     0.159 HD
HETATM   17  O   UNL     1      -5.965  -5.281 -35.251  1.00  0.00    -0.273 OA
ENDBRANCH  12  13
ENDBRANCH  11  12
ENDBRANCH   7  11
ENDBRANCH   2   3
ENDBRANCH   1   2
BRANCH   1  18
HETATM   18  C   UNL     1      -4.502   4.628 -31.769  1.00  0.00     0.222 C 
HETATM   19  N   UNL     1      -3.607   5.657 -31.815  1.00  0.00    -0.325 N 
HETATM   20  H   UNL     1      -3.966   6.470 -32.310  1.00  0.00     0.169 HD
HETATM   21  O   UNL     1      -5.688   4.864 -32.005  1.00  0.00    -0.273 OA
BRANCH  19  22
HETATM   22  C   UNL     1      -2.293   5.813 -31.328  1.00  0.00     0.069 A 
HETATM   23  C   UNL     1      -1.245   5.409 -32.175  1.00  0.00     0.095 A 
HETATM   24  C   UNL     1       0.076   5.594 -31.768  1.00  0.00     0.039 A 
HETATM   25  C   UNL     1       0.356   6.199 -30.539  1.00  0.00     0.011 A 
HETATM   26  C   UNL     1      -0.669   6.647 -29.687  1.00  0.00    -0.048 A 
HETATM   27  C   UNL     1      -1.996   6.436 -30.109  1.00  0.00     0.040 A 
BRANCH  23  28
HETATM   28  O   UNL     1      -1.626   4.851 -33.372  1.00  0.00    -0.354 OA
HETATM   29  C   UNL     1      -1.288   5.565 -34.554  1.00  0.00     0.210 C 
ENDBRANCH  23  28
BRANCH  26  30
HETATM   30  C   UNL     1      -0.319   7.378 -28.377  1.00  0.00    -0.024 C 
HETATM   31  C   UNL     1      -0.324   6.368 -27.209  1.00  0.00     0.019 C 
HETATM   32  C   UNL     1       1.070   8.056 -28.386  1.00  0.00     0.019 C 
HETATM   33  C   UNL     1      -1.361   8.481 -28.097  1.00  0.00     0.019 C 
ENDBRANCH  26  30
ENDBRANCH  19  22
ENDBRANCH   1  18
TORSDOF 9
ENDMDL
MODEL 3
REMARK VINA RESULT:      -7.7      3.588      8.652
REMARK  9 active torsions:
REMARK  status: ('A' for Active; 'I' for Inactive)
REMARK    1  A    between atoms: C_4  and  S_5 
REMARK    2  A    between atoms: S_5  and  C_6 
REMARK    3  A    between atoms: C_6  and  C_7 
REMARK       I    between atoms: C_7  and  N_8 
REMARK    4  A    between atoms: C_13  and  C_14 
REMARK    5  A    between atoms: C_14  and  C_15 
REMARK    6  A    between atoms: C_15  and  C_16 
REMARK       I    between atoms: C_16  and  N_17 
REMARK    7  A    between atoms: N_17  and  C_18 
REMARK    8  A    between atoms: C_19  and  O_20 
REMARK    9  A    between atoms: C_24  and  C_25 
ROOT
HETATM    1  C   UNL     1      -6.998   3.398 -31.381  1.00  0.00     0.108 C 
ENDROOT
BRANCH   1   2
HETATM    2  C   UNL     1      -5.836   3.495 -30.382  1.00  0.00     0.052 C 
BRANCH   2   3
HETATM    3  C   UNL     1      -4.538   4.114 -30.850  1.00  0.00    -0.009 A 
HETATM    4  C   UNL     1      -3.466   3.328 -31.285  1.00  0.00     0.042 A 
HETATM    5  C   UNL     1      -3.519   1.827 -31.321  1.00  0.00     0.071 C 
HETATM    6  N   UNL     1      -2.283   3.850 -31.678  1.00  0.00    -0.228 NA
HETATM    7  C   UNL     1      -2.163   5.180 -31.658  1.00  0.00     0.189 A 
HETATM    8  N   UNL     1      -3.113   6.021 -31.240  1.00  0.00    -0.228 NA
HETATM    9  C   UNL     1      -4.287   5.486 -30.832  1.00  0.00     0.042 A 
HETATM   10  C   UNL     1      -5.297   6.496 -30.374  1.00  0.00     0.071 C 
BRANCH   7  11
HETATM   11  S   UNL     1      -0.616   5.893 -32.152  1.00  0.00    -0.081 SA
BRANCH  11  12
HETATM   12  C   UNL     1      -0.077   6.547 -30.540  1.00  0.00     0.185 C 
BRANCH  12  13
HETATM   13  C   UNL     1       0.369   5.414 -29.639  1.00  0.00     0.225 C 
HETATM   14  N   UNL     1       0.032   5.531 -28.319  1.00  0.00    -0.370 N 
HETATM   15  H   UNL     1      -0.155   6.448 -27.930  1.00  0.00     0.159 HD
HETATM   16  H   UNL     1       0.399   4.823 -27.698  1.00  0.00     0.159 HD
HETATM   17  O   UNL     1       0.931   4.403 -30.048  1.00  0.00    -0.273 OA
ENDBRANCH  12  13
ENDBRANCH  11  12
ENDBRANCH   7  11
ENDBRANCH   2   3
ENDBRANCH   1   2
BRANCH   1  18
HETATM   18  C   UNL     1      -8.165   2.553 -30.906  1.00  0.00     0.222 C 
HETATM   19  N   UNL     1      -8.244   1.245 -31.287  1.00  0.00    -0.325 N 
HETATM   20  H   UNL     1      -8.838   0.691 -30.674  1.00  0.00     0.169 HD
HETATM   21  O   UNL     1      -9.013   2.996 -30.129  1.00  0.00    -0.273 OA
BRANCH  19  22
HETATM   22  C   UNL     1      -7.663   0.513 -32.342  1.00  0.00     0.069 A 
HETATM   23  C   UNL     1      -8.320   0.551 -33.586  1.00  0.00     0.095 A 
HETATM   24  C   UNL     1      -7.759  -0.108 -34.678  1.00  0.00     0.039 A 
HETATM   25  C   UNL     1      -6.540  -0.779 -34.546  1.00  0.00     0.011 A 
HETATM   26  C   UNL     1      -5.840  -0.804 -33.327  1.00  0.00    -0.048 A 
HETATM   27  C   UNL     1      -6.432  -0.147 -32.231  1.00  0.00     0.040 A 
BRANCH  23  28
HETATM   28  O   UNL     1      -9.497   1.260 -33.617  1.00  0.00    -0.354 OA
HETATM   29  C   UNL     1     -10.697   0.527 -33.400  1.00  0.00     0.210 C 
ENDBRANCH  23  28
BRANCH  26  30
HETATM   30  C   UNL     1      -4.463  -1.489 -33.241  1.00  0.00    -0.024 C 
HETATM   31  C   UNL     1      -4.477  -2.780 -34.088  1.00  0.00     0.019 C 
HETATM   32  C   UNL     1      -3.294  -0.618 -33.758  1.00  0.00     0.019 C 
HETATM   33  C   UNL     1      -4.146  -1.848 -31.774  1.00  0.00     0.019 C 
ENDBRANCH  26  30
ENDBRANCH  19  22
ENDBRANCH   1  18
TORSDOF 9
ENDMDL
MODEL 4
REMARK VINA RESULT:      -7.7      2.237      3.496
REMARK  9 active torsions:
REMARK  status: ('A' for Active; 'I' for Inactive)
REMARK    1  A    between atoms: C_4  and  S_5 
REMARK    2  A    between atoms: S_5  and  C_6 
REMARK    3  A    between atoms: C_6  and  C_7 
REMARK       I    between atoms: C_7  and  N_8 
REMARK    4  A    between atoms: C_13  and  C_14 
REMARK    5  A    between atoms: C_14  and  C_15 
REMARK    6  A    between atoms: C_15  and  C_16 
REMARK       I    between atoms: C_16  and  N_17 
REMARK    7  A    between atoms: N_17  and  C_18 
REMARK    8  A    between atoms: C_19  and  O_20 
REMARK    9  A    between atoms: C_24  and  C_25 
ROOT
HETATM    1  C   UNL     1      -6.552   3.745 -34.171  1.00  0.00     0.108 C 
ENDROOT
BRANCH   1   2
HETATM    2  C   UNL     1      -7.094   2.549 -33.375  1.00  0.00     0.052 C 
BRANCH   2   3
HETATM    3  C   UNL     1      -6.248   1.298 -33.297  1.00  0.00    -0.009 A 
HETATM    4  C   UNL     1      -6.458   0.215 -34.158  1.00  0.00     0.042 A 
HETATM    5  C   UNL     1      -7.527   0.211 -35.214  1.00  0.00     0.071 C 
HETATM    6  N   UNL     1      -5.741  -0.928 -34.091  1.00  0.00    -0.228 NA
HETATM    7  C   UNL     1      -4.782  -0.997 -33.163  1.00  0.00     0.189 A 
HETATM    8  N   UNL     1      -4.514  -0.033 -32.277  1.00  0.00    -0.228 NA
HETATM    9  C   UNL     1      -5.250   1.099 -32.343  1.00  0.00     0.042 A 
HETATM   10  C   UNL     1      -4.890   2.128 -31.311  1.00  0.00     0.071 C 
BRANCH   7  11
HETATM   11  S   UNL     1      -3.836  -2.492 -33.040  1.00  0.00    -0.081 SA
BRANCH  11  12
HETATM   12  C   UNL     1      -4.358  -3.287 -34.593  1.00  0.00     0.185 C 
BRANCH  12  13
HETATM   13  C   UNL     1      -4.634  -4.758 -34.360  1.00  0.00     0.225 C 
HETATM   14  N   UNL     1      -3.783  -5.398 -33.501  1.00  0.00    -0.370 N 
HETATM   15  H   UNL     1      -2.856  -5.022 -33.343  1.00  0.00     0.159 HD
HETATM   16  H   UNL     1      -3.908  -6.397 -33.407  1.00  0.00     0.159 HD
HETATM   17  O   UNL     1      -5.597  -5.352 -34.835  1.00  0.00    -0.273 OA
ENDBRANCH  12  13
ENDBRANCH  11  12
ENDBRANCH   7  11
ENDBRANCH   2   3
ENDBRANCH   1   2
BRANCH   1  18
HETATM   18  C   UNL     1      -7.235   5.064 -33.864  1.00  0.00     0.222 C 
HETATM   19  N   UNL     1      -6.531   6.054 -33.244  1.00  0.00    -0.325 N 
HETATM   20  H   UNL     1      -6.940   6.976 -33.382  1.00  0.00     0.169 HD
HETATM   21  O   UNL     1      -8.393   5.293 -34.217  1.00  0.00    -0.273 OA
BRANCH  19  22
HETATM   22  C   UNL     1      -5.353   6.058 -32.469  1.00  0.00     0.069 A 
HETATM   23  C   UNL     1      -5.502   5.921 -31.077  1.00  0.00     0.095 A 
HETATM   24  C   UNL     1      -4.369   5.861 -30.267  1.00  0.00     0.039 A 
HETATM   25  C   UNL     1      -3.093   5.910 -30.838  1.00  0.00     0.011 A 
HETATM   26  C   UNL     1      -2.910   6.008 -32.228  1.00  0.00    -0.048 A 
HETATM   27  C   UNL     1      -4.068   6.085 -33.026  1.00  0.00     0.040 A 
BRANCH  23  28
HETATM   28  O   UNL     1      -6.797   5.856 -30.619  1.00  0.00    -0.354 OA
HETATM   29  C   UNL     1      -7.263   6.952 -29.841  1.00  0.00     0.210 C 
ENDBRANCH  23  28
BRANCH  26  30
HETATM   30  C   UNL     1      -1.490   5.981 -32.824  1.00  0.00    -0.024 C 
HETATM   31  C   UNL     1      -0.554   5.189 -31.885  1.00  0.00     0.019 C 
HETATM   32  C   UNL     1      -1.405   5.316 -34.217  1.00  0.00     0.019 C 
HETATM   33  C   UNL     1      -0.957   7.421 -32.975  1.00  0.00     0.019 C 
ENDBRANCH  26  30
ENDBRANCH  19  22
ENDBRANCH   1  18
TORSDOF 9
ENDMDL
MODEL 5
REMARK VINA RESULT:      -7.5      4.157      9.496
REMARK  9 active torsions:
REMARK  status: ('A' for Active; 'I' for Inactive)
REMARK    1  A    between atoms: C_4  and  S_5 
REMARK    2  A    between atoms: S_5  and  C_6 
REMARK    3  A    between atoms: C_6  and  C_7 
REMARK       I    between atoms: C_7  and  N_8 
REMARK    4  A    between atoms: C_13  and  C_14 
REMARK    5  A    between atoms: C_14  and  C_15 
REMARK    6  A    between atoms: C_15  and  C_16 
REMARK       I    between atoms: C_16  and  N_17 
REMARK    7  A    between atoms: N_17  and  C_18 
REMARK    8  A    between atoms: C_19  and  O_20 
REMARK    9  A    between atoms: C_24  and  C_25 
ROOT
HETATM    1  C   UNL     1      -6.888   4.125 -33.750  1.00  0.00     0.108 C 
ENDROOT
BRANCH   1   2
HETATM    2  C   UNL     1      -5.518   3.490 -33.469  1.00  0.00     0.052 C 
BRANCH   2   3
HETATM    3  C   UNL     1      -4.415   4.375 -32.931  1.00  0.00    -0.009 A 
HETATM    4  C   UNL     1      -3.633   5.169 -33.776  1.00  0.00     0.042 A 
HETATM    5  C   UNL     1      -3.824   5.205 -35.266  1.00  0.00     0.071 C 
HETATM    6  N   UNL     1      -2.621   5.943 -33.329  1.00  0.00    -0.228 NA
HETATM    7  C   UNL     1      -2.386   5.948 -32.013  1.00  0.00     0.189 A 
HETATM    8  N   UNL     1      -3.056   5.211 -31.121  1.00  0.00    -0.228 NA
HETATM    9  C   UNL     1      -4.056   4.427 -31.584  1.00  0.00     0.042 A 
HETATM   10  C   UNL     1      -4.753   3.629 -30.521  1.00  0.00     0.071 C 
BRANCH   7  11
HETATM   11  S   UNL     1      -1.052   6.942 -31.399  1.00  0.00    -0.081 SA
BRANCH  11  12
HETATM   12  C   UNL     1      -0.653   5.987 -29.901  1.00  0.00     0.185 C 
BRANCH  12  13
HETATM   13  C   UNL     1       0.481   5.023 -30.182  1.00  0.00     0.225 C 
HETATM   14  N   UNL     1       1.015   4.392 -29.092  1.00  0.00    -0.370 N 
HETATM   15  H   UNL     1       0.918   4.810 -28.175  1.00  0.00     0.159 HD
HETATM   16  H   UNL     1       1.827   3.814 -29.262  1.00  0.00     0.159 HD
HETATM   17  O   UNL     1       0.870   4.744 -31.312  1.00  0.00    -0.273 OA
ENDBRANCH  12  13
ENDBRANCH  11  12
ENDBRANCH   7  11
ENDBRANCH   2   3
ENDBRANCH   1   2
BRANCH   1  18
HETATM   18  C   UNL     1      -7.632   4.585 -32.512  1.00  0.00     0.222 C 
HETATM   19  N   UNL     1      -8.503   3.733 -31.898  1.00  0.00    -0.325 N 
HETATM   20  H   UNL     1      -8.686   3.985 -30.930  1.00  0.00     0.169 HD
HETATM   21  O   UNL     1      -7.425   5.687 -32.002  1.00  0.00    -0.273 OA
BRANCH  19  22
HETATM   22  C   UNL     1      -9.184   2.576 -32.330  1.00  0.00     0.069 A 
HETATM   23  C   UNL     1      -8.616   1.335 -31.990  1.00  0.00     0.095 A 
HETATM   24  C   UNL     1      -9.276   0.158 -32.342  1.00  0.00     0.039 A 
HETATM   25  C   UNL     1     -10.506   0.213 -33.004  1.00  0.00     0.011 A 
HETATM   26  C   UNL     1     -11.118   1.437 -33.324  1.00  0.00    -0.048 A 
HETATM   27  C   UNL     1     -10.427   2.614 -32.976  1.00  0.00     0.040 A 
BRANCH  23  28
HETATM   28  O   UNL     1      -7.419   1.391 -31.317  1.00  0.00    -0.354 OA
HETATM   29  C   UNL     1      -6.585   0.240 -31.385  1.00  0.00     0.210 C 
ENDBRANCH  23  28
BRANCH  26  30
HETATM   30  C   UNL     1     -12.510   1.456 -33.985  1.00  0.00    -0.024 C 
HETATM   31  C   UNL     1     -13.200   0.091 -33.768  1.00  0.00     0.019 C 
HETATM   32  C   UNL     1     -13.458   2.540 -33.422  1.00  0.00     0.019 C 
HETATM   33  C   UNL     1     -12.368   1.718 -35.499  1.00  0.00     0.019 C 
ENDBRANCH  26  30
ENDBRANCH  19  22
ENDBRANCH   1  18
TORSDOF 9
ENDMDL
MODEL 6
REMARK VINA RESULT:      -7.5      4.214      8.337
REMARK  9 active torsions:
REMARK  status: ('A' for Active; 'I' for Inactive)
REMARK    1  A    between atoms: C_4  and  S_5 
REMARK    2  A    between atoms: S_5  and  C_6 
REMARK    3  A    between atoms: C_6  and  C_7 
REMARK       I    between atoms: C_7  and  N_8 
REMARK    4  A    between atoms: C_13  and  C_14 
REMARK    5  A    between atoms: C_14  and  C_15 
REMARK    6  A    between atoms: C_15  and  C_16 
REMARK       I    between atoms: C_16  and  N_17 
REMARK    7  A    between atoms: N_17  and  C_18 
REMARK    8  A    between atoms: C_19  and  O_20 
REMARK    9  A    between atoms: C_24  and  C_25 
ROOT
HETATM    1  C   UNL     1      -8.627   3.987 -31.576  1.00  0.00     0.108 C 
ENDROOT
BRANCH   1   2
HETATM    2  C   UNL     1      -7.814   4.903 -30.649  1.00  0.00     0.052 C 
BRANCH   2   3
HETATM    3  C   UNL     1      -6.400   5.256 -31.052  1.00  0.00    -0.009 A 
HETATM    4  C   UNL     1      -5.310   4.464 -30.675  1.00  0.00     0.042 A 
HETATM    5  C   UNL     1      -5.457   3.216 -29.851  1.00  0.00     0.071 C 
HETATM    6  N   UNL     1      -4.033   4.771 -30.991  1.00  0.00    -0.228 NA
HETATM    7  C   UNL     1      -3.829   5.877 -31.712  1.00  0.00     0.189 A 
HETATM    8  N   UNL     1      -4.793   6.716 -32.104  1.00  0.00    -0.228 NA
HETATM    9  C   UNL     1      -6.066   6.406 -31.766  1.00  0.00     0.042 A 
HETATM   10  C   UNL     1      -7.086   7.400 -32.239  1.00  0.00     0.071 C 
BRANCH   7  11
HETATM   11  S   UNL     1      -2.161   6.315 -32.128  1.00  0.00    -0.081 SA
BRANCH  11  12
HETATM   12  C   UNL     1      -1.746   4.886 -33.178  1.00  0.00     0.185 C 
BRANCH  12  13
HETATM   13  C   UNL     1      -1.893   5.252 -34.640  1.00  0.00     0.225 C 
HETATM   14  N   UNL     1      -3.136   5.668 -35.031  1.00  0.00    -0.370 N 
HETATM   15  H   UNL     1      -3.947   5.395 -34.490  1.00  0.00     0.159 HD
HETATM   16  H   UNL     1      -3.264   5.831 -36.021  1.00  0.00     0.159 HD
HETATM   17  O   UNL     1      -0.958   5.259 -35.435  1.00  0.00    -0.273 OA
ENDBRANCH  12  13
ENDBRANCH  11  12
ENDBRANCH   7  11
ENDBRANCH   2   3
ENDBRANCH   1   2
BRANCH   1  18
HETATM   18  C   UNL     1      -9.548   3.022 -30.854  1.00  0.00     0.222 C 
HETATM   19  N   UNL     1      -9.254   1.689 -30.853  1.00  0.00    -0.325 N 
HETATM   20  H   UNL     1      -9.708   1.185 -30.095  1.00  0.00     0.169 HD
HETATM   21  O   UNL     1     -10.522   3.414 -30.209  1.00  0.00    -0.273 OA
BRANCH  19  22
HETATM   22  C   UNL     1      -8.445   0.881 -31.678  1.00  0.00     0.069 A 
HETATM   23  C   UNL     1      -9.061   0.289 -32.796  1.00  0.00     0.095 A 
HETATM   24  C   UNL     1      -8.295  -0.474 -33.677  1.00  0.00     0.039 A 
HETATM   25  C   UNL     1      -6.922  -0.625 -33.466  1.00  0.00     0.011 A 
HETATM   26  C   UNL     1      -6.270  -0.015 -32.380  1.00  0.00    -0.048 A 
HETATM   27  C   UNL     1      -7.064   0.736 -31.492  1.00  0.00     0.040 A 
BRANCH  23  28
HETATM   28  O   UNL     1     -10.409   0.521 -32.927  1.00  0.00    -0.354 OA
HETATM   29  C   UNL     1     -10.824   1.297 -34.046  1.00  0.00     0.210 C 
ENDBRANCH  23  28
BRANCH  26  30
HETATM   30  C   UNL     1      -4.743  -0.143 -32.224  1.00  0.00    -0.024 C 
HETATM   31  C   UNL     1      -4.390  -0.285 -30.727  1.00  0.00     0.019 C 
HETATM   32  C   UNL     1      -4.137  -1.365 -32.953  1.00  0.00     0.019 C 
HETATM   33  C   UNL     1      -4.051   1.114 -32.792  1.00  0.00     0.019 C 
ENDBRANCH  26  30
ENDBRANCH  19  22
ENDBRANCH   1  18
TORSDOF 9
ENDMDL
MODEL 7
REMARK VINA RESULT:      -7.5      3.911      8.817
REMARK  9 active torsions:
REMARK  status: ('A' for Active; 'I' for Inactive)
REMARK    1  A    between atoms: C_4  and  S_5 
REMARK    2  A    between atoms: S_5  and  C_6 
REMARK    3  A    between atoms: C_6  and  C_7 
REMARK       I    between atoms: C_7  and  N_8 
REMARK    4  A    between atoms: C_13  and  C_14 
REMARK    5  A    between atoms: C_14  and  C_15 
REMARK    6  A    between atoms: C_15  and  C_16 
REMARK       I    between atoms: C_16  and  N_17 
REMARK    7  A    between atoms: N_17  and  C_18 
REMARK    8  A    between atoms: C_19  and  O_20 
REMARK    9  A    between atoms: C_24  and  C_25 
ROOT
HETATM    1  C   UNL     1      -3.380   1.705 -32.605  1.00  0.00     0.108 C 
ENDROOT
BRANCH   1   2
HETATM    2  C   UNL     1      -3.168   2.993 -31.796  1.00  0.00     0.052 C 
BRANCH   2   3
HETATM    3  C   UNL     1      -4.256   4.042 -31.821  1.00  0.00    -0.009 A 
HETATM    4  C   UNL     1      -5.371   3.964 -30.980  1.00  0.00     0.042 A 
HETATM    5  C   UNL     1      -5.572   2.845 -29.997  1.00  0.00     0.071 C 
HETATM    6  N   UNL     1      -6.375   4.868 -31.003  1.00  0.00    -0.228 NA
HETATM    7  C   UNL     1      -6.267   5.883 -31.865  1.00  0.00     0.189 A 
HETATM    8  N   UNL     1      -5.258   6.041 -32.728  1.00  0.00    -0.228 NA
HETATM    9  C   UNL     1      -4.268   5.120 -32.707  1.00  0.00     0.042 A 
HETATM   10  C   UNL     1      -3.179   5.366 -33.709  1.00  0.00     0.071 C 
BRANCH   7  11
HETATM   11  S   UNL     1      -7.578   7.076 -31.930  1.00  0.00    -0.081 SA
BRANCH  11  12
HETATM   12  C   UNL     1      -8.951   5.965 -32.374  1.00  0.00     0.185 C 
BRANCH  12  13
HETATM   13  C   UNL     1      -9.033   5.812 -33.878  1.00  0.00     0.225 C 
HETATM   14  N   UNL     1      -9.702   6.802 -34.545  1.00  0.00    -0.370 N 
HETATM   15  H   UNL     1     -10.386   7.362 -34.052  1.00  0.00     0.159 HD
HETATM   16  H   UNL     1      -9.835   6.663 -35.538  1.00  0.00     0.159 HD
HETATM   17  O   UNL     1      -8.480   4.910 -34.500  1.00  0.00    -0.273 OA
ENDBRANCH  12  13
ENDBRANCH  11  12
ENDBRANCH   7  11
ENDBRANCH   2   3
ENDBRANCH   1   2
BRANCH   1  18
HETATM   18  C   UNL     1      -3.324   0.431 -31.783  1.00  0.00     0.222 C 
HETATM   19  N   UNL     1      -4.131  -0.617 -32.115  1.00  0.00    -0.325 N 
HETATM   20  H   UNL     1      -3.798  -1.505 -31.747  1.00  0.00     0.169 HD
HETATM   21  O   UNL     1      -2.521   0.290 -30.859  1.00  0.00    -0.273 OA
BRANCH  19  22
HETATM   22  C   UNL     1      -5.317  -0.717 -32.871  1.00  0.00     0.069 A 
HETATM   23  C   UNL     1      -5.351  -1.694 -33.883  1.00  0.00     0.095 A 
HETATM   24  C   UNL     1      -6.519  -1.875 -34.623  1.00  0.00     0.039 A 
HETATM   25  C   UNL     1      -7.655  -1.110 -34.343  1.00  0.00     0.011 A 
HETATM   26  C   UNL     1      -7.666  -0.152 -33.314  1.00  0.00    -0.048 A 
HETATM   27  C   UNL     1      -6.471   0.027 -32.590  1.00  0.00     0.040 A 
BRANCH  23  28
HETATM   28  O   UNL     1      -4.192  -2.410 -34.060  1.00  0.00    -0.354 OA
HETATM   29  C   UNL     1      -4.323  -3.812 -34.261  1.00  0.00     0.210 C 
ENDBRANCH  23  28
BRANCH  26  30
HETATM   30  C   UNL     1      -8.960   0.616 -32.986  1.00  0.00    -0.024 C 
HETATM   31  C   UNL     1      -9.331   1.528 -34.176  1.00  0.00     0.019 C 
HETATM   32  C   UNL     1     -10.179  -0.294 -32.713  1.00  0.00     0.019 C 
HETATM   33  C   UNL     1      -8.750   1.484 -31.728  1.00  0.00     0.019 C 
ENDBRANCH  26  30
ENDBRANCH  19  22
ENDBRANCH   1  18
TORSDOF 9
ENDMDL
MODEL 8
REMARK VINA RESULT:      -7.5      3.909      9.161
REMARK  9 active torsions:
REMARK  status: ('A' for Active; 'I' for Inactive)
REMARK    1  A    between atoms: C_4  and  S_5 
REMARK    2  A    between atoms: S_5  and  C_6 
REMARK    3  A    between atoms: C_6  and  C_7 
REMARK       I    between atoms: C_7  and  N_8 
REMARK    4  A    between atoms: C_13  and  C_14 
REMARK    5  A    between atoms: C_14  and  C_15 
REMARK    6  A    between atoms: C_15  and  C_16 
REMARK       I    between atoms: C_16  and  N_17 
REMARK    7  A    between atoms: N_17  and  C_18 
REMARK    8  A    between atoms: C_19  and  O_20 
REMARK    9  A    between atoms: C_24  and  C_25 
ROOT
HETATM    1  C   UNL     1      -3.431   1.714 -32.471  1.00  0.00     0.108 C 
ENDROOT
BRANCH   1   2
HETATM    2  C   UNL     1      -3.256   2.952 -31.578  1.00  0.00     0.052 C 
BRANCH   2   3
HETATM    3  C   UNL     1      -4.392   3.948 -31.504  1.00  0.00    -0.009 A 
HETATM    4  C   UNL     1      -4.357   5.155 -32.209  1.00  0.00     0.042 A 
HETATM    5  C   UNL     1      -3.202   5.553 -33.085  1.00  0.00     0.071 C 
HETATM    6  N   UNL     1      -5.340   6.079 -32.136  1.00  0.00    -0.228 NA
HETATM    7  C   UNL     1      -6.392   5.795 -31.363  1.00  0.00     0.189 A 
HETATM    8  N   UNL     1      -6.517   4.684 -30.631  1.00  0.00    -0.228 NA
HETATM    9  C   UNL     1      -5.518   3.775 -30.698  1.00  0.00     0.042 A 
HETATM   10  C   UNL     1      -5.732   2.561 -29.843  1.00  0.00     0.071 C 
BRANCH   7  11
HETATM   11  S   UNL     1      -7.692   6.996 -31.235  1.00  0.00    -0.081 SA
BRANCH  11  12
HETATM   12  C   UNL     1      -7.455   7.485 -29.497  1.00  0.00     0.185 C 
BRANCH  12  13
HETATM   13  C   UNL     1      -8.564   6.915 -28.638  1.00  0.00     0.225 C 
HETATM   14  N   UNL     1      -9.282   5.889 -29.190  1.00  0.00    -0.370 N 
HETATM   15  H   UNL     1      -9.314   5.787 -30.197  1.00  0.00     0.159 HD
HETATM   16  H   UNL     1     -10.077   5.562 -28.658  1.00  0.00     0.159 HD
HETATM   17  O   UNL     1      -8.783   7.275 -27.485  1.00  0.00    -0.273 OA
ENDBRANCH  12  13
ENDBRANCH  11  12
ENDBRANCH   7  11
ENDBRANCH   2   3
ENDBRANCH   1   2
BRANCH   1  18
HETATM   18  C   UNL     1      -3.343   0.392 -31.733  1.00  0.00     0.222 C 
HETATM   19  N   UNL     1      -4.130  -0.650 -32.128  1.00  0.00    -0.325 N 
HETATM   20  H   UNL     1      -3.776  -1.552 -31.820  1.00  0.00     0.169 HD
HETATM   21  O   UNL     1      -2.532   0.209 -30.824  1.00  0.00    -0.273 OA
BRANCH  19  22
HETATM   22  C   UNL     1      -5.318  -0.727 -32.883  1.00  0.00     0.069 A 
HETATM   23  C   UNL     1      -5.359  -1.679 -33.918  1.00  0.00     0.095 A 
HETATM   24  C   UNL     1      -6.529  -1.838 -34.660  1.00  0.00     0.039 A 
HETATM   25  C   UNL     1      -7.661  -1.075 -34.359  1.00  0.00     0.011 A 
HETATM   26  C   UNL     1      -7.665  -0.142 -33.308  1.00  0.00    -0.048 A 
HETATM   27  C   UNL     1      -6.468   0.015 -32.582  1.00  0.00     0.040 A 
BRANCH  23  28
HETATM   28  O   UNL     1      -4.202  -2.396 -34.115  1.00  0.00    -0.354 OA
HETATM   29  C   UNL     1      -4.337  -3.801 -34.295  1.00  0.00     0.210 C 
ENDBRANCH  23  28
BRANCH  26  30
HETATM   30  C   UNL     1      -8.955   0.624 -32.959  1.00  0.00    -0.024 C 
HETATM   31  C   UNL     1      -9.289   1.611 -34.099  1.00  0.00     0.019 C 
HETATM   32  C   UNL     1     -10.192  -0.283 -32.765  1.00  0.00     0.019 C 
HETATM   33  C   UNL     1      -8.759   1.412 -31.647  1.00  0.00     0.019 C 
ENDBRANCH  26  30
ENDBRANCH  19  22
ENDBRANCH   1  18
TORSDOF 9
ENDMDL
MODEL 9
REMARK VINA RESULT:      -7.4      1.796      2.706
REMARK  9 active torsions:
REMARK  status: ('A' for Active; 'I' for Inactive)
REMARK    1  A    between atoms: C_4  and  S_5 
REMARK    2  A    between atoms: S_5  and  C_6 
REMARK    3  A    between atoms: C_6  and  C_7 
REMARK       I    between atoms: C_7  and  N_8 
REMARK    4  A    between atoms: C_13  and  C_14 
REMARK    5  A    between atoms: C_14  and  C_15 
REMARK    6  A    between atoms: C_15  and  C_16 
REMARK       I    between atoms: C_16  and  N_17 
REMARK    7  A    between atoms: N_17  and  C_18 
REMARK    8  A    between atoms: C_19  and  O_20 
REMARK    9  A    between atoms: C_24  and  C_25 
ROOT
HETATM    1  C   UNL     1      -4.910   6.007 -31.197  1.00  0.00     0.108 C 
ENDROOT
BRANCH   1   2
HETATM    2  C   UNL     1      -4.731   5.149 -32.458  1.00  0.00     0.052 C 
BRANCH   2   3
HETATM    3  C   UNL     1      -4.569   3.655 -32.291  1.00  0.00    -0.009 A 
HETATM    4  C   UNL     1      -3.389   3.096 -31.790  1.00  0.00     0.042 A 
HETATM    5  C   UNL     1      -2.204   3.926 -31.384  1.00  0.00     0.071 C 
HETATM    6  N   UNL     1      -3.203   1.764 -31.661  1.00  0.00    -0.228 NA
HETATM    7  C   UNL     1      -4.213   0.966 -32.017  1.00  0.00     0.189 A 
HETATM    8  N   UNL     1      -5.372   1.392 -32.528  1.00  0.00    -0.228 NA
HETATM    9  C   UNL     1      -5.540   2.727 -32.669  1.00  0.00     0.042 A 
HETATM   10  C   UNL     1      -6.864   3.122 -33.253  1.00  0.00     0.071 C 
BRANCH   7  11
HETATM   11  S   UNL     1      -3.991  -0.788 -31.874  1.00  0.00    -0.081 SA
BRANCH  11  12
HETATM   12  C   UNL     1      -3.948  -1.214 -33.644  1.00  0.00     0.185 C 
BRANCH  12  13
HETATM   13  C   UNL     1      -5.222  -1.933 -34.040  1.00  0.00     0.225 C 
HETATM   14  N   UNL     1      -6.376  -1.455 -33.483  1.00  0.00    -0.370 N 
HETATM   15  H   UNL     1      -6.335  -0.932 -32.617  1.00  0.00     0.159 HD
HETATM   16  H   UNL     1      -7.218  -1.982 -33.675  1.00  0.00     0.159 HD
HETATM   17  O   UNL     1      -5.260  -2.841 -34.865  1.00  0.00    -0.273 OA
ENDBRANCH  12  13
ENDBRANCH  11  12
ENDBRANCH   7  11
ENDBRANCH   2   3
ENDBRANCH   1   2
BRANCH   1  18
HETATM   18  C   UNL     1      -4.822   7.502 -31.438  1.00  0.00     0.222 C 
HETATM   19  N   UNL     1      -3.598   8.087 -31.580  1.00  0.00    -0.325 N 
HETATM   20  H   UNL     1      -3.642   8.984 -32.059  1.00  0.00     0.169 HD
HETATM   21  O   UNL     1      -5.830   8.198 -31.574  1.00  0.00    -0.273 OA
BRANCH  19  22
HETATM   22  C   UNL     1      -2.295   7.694 -31.213  1.00  0.00     0.069 A 
HETATM   23  C   UNL     1      -1.427   7.303 -32.249  1.00  0.00     0.095 A 
HETATM   24  C   UNL     1      -0.110   6.960 -31.949  1.00  0.00     0.039 A 
HETATM   25  C   UNL     1       0.353   7.030 -30.631  1.00  0.00     0.011 A 
HETATM   26  C   UNL     1      -0.478   7.452 -29.579  1.00  0.00    -0.048 A 
HETATM   27  C   UNL     1      -1.810   7.778 -29.901  1.00  0.00     0.040 A 
BRANCH  23  28
HETATM   28  O   UNL     1      -1.972   7.295 -33.511  1.00  0.00    -0.354 OA
HETATM   29  C   UNL     1      -1.645   6.191 -34.348  1.00  0.00     0.210 C 
ENDBRANCH  23  28
BRANCH  26  30
HETATM   30  C   UNL     1       0.090   7.589 -28.154  1.00  0.00    -0.024 C 
HETATM   31  C   UNL     1       0.404   6.186 -27.589  1.00  0.00     0.019 C 
HETATM   32  C   UNL     1       1.395   8.414 -28.073  1.00  0.00     0.019 C 
HETATM   33  C   UNL     1      -0.943   8.283 -27.241  1.00  0.00     0.019 C 
ENDBRANCH  26  30
ENDBRANCH  19  22
ENDBRANCH   1  18
TORSDOF 9
ENDMDL
MODEL 10
REMARK VINA RESULT:      -7.4     17.018     20.014
REMARK  9 active torsions:
REMARK  status: ('A' for Active; 'I' for Inactive)
REMARK    1  A    between atoms: C_4  and  S_5 
REMARK    2  A    between atoms: S_5  and  C_6 
REMARK    3  A    between atoms: C_6  and  C_7 
REMARK       I    between atoms: C_7  and  N_8 
REMARK    4  A    between atoms: C_13  and  C_14 
REMARK    5  A    between atoms: C_14  and  C_15 
REMARK    6  A    between atoms: C_15  and  C_16 
REMARK       I    between atoms: C_16  and  N_17 
REMARK    7  A    between atoms: N_17  and  C_18 
REMARK    8  A    between atoms: C_19  and  O_20 
REMARK    9  A    between atoms: C_24  and  C_25 
ROOT
HETATM    1  C   UNL     1      -0.455 -14.250 -40.216  1.00  0.00     0.108 C 
ENDROOT
BRANCH   1   2
HETATM    2  C   UNL     1      -0.084 -14.070 -38.737  1.00  0.00     0.052 C 
BRANCH   2   3
HETATM    3  C   UNL     1      -1.128 -14.395 -37.692  1.00  0.00    -0.009 A 
HETATM    4  C   UNL     1      -2.214 -13.547 -37.450  1.00  0.00     0.042 A 
HETATM    5  C   UNL     1      -2.426 -12.263 -38.200  1.00  0.00     0.071 C 
HETATM    6  N   UNL     1      -3.143 -13.795 -36.501  1.00  0.00    -0.228 NA
HETATM    7  C   UNL     1      -3.007 -14.915 -35.786  1.00  0.00     0.189 A 
HETATM    8  N   UNL     1      -1.998 -15.781 -35.919  1.00  0.00    -0.228 NA
HETATM    9  C   UNL     1      -1.064 -15.513 -36.860  1.00  0.00     0.042 A 
HETATM   10  C   UNL     1       0.037 -16.530 -36.941  1.00  0.00     0.071 C 
BRANCH   7  11
HETATM   11  S   UNL     1      -4.203 -15.258 -34.522  1.00  0.00    -0.081 SA
BRANCH  11  12
HETATM   12  C   UNL     1      -5.677 -14.555 -35.327  1.00  0.00     0.185 C 
BRANCH  12  13
HETATM   13  C   UNL     1      -6.180 -13.359 -34.545  1.00  0.00     0.225 C 
HETATM   14  N   UNL     1      -5.241 -12.420 -34.218  1.00  0.00    -0.370 N 
HETATM   15  H   UNL     1      -4.264 -12.684 -34.173  1.00  0.00     0.159 HD
HETATM   16  H   UNL     1      -5.552 -11.663 -33.624  1.00  0.00     0.159 HD
HETATM   17  O   UNL     1      -7.362 -13.176 -34.272  1.00  0.00    -0.273 OA
ENDBRANCH  12  13
ENDBRANCH  11  12
ENDBRANCH   7  11
ENDBRANCH   2   3
ENDBRANCH   1   2
BRANCH   1  18
HETATM   18  C   UNL     1      -0.717 -15.687 -40.626  1.00  0.00     0.222 C 
HETATM   19  N   UNL     1      -1.739 -15.963 -41.487  1.00  0.00    -0.325 N 
HETATM   20  H   UNL     1      -1.631 -16.860 -41.954  1.00  0.00     0.169 HD
HETATM   21  O   UNL     1       0.009 -16.610 -40.254  1.00  0.00    -0.273 OA
BRANCH  19  22
HETATM   22  C   UNL     1      -2.897 -15.254 -41.865  1.00  0.00     0.069 A 
HETATM   23  C   UNL     1      -3.328 -15.394 -43.197  1.00  0.00     0.095 A 
HETATM   24  C   UNL     1      -4.500 -14.761 -43.610  1.00  0.00     0.039 A 
HETATM   25  C   UNL     1      -5.255 -14.015 -42.700  1.00  0.00     0.011 A 
HETATM   26  C   UNL     1      -4.872 -13.887 -41.353  1.00  0.00    -0.048 A 
HETATM   27  C   UNL     1      -3.676 -14.519 -40.961  1.00  0.00     0.040 A 
BRANCH  23  28
HETATM   28  O   UNL     1      -2.530 -16.170 -44.003  1.00  0.00    -0.354 OA
HETATM   29  C   UNL     1      -2.954 -16.351 -45.349  1.00  0.00     0.210 C 
ENDBRANCH  23  28
BRANCH  26  30
HETATM   30  C   UNL     1      -5.770 -13.121 -40.364  1.00  0.00    -0.024 C 
HETATM   31  C   UNL     1      -7.222 -13.111 -40.891  1.00  0.00     0.019 C 
HETATM   32  C   UNL     1      -5.806 -13.731 -38.944  1.00  0.00     0.019 C 
HETATM   33  C   UNL     1      -5.273 -11.667 -40.221  1.00  0.00     0.019 C 
ENDBRANCH  26  30
ENDBRANCH  19  22
ENDBRANCH   1  18
TORSDOF 9
ENDMDL
