MODEL 1
REMARK VINA RESULT:      -7.0      0.000      0.000
REMARK  11 active torsions:
REMARK  status: ('A' for Active; 'I' for Inactive)
REMARK    1  A    between atoms: C_5  and  C_6 
REMARK    2  A    between atoms: C_6  and  N_7 
REMARK    3  A    between atoms: N_7  and  C_10 
REMARK    4  A    between atoms: C_10  and  C_11 
REMARK    5  A    between atoms: C_13  and  O_14 
REMARK    6  A    between atoms: C_16  and  O_17 
REMARK    7  A    between atoms: O_17  and  C_18 
REMARK    8  A    between atoms: C_18  and  C_19 
REMARK    9  A    between atoms: C_19  and  O_20 
REMARK   10  A    between atoms: C_19  and  C_21 
REMARK   11  A    between atoms: C_21  and  N_22 
ROOT
HETATM    1  C   UNL     1      -6.368   2.215 -33.015  1.00  0.00    -0.030 A 
HETATM    2  C   UNL     1      -5.341   1.622 -32.261  1.00  0.00     0.048 A 
HETATM    3  C   UNL     1      -4.091   2.246 -32.134  1.00  0.00     0.102 A 
HETATM    4  C   UNL     1      -3.858   3.481 -32.769  1.00  0.00     0.102 A 
HETATM    5  C   UNL     1      -4.866   4.056 -33.546  1.00  0.00     0.040 A 
HETATM    6  C   UNL     1      -6.111   3.431 -33.665  1.00  0.00     0.012 A 
ENDROOT
BRANCH   4   7
HETATM    7  O   UNL     1      -2.615   4.032 -32.581  1.00  0.00    -0.346 OA
BRANCH   7   8
HETATM    8  C   UNL     1      -1.994   4.685 -33.689  1.00  0.00     0.209 C 
BRANCH   8   9
HETATM    9  C   UNL     1      -1.257   5.907 -33.126  1.00  0.00     0.168 C 
BRANCH   9  10
HETATM   10  O   UNL     1      -1.022   6.885 -34.158  1.00  0.00    -0.392 OA
HETATM   11  H   UNL     1      -0.113   7.228 -34.003  1.00  0.00     0.210 HD
ENDBRANCH   9  10
BRANCH   9  12
HETATM   12  C   UNL     1      -2.065   6.605 -32.022  1.00  0.00     0.268 C 
BRANCH  12  13
HETATM   13  N   UNL     1      -1.440   6.268 -30.668  1.00  0.00    -0.067 N 
HETATM   14  H   UNL     1      -2.023   5.478 -30.331  1.00  0.00     0.280 HD
HETATM   15  C   UNL     1      -0.012   5.767 -30.809  1.00  0.00     0.245 C 
HETATM   16  C   UNL     1       0.528   5.201 -29.497  1.00  0.00     0.101 C 
HETATM   17  S   UNL     1       0.567   6.451 -28.180  1.00  0.00    -0.166 SA
HETATM   18  C   UNL     1      -1.172   6.968 -28.256  1.00  0.00     0.101 C 
HETATM   19  C   UNL     1      -1.574   7.403 -29.665  1.00  0.00     0.245 C 
ENDBRANCH  12  13
ENDBRANCH   9  12
ENDBRANCH   8   9
ENDBRANCH   7   8
ENDBRANCH   4   7
BRANCH   3  20
HETATM   20  O   UNL     1      -3.040   1.746 -31.406  1.00  0.00    -0.353 OA
HETATM   21  C   UNL     1      -3.036   0.358 -31.098  1.00  0.00     0.210 C 
ENDBRANCH   3  20
BRANCH   1  22
HETATM   22  C   UNL     1      -7.714   1.554 -33.142  1.00  0.00     0.271 C 
BRANCH  22  23
HETATM   23  N   UNL     1      -7.597   0.084 -33.215  1.00  0.00    -0.066 N 
HETATM   24  H   UNL     1      -8.442  -0.378 -32.858  1.00  0.00     0.277 HD
HETATM   25  H   UNL     1      -6.861  -0.269 -32.581  1.00  0.00     0.277 HD
BRANCH  23  26
HETATM   26  C   UNL     1      -7.266  -0.493 -34.562  1.00  0.00     0.293 C 
BRANCH  26  27
HETATM   27  C   UNL     1      -6.266  -1.606 -34.418  1.00  0.00     0.077 A 
HETATM   28  C   UNL     1      -5.033  -1.400 -33.823  1.00  0.00     0.145 A 
HETATM   29  N   UNL     1      -4.139  -2.399 -33.668  1.00  0.00    -0.262 NA
HETATM   30  C   UNL     1      -4.504  -3.624 -34.119  1.00  0.00     0.048 A 
HETATM   31  C   UNL     1      -3.530  -4.750 -33.967  1.00  0.00     0.072 C 
HETATM   32  C   UNL     1      -5.744  -3.827 -34.713  1.00  0.00     0.143 A 
HETATM   33  N   UNL     1      -6.659  -2.833 -34.873  1.00  0.00    -0.260 NA
ENDBRANCH  26  27
ENDBRANCH  23  26
ENDBRANCH  22  23
ENDBRANCH   1  22
TORSDOF 11
ENDMDL
MODEL 2
REMARK VINA RESULT:      -6.9      2.152      3.735
REMARK  11 active torsions:
REMARK  status: ('A' for Active; 'I' for Inactive)
REMARK    1  A    between atoms: C_5  and  C_6 
REMARK    2  A    between atoms: C_6  and  N_7 
REMARK    3  A    between atoms: N_7  and  C_10 
REMARK    4  A    between atoms: C_10  and  C_11 
REMARK    5  A    between atoms: C_13  and  O_14 
REMARK    6  A    between atoms: C_16  and  O_17 
REMARK    7  A    between atoms: O_17  and  C_18 
REMARK    8  A    between atoms: C_18  and  C_19 
REMARK    9  A    between atoms: C_19  and  O_20 
REMARK   10  A    between atoms: C_19  and  C_21 
REMARK   11  A    between atoms: C_21  and  N_22 
ROOT
HETATM    1  C   UNL     1      -3.944   4.070 -32.557  1.00  0.00    -0.030 A 
HETATM    2  C   UNL     1      -4.079   4.911 -31.439  1.00  0.00     0.048 A 
HETATM    3  C   UNL     1      -3.010   5.713 -31.012  1.00  0.00     0.102 A 
HETATM    4  C   UNL     1      -1.786   5.678 -31.708  1.00  0.00     0.102 A 
HETATM    5  C   UNL     1      -1.640   4.819 -32.799  1.00  0.00     0.040 A 
HETATM    6  C   UNL     1      -2.710   4.025 -33.223  1.00  0.00     0.012 A 
ENDROOT
BRANCH   4   7
HETATM    7  O   UNL     1      -0.799   6.505 -31.234  1.00  0.00    -0.346 OA
BRANCH   7   8
HETATM    8  C   UNL     1       0.471   5.929 -30.924  1.00  0.00     0.209 C 
BRANCH   8   9
HETATM    9  C   UNL     1       0.302   5.168 -29.603  1.00  0.00     0.168 C 
BRANCH   9  10
HETATM   10  O   UNL     1       1.155   4.008 -29.566  1.00  0.00    -0.392 OA
HETATM   11  H   UNL     1       0.849   3.424 -30.296  1.00  0.00     0.210 HD
ENDBRANCH   9  10
BRANCH   9  12
HETATM   12  C   UNL     1       0.673   6.037 -28.391  1.00  0.00     0.268 C 
BRANCH  12  13
HETATM   13  N   UNL     1      -0.556   6.842 -27.970  1.00  0.00    -0.067 N 
HETATM   14  H   UNL     1      -1.291   6.509 -28.626  1.00  0.00     0.280 HD
HETATM   15  C   UNL     1      -1.004   6.500 -26.558  1.00  0.00     0.245 C 
HETATM   16  C   UNL     1      -2.364   7.113 -26.225  1.00  0.00     0.101 C 
HETATM   17  S   UNL     1      -2.334   8.927 -26.313  1.00  0.00    -0.166 SA
HETATM   18  C   UNL     1      -1.691   9.098 -28.003  1.00  0.00     0.101 C 
HETATM   19  C   UNL     1      -0.380   8.336 -28.192  1.00  0.00     0.245 C 
ENDBRANCH  12  13
ENDBRANCH   9  12
ENDBRANCH   8   9
ENDBRANCH   7   8
ENDBRANCH   4   7
BRANCH   3  20
HETATM   20  O   UNL     1      -3.059   6.572 -29.942  1.00  0.00    -0.353 OA
HETATM   21  C   UNL     1      -4.315   6.788 -29.310  1.00  0.00     0.210 C 
ENDBRANCH   3  20
BRANCH   1  22
HETATM   22  C   UNL     1      -5.092   3.218 -33.026  1.00  0.00     0.271 C 
BRANCH  22  23
HETATM   23  N   UNL     1      -5.367   2.108 -32.093  1.00  0.00    -0.066 N 
HETATM   24  H   UNL     1      -6.314   1.732 -32.225  1.00  0.00     0.277 HD
HETATM   25  H   UNL     1      -5.389   2.435 -31.112  1.00  0.00     0.277 HD
BRANCH  23  26
HETATM   26  C   UNL     1      -4.390   0.968 -32.105  1.00  0.00     0.293 C 
BRANCH  26  27
HETATM   27  C   UNL     1      -4.977  -0.211 -32.829  1.00  0.00     0.077 A 
HETATM   28  C   UNL     1      -6.346  -0.410 -32.902  1.00  0.00     0.145 A 
HETATM   29  N   UNL     1      -6.881  -1.452 -33.571  1.00  0.00    -0.262 NA
HETATM   30  C   UNL     1      -6.017  -2.300 -34.178  1.00  0.00     0.048 A 
HETATM   31  C   UNL     1      -6.581  -3.470 -34.923  1.00  0.00     0.072 C 
HETATM   32  C   UNL     1      -4.644  -2.096 -34.106  1.00  0.00     0.143 A 
HETATM   33  N   UNL     1      -4.087  -1.049 -33.440  1.00  0.00    -0.260 NA
ENDBRANCH  26  27
ENDBRANCH  23  26
ENDBRANCH  22  23
ENDBRANCH   1  22
TORSDOF 11
ENDMDL
MODEL 3
REMARK VINA RESULT:      -6.9      4.403      8.855
REMARK  11 active torsions:
REMARK  status: ('A' for Active; 'I' for Inactive)
REMARK    1  A    between atoms: C_5  and  C_6 
REMARK    2  A    between atoms: C_6  and  N_7 
REMARK    3  A    between atoms: N_7  and  C_10 
REMARK    4  A    between atoms: C_10  and  C_11 
REMARK    5  A    between atoms: C_13  and  O_14 
REMARK    6  A    between atoms: C_16  and  O_17 
REMARK    7  A    between atoms: O_17  and  C_18 
REMARK    8  A    between atoms: C_18  and  C_19 
REMARK    9  A    between atoms: C_19  and  O_20 
REMARK   10  A    between atoms: C_19  and  C_21 
REMARK   11  A    between atoms: C_21  and  N_22 
ROOT
HETATM    1  C   UNL     1      -0.572   7.382 -29.374  1.00  0.00    -0.030 A 
HETATM    2  C   UNL     1      -1.629   8.199 -29.811  1.00  0.00     0.048 A 
HETATM    3  C   UNL     1      -1.917   8.329 -31.178  1.00  0.00     0.102 A 
HETATM    4  C   UNL     1      -1.139   7.636 -32.126  1.00  0.00     0.102 A 
HETATM    5  C   UNL     1      -0.069   6.849 -31.696  1.00  0.00     0.040 A 
HETATM    6  C   UNL     1       0.210   6.720 -30.332  1.00  0.00     0.012 A 
ENDROOT
BRANCH   4   7
HETATM    7  O   UNL     1      -1.499   7.805 -33.440  1.00  0.00    -0.346 OA
BRANCH   7   8
HETATM    8  C   UNL     1      -1.463   6.664 -34.299  1.00  0.00     0.209 C 
BRANCH   8   9
HETATM    9  C   UNL     1      -2.780   5.908 -34.087  1.00  0.00     0.168 C 
BRANCH   9  10
HETATM   10  O   UNL     1      -3.522   5.813 -35.319  1.00  0.00    -0.392 OA
HETATM   11  H   UNL     1      -4.434   5.547 -35.064  1.00  0.00     0.210 HD
ENDBRANCH   9  10
BRANCH   9  12
HETATM   12  C   UNL     1      -2.542   4.472 -33.594  1.00  0.00     0.268 C 
BRANCH  12  13
HETATM   13  N   UNL     1      -3.268   4.284 -32.263  1.00  0.00    -0.067 N 
HETATM   14  H   UNL     1      -2.489   4.232 -31.577  1.00  0.00     0.280 HD
HETATM   15  C   UNL     1      -4.124   5.487 -31.905  1.00  0.00     0.245 C 
HETATM   16  C   UNL     1      -4.652   5.410 -30.473  1.00  0.00     0.101 C 
HETATM   17  S   UNL     1      -5.706   3.954 -30.212  1.00  0.00    -0.166 SA
HETATM   18  C   UNL     1      -4.543   2.682 -30.783  1.00  0.00     0.101 C 
HETATM   19  C   UNL     1      -4.032   2.970 -32.194  1.00  0.00     0.245 C 
ENDBRANCH  12  13
ENDBRANCH   9  12
ENDBRANCH   8   9
ENDBRANCH   7   8
ENDBRANCH   4   7
BRANCH   3  20
HETATM   20  O   UNL     1      -2.936   9.091 -31.691  1.00  0.00    -0.353 OA
HETATM   21  C   UNL     1      -4.168   9.134 -30.980  1.00  0.00     0.210 C 
ENDBRANCH   3  20
BRANCH   1  22
HETATM   22  C   UNL     1      -0.269   7.230 -27.908  1.00  0.00     0.271 C 
BRANCH  22  23
HETATM   23  N   UNL     1      -1.220   6.317 -27.244  1.00  0.00    -0.066 N 
HETATM   24  H   UNL     1      -0.755   5.460 -26.922  1.00  0.00     0.277 HD
HETATM   25  H   UNL     1      -1.925   5.956 -27.909  1.00  0.00     0.277 HD
BRANCH  23  26
HETATM   26  C   UNL     1      -2.014   6.891 -26.105  1.00  0.00     0.293 C 
BRANCH  26  27
HETATM   27  C   UNL     1      -3.356   7.360 -26.592  1.00  0.00     0.077 A 
HETATM   28  C   UNL     1      -4.396   6.473 -26.819  1.00  0.00     0.145 A 
HETATM   29  N   UNL     1      -5.611   6.888 -27.232  1.00  0.00    -0.262 NA
HETATM   30  C   UNL     1      -5.775   8.221 -27.411  1.00  0.00     0.048 A 
HETATM   31  C   UNL     1      -7.112   8.711 -27.876  1.00  0.00     0.072 C 
HETATM   32  C   UNL     1      -4.731   9.108 -27.178  1.00  0.00     0.143 A 
HETATM   33  N   UNL     1      -3.501   8.708 -26.758  1.00  0.00    -0.260 NA
ENDBRANCH  26  27
ENDBRANCH  23  26
ENDBRANCH  22  23
ENDBRANCH   1  22
TORSDOF 11
ENDMDL
MODEL 4
REMARK VINA RESULT:      -6.8      1.699      2.821
REMARK  11 active torsions:
REMARK  status: ('A' for Active; 'I' for Inactive)
REMARK    1  A    between atoms: C_5  and  C_6 
REMARK    2  A    between atoms: C_6  and  N_7 
REMARK    3  A    between atoms: N_7  and  C_10 
REMARK    4  A    between atoms: C_10  and  C_11 
REMARK    5  A    between atoms: C_13  and  O_14 
REMARK    6  A    between atoms: C_16  and  O_17 
REMARK    7  A    between atoms: O_17  and  C_18 
REMARK    8  A    between atoms: C_18  and  C_19 
REMARK    9  A    between atoms: C_19  and  O_20 
REMARK   10  A    between atoms: C_19  and  C_21 
REMARK   11  A    between atoms: C_21  and  N_22 
ROOT
HETATM    1  C   UNL     1      -5.594   4.088 -33.582  1.00  0.00    -0.030 A 
HETATM    2  C   UNL     1      -4.960   3.223 -32.674  1.00  0.00     0.048 A 
HETATM    3  C   UNL     1      -3.582   3.324 -32.430  1.00  0.00     0.102 A 
HETATM    4  C   UNL     1      -2.822   4.301 -33.101  1.00  0.00     0.102 A 
HETATM    5  C   UNL     1      -3.445   5.140 -34.028  1.00  0.00     0.040 A 
HETATM    6  C   UNL     1      -4.819   5.038 -34.263  1.00  0.00     0.012 A 
ENDROOT
BRANCH   4   7
HETATM    7  O   UNL     1      -1.486   4.343 -32.793  1.00  0.00    -0.346 OA
BRANCH   7   8
HETATM    8  C   UNL     1      -0.938   5.582 -32.339  1.00  0.00     0.209 C 
BRANCH   8   9
HETATM    9  C   UNL     1      -0.885   5.509 -30.808  1.00  0.00     0.168 C 
BRANCH   9  10
HETATM   10  O   UNL     1      -0.608   4.165 -30.368  1.00  0.00    -0.392 OA
HETATM   11  H   UNL     1      -0.245   4.248 -29.458  1.00  0.00     0.210 HD
ENDBRANCH   9  10
BRANCH   9  12
HETATM   12  C   UNL     1       0.220   6.406 -30.230  1.00  0.00     0.268 C 
BRANCH  12  13
HETATM   13  N   UNL     1      -0.275   7.011 -28.917  1.00  0.00    -0.067 N 
HETATM   14  H   UNL     1       0.153   7.958 -28.918  1.00  0.00     0.280 HD
HETATM   15  C   UNL     1      -1.785   7.182 -28.903  1.00  0.00     0.245 C 
HETATM   16  C   UNL     1      -2.257   8.005 -27.705  1.00  0.00     0.101 C 
HETATM   17  S   UNL     1      -1.830   7.217 -26.125  1.00  0.00    -0.166 SA
HETATM   18  C   UNL     1      -0.046   7.022 -26.401  1.00  0.00     0.101 C 
HETATM   19  C   UNL     1       0.250   6.269 -27.698  1.00  0.00     0.245 C 
ENDBRANCH  12  13
ENDBRANCH   9  12
ENDBRANCH   8   9
ENDBRANCH   7   8
ENDBRANCH   4   7
BRANCH   3  20
HETATM   20  O   UNL     1      -2.886   2.532 -31.551  1.00  0.00    -0.353 OA
HETATM   21  C   UNL     1      -3.407   1.243 -31.250  1.00  0.00     0.210 C 
ENDBRANCH   3  20
BRANCH   1  22
HETATM   22  C   UNL     1      -7.075   3.991 -33.836  1.00  0.00     0.271 C 
BRANCH  22  23
HETATM   23  N   UNL     1      -7.765   3.240 -32.769  1.00  0.00    -0.066 N 
HETATM   24  H   UNL     1      -8.280   3.869 -32.140  1.00  0.00     0.277 HD
HETATM   25  H   UNL     1      -7.091   2.784 -32.131  1.00  0.00     0.277 HD
BRANCH  23  26
HETATM   26  C   UNL     1      -8.689   2.143 -33.215  1.00  0.00     0.293 C 
BRANCH  26  27
HETATM   27  C   UNL     1      -7.902   0.913 -33.568  1.00  0.00     0.077 A 
HETATM   28  C   UNL     1      -7.902   0.396 -34.854  1.00  0.00     0.145 A 
HETATM   29  N   UNL     1      -7.179  -0.693 -35.186  1.00  0.00    -0.262 NA
HETATM   30  C   UNL     1      -6.443  -1.264 -34.201  1.00  0.00     0.048 A 
HETATM   31  C   UNL     1      -5.636  -2.479 -34.537  1.00  0.00     0.072 C 
HETATM   32  C   UNL     1      -6.443  -0.741 -32.913  1.00  0.00     0.143 A 
HETATM   33  N   UNL     1      -7.162   0.359 -32.562  1.00  0.00    -0.260 NA
ENDBRANCH  26  27
ENDBRANCH  23  26
ENDBRANCH  22  23
ENDBRANCH   1  22
TORSDOF 11
ENDMDL
MODEL 5
REMARK VINA RESULT:      -6.8      5.479      8.329
REMARK  11 active torsions:
REMARK  status: ('A' for Active; 'I' for Inactive)
REMARK    1  A    between atoms: C_5  and  C_6 
REMARK    2  A    between atoms: C_6  and  N_7 
REMARK    3  A    between atoms: N_7  and  C_10 
REMARK    4  A    between atoms: C_10  and  C_11 
REMARK    5  A    between atoms: C_13  and  O_14 
REMARK    6  A    between atoms: C_16  and  O_17 
REMARK    7  A    between atoms: O_17  and  C_18 
REMARK    8  A    between atoms: C_18  and  C_19 
REMARK    9  A    between atoms: C_19  and  O_20 
REMARK   10  A    between atoms: C_19  and  C_21 
REMARK   11  A    between atoms: C_21  and  N_22 
ROOT
HETATM    1  C   UNL     1      -5.741   1.618 -30.957  1.00  0.00    -0.030 A 
HETATM    2  C   UNL     1      -6.764   0.812 -31.486  1.00  0.00     0.048 A 
HETATM    3  C   UNL     1      -8.105   1.218 -31.420  1.00  0.00     0.102 A 
HETATM    4  C   UNL     1      -8.435   2.448 -30.817  1.00  0.00     0.102 A 
HETATM    5  C   UNL     1      -7.424   3.236 -30.263  1.00  0.00     0.040 A 
HETATM    6  C   UNL     1      -6.088   2.827 -30.335  1.00  0.00     0.012 A 
ENDROOT
BRANCH   4   7
HETATM    7  O   UNL     1      -9.767   2.778 -30.810  1.00  0.00    -0.346 OA
BRANCH   7   8
HETATM    8  C   UNL     1     -10.126   4.118 -30.468  1.00  0.00     0.209 C 
BRANCH   8   9
HETATM    9  C   UNL     1     -11.640   4.239 -30.683  1.00  0.00     0.168 C 
BRANCH   9  10
HETATM   10  O   UNL     1     -12.132   5.492 -30.169  1.00  0.00    -0.392 OA
HETATM   11  H   UNL     1     -11.576   5.700 -29.386  1.00  0.00     0.210 HD
ENDBRANCH   9  10
BRANCH   9  12
HETATM   12  C   UNL     1     -12.013   4.186 -32.172  1.00  0.00     0.268 C 
BRANCH  12  13
HETATM   13  N   UNL     1     -12.754   2.878 -32.446  1.00  0.00    -0.067 N 
HETATM   14  H   UNL     1     -12.616   2.341 -31.568  1.00  0.00     0.280 HD
HETATM   15  C   UNL     1     -14.248   3.097 -32.628  1.00  0.00     0.245 C 
HETATM   16  C   UNL     1     -15.020   1.779 -32.657  1.00  0.00     0.101 C 
HETATM   17  S   UNL     1     -14.501   0.714 -34.034  1.00  0.00    -0.166 SA
HETATM   18  C   UNL     1     -12.721   0.674 -33.679  1.00  0.00     0.101 C 
HETATM   19  C   UNL     1     -12.129   2.079 -33.579  1.00  0.00     0.245 C 
ENDBRANCH  12  13
ENDBRANCH   9  12
ENDBRANCH   8   9
ENDBRANCH   7   8
ENDBRANCH   4   7
BRANCH   3  20
HETATM   20  O   UNL     1      -9.162   0.502 -31.922  1.00  0.00    -0.353 OA
HETATM   21  C   UNL     1      -9.053  -0.024 -33.240  1.00  0.00     0.210 C 
ENDBRANCH   3  20
BRANCH   1  22
HETATM   22  C   UNL     1      -4.301   1.191 -31.038  1.00  0.00     0.271 C 
BRANCH  22  23
HETATM   23  N   UNL     1      -4.172  -0.235 -31.398  1.00  0.00    -0.066 N 
HETATM   24  H   UNL     1      -5.074  -0.721 -31.335  1.00  0.00     0.277 HD
HETATM   25  H   UNL     1      -3.590  -0.747 -30.714  1.00  0.00     0.277 HD
BRANCH  23  26
HETATM   26  C   UNL     1      -3.558  -0.532 -32.736  1.00  0.00     0.293 C 
BRANCH  26  27
HETATM   27  C   UNL     1      -4.352  -1.590 -33.449  1.00  0.00     0.077 A 
HETATM   28  C   UNL     1      -5.541  -1.293 -34.095  1.00  0.00     0.145 A 
HETATM   29  N   UNL     1      -6.247  -2.232 -34.758  1.00  0.00    -0.262 NA
HETATM   30  C   UNL     1      -5.738  -3.488 -34.769  1.00  0.00     0.048 A 
HETATM   31  C   UNL     1      -6.503  -4.553 -35.491  1.00  0.00     0.072 C 
HETATM   32  C   UNL     1      -4.543  -3.782 -34.123  1.00  0.00     0.143 A 
HETATM   33  N   UNL     1      -3.816  -2.847 -33.454  1.00  0.00    -0.260 NA
ENDBRANCH  26  27
ENDBRANCH  23  26
ENDBRANCH  22  23
ENDBRANCH   1  22
TORSDOF 11
ENDMDL
MODEL 6
REMARK VINA RESULT:      -6.7      3.382      8.525
REMARK  11 active torsions:
REMARK  status: ('A' for Active; 'I' for Inactive)
REMARK    1  A    between atoms: C_5  and  C_6 
REMARK    2  A    between atoms: C_6  and  N_7 
REMARK    3  A    between atoms: N_7  and  C_10 
REMARK    4  A    between atoms: C_10  and  C_11 
REMARK    5  A    between atoms: C_13  and  O_14 
REMARK    6  A    between atoms: C_16  and  O_17 
REMARK    7  A    between atoms: O_17  and  C_18 
REMARK    8  A    between atoms: C_18  and  C_19 
REMARK    9  A    between atoms: C_19  and  O_20 
REMARK   10  A    between atoms: C_19  and  C_21 
REMARK   11  A    between atoms: C_21  and  N_22 
ROOT
HETATM    1  C   UNL     1      -3.505   4.628 -33.811  1.00  0.00    -0.030 A 
HETATM    2  C   UNL     1      -3.131   3.754 -32.776  1.00  0.00     0.048 A 
HETATM    3  C   UNL     1      -4.094   3.209 -31.914  1.00  0.00     0.102 A 
HETATM    4  C   UNL     1      -5.453   3.541 -32.084  1.00  0.00     0.102 A 
HETATM    5  C   UNL     1      -5.823   4.434 -33.091  1.00  0.00     0.040 A 
HETATM    6  C   UNL     1      -4.858   4.970 -33.950  1.00  0.00     0.012 A 
ENDROOT
BRANCH   4   7
HETATM    7  O   UNL     1      -6.331   2.951 -31.209  1.00  0.00    -0.346 OA
BRANCH   7   8
HETATM    8  C   UNL     1      -7.660   3.472 -31.136  1.00  0.00     0.209 C 
BRANCH   8   9
HETATM    9  C   UNL     1      -8.604   2.267 -31.051  1.00  0.00     0.168 C 
BRANCH   9  10
HETATM   10  O   UNL     1      -9.773   2.585 -30.270  1.00  0.00    -0.392 OA
HETATM   11  H   UNL     1      -9.719   3.549 -30.083  1.00  0.00     0.210 HD
ENDBRANCH   9  10
BRANCH   9  12
HETATM   12  C   UNL     1      -9.096   1.826 -32.437  1.00  0.00     0.268 C 
BRANCH  12  13
HETATM   13  N   UNL     1      -7.965   1.082 -33.146  1.00  0.00    -0.067 N 
HETATM   14  H   UNL     1      -7.210   1.794 -33.195  1.00  0.00     0.280 HD
HETATM   15  C   UNL     1      -7.449  -0.088 -32.325  1.00  0.00     0.245 C 
HETATM   16  C   UNL     1      -6.167  -0.678 -32.910  1.00  0.00     0.101 C 
HETATM   17  S   UNL     1      -6.417  -1.321 -34.590  1.00  0.00    -0.166 SA
HETATM   18  C   UNL     1      -7.112   0.177 -35.345  1.00  0.00     0.101 C 
HETATM   19  C   UNL     1      -8.325   0.693 -34.572  1.00  0.00     0.245 C 
ENDBRANCH  12  13
ENDBRANCH   9  12
ENDBRANCH   8   9
ENDBRANCH   7   8
ENDBRANCH   4   7
BRANCH   3  20
HETATM   20  O   UNL     1      -3.820   2.339 -30.889  1.00  0.00    -0.353 OA
HETATM   21  C   UNL     1      -3.369   1.030 -31.220  1.00  0.00     0.210 C 
ENDBRANCH   3  20
BRANCH   1  22
HETATM   22  C   UNL     1      -2.475   5.204 -34.746  1.00  0.00     0.271 C 
BRANCH  22  23
HETATM   23  N   UNL     1      -1.200   5.476 -34.055  1.00  0.00    -0.066 N 
HETATM   24  H   UNL     1      -0.399   5.374 -34.690  1.00  0.00     0.277 HD
HETATM   25  H   UNL     1      -1.005   4.767 -33.328  1.00  0.00     0.277 HD
BRANCH  23  26
HETATM   26  C   UNL     1      -1.090   6.799 -33.352  1.00  0.00     0.293 C 
BRANCH  26  27
HETATM   27  C   UNL     1      -0.686   6.594 -31.919  1.00  0.00     0.077 A 
HETATM   28  C   UNL     1      -1.011   7.515 -30.936  1.00  0.00     0.145 A 
HETATM   29  N   UNL     1      -0.674   7.327 -29.643  1.00  0.00    -0.262 NA
HETATM   30  C   UNL     1      -0.003   6.189 -29.343  1.00  0.00     0.048 A 
HETATM   31  C   UNL     1       0.390   5.956 -27.918  1.00  0.00     0.072 C 
HETATM   32  C   UNL     1       0.317   5.266 -30.332  1.00  0.00     0.143 A 
HETATM   33  N   UNL     1      -0.018   5.436 -31.639  1.00  0.00    -0.260 NA
ENDBRANCH  26  27
ENDBRANCH  23  26
ENDBRANCH  22  23
ENDBRANCH   1  22
TORSDOF 11
ENDMDL
MODEL 7
REMARK VINA RESULT:      -6.6      4.162     10.538
REMARK  11 active torsions:
REMARK  status: ('A' for Active; 'I' for Inactive)
REMARK    1  A    between atoms: C_5  and  C_6 
REMARK    2  A    between atoms: C_6  and  N_7 
REMARK    3  A    between atoms: N_7  and  C_10 
REMARK    4  A    between atoms: C_10  and  C_11 
REMARK    5  A    between atoms: C_13  and  O_14 
REMARK    6  A    between atoms: C_16  and  O_17 
REMARK    7  A    between atoms: O_17  and  C_18 
REMARK    8  A    between atoms: C_18  and  C_19 
REMARK    9  A    between atoms: C_19  and  O_20 
REMARK   10  A    between atoms: C_19  and  C_21 
REMARK   11  A    between atoms: C_21  and  N_22 
ROOT
HETATM    1  C   UNL     1      -0.552   7.186 -29.426  1.00  0.00    -0.030 A 
HETATM    2  C   UNL     1      -1.612   8.009 -29.843  1.00  0.00     0.048 A 
HETATM    3  C   UNL     1      -1.891   8.184 -31.206  1.00  0.00     0.102 A 
HETATM    4  C   UNL     1      -1.101   7.530 -32.172  1.00  0.00     0.102 A 
HETATM    5  C   UNL     1      -0.027   6.737 -31.760  1.00  0.00     0.040 A 
HETATM    6  C   UNL     1       0.243   6.563 -30.399  1.00  0.00     0.012 A 
ENDROOT
BRANCH   4   7
HETATM    7  O   UNL     1      -1.452   7.741 -33.482  1.00  0.00    -0.346 OA
BRANCH   7   8
HETATM    8  C   UNL     1      -1.497   6.612 -34.356  1.00  0.00     0.209 C 
BRANCH   8   9
HETATM    9  C   UNL     1      -2.853   5.932 -34.131  1.00  0.00     0.168 C 
BRANCH   9  10
HETATM   10  O   UNL     1      -3.568   5.787 -35.374  1.00  0.00    -0.392 OA
HETATM   11  H   UNL     1      -3.413   4.861 -35.668  1.00  0.00     0.210 HD
ENDBRANCH   9  10
BRANCH   9  12
HETATM   12  C   UNL     1      -2.695   4.523 -33.537  1.00  0.00     0.268 C 
BRANCH  12  13
HETATM   13  N   UNL     1      -3.896   4.233 -32.637  1.00  0.00    -0.067 N 
HETATM   14  H   UNL     1      -4.695   4.610 -33.184  1.00  0.00     0.280 HD
HETATM   15  C   UNL     1      -4.121   2.741 -32.451  1.00  0.00     0.245 C 
HETATM   16  C   UNL     1      -5.452   2.445 -31.762  1.00  0.00     0.101 C 
HETATM   17  S   UNL     1      -5.537   3.172 -30.100  1.00  0.00    -0.166 SA
HETATM   18  C   UNL     1      -5.149   4.889 -30.544  1.00  0.00     0.101 C 
HETATM   19  C   UNL     1      -3.837   4.993 -31.321  1.00  0.00     0.245 C 
ENDBRANCH  12  13
ENDBRANCH   9  12
ENDBRANCH   8   9
ENDBRANCH   7   8
ENDBRANCH   4   7
BRANCH   3  20
HETATM   20  O   UNL     1      -2.912   8.955 -31.701  1.00  0.00    -0.353 OA
HETATM   21  C   UNL     1      -4.185   8.872 -31.070  1.00  0.00     0.210 C 
ENDBRANCH   3  20
BRANCH   1  22
HETATM   22  C   UNL     1      -0.259   6.986 -27.963  1.00  0.00     0.271 C 
BRANCH  22  23
HETATM   23  N   UNL     1       1.165   7.220 -27.653  1.00  0.00    -0.066 N 
HETATM   24  H   UNL     1       1.779   6.730 -28.315  1.00  0.00     0.277 HD
HETATM   25  H   UNL     1       1.429   6.801 -26.746  1.00  0.00     0.277 HD
BRANCH  23  26
HETATM   26  C   UNL     1       1.602   8.655 -27.565  1.00  0.00     0.293 C 
BRANCH  26  27
HETATM   27  C   UNL     1       1.350   9.190 -26.183  1.00  0.00     0.077 A 
HETATM   28  C   UNL     1       2.182   8.877 -25.121  1.00  0.00     0.145 A 
HETATM   29  N   UNL     1       1.978   9.373 -23.883  1.00  0.00    -0.262 NA
HETATM   30  C   UNL     1       0.917  10.202 -23.723  1.00  0.00     0.048 A 
HETATM   31  C   UNL     1       0.660  10.763 -22.358  1.00  0.00     0.072 C 
HETATM   32  C   UNL     1       0.087  10.517 -24.792  1.00  0.00     0.143 A 
HETATM   33  N   UNL     1       0.281  10.030 -26.047  1.00  0.00    -0.260 NA
ENDBRANCH  26  27
ENDBRANCH  23  26
ENDBRANCH  22  23
ENDBRANCH   1  22
TORSDOF 11
ENDMDL
MODEL 8
REMARK VINA RESULT:      -6.6      1.180      2.054
REMARK  11 active torsions:
REMARK  status: ('A' for Active; 'I' for Inactive)
REMARK    1  A    between atoms: C_5  and  C_6 
REMARK    2  A    between atoms: C_6  and  N_7 
REMARK    3  A    between atoms: N_7  and  C_10 
REMARK    4  A    between atoms: C_10  and  C_11 
REMARK    5  A    between atoms: C_13  and  O_14 
REMARK    6  A    between atoms: C_16  and  O_17 
REMARK    7  A    between atoms: O_17  and  C_18 
REMARK    8  A    between atoms: C_18  and  C_19 
REMARK    9  A    between atoms: C_19  and  O_20 
REMARK   10  A    between atoms: C_19  and  C_21 
REMARK   11  A    between atoms: C_21  and  N_22 
ROOT
HETATM    1  C   UNL     1      -6.166   2.604 -33.459  1.00  0.00    -0.030 A 
HETATM    2  C   UNL     1      -6.285   3.998 -33.583  1.00  0.00     0.048 A 
HETATM    3  C   UNL     1      -5.233   4.845 -33.202  1.00  0.00     0.102 A 
HETATM    4  C   UNL     1      -4.043   4.295 -32.686  1.00  0.00     0.102 A 
HETATM    5  C   UNL     1      -3.935   2.911 -32.532  1.00  0.00     0.040 A 
HETATM    6  C   UNL     1      -4.985   2.072 -32.918  1.00  0.00     0.012 A 
ENDROOT
BRANCH   4   7
HETATM    7  O   UNL     1      -3.059   5.192 -32.354  1.00  0.00    -0.346 OA
BRANCH   7   8
HETATM    8  C   UNL     1      -1.799   5.085 -33.018  1.00  0.00     0.209 C 
BRANCH   8   9
HETATM    9  C   UNL     1      -1.538   6.436 -33.694  1.00  0.00     0.168 C 
BRANCH   9  10
HETATM   10  O   UNL     1      -2.601   6.766 -34.610  1.00  0.00    -0.392 OA
HETATM   11  H   UNL     1      -3.131   7.467 -34.167  1.00  0.00     0.210 HD
ENDBRANCH   9  10
BRANCH   9  12
HETATM   12  C   UNL     1      -1.455   7.580 -32.672  1.00  0.00     0.268 C 
BRANCH  12  13
HETATM   13  N   UNL     1      -1.150   6.989 -31.296  1.00  0.00    -0.067 N 
HETATM   14  H   UNL     1      -1.620   6.063 -31.330  1.00  0.00     0.280 HD
HETATM   15  C   UNL     1       0.338   6.749 -31.096  1.00  0.00     0.245 C 
HETATM   16  C   UNL     1       0.622   5.937 -29.833  1.00  0.00     0.101 C 
HETATM   17  S   UNL     1       0.048   6.786 -28.334  1.00  0.00    -0.166 SA
HETATM   18  C   UNL     1      -1.679   7.054 -28.827  1.00  0.00     0.101 C 
HETATM   19  C   UNL     1      -1.780   7.786 -30.165  1.00  0.00     0.245 C 
ENDBRANCH  12  13
ENDBRANCH   9  12
ENDBRANCH   8   9
ENDBRANCH   7   8
ENDBRANCH   4   7
BRANCH   3  20
HETATM   20  O   UNL     1      -5.258   6.214 -33.302  1.00  0.00    -0.353 OA
HETATM   21  C   UNL     1      -6.166   6.932 -32.476  1.00  0.00     0.210 C 
ENDBRANCH   3  20
BRANCH   1  22
HETATM   22  C   UNL     1      -7.287   1.692 -33.880  1.00  0.00     0.271 C 
BRANCH  22  23
HETATM   23  N   UNL     1      -7.163   0.354 -33.270  1.00  0.00    -0.066 N 
HETATM   24  H   UNL     1      -7.697   0.289 -32.395  1.00  0.00     0.277 HD
HETATM   25  H   UNL     1      -6.194   0.169 -32.958  1.00  0.00     0.277 HD
BRANCH  23  26
HETATM   26  C   UNL     1      -7.525  -0.814 -34.142  1.00  0.00     0.293 C 
BRANCH  26  27
HETATM   27  C   UNL     1      -6.424  -1.837 -34.123  1.00  0.00     0.077 A 
HETATM   28  C   UNL     1      -5.220  -1.596 -33.482  1.00  0.00     0.145 A 
HETATM   29  N   UNL     1      -4.236  -2.518 -33.439  1.00  0.00    -0.262 NA
HETATM   30  C   UNL     1      -4.480  -3.703 -34.049  1.00  0.00     0.048 A 
HETATM   31  C   UNL     1      -3.405  -4.744 -34.024  1.00  0.00     0.072 C 
HETATM   32  C   UNL     1      -5.691  -3.943 -34.688  1.00  0.00     0.143 A 
HETATM   33  N   UNL     1      -6.695  -3.027 -34.737  1.00  0.00    -0.260 NA
ENDBRANCH  26  27
ENDBRANCH  23  26
ENDBRANCH  22  23
ENDBRANCH   1  22
TORSDOF 11
ENDMDL
MODEL 9
REMARK VINA RESULT:      -6.6      3.123      8.847
REMARK  11 active torsions:
REMARK  status: ('A' for Active; 'I' for Inactive)
REMARK    1  A    between atoms: C_5  and  C_6 
REMARK    2  A    between atoms: C_6  and  N_7 
REMARK    3  A    between atoms: N_7  and  C_10 
REMARK    4  A    between atoms: C_10  and  C_11 
REMARK    5  A    between atoms: C_13  and  O_14 
REMARK    6  A    between atoms: C_16  and  O_17 
REMARK    7  A    between atoms: O_17  and  C_18 
REMARK    8  A    between atoms: C_18  and  C_19 
REMARK    9  A    between atoms: C_19  and  O_20 
REMARK   10  A    between atoms: C_19  and  C_21 
REMARK   11  A    between atoms: C_21  and  N_22 
ROOT
HETATM    1  C   UNL     1      -2.627   5.144 -34.060  1.00  0.00    -0.030 A 
HETATM    2  C   UNL     1      -3.968   5.235 -34.469  1.00  0.00     0.048 A 
HETATM    3  C   UNL     1      -4.955   4.431 -33.880  1.00  0.00     0.102 A 
HETATM    4  C   UNL     1      -4.601   3.518 -32.866  1.00  0.00     0.102 A 
HETATM    5  C   UNL     1      -3.263   3.403 -32.481  1.00  0.00     0.040 A 
HETATM    6  C   UNL     1      -2.285   4.211 -33.069  1.00  0.00     0.012 A 
ENDROOT
BRANCH   4   7
HETATM    7  O   UNL     1      -5.628   2.782 -32.332  1.00  0.00    -0.346 OA
BRANCH   7   8
HETATM    8  C   UNL     1      -5.640   2.570 -30.919  1.00  0.00     0.209 C 
BRANCH   8   9
HETATM    9  C   UNL     1      -5.875   1.071 -30.698  1.00  0.00     0.168 C 
BRANCH   9  10
HETATM   10  O   UNL     1      -6.366   0.820 -29.366  1.00  0.00    -0.392 OA
HETATM   11  H   UNL     1      -7.146   0.231 -29.473  1.00  0.00     0.210 HD
ENDBRANCH   9  10
BRANCH   9  12
HETATM   12  C   UNL     1      -6.917   0.505 -31.675  1.00  0.00     0.268 C 
BRANCH  12  13
HETATM   13  N   UNL     1      -6.337  -0.742 -32.342  1.00  0.00    -0.067 N 
HETATM   14  H   UNL     1      -6.559  -1.496 -31.662  1.00  0.00     0.280 HD
HETATM   15  C   UNL     1      -7.043  -1.070 -33.647  1.00  0.00     0.245 C 
HETATM   16  C   UNL     1      -6.638  -2.440 -34.188  1.00  0.00     0.101 C 
HETATM   17  S   UNL     1      -4.860  -2.534 -34.546  1.00  0.00    -0.166 SA
HETATM   18  C   UNL     1      -4.237  -2.020 -32.920  1.00  0.00     0.101 C 
HETATM   19  C   UNL     1      -4.825  -0.679 -32.484  1.00  0.00     0.245 C 
ENDBRANCH  12  13
ENDBRANCH   9  12
ENDBRANCH   8   9
ENDBRANCH   7   8
ENDBRANCH   4   7
BRANCH   3  20
HETATM   20  O   UNL     1      -6.287   4.465 -34.207  1.00  0.00    -0.353 OA
HETATM   21  C   UNL     1      -7.119   5.407 -33.541  1.00  0.00     0.210 C 
ENDBRANCH   3  20
BRANCH   1  22
HETATM   22  C   UNL     1      -1.568   6.015 -34.680  1.00  0.00     0.271 C 
BRANCH  22  23
HETATM   23  N   UNL     1      -0.835   6.795 -33.664  1.00  0.00    -0.066 N 
HETATM   24  H   UNL     1      -0.163   7.439 -34.097  1.00  0.00     0.277 HD
HETATM   25  H   UNL     1      -0.228   6.188 -33.087  1.00  0.00     0.277 HD
BRANCH  23  26
HETATM   26  C   UNL     1      -1.672   7.562 -32.680  1.00  0.00     0.293 C 
BRANCH  26  27
HETATM   27  C   UNL     1      -1.251   7.236 -31.275  1.00  0.00     0.077 A 
HETATM   28  C   UNL     1      -0.031   6.639 -31.003  1.00  0.00     0.145 A 
HETATM   29  N   UNL     1       0.365   6.366 -29.743  1.00  0.00    -0.262 NA
HETATM   30  C   UNL     1      -0.486   6.707 -28.745  1.00  0.00     0.048 A 
HETATM   31  C   UNL     1      -0.077   6.409 -27.336  1.00  0.00     0.072 C 
HETATM   32  C   UNL     1      -1.708   7.309 -29.021  1.00  0.00     0.143 A 
HETATM   33  N   UNL     1      -2.121   7.596 -30.285  1.00  0.00    -0.260 NA
ENDBRANCH  26  27
ENDBRANCH  23  26
ENDBRANCH  22  23
ENDBRANCH   1  22
TORSDOF 11
ENDMDL
MODEL 10
REMARK VINA RESULT:      -6.6      2.402      4.332
REMARK  11 active torsions:
REMARK  status: ('A' for Active; 'I' for Inactive)
REMARK    1  A    between atoms: C_5  and  C_6 
REMARK    2  A    between atoms: C_6  and  N_7 
REMARK    3  A    between atoms: N_7  and  C_10 
REMARK    4  A    between atoms: C_10  and  C_11 
REMARK    5  A    between atoms: C_13  and  O_14 
REMARK    6  A    between atoms: C_16  and  O_17 
REMARK    7  A    between atoms: O_17  and  C_18 
REMARK    8  A    between atoms: C_18  and  C_19 
REMARK    9  A    between atoms: C_19  and  O_20 
REMARK   10  A    between atoms: C_19  and  C_21 
REMARK   11  A    between atoms: C_21  and  N_22 
ROOT
HETATM    1  C   UNL     1      -5.615   1.697 -33.189  1.00  0.00    -0.030 A 
HETATM    2  C   UNL     1      -5.949   2.998 -33.599  1.00  0.00     0.048 A 
HETATM    3  C   UNL     1      -5.067   4.068 -33.384  1.00  0.00     0.102 A 
HETATM    4  C   UNL     1      -3.831   3.838 -32.747  1.00  0.00     0.102 A 
HETATM    5  C   UNL     1      -3.511   2.551 -32.310  1.00  0.00     0.040 A 
HETATM    6  C   UNL     1      -4.393   1.489 -32.532  1.00  0.00     0.012 A 
ENDROOT
BRANCH   4   7
HETATM    7  O   UNL     1      -3.021   4.935 -32.591  1.00  0.00    -0.346 OA
BRANCH   7   8
HETATM    8  C   UNL     1      -1.728   4.908 -33.200  1.00  0.00     0.209 C 
BRANCH   8   9
HETATM    9  C   UNL     1      -1.587   6.211 -33.996  1.00  0.00     0.168 C 
BRANCH   9  10
HETATM   10  O   UNL     1      -2.818   6.535 -34.673  1.00  0.00    -0.392 OA
HETATM   11  H   UNL     1      -2.772   7.497 -34.870  1.00  0.00     0.210 HD
ENDBRANCH   9  10
BRANCH   9  12
HETATM   12  C   UNL     1      -1.247   7.403 -33.088  1.00  0.00     0.268 C 
BRANCH  12  13
HETATM   13  N   UNL     1      -1.193   6.917 -31.640  1.00  0.00    -0.067 N 
HETATM   14  H   UNL     1      -1.574   5.953 -31.702  1.00  0.00     0.280 HD
HETATM   15  C   UNL     1       0.233   6.823 -31.123  1.00  0.00     0.245 C 
HETATM   16  C   UNL     1       0.307   6.111 -29.774  1.00  0.00     0.101 C 
HETATM   17  S   UNL     1      -0.631   6.985 -28.488  1.00  0.00    -0.166 SA
HETATM   18  C   UNL     1      -2.231   7.070 -29.342  1.00  0.00     0.101 C 
HETATM   19  C   UNL     1      -2.106   7.715 -30.722  1.00  0.00     0.245 C 
ENDBRANCH  12  13
ENDBRANCH   9  12
ENDBRANCH   8   9
ENDBRANCH   7   8
ENDBRANCH   4   7
BRANCH   3  20
HETATM   20  O   UNL     1      -5.306   5.364 -33.764  1.00  0.00    -0.353 OA
HETATM   21  C   UNL     1      -6.146   6.163 -32.940  1.00  0.00     0.210 C 
ENDBRANCH   3  20
BRANCH   1  22
HETATM   22  C   UNL     1      -6.553   0.545 -33.431  1.00  0.00     0.271 C 
BRANCH  22  23
HETATM   23  N   UNL     1      -7.042  -0.037 -32.166  1.00  0.00    -0.066 N 
HETATM   24  H   UNL     1      -6.265  -0.285 -31.541  1.00  0.00     0.277 HD
HETATM   25  H   UNL     1      -7.505  -0.948 -32.323  1.00  0.00     0.277 HD
BRANCH  23  26
HETATM   26  C   UNL     1      -8.037   0.781 -31.394  1.00  0.00     0.293 C 
BRANCH  26  27
HETATM   27  C   UNL     1      -9.269   1.017 -32.222  1.00  0.00     0.077 A 
HETATM   28  C   UNL     1     -10.077  -0.030 -32.634  1.00  0.00     0.145 A 
HETATM   29  N   UNL     1     -11.198   0.175 -33.356  1.00  0.00    -0.262 NA
HETATM   30  C   UNL     1     -11.506   1.459 -33.659  1.00  0.00     0.048 A 
HETATM   31  C   UNL     1     -12.741   1.717 -34.465  1.00  0.00     0.072 C 
HETATM   32  C   UNL     1     -10.695   2.507 -33.241  1.00  0.00     0.143 A 
HETATM   33  N   UNL     1      -9.564   2.320 -32.509  1.00  0.00    -0.260 NA
ENDBRANCH  26  27
ENDBRANCH  23  26
ENDBRANCH  22  23
ENDBRANCH   1  22
TORSDOF 11
ENDMDL
