MODEL 1
REMARK VINA RESULT:      -8.6      0.000      0.000
REMARK  11 active torsions:
REMARK  status: ('A' for Active; 'I' for Inactive)
REMARK    1  A    between atoms: O_2  and  C_3 
REMARK    2  A    between atoms: C_6  and  C_7 
REMARK    3  A    between atoms: C_7  and  N_8 
REMARK    4  A    between atoms: N_8  and  C_9 
REMARK    5  A    between atoms: N_8  and  C_22 
REMARK    6  A    between atoms: C_9  and  N_10 
REMARK    7  A    between atoms: N_10  and  C_11 
REMARK    8  A    between atoms: C_11  and  C_12 
REMARK    9  A    between atoms: C_12  and  C_13 
REMARK   10  A    between atoms: C_13  and  N_14 
REMARK   11  A    between atoms: C_22  and  C_23 
ROOT
HETATM    1  N   UNL     1      -5.938   2.614 -31.234  1.00  0.00    -0.350 N 
ENDROOT
BRANCH   1   2
HETATM    2  C   UNL     1      -7.244   2.426 -30.562  1.00  0.00     0.164 C 
BRANCH   2   3
HETATM    3  C   UNL     1      -8.420   2.085 -31.446  1.00  0.00    -0.040 A 
HETATM    4  C   UNL     1      -9.197   3.073 -32.064  1.00  0.00     0.011 A 
HETATM    5  C   UNL     1     -10.224   2.712 -32.946  1.00  0.00     0.037 A 
HETATM    6  C   UNL     1     -10.469   1.365 -33.220  1.00  0.00     0.068 A 
HETATM    7  C   UNL     1      -9.718   0.377 -32.593  1.00  0.00     0.037 A 
HETATM    8  C   UNL     1      -8.688   0.734 -31.726  1.00  0.00     0.011 A 
BRANCH   6   9
HETATM    9  O   UNL     1     -11.459   0.930 -34.055  1.00  0.00    -0.356 OA
HETATM   10  C   UNL     1     -12.763   1.341 -33.647  1.00  0.00     0.210 C 
ENDBRANCH   6   9
ENDBRANCH   2   3
ENDBRANCH   1   2
BRANCH   1  11
HETATM   11  C   UNL     1      -5.532   3.891 -31.676  1.00  0.00     0.170 C 
HETATM   12  S   UNL     1      -5.168   5.200 -30.685  1.00  0.00    -0.041 SA
BRANCH  11  13
HETATM   13  N   UNL     1      -5.506   3.976 -33.060  1.00  0.00    -0.367 N 
HETATM   14  H   UNL     1      -5.309   3.106 -33.539  1.00  0.00     0.161 HD
BRANCH  13  15
HETATM   15  C   UNL     1      -5.311   5.182 -33.853  1.00  0.00     0.123 C 
BRANCH  15  16
HETATM   16  C   UNL     1      -4.275   4.995 -34.957  1.00  0.00     0.047 C 
BRANCH  16  17
HETATM   17  C   UNL     1      -2.817   4.965 -34.506  1.00  0.00     0.236 C 
BRANCH  17  18
HETATM   18  N   UNL     1      -2.533   5.781 -33.273  1.00  0.00    -0.067 N 
HETATM   19  H   UNL     1      -3.443   5.982 -32.818  1.00  0.00     0.280 HD
HETATM   20  C   UNL     1      -1.634   5.100 -32.253  1.00  0.00     0.261 C 
HETATM   21  C   UNL     1      -1.379   6.038 -31.067  1.00  0.00     0.195 C 
HETATM   22  O   UNL     1      -0.800   7.272 -31.506  1.00  0.00    -0.388 OA
HETATM   23  C   UNL     1      -1.683   7.974 -32.387  1.00  0.00     0.195 C 
HETATM   24  C   UNL     1      -1.961   7.151 -33.649  1.00  0.00     0.261 C 
ENDBRANCH  17  18
ENDBRANCH  16  17
ENDBRANCH  15  16
ENDBRANCH  13  15
ENDBRANCH  11  13
ENDBRANCH   1  11
BRANCH   1  25
HETATM   25  C   UNL     1      -4.863   1.738 -30.685  1.00  0.00     0.169 C 
BRANCH  25  26
HETATM   26  C   UNL     1      -4.549   0.650 -31.682  1.00  0.00     0.029 C 
HETATM   27  C   UNL     1      -3.244  -0.063 -31.527  1.00  0.00     0.253 C 
HETATM   28  O   UNL     1      -2.361   0.362 -30.786  1.00  0.00    -0.268 OA
HETATM   29  N   UNL     1      -3.093  -1.236 -32.215  1.00  0.00    -0.322 N 
HETATM   30  C   UNL     1      -4.074  -1.773 -33.058  1.00  0.00     0.048 A 
HETATM   31  H   UNL     1      -2.230  -1.739 -32.059  1.00  0.00     0.169 HD
HETATM   32  C   UNL     1      -5.244  -1.023 -33.309  1.00  0.00    -0.006 A 
HETATM   33  C   UNL     1      -3.909  -3.053 -33.587  1.00  0.00     0.070 A 
HETATM   34  C   UNL     1      -6.271  -1.563 -34.092  1.00  0.00     0.053 A 
HETATM   35  C   UNL     1      -5.426   0.255 -32.624  1.00  0.00     0.028 C 
HETATM   36  C   UNL     1      -6.101  -2.845 -34.567  1.00  0.00     0.106 A 
HETATM   37  C   UNL     1      -4.957  -3.569 -34.319  1.00  0.00     0.107 A 
HETATM   38  O   UNL     1      -7.022  -3.554 -35.270  1.00  0.00    -0.323 OA
HETATM   39  O   UNL     1      -5.019  -4.823 -34.839  1.00  0.00    -0.323 OA
HETATM   40  C   UNL     1      -6.356  -4.829 -35.386  1.00  0.00     0.352 A 
ENDBRANCH  25  26
ENDBRANCH   1  25
TORSDOF 11
ENDMDL
MODEL 2
REMARK VINA RESULT:      -8.4      2.746      8.618
REMARK  11 active torsions:
REMARK  status: ('A' for Active; 'I' for Inactive)
REMARK    1  A    between atoms: O_2  and  C_3 
REMARK    2  A    between atoms: C_6  and  C_7 
REMARK    3  A    between atoms: C_7  and  N_8 
REMARK    4  A    between atoms: N_8  and  C_9 
REMARK    5  A    between atoms: N_8  and  C_22 
REMARK    6  A    between atoms: C_9  and  N_10 
REMARK    7  A    between atoms: N_10  and  C_11 
REMARK    8  A    between atoms: C_11  and  C_12 
REMARK    9  A    between atoms: C_12  and  C_13 
REMARK   10  A    between atoms: C_13  and  N_14 
REMARK   11  A    between atoms: C_22  and  C_23 
ROOT
HETATM    1  N   UNL     1      -8.059   1.737 -32.834  1.00  0.00    -0.350 N 
ENDROOT
BRANCH   1   2
HETATM    2  C   UNL     1      -7.546   0.585 -32.057  1.00  0.00     0.164 C 
BRANCH   2   3
HETATM    3  C   UNL     1      -6.665  -0.393 -32.796  1.00  0.00    -0.040 A 
HETATM    4  C   UNL     1      -5.302  -0.534 -32.506  1.00  0.00     0.011 A 
HETATM    5  C   UNL     1      -4.542  -1.514 -33.156  1.00  0.00     0.037 A 
HETATM    6  C   UNL     1      -5.143  -2.362 -34.088  1.00  0.00     0.068 A 
HETATM    7  C   UNL     1      -6.490  -2.213 -34.400  1.00  0.00     0.037 A 
HETATM    8  C   UNL     1      -7.251  -1.248 -33.745  1.00  0.00     0.011 A 
BRANCH   6   9
HETATM    9  O   UNL     1      -4.469  -3.332 -34.775  1.00  0.00    -0.356 OA
HETATM   10  C   UNL     1      -5.023  -4.635 -34.604  1.00  0.00     0.210 C 
ENDBRANCH   6   9
ENDBRANCH   2   3
ENDBRANCH   1   2
BRANCH   1  11
HETATM   11  C   UNL     1      -9.268   1.639 -33.555  1.00  0.00     0.170 C 
HETATM   12  S   UNL     1     -10.489   0.518 -33.272  1.00  0.00    -0.041 SA
BRANCH  11  13
HETATM   13  N   UNL     1      -9.331   2.564 -34.586  1.00  0.00    -0.367 N 
HETATM   14  H   UNL     1      -8.435   2.875 -34.939  1.00  0.00     0.161 HD
BRANCH  13  15
HETATM   15  C   UNL     1     -10.462   3.421 -34.917  1.00  0.00     0.123 C 
BRANCH  15  16
HETATM   16  C   UNL     1     -11.025   4.143 -33.698  1.00  0.00     0.047 C 
BRANCH  16  17
HETATM   17  C   UNL     1     -12.538   4.347 -33.683  1.00  0.00     0.236 C 
BRANCH  17  18
HETATM   18  N   UNL     1     -13.319   3.154 -33.198  1.00  0.00    -0.067 N 
HETATM   19  H   UNL     1     -12.695   2.606 -32.578  1.00  0.00     0.280 HD
HETATM   20  C   UNL     1     -14.581   3.494 -32.419  1.00  0.00     0.261 C 
HETATM   21  C   UNL     1     -15.313   2.208 -32.018  1.00  0.00     0.195 C 
HETATM   22  O   UNL     1     -15.628   1.418 -33.169  1.00  0.00    -0.388 OA
HETATM   23  C   UNL     1     -14.441   1.003 -33.855  1.00  0.00     0.195 C 
HETATM   24  C   UNL     1     -13.654   2.216 -34.361  1.00  0.00     0.261 C 
ENDBRANCH  17  18
ENDBRANCH  16  17
ENDBRANCH  15  16
ENDBRANCH  13  15
ENDBRANCH  11  13
ENDBRANCH   1  11
BRANCH   1  25
HETATM   25  C   UNL     1      -7.789   3.053 -32.182  1.00  0.00     0.169 C 
BRANCH  25  26
HETATM   26  C   UNL     1      -6.455   3.575 -32.651  1.00  0.00     0.029 C 
HETATM   27  C   UNL     1      -6.469   4.667 -33.673  1.00  0.00     0.253 C 
HETATM   28  O   UNL     1      -7.493   4.964 -34.284  1.00  0.00    -0.268 OA
HETATM   29  N   UNL     1      -5.300   5.350 -33.867  1.00  0.00    -0.322 N 
HETATM   30  C   UNL     1      -4.111   5.063 -33.184  1.00  0.00     0.048 A 
HETATM   31  H   UNL     1      -5.335   6.123 -34.518  1.00  0.00     0.169 HD
HETATM   32  C   UNL     1      -4.069   3.942 -32.328  1.00  0.00    -0.006 A 
HETATM   33  C   UNL     1      -3.014   5.914 -33.315  1.00  0.00     0.070 A 
HETATM   34  C   UNL     1      -2.917   3.670 -31.581  1.00  0.00     0.053 A 
HETATM   35  C   UNL     1      -5.288   3.161 -32.124  1.00  0.00     0.028 C 
HETATM   36  C   UNL     1      -1.863   4.549 -31.696  1.00  0.00     0.106 A 
HETATM   37  C   UNL     1      -1.911   5.639 -32.535  1.00  0.00     0.107 A 
HETATM   38  O   UNL     1      -0.704   4.488 -30.989  1.00  0.00    -0.323 OA
HETATM   39  O   UNL     1      -0.785   6.397 -32.459  1.00  0.00    -0.323 OA
HETATM   40  C   UNL     1      -0.051   5.697 -31.430  1.00  0.00     0.352 A 
ENDBRANCH  25  26
ENDBRANCH   1  25
TORSDOF 11
ENDMDL
MODEL 3
REMARK VINA RESULT:      -8.4      2.601      8.368
REMARK  11 active torsions:
REMARK  status: ('A' for Active; 'I' for Inactive)
REMARK    1  A    between atoms: O_2  and  C_3 
REMARK    2  A    between atoms: C_6  and  C_7 
REMARK    3  A    between atoms: C_7  and  N_8 
REMARK    4  A    between atoms: N_8  and  C_9 
REMARK    5  A    between atoms: N_8  and  C_22 
REMARK    6  A    between atoms: C_9  and  N_10 
REMARK    7  A    between atoms: N_10  and  C_11 
REMARK    8  A    between atoms: C_11  and  C_12 
REMARK    9  A    between atoms: C_12  and  C_13 
REMARK   10  A    between atoms: C_13  and  N_14 
REMARK   11  A    between atoms: C_22  and  C_23 
ROOT
HETATM    1  N   UNL     1      -7.562   1.206 -33.452  1.00  0.00    -0.350 N 
ENDROOT
BRANCH   1   2
HETATM    2  C   UNL     1      -6.621   0.705 -34.480  1.00  0.00     0.164 C 
BRANCH   2   3
HETATM    3  C   UNL     1      -6.212  -0.745 -34.376  1.00  0.00    -0.040 A 
HETATM    4  C   UNL     1      -7.051  -1.787 -34.791  1.00  0.00     0.011 A 
HETATM    5  C   UNL     1      -6.597  -3.112 -34.757  1.00  0.00     0.037 A 
HETATM    6  C   UNL     1      -5.303  -3.397 -34.320  1.00  0.00     0.068 A 
HETATM    7  C   UNL     1      -4.471  -2.371 -33.884  1.00  0.00     0.037 A 
HETATM    8  C   UNL     1      -4.916  -1.052 -33.929  1.00  0.00     0.011 A 
BRANCH   6   9
HETATM    9  O   UNL     1      -4.791  -4.662 -34.243  1.00  0.00    -0.356 OA
HETATM   10  C   UNL     1      -3.474  -4.706 -33.695  1.00  0.00     0.210 C 
ENDBRANCH   6   9
ENDBRANCH   2   3
ENDBRANCH   1   2
BRANCH   1  11
HETATM   11  C   UNL     1      -8.956   1.064 -33.620  1.00  0.00     0.170 C 
HETATM   12  S   UNL     1      -9.928  -0.060 -32.833  1.00  0.00    -0.041 SA
BRANCH  11  13
HETATM   13  N   UNL     1      -9.455   1.947 -34.566  1.00  0.00    -0.367 N 
HETATM   14  H   UNL     1      -9.482   1.590 -35.513  1.00  0.00     0.161 HD
BRANCH  13  15
HETATM   15  C   UNL     1      -9.539   3.396 -34.444  1.00  0.00     0.123 C 
BRANCH  15  16
HETATM   16  C   UNL     1     -10.978   3.901 -34.447  1.00  0.00     0.047 C 
BRANCH  16  17
HETATM   17  C   UNL     1     -11.783   3.631 -33.178  1.00  0.00     0.236 C 
BRANCH  17  18
HETATM   18  N   UNL     1     -13.142   3.030 -33.423  1.00  0.00    -0.067 N 
HETATM   19  H   UNL     1     -13.653   3.667 -34.061  1.00  0.00     0.280 HD
HETATM   20  C   UNL     1     -13.121   1.646 -34.052  1.00  0.00     0.261 C 
HETATM   21  C   UNL     1     -14.551   1.118 -34.211  1.00  0.00     0.195 C 
HETATM   22  O   UNL     1     -15.229   1.088 -32.950  1.00  0.00    -0.388 OA
HETATM   23  C   UNL     1     -15.348   2.402 -32.394  1.00  0.00     0.195 C 
HETATM   24  C   UNL     1     -13.966   3.009 -32.132  1.00  0.00     0.261 C 
ENDBRANCH  17  18
ENDBRANCH  16  17
ENDBRANCH  15  16
ENDBRANCH  13  15
ENDBRANCH  11  13
ENDBRANCH   1  11
BRANCH   1  25
HETATM   25  C   UNL     1      -7.050   1.047 -32.059  1.00  0.00     0.169 C 
BRANCH  25  26
HETATM   26  C   UNL     1      -5.916   2.014 -31.833  1.00  0.00     0.029 C 
HETATM   27  C   UNL     1      -4.751   1.526 -31.032  1.00  0.00     0.253 C 
HETATM   28  O   UNL     1      -4.805   0.483 -30.385  1.00  0.00    -0.268 OA
HETATM   29  N   UNL     1      -3.605   2.272 -31.087  1.00  0.00    -0.322 N 
HETATM   30  C   UNL     1      -3.485   3.457 -31.822  1.00  0.00     0.048 A 
HETATM   31  H   UNL     1      -2.806   1.902 -30.588  1.00  0.00     0.169 HD
HETATM   32  C   UNL     1      -4.629   3.986 -32.458  1.00  0.00    -0.006 A 
HETATM   33  C   UNL     1      -2.236   4.063 -31.962  1.00  0.00     0.070 A 
HETATM   34  C   UNL     1      -4.525   5.131 -33.255  1.00  0.00     0.053 A 
HETATM   35  C   UNL     1      -5.885   3.239 -32.390  1.00  0.00     0.028 C 
HETATM   36  C   UNL     1      -3.274   5.685 -33.411  1.00  0.00     0.106 A 
HETATM   37  C   UNL     1      -2.163   5.166 -32.786  1.00  0.00     0.107 A 
HETATM   38  O   UNL     1      -2.974   6.744 -34.209  1.00  0.00    -0.323 OA
HETATM   39  O   UNL     1      -1.027   5.837 -33.114  1.00  0.00    -0.323 OA
HETATM   40  C   UNL     1      -1.539   6.796 -34.066  1.00  0.00     0.352 A 
ENDBRANCH  25  26
ENDBRANCH   1  25
TORSDOF 11
ENDMDL
MODEL 4
REMARK VINA RESULT:      -8.4      2.242      8.619
REMARK  11 active torsions:
REMARK  status: ('A' for Active; 'I' for Inactive)
REMARK    1  A    between atoms: O_2  and  C_3 
REMARK    2  A    between atoms: C_6  and  C_7 
REMARK    3  A    between atoms: C_7  and  N_8 
REMARK    4  A    between atoms: N_8  and  C_9 
REMARK    5  A    between atoms: N_8  and  C_22 
REMARK    6  A    between atoms: C_9  and  N_10 
REMARK    7  A    between atoms: N_10  and  C_11 
REMARK    8  A    between atoms: C_11  and  C_12 
REMARK    9  A    between atoms: C_12  and  C_13 
REMARK   10  A    between atoms: C_13  and  N_14 
REMARK   11  A    between atoms: C_22  and  C_23 
ROOT
HETATM    1  N   UNL     1      -6.804   1.770 -32.379  1.00  0.00    -0.350 N 
ENDROOT
BRANCH   1   2
HETATM    2  C   UNL     1      -5.951   1.459 -33.548  1.00  0.00     0.164 C 
BRANCH   2   3
HETATM    3  C   UNL     1      -5.729  -0.002 -33.856  1.00  0.00    -0.040 A 
HETATM    4  C   UNL     1      -4.579  -0.685 -33.440  1.00  0.00     0.011 A 
HETATM    5  C   UNL     1      -4.453  -2.060 -33.671  1.00  0.00     0.037 A 
HETATM    6  C   UNL     1      -5.480  -2.759 -34.309  1.00  0.00     0.068 A 
HETATM    7  C   UNL     1      -6.615  -2.086 -34.748  1.00  0.00     0.037 A 
HETATM    8  C   UNL     1      -6.747  -0.720 -34.507  1.00  0.00     0.011 A 
BRANCH   6   9
HETATM    9  O   UNL     1      -5.428  -4.096 -34.585  1.00  0.00    -0.356 OA
HETATM   10  C   UNL     1      -6.540  -4.559 -35.350  1.00  0.00     0.210 C 
ENDBRANCH   6   9
ENDBRANCH   2   3
ENDBRANCH   1   2
BRANCH   1  11
HETATM   11  C   UNL     1      -6.874   0.886 -31.281  1.00  0.00     0.170 C 
HETATM   12  S   UNL     1      -5.649   0.617 -30.161  1.00  0.00    -0.041 SA
BRANCH  11  13
HETATM   13  N   UNL     1      -8.080   0.202 -31.244  1.00  0.00    -0.367 N 
HETATM   14  H   UNL     1      -8.000  -0.807 -31.211  1.00  0.00     0.161 HD
BRANCH  13  15
HETATM   15  C   UNL     1      -9.380   0.710 -31.657  1.00  0.00     0.123 C 
BRANCH  15  16
HETATM   16  C   UNL     1      -9.844   0.120 -32.984  1.00  0.00     0.047 C 
BRANCH  16  17
HETATM   17  C   UNL     1     -10.744   1.013 -33.835  1.00  0.00     0.236 C 
BRANCH  17  18
HETATM   18  N   UNL     1     -12.081   1.318 -33.212  1.00  0.00    -0.067 N 
HETATM   19  H   UNL     1     -12.082   0.904 -32.262  1.00  0.00     0.280 HD
HETATM   20  C   UNL     1     -12.400   2.800 -33.084  1.00  0.00     0.261 C 
HETATM   21  C   UNL     1     -13.797   2.987 -32.483  1.00  0.00     0.195 C 
HETATM   22  O   UNL     1     -14.788   2.325 -33.276  1.00  0.00    -0.388 OA
HETATM   23  C   UNL     1     -14.559   0.912 -33.319  1.00  0.00     0.195 C 
HETATM   24  C   UNL     1     -13.205   0.600 -33.965  1.00  0.00     0.261 C 
ENDBRANCH  17  18
ENDBRANCH  16  17
ENDBRANCH  15  16
ENDBRANCH  13  15
ENDBRANCH  11  13
ENDBRANCH   1  11
BRANCH   1  25
HETATM   25  C   UNL     1      -6.845   3.225 -32.051  1.00  0.00     0.169 C 
BRANCH  25  26
HETATM   26  C   UNL     1      -5.564   3.875 -32.509  1.00  0.00     0.029 C 
HETATM   27  C   UNL     1      -5.671   4.925 -33.568  1.00  0.00     0.253 C 
HETATM   28  O   UNL     1      -6.706   5.091 -34.210  1.00  0.00    -0.268 OA
HETATM   29  N   UNL     1      -4.578   5.726 -33.760  1.00  0.00    -0.322 N 
HETATM   30  C   UNL     1      -3.382   5.591 -33.043  1.00  0.00     0.048 A 
HETATM   31  H   UNL     1      -4.680   6.469 -34.438  1.00  0.00     0.169 HD
HETATM   32  C   UNL     1      -3.240   4.508 -32.148  1.00  0.00    -0.006 A 
HETATM   33  C   UNL     1      -2.380   6.552 -33.180  1.00  0.00     0.070 A 
HETATM   34  C   UNL     1      -2.084   4.387 -31.368  1.00  0.00     0.053 A 
HETATM   35  C   UNL     1      -4.372   3.606 -31.944  1.00  0.00     0.028 C 
HETATM   36  C   UNL     1      -1.129   5.372 -31.491  1.00  0.00     0.106 A 
HETATM   37  C   UNL     1      -1.274   6.423 -32.367  1.00  0.00     0.107 A 
HETATM   38  O   UNL     1       0.012   5.459 -30.758  1.00  0.00    -0.323 OA
HETATM   39  O   UNL     1      -0.238   7.301 -32.293  1.00  0.00    -0.323 OA
HETATM   40  C   UNL     1       0.541   6.718 -31.226  1.00  0.00     0.352 A 
ENDBRANCH  25  26
ENDBRANCH   1  25
TORSDOF 11
ENDMDL
MODEL 5
REMARK VINA RESULT:      -8.3      1.410      6.708
REMARK  11 active torsions:
REMARK  status: ('A' for Active; 'I' for Inactive)
REMARK    1  A    between atoms: O_2  and  C_3 
REMARK    2  A    between atoms: C_6  and  C_7 
REMARK    3  A    between atoms: C_7  and  N_8 
REMARK    4  A    between atoms: N_8  and  C_9 
REMARK    5  A    between atoms: N_8  and  C_22 
REMARK    6  A    between atoms: C_9  and  N_10 
REMARK    7  A    between atoms: N_10  and  C_11 
REMARK    8  A    between atoms: C_11  and  C_12 
REMARK    9  A    between atoms: C_12  and  C_13 
REMARK   10  A    between atoms: C_13  and  N_14 
REMARK   11  A    between atoms: C_22  and  C_23 
ROOT
HETATM    1  N   UNL     1      -4.735   3.426 -31.964  1.00  0.00    -0.350 N 
ENDROOT
BRANCH   1   2
HETATM    2  C   UNL     1      -3.542   3.371 -32.840  1.00  0.00     0.164 C 
BRANCH   2   3
HETATM    3  C   UNL     1      -2.414   4.318 -32.510  1.00  0.00    -0.040 A 
HETATM    4  C   UNL     1      -1.898   5.219 -33.451  1.00  0.00     0.011 A 
HETATM    5  C   UNL     1      -0.912   6.140 -33.077  1.00  0.00     0.037 A 
HETATM    6  C   UNL     1      -0.446   6.170 -31.762  1.00  0.00     0.068 A 
HETATM    7  C   UNL     1      -0.934   5.265 -30.827  1.00  0.00     0.037 A 
HETATM    8  C   UNL     1      -1.924   4.357 -31.193  1.00  0.00     0.011 A 
BRANCH   6   9
HETATM    9  O   UNL     1       0.524   7.027 -31.322  1.00  0.00    -0.356 OA
HETATM   10  C   UNL     1       0.542   7.180 -29.904  1.00  0.00     0.210 C 
ENDBRANCH   6   9
ENDBRANCH   2   3
ENDBRANCH   1   2
BRANCH   1  11
HETATM   11  C   UNL     1      -5.907   4.089 -32.384  1.00  0.00     0.170 C 
HETATM   12  S   UNL     1      -6.105   4.900 -33.844  1.00  0.00    -0.041 SA
BRANCH  11  13
HETATM   13  N   UNL     1      -6.902   4.041 -31.418  1.00  0.00    -0.367 N 
HETATM   14  H   UNL     1      -7.135   3.113 -31.088  1.00  0.00     0.161 HD
BRANCH  13  15
HETATM   15  C   UNL     1      -7.900   5.068 -31.148  1.00  0.00     0.123 C 
BRANCH  15  16
HETATM   16  C   UNL     1      -9.261   4.480 -30.791  1.00  0.00     0.047 C 
BRANCH  16  17
HETATM   17  C   UNL     1      -9.278   2.992 -30.451  1.00  0.00     0.236 C 
BRANCH  17  18
HETATM   18  N   UNL     1      -9.839   2.114 -31.539  1.00  0.00    -0.067 N 
HETATM   19  H   UNL     1     -10.737   1.728 -31.194  1.00  0.00     0.280 HD
HETATM   20  C   UNL     1     -10.105   2.827 -32.857  1.00  0.00     0.261 C 
HETATM   21  C   UNL     1     -10.629   1.831 -33.897  1.00  0.00     0.195 C 
HETATM   22  O   UNL     1      -9.705   0.753 -34.084  1.00  0.00    -0.388 OA
HETATM   23  C   UNL     1      -9.525   0.009 -32.874  1.00  0.00     0.195 C 
HETATM   24  C   UNL     1      -8.941   0.896 -31.771  1.00  0.00     0.261 C 
ENDBRANCH  17  18
ENDBRANCH  16  17
ENDBRANCH  15  16
ENDBRANCH  13  15
ENDBRANCH  11  13
ENDBRANCH   1  11
BRANCH   1  25
HETATM   25  C   UNL     1      -4.935   2.181 -31.165  1.00  0.00     0.169 C 
BRANCH  25  26
HETATM   26  C   UNL     1      -4.583   0.984 -32.012  1.00  0.00     0.029 C 
HETATM   27  C   UNL     1      -3.331   0.245 -31.663  1.00  0.00     0.253 C 
HETATM   28  O   UNL     1      -2.500   0.714 -30.889  1.00  0.00    -0.268 OA
HETATM   29  N   UNL     1      -3.172  -0.999 -32.211  1.00  0.00    -0.322 N 
HETATM   30  C   UNL     1      -4.097  -1.586 -33.084  1.00  0.00     0.048 A 
HETATM   31  H   UNL     1      -2.350  -1.513 -31.923  1.00  0.00     0.169 HD
HETATM   32  C   UNL     1      -5.204  -0.826 -33.519  1.00  0.00    -0.006 A 
HETATM   33  C   UNL     1      -3.943  -2.920 -33.461  1.00  0.00     0.070 A 
HETATM   34  C   UNL     1      -6.179  -1.408 -34.337  1.00  0.00     0.053 A 
HETATM   35  C   UNL     1      -5.388   0.524 -32.987  1.00  0.00     0.028 C 
HETATM   36  C   UNL     1      -6.026  -2.738 -34.660  1.00  0.00     0.106 A 
HETATM   37  C   UNL     1      -4.943  -3.472 -34.233  1.00  0.00     0.107 A 
HETATM   38  O   UNL     1      -6.911  -3.484 -35.371  1.00  0.00    -0.323 OA
HETATM   39  O   UNL     1      -5.015  -4.772 -34.627  1.00  0.00    -0.323 OA
HETATM   40  C   UNL     1      -6.296  -4.787 -35.293  1.00  0.00     0.352 A 
ENDBRANCH  25  26
ENDBRANCH   1  25
TORSDOF 11
ENDMDL
MODEL 6
REMARK VINA RESULT:      -8.3      2.026      2.914
REMARK  11 active torsions:
REMARK  status: ('A' for Active; 'I' for Inactive)
REMARK    1  A    between atoms: O_2  and  C_3 
REMARK    2  A    between atoms: C_6  and  C_7 
REMARK    3  A    between atoms: C_7  and  N_8 
REMARK    4  A    between atoms: N_8  and  C_9 
REMARK    5  A    between atoms: N_8  and  C_22 
REMARK    6  A    between atoms: C_9  and  N_10 
REMARK    7  A    between atoms: N_10  and  C_11 
REMARK    8  A    between atoms: C_11  and  C_12 
REMARK    9  A    between atoms: C_12  and  C_13 
REMARK   10  A    between atoms: C_13  and  N_14 
REMARK   11  A    between atoms: C_22  and  C_23 
ROOT
HETATM    1  N   UNL     1      -8.520   3.036 -33.608  1.00  0.00    -0.350 N 
ENDROOT
BRANCH   1   2
HETATM    2  C   UNL     1      -9.532   2.730 -34.645  1.00  0.00     0.164 C 
BRANCH   2   3
HETATM    3  C   UNL     1     -10.928   2.422 -34.160  1.00  0.00    -0.040 A 
HETATM    4  C   UNL     1     -11.885   3.425 -33.959  1.00  0.00     0.011 A 
HETATM    5  C   UNL     1     -13.194   3.087 -33.592  1.00  0.00     0.037 A 
HETATM    6  C   UNL     1     -13.552   1.747 -33.435  1.00  0.00     0.068 A 
HETATM    7  C   UNL     1     -12.603   0.746 -33.609  1.00  0.00     0.037 A 
HETATM    8  C   UNL     1     -11.305   1.079 -33.987  1.00  0.00     0.011 A 
BRANCH   6   9
HETATM    9  O   UNL     1     -14.801   1.335 -33.065  1.00  0.00    -0.356 OA
HETATM   10  C   UNL     1     -15.366   2.117 -32.014  1.00  0.00     0.210 C 
ENDBRANCH   6   9
ENDBRANCH   2   3
ENDBRANCH   1   2
BRANCH   1  11
HETATM   11  C   UNL     1      -8.418   4.332 -33.060  1.00  0.00     0.170 C 
HETATM   12  S   UNL     1      -9.107   5.725 -33.703  1.00  0.00    -0.041 SA
BRANCH  11  13
HETATM   13  N   UNL     1      -7.627   4.351 -31.921  1.00  0.00    -0.367 N 
HETATM   14  H   UNL     1      -7.724   3.543 -31.318  1.00  0.00     0.161 HD
BRANCH  13  15
HETATM   15  C   UNL     1      -7.026   5.523 -31.300  1.00  0.00     0.123 C 
BRANCH  15  16
HETATM   16  C   UNL     1      -5.522   5.606 -31.539  1.00  0.00     0.047 C 
BRANCH  16  17
HETATM   17  C   UNL     1      -5.090   5.984 -32.954  1.00  0.00     0.236 C 
BRANCH  17  18
HETATM   18  N   UNL     1      -3.616   5.823 -33.215  1.00  0.00    -0.067 N 
HETATM   19  H   UNL     1      -3.274   5.058 -32.605  1.00  0.00     0.280 HD
HETATM   20  C   UNL     1      -3.259   5.476 -34.653  1.00  0.00     0.261 C 
HETATM   21  C   UNL     1      -1.737   5.383 -34.809  1.00  0.00     0.195 C 
HETATM   22  O   UNL     1      -1.106   6.606 -34.414  1.00  0.00    -0.388 OA
HETATM   23  C   UNL     1      -1.348   6.890 -33.032  1.00  0.00     0.195 C 
HETATM   24  C   UNL     1      -2.847   7.068 -32.767  1.00  0.00     0.261 C 
ENDBRANCH  17  18
ENDBRANCH  16  17
ENDBRANCH  15  16
ENDBRANCH  13  15
ENDBRANCH  11  13
ENDBRANCH   1  11
BRANCH   1  25
HETATM   25  C   UNL     1      -8.286   1.904 -32.664  1.00  0.00     0.169 C 
BRANCH  25  26
HETATM   26  C   UNL     1      -7.256   0.972 -33.250  1.00  0.00     0.029 C 
HETATM   27  C   UNL     1      -5.818   1.310 -33.016  1.00  0.00     0.253 C 
HETATM   28  O   UNL     1      -5.475   2.407 -32.582  1.00  0.00    -0.268 OA
HETATM   29  N   UNL     1      -4.901   0.324 -33.266  1.00  0.00    -0.322 N 
HETATM   30  C   UNL     1      -5.240  -0.948 -33.744  1.00  0.00     0.048 A 
HETATM   31  H   UNL     1      -3.938   0.544 -33.050  1.00  0.00     0.169 HD
HETATM   32  C   UNL     1      -6.582  -1.210 -34.097  1.00  0.00    -0.006 A 
HETATM   33  C   UNL     1      -4.267  -1.945 -33.810  1.00  0.00     0.070 A 
HETATM   34  C   UNL     1      -6.963  -2.491 -34.512  1.00  0.00     0.053 A 
HETATM   35  C   UNL     1      -7.586  -0.169 -33.882  1.00  0.00     0.028 C 
HETATM   36  C   UNL     1      -5.992  -3.468 -34.528  1.00  0.00     0.106 A 
HETATM   37  C   UNL     1      -4.686  -3.204 -34.184  1.00  0.00     0.107 A 
HETATM   38  O   UNL     1      -6.197  -4.779 -34.823  1.00  0.00    -0.323 OA
HETATM   39  O   UNL     1      -3.908  -4.319 -34.224  1.00  0.00    -0.323 OA
HETATM   40  C   UNL     1      -4.886  -5.325 -34.568  1.00  0.00     0.352 A 
ENDBRANCH  25  26
ENDBRANCH   1  25
TORSDOF 11
ENDMDL
MODEL 7
REMARK VINA RESULT:      -8.2      1.979      2.622
REMARK  11 active torsions:
REMARK  status: ('A' for Active; 'I' for Inactive)
REMARK    1  A    between atoms: O_2  and  C_3 
REMARK    2  A    between atoms: C_6  and  C_7 
REMARK    3  A    between atoms: C_7  and  N_8 
REMARK    4  A    between atoms: N_8  and  C_9 
REMARK    5  A    between atoms: N_8  and  C_22 
REMARK    6  A    between atoms: C_9  and  N_10 
REMARK    7  A    between atoms: N_10  and  C_11 
REMARK    8  A    between atoms: C_11  and  C_12 
REMARK    9  A    between atoms: C_12  and  C_13 
REMARK   10  A    between atoms: C_13  and  N_14 
REMARK   11  A    between atoms: C_22  and  C_23 
ROOT
HETATM    1  N   UNL     1      -5.658   3.107 -32.007  1.00  0.00    -0.350 N 
ENDROOT
BRANCH   1   2
HETATM    2  C   UNL     1      -7.036   3.454 -31.587  1.00  0.00     0.164 C 
BRANCH   2   3
HETATM    3  C   UNL     1      -8.162   2.827 -32.372  1.00  0.00    -0.040 A 
HETATM    4  C   UNL     1      -8.770   1.629 -31.976  1.00  0.00     0.011 A 
HETATM    5  C   UNL     1      -9.869   1.128 -32.685  1.00  0.00     0.037 A 
HETATM    6  C   UNL     1     -10.370   1.828 -33.784  1.00  0.00     0.068 A 
HETATM    7  C   UNL     1      -9.758   3.006 -34.200  1.00  0.00     0.037 A 
HETATM    8  C   UNL     1      -8.674   3.512 -33.488  1.00  0.00     0.011 A 
BRANCH   6   9
HETATM    9  O   UNL     1     -11.427   1.400 -34.537  1.00  0.00    -0.356 OA
HETATM   10  C   UNL     1     -12.419   0.711 -33.778  1.00  0.00     0.210 C 
ENDBRANCH   6   9
ENDBRANCH   2   3
ENDBRANCH   1   2
BRANCH   1  11
HETATM   11  C   UNL     1      -4.787   4.096 -32.509  1.00  0.00     0.170 C 
HETATM   12  S   UNL     1      -4.940   4.875 -33.992  1.00  0.00    -0.041 SA
BRANCH  11  13
HETATM   13  N   UNL     1      -3.728   4.339 -31.647  1.00  0.00    -0.367 N 
HETATM   14  H   UNL     1      -3.715   3.767 -30.812  1.00  0.00     0.161 HD
BRANCH  13  15
HETATM   15  C   UNL     1      -2.916   5.546 -31.587  1.00  0.00     0.123 C 
BRANCH  15  16
HETATM   16  C   UNL     1      -1.469   5.259 -31.197  1.00  0.00     0.047 C 
BRANCH  16  17
HETATM   17  C   UNL     1      -0.769   6.345 -30.383  1.00  0.00     0.236 C 
BRANCH  17  18
HETATM   18  N   UNL     1      -1.124   6.348 -28.920  1.00  0.00    -0.067 N 
HETATM   19  H   UNL     1      -1.824   5.599 -28.769  1.00  0.00     0.280 HD
HETATM   20  C   UNL     1       0.046   6.099 -27.981  1.00  0.00     0.261 C 
HETATM   21  C   UNL     1      -0.424   6.170 -26.524  1.00  0.00     0.195 C 
HETATM   22  O   UNL     1      -1.035   7.434 -26.244  1.00  0.00    -0.388 OA
HETATM   23  C   UNL     1      -2.201   7.637 -27.050  1.00  0.00     0.195 C 
HETATM   24  C   UNL     1      -1.839   7.648 -28.538  1.00  0.00     0.261 C 
ENDBRANCH  17  18
ENDBRANCH  16  17
ENDBRANCH  15  16
ENDBRANCH  13  15
ENDBRANCH  11  13
ENDBRANCH   1  11
BRANCH   1  25
HETATM   25  C   UNL     1      -5.032   2.052 -31.156  1.00  0.00     0.169 C 
BRANCH  25  26
HETATM   26  C   UNL     1      -4.658   0.874 -32.019  1.00  0.00     0.029 C 
HETATM   27  C   UNL     1      -3.381   0.168 -31.694  1.00  0.00     0.253 C 
HETATM   28  O   UNL     1      -2.553   0.653 -30.926  1.00  0.00    -0.268 OA
HETATM   29  N   UNL     1      -3.194  -1.066 -32.256  1.00  0.00    -0.322 N 
HETATM   30  C   UNL     1      -4.113  -1.671 -33.122  1.00  0.00     0.048 A 
HETATM   31  H   UNL     1      -2.354  -1.560 -31.984  1.00  0.00     0.169 HD
HETATM   32  C   UNL     1      -5.247  -0.939 -33.535  1.00  0.00    -0.006 A 
HETATM   33  C   UNL     1      -3.927  -2.997 -33.514  1.00  0.00     0.070 A 
HETATM   34  C   UNL     1      -6.217  -1.541 -34.345  1.00  0.00     0.053 A 
HETATM   35  C   UNL     1      -5.463   0.400 -32.988  1.00  0.00     0.028 C 
HETATM   36  C   UNL     1      -6.030  -2.863 -34.684  1.00  0.00     0.106 A 
HETATM   37  C   UNL     1      -4.921  -3.570 -34.278  1.00  0.00     0.107 A 
HETATM   38  O   UNL     1      -6.904  -3.627 -35.390  1.00  0.00    -0.323 OA
HETATM   39  O   UNL     1      -4.961  -4.868 -34.683  1.00  0.00    -0.323 OA
HETATM   40  C   UNL     1      -6.251  -4.913 -35.333  1.00  0.00     0.352 A 
ENDBRANCH  25  26
ENDBRANCH   1  25
TORSDOF 11
ENDMDL
MODEL 8
REMARK VINA RESULT:      -8.2      1.204      1.822
REMARK  11 active torsions:
REMARK  status: ('A' for Active; 'I' for Inactive)
REMARK    1  A    between atoms: O_2  and  C_3 
REMARK    2  A    between atoms: C_6  and  C_7 
REMARK    3  A    between atoms: C_7  and  N_8 
REMARK    4  A    between atoms: N_8  and  C_9 
REMARK    5  A    between atoms: N_8  and  C_22 
REMARK    6  A    between atoms: C_9  and  N_10 
REMARK    7  A    between atoms: N_10  and  C_11 
REMARK    8  A    between atoms: C_11  and  C_12 
REMARK    9  A    between atoms: C_12  and  C_13 
REMARK   10  A    between atoms: C_13  and  N_14 
REMARK   11  A    between atoms: C_22  and  C_23 
ROOT
HETATM    1  N   UNL     1      -6.359   2.717 -31.652  1.00  0.00    -0.350 N 
ENDROOT
BRANCH   1   2
HETATM    2  C   UNL     1      -7.583   2.381 -30.889  1.00  0.00     0.164 C 
BRANCH   2   3
HETATM    3  C   UNL     1      -8.794   1.974 -31.693  1.00  0.00    -0.040 A 
HETATM    4  C   UNL     1      -9.714   2.911 -32.180  1.00  0.00     0.011 A 
HETATM    5  C   UNL     1     -10.775   2.498 -32.995  1.00  0.00     0.037 A 
HETATM    6  C   UNL     1     -10.913   1.151 -33.335  1.00  0.00     0.068 A 
HETATM    7  C   UNL     1     -10.019   0.210 -32.837  1.00  0.00     0.037 A 
HETATM    8  C   UNL     1      -8.955   0.621 -32.037  1.00  0.00     0.011 A 
BRANCH   6   9
HETATM    9  O   UNL     1     -11.928   0.666 -34.112  1.00  0.00    -0.356 OA
HETATM   10  C   UNL     1     -12.399   1.605 -35.077  1.00  0.00     0.210 C 
ENDBRANCH   6   9
ENDBRANCH   2   3
ENDBRANCH   1   2
BRANCH   1  11
HETATM   11  C   UNL     1      -6.191   3.998 -32.218  1.00  0.00     0.170 C 
HETATM   12  S   UNL     1      -5.412   4.333 -33.670  1.00  0.00    -0.041 SA
BRANCH  11  13
HETATM   13  N   UNL     1      -6.713   4.994 -31.406  1.00  0.00    -0.367 N 
HETATM   14  H   UNL     1      -7.330   5.647 -31.872  1.00  0.00     0.161 HD
BRANCH  13  15
HETATM   15  C   UNL     1      -6.172   5.449 -30.132  1.00  0.00     0.123 C 
BRANCH  15  16
HETATM   16  C   UNL     1      -5.275   6.673 -30.281  1.00  0.00     0.047 C 
BRANCH  16  17
HETATM   17  C   UNL     1      -3.774   6.419 -30.158  1.00  0.00     0.236 C 
BRANCH  17  18
HETATM   18  N   UNL     1      -3.073   6.201 -31.473  1.00  0.00    -0.067 N 
HETATM   19  H   UNL     1      -3.635   5.518 -32.014  1.00  0.00     0.280 HD
HETATM   20  C   UNL     1      -2.906   7.454 -32.320  1.00  0.00     0.261 C 
HETATM   21  C   UNL     1      -2.143   7.120 -33.607  1.00  0.00     0.195 C 
HETATM   22  O   UNL     1      -0.870   6.538 -33.311  1.00  0.00    -0.388 OA
HETATM   23  C   UNL     1      -1.016   5.302 -32.603  1.00  0.00     0.195 C 
HETATM   24  C   UNL     1      -1.717   5.525 -31.258  1.00  0.00     0.261 C 
ENDBRANCH  17  18
ENDBRANCH  16  17
ENDBRANCH  15  16
ENDBRANCH  13  15
ENDBRANCH  11  13
ENDBRANCH   1  11
BRANCH   1  25
HETATM   25  C   UNL     1      -5.129   2.077 -31.101  1.00  0.00     0.169 C 
BRANCH  25  26
HETATM   26  C   UNL     1      -4.739   0.912 -31.975  1.00  0.00     0.029 C 
HETATM   27  C   UNL     1      -3.445   0.230 -31.666  1.00  0.00     0.253 C 
HETATM   28  O   UNL     1      -2.620   0.726 -30.903  1.00  0.00    -0.268 OA
HETATM   29  N   UNL     1      -3.238  -0.996 -32.239  1.00  0.00    -0.322 N 
HETATM   30  C   UNL     1      -4.153  -1.614 -33.101  1.00  0.00     0.048 A 
HETATM   31  H   UNL     1      -2.386  -1.475 -31.978  1.00  0.00     0.169 HD
HETATM   32  C   UNL     1      -5.305  -0.901 -33.499  1.00  0.00    -0.006 A 
HETATM   33  C   UNL     1      -3.943  -2.933 -33.505  1.00  0.00     0.070 A 
HETATM   34  C   UNL     1      -6.269  -1.517 -34.305  1.00  0.00     0.053 A 
HETATM   35  C   UNL     1      -5.542   0.429 -32.941  1.00  0.00     0.028 C 
HETATM   36  C   UNL     1      -6.060  -2.833 -34.655  1.00  0.00     0.106 A 
HETATM   37  C   UNL     1      -4.933  -3.520 -34.264  1.00  0.00     0.107 A 
HETATM   38  O   UNL     1      -6.924  -3.609 -35.359  1.00  0.00    -0.323 OA
HETATM   39  O   UNL     1      -4.951  -4.815 -34.678  1.00  0.00    -0.323 OA
HETATM   40  C   UNL     1      -6.245  -4.882 -35.317  1.00  0.00     0.352 A 
ENDBRANCH  25  26
ENDBRANCH   1  25
TORSDOF 11
ENDMDL
MODEL 9
REMARK VINA RESULT:      -8.1      2.640      6.970
REMARK  11 active torsions:
REMARK  status: ('A' for Active; 'I' for Inactive)
REMARK    1  A    between atoms: O_2  and  C_3 
REMARK    2  A    between atoms: C_6  and  C_7 
REMARK    3  A    between atoms: C_7  and  N_8 
REMARK    4  A    between atoms: N_8  and  C_9 
REMARK    5  A    between atoms: N_8  and  C_22 
REMARK    6  A    between atoms: C_9  and  N_10 
REMARK    7  A    between atoms: N_10  and  C_11 
REMARK    8  A    between atoms: C_11  and  C_12 
REMARK    9  A    between atoms: C_12  and  C_13 
REMARK   10  A    between atoms: C_13  and  N_14 
REMARK   11  A    between atoms: C_22  and  C_23 
ROOT
HETATM    1  N   UNL     1      -7.405   0.796 -33.669  1.00  0.00    -0.350 N 
ENDROOT
BRANCH   1   2
HETATM    2  C   UNL     1      -6.692   0.160 -34.801  1.00  0.00     0.164 C 
BRANCH   2   3
HETATM    3  C   UNL     1      -6.298  -1.287 -34.627  1.00  0.00    -0.040 A 
HETATM    4  C   UNL     1      -7.219  -2.332 -34.773  1.00  0.00     0.011 A 
HETATM    5  C   UNL     1      -6.793  -3.664 -34.689  1.00  0.00     0.037 A 
HETATM    6  C   UNL     1      -5.445  -3.954 -34.471  1.00  0.00     0.068 A 
HETATM    7  C   UNL     1      -4.527  -2.923 -34.302  1.00  0.00     0.037 A 
HETATM    8  C   UNL     1      -4.947  -1.599 -34.398  1.00  0.00     0.011 A 
BRANCH   6   9
HETATM    9  O   UNL     1      -4.952  -5.224 -34.362  1.00  0.00    -0.356 OA
HETATM   10  C   UNL     1      -3.794  -5.311 -33.532  1.00  0.00     0.210 C 
ENDBRANCH   6   9
ENDBRANCH   2   3
ENDBRANCH   1   2
BRANCH   1  11
HETATM   11  C   UNL     1      -8.812   0.890 -33.665  1.00  0.00     0.170 C 
HETATM   12  S   UNL     1      -9.854  -0.053 -32.741  1.00  0.00    -0.041 SA
BRANCH  11  13
HETATM   13  N   UNL     1      -9.270   1.842 -34.564  1.00  0.00    -0.367 N 
HETATM   14  H   UNL     1      -8.581   2.168 -35.230  1.00  0.00     0.161 HD
BRANCH  13  15
HETATM   15  C   UNL     1     -10.436   2.700 -34.403  1.00  0.00     0.123 C 
BRANCH  15  16
HETATM   16  C   UNL     1     -10.096   4.180 -34.536  1.00  0.00     0.047 C 
BRANCH  16  17
HETATM   17  C   UNL     1     -10.763   5.112 -33.527  1.00  0.00     0.236 C 
BRANCH  17  18
HETATM   18  N   UNL     1      -9.885   5.497 -32.365  1.00  0.00    -0.067 N 
HETATM   19  H   UNL     1     -10.148   6.459 -32.083  1.00  0.00     0.280 HD
HETATM   20  C   UNL     1     -10.012   4.595 -31.147  1.00  0.00     0.261 C 
HETATM   21  C   UNL     1      -9.043   5.053 -30.051  1.00  0.00     0.195 C 
HETATM   22  O   UNL     1      -7.695   5.066 -30.531  1.00  0.00    -0.388 OA
HETATM   23  C   UNL     1      -7.538   5.990 -31.613  1.00  0.00     0.195 C 
HETATM   24  C   UNL     1      -8.420   5.592 -32.801  1.00  0.00     0.261 C 
ENDBRANCH  17  18
ENDBRANCH  16  17
ENDBRANCH  15  16
ENDBRANCH  13  15
ENDBRANCH  11  13
ENDBRANCH   1  11
BRANCH   1  25
HETATM   25  C   UNL     1      -6.761   0.535 -32.348  1.00  0.00     0.169 C 
BRANCH  25  26
HETATM   26  C   UNL     1      -5.755   1.621 -32.061  1.00  0.00     0.029 C 
HETATM   27  C   UNL     1      -4.638   1.287 -31.124  1.00  0.00     0.253 C 
HETATM   28  O   UNL     1      -4.659   0.272 -30.432  1.00  0.00    -0.268 OA
HETATM   29  N   UNL     1      -3.570   2.142 -31.104  1.00  0.00    -0.322 N 
HETATM   30  C   UNL     1      -3.489   3.301 -31.885  1.00  0.00     0.048 A 
HETATM   31  H   UNL     1      -2.795   1.877 -30.510  1.00  0.00     0.169 HD
HETATM   32  C   UNL     1      -4.606   3.683 -32.658  1.00  0.00    -0.006 A 
HETATM   33  C   UNL     1      -2.296   4.024 -31.931  1.00  0.00     0.070 A 
HETATM   34  C   UNL     1      -4.531   4.799 -33.500  1.00  0.00     0.053 A 
HETATM   35  C   UNL     1      -5.784   2.817 -32.676  1.00  0.00     0.028 C 
HETATM   36  C   UNL     1      -3.329   5.470 -33.560  1.00  0.00     0.106 A 
HETATM   37  C   UNL     1      -2.245   5.092 -32.801  1.00  0.00     0.107 A 
HETATM   38  O   UNL     1      -3.051   6.518 -34.378  1.00  0.00    -0.323 OA
HETATM   39  O   UNL     1      -1.151   5.860 -33.050  1.00  0.00    -0.323 OA
HETATM   40  C   UNL     1      -1.650   6.721 -34.096  1.00  0.00     0.352 A 
ENDBRANCH  25  26
ENDBRANCH   1  25
TORSDOF 11
ENDMDL
MODEL 10
REMARK VINA RESULT:      -8.0      2.048      5.802
REMARK  11 active torsions:
REMARK  status: ('A' for Active; 'I' for Inactive)
REMARK    1  A    between atoms: O_2  and  C_3 
REMARK    2  A    between atoms: C_6  and  C_7 
REMARK    3  A    between atoms: C_7  and  N_8 
REMARK    4  A    between atoms: N_8  and  C_9 
REMARK    5  A    between atoms: N_8  and  C_22 
REMARK    6  A    between atoms: C_9  and  N_10 
REMARK    7  A    between atoms: N_10  and  C_11 
REMARK    8  A    between atoms: C_11  and  C_12 
REMARK    9  A    between atoms: C_12  and  C_13 
REMARK   10  A    between atoms: C_13  and  N_14 
REMARK   11  A    between atoms: C_22  and  C_23 
ROOT
HETATM    1  N   UNL     1      -5.824   1.909 -31.582  1.00  0.00    -0.350 N 
ENDROOT
BRANCH   1   2
HETATM    2  C   UNL     1      -6.071   0.498 -31.205  1.00  0.00     0.164 C 
BRANCH   2   3
HETATM    3  C   UNL     1      -5.917  -0.532 -32.298  1.00  0.00    -0.040 A 
HETATM    4  C   UNL     1      -7.016  -1.039 -33.004  1.00  0.00     0.011 A 
HETATM    5  C   UNL     1      -6.821  -1.928 -34.068  1.00  0.00     0.037 A 
HETATM    6  C   UNL     1      -5.528  -2.304 -34.436  1.00  0.00     0.068 A 
HETATM    7  C   UNL     1      -4.432  -1.825 -33.727  1.00  0.00     0.037 A 
HETATM    8  C   UNL     1      -4.624  -0.930 -32.677  1.00  0.00     0.011 A 
BRANCH   6   9
HETATM    9  O   UNL     1      -5.254  -3.177 -35.451  1.00  0.00    -0.356 OA
HETATM   10  C   UNL     1      -6.026  -4.374 -35.392  1.00  0.00     0.210 C 
ENDBRANCH   6   9
ENDBRANCH   2   3
ENDBRANCH   1   2
BRANCH   1  11
HETATM   11  C   UNL     1      -4.754   2.631 -31.012  1.00  0.00     0.170 C 
HETATM   12  S   UNL     1      -3.124   2.409 -31.364  1.00  0.00    -0.041 SA
BRANCH  11  13
HETATM   13  N   UNL     1      -5.192   3.543 -30.064  1.00  0.00    -0.367 N 
HETATM   14  H   UNL     1      -5.098   3.241 -29.102  1.00  0.00     0.161 HD
BRANCH  13  15
HETATM   15  C   UNL     1      -6.118   4.646 -30.282  1.00  0.00     0.123 C 
BRANCH  15  16
HETATM   16  C   UNL     1      -5.484   5.798 -31.055  1.00  0.00     0.047 C 
BRANCH  16  17
HETATM   17  C   UNL     1      -4.056   6.163 -30.656  1.00  0.00     0.236 C 
BRANCH  17  18
HETATM   18  N   UNL     1      -3.083   6.203 -31.805  1.00  0.00    -0.067 N 
HETATM   19  H   UNL     1      -2.302   5.563 -31.573  1.00  0.00     0.280 HD
HETATM   20  C   UNL     1      -3.664   5.776 -33.144  1.00  0.00     0.261 C 
HETATM   21  C   UNL     1      -2.601   5.901 -34.242  1.00  0.00     0.195 C 
HETATM   22  O   UNL     1      -2.095   7.238 -34.315  1.00  0.00    -0.388 OA
HETATM   23  C   UNL     1      -1.453   7.616 -33.093  1.00  0.00     0.195 C 
HETATM   24  C   UNL     1      -2.444   7.590 -31.926  1.00  0.00     0.261 C 
ENDBRANCH  17  18
ENDBRANCH  16  17
ENDBRANCH  15  16
ENDBRANCH  13  15
ENDBRANCH  11  13
ENDBRANCH   1  11
BRANCH   1  25
HETATM   25  C   UNL     1      -6.115   2.194 -33.018  1.00  0.00     0.169 C 
BRANCH  25  26
HETATM   26  C   UNL     1      -7.571   2.558 -33.168  1.00  0.00     0.029 C 
HETATM   27  C   UNL     1      -7.886   3.831 -33.885  1.00  0.00     0.253 C 
HETATM   28  O   UNL     1      -7.018   4.665 -34.132  1.00  0.00    -0.268 OA
HETATM   29  N   UNL     1      -9.180   4.007 -34.295  1.00  0.00    -0.322 N 
HETATM   30  C   UNL     1     -10.203   3.081 -34.055  1.00  0.00     0.048 A 
HETATM   31  H   UNL     1      -9.370   4.845 -34.829  1.00  0.00     0.169 HD
HETATM   32  C   UNL     1      -9.928   1.951 -33.255  1.00  0.00    -0.006 A 
HETATM   33  C   UNL     1     -11.451   3.257 -34.652  1.00  0.00     0.070 A 
HETATM   34  C   UNL     1     -10.911   0.975 -33.054  1.00  0.00     0.053 A 
HETATM   35  C   UNL     1      -8.566   1.747 -32.764  1.00  0.00     0.028 C 
HETATM   36  C   UNL     1     -12.120   1.151 -33.689  1.00  0.00     0.106 A 
HETATM   37  C   UNL     1     -12.381   2.257 -34.467  1.00  0.00     0.107 A 
HETATM   38  O   UNL     1     -13.154   0.271 -33.674  1.00  0.00    -0.323 OA
HETATM   39  O   UNL     1     -13.616   2.206 -35.035  1.00  0.00    -0.323 OA
HETATM   40  C   UNL     1     -14.075   0.915 -34.580  1.00  0.00     0.352 A 
ENDBRANCH  25  26
ENDBRANCH   1  25
TORSDOF 11
ENDMDL
