MODEL 1
REMARK VINA RESULT:      -8.5      0.000      0.000
REMARK  3 active torsions:
REMARK  status: ('A' for Active; 'I' for Inactive)
REMARK    1  A    between atoms: C_3  and  N_4 
REMARK       I    between atoms: N_4  and  C_5 
REMARK       I    between atoms: C_5  and  N_6 
REMARK    2  A    between atoms: N_6  and  C_7 
REMARK    3  A    between atoms: C_7  and  C_8 
ROOT
HETATM    1  C   UNL     1      -5.633   0.152 -33.583  1.00  0.00    -0.036 A 
HETATM    2  C   UNL     1      -4.594  -0.782 -33.464  1.00  0.00     0.011 A 
HETATM    3  C   UNL     1      -4.750  -2.094 -33.929  1.00  0.00     0.023 A 
HETATM    4  C   UNL     1      -5.952  -2.496 -34.518  1.00  0.00     0.044 A 
HETATM    5  C   UNL     1      -6.111  -3.838 -34.994  1.00  0.00     0.099 C 
HETATM    6  N   UNL     1      -6.245  -4.925 -35.380  1.00  0.00    -0.191 NA
HETATM    7  C   UNL     1      -6.997  -1.581 -34.638  1.00  0.00     0.023 A 
HETATM    8  C   UNL     1      -6.838  -0.271 -34.174  1.00  0.00     0.011 A 
ENDROOT
BRANCH   1   9
HETATM    9  C   UNL     1      -5.528   1.582 -33.081  1.00  0.00     0.115 C 
HETATM   10  C   UNL     1      -6.828   2.057 -32.428  1.00  0.00     0.037 C 
BRANCH   9  11
HETATM   11  N   UNL     1      -4.306   1.881 -32.337  1.00  0.00    -0.335 N 
HETATM   12  C   UNL     1      -3.513   2.971 -32.173  1.00  0.00     0.321 C 
HETATM   13  N   UNL     1      -3.786   4.055 -32.949  1.00  0.00    -0.307 N 
HETATM   14  O   UNL     1      -2.606   2.881 -31.354  1.00  0.00    -0.247 OA
HETATM   15  H   UNL     1      -4.166   3.813 -33.847  1.00  0.00     0.170 HD
HETATM   16  H   UNL     1      -4.037   1.171 -31.664  1.00  0.00     0.165 HD
BRANCH  13  17
HETATM   17  C   UNL     1      -3.155   5.323 -32.902  1.00  0.00     0.059 A 
HETATM   18  C   UNL     1      -2.199   5.822 -33.799  1.00  0.00    -0.032 A 
HETATM   19  C   UNL     1      -1.605   5.051 -34.944  1.00  0.00     0.050 C 
HETATM   20  C   UNL     1      -1.733   7.136 -33.611  1.00  0.00     0.028 A 
HETATM   21  C   UNL     1      -2.170   7.874 -32.523  1.00  0.00     0.117 A 
HETATM   22  N   UNL     1      -3.030   7.399 -31.605  1.00  0.00    -0.271 NA
HETATM   23  C   UNL     1      -3.494   6.146 -31.818  1.00  0.00     0.146 A 
ENDBRANCH  13  17
ENDBRANCH   9  11
ENDBRANCH   1   9
TORSDOF 3
ENDMDL
MODEL 2
REMARK VINA RESULT:      -8.3      0.839      1.865
REMARK  3 active torsions:
REMARK  status: ('A' for Active; 'I' for Inactive)
REMARK    1  A    between atoms: C_3  and  N_4 
REMARK       I    between atoms: N_4  and  C_5 
REMARK       I    between atoms: C_5  and  N_6 
REMARK    2  A    between atoms: N_6  and  C_7 
REMARK    3  A    between atoms: C_7  and  C_8 
ROOT
HETATM    1  C   UNL     1      -5.780   0.133 -33.635  1.00  0.00    -0.036 A 
HETATM    2  C   UNL     1      -6.926  -0.367 -34.267  1.00  0.00     0.011 A 
HETATM    3  C   UNL     1      -6.988  -1.698 -34.697  1.00  0.00     0.023 A 
HETATM    4  C   UNL     1      -5.900  -2.553 -34.505  1.00  0.00     0.044 A 
HETATM    5  C   UNL     1      -5.963  -3.915 -34.945  1.00  0.00     0.099 C 
HETATM    6  N   UNL     1      -6.009  -5.020 -35.300  1.00  0.00    -0.191 NA
HETATM    7  C   UNL     1      -4.748  -2.070 -33.883  1.00  0.00     0.023 A 
HETATM    8  C   UNL     1      -4.690  -0.740 -33.454  1.00  0.00     0.011 A 
ENDROOT
BRANCH   1   9
HETATM    9  C   UNL     1      -5.648   1.572 -33.163  1.00  0.00     0.115 C 
HETATM   10  C   UNL     1      -6.946   2.093 -32.544  1.00  0.00     0.037 C 
BRANCH   9  11
HETATM   11  N   UNL     1      -4.431   1.857 -32.405  1.00  0.00    -0.335 N 
HETATM   12  C   UNL     1      -3.576   2.908 -32.305  1.00  0.00     0.321 C 
HETATM   13  N   UNL     1      -3.759   3.938 -33.175  1.00  0.00    -0.307 N 
HETATM   14  O   UNL     1      -2.700   2.831 -31.450  1.00  0.00    -0.247 OA
HETATM   15  H   UNL     1      -4.127   3.645 -34.063  1.00  0.00     0.170 HD
HETATM   16  H   UNL     1      -4.227   1.191 -31.668  1.00  0.00     0.165 HD
BRANCH  13  17
HETATM   17  C   UNL     1      -3.050   5.165 -33.210  1.00  0.00     0.059 A 
HETATM   18  C   UNL     1      -3.267   6.285 -32.395  1.00  0.00    -0.032 A 
HETATM   19  C   UNL     1      -4.364   6.412 -31.377  1.00  0.00     0.050 C 
HETATM   20  C   UNL     1      -2.413   7.393 -32.547  1.00  0.00     0.028 A 
HETATM   21  C   UNL     1      -1.435   7.380 -33.529  1.00  0.00     0.117 A 
HETATM   22  N   UNL     1      -1.249   6.352 -34.374  1.00  0.00    -0.271 NA
HETATM   23  C   UNL     1      -2.056   5.281 -34.193  1.00  0.00     0.146 A 
ENDBRANCH  13  17
ENDBRANCH   9  11
ENDBRANCH   1   9
TORSDOF 3
ENDMDL
MODEL 3
REMARK VINA RESULT:      -7.4      4.095      6.743
REMARK  3 active torsions:
REMARK  status: ('A' for Active; 'I' for Inactive)
REMARK    1  A    between atoms: C_3  and  N_4 
REMARK       I    between atoms: N_4  and  C_5 
REMARK       I    between atoms: C_5  and  N_6 
REMARK    2  A    between atoms: N_6  and  C_7 
REMARK    3  A    between atoms: C_7  and  C_8 
ROOT
HETATM    1  C   UNL     1      -6.202  -0.054 -33.667  1.00  0.00    -0.036 A 
HETATM    2  C   UNL     1      -7.186  -0.750 -34.382  1.00  0.00     0.011 A 
HETATM    3  C   UNL     1      -6.998  -2.089 -34.746  1.00  0.00     0.023 A 
HETATM    4  C   UNL     1      -5.818  -2.754 -34.405  1.00  0.00     0.044 A 
HETATM    5  C   UNL     1      -5.626  -4.125 -34.778  1.00  0.00     0.099 C 
HETATM    6  N   UNL     1      -5.466  -5.235 -35.079  1.00  0.00    -0.191 NA
HETATM    7  C   UNL     1      -4.826  -2.074 -33.700  1.00  0.00     0.023 A 
HETATM    8  C   UNL     1      -5.016  -0.737 -33.336  1.00  0.00     0.011 A 
ENDROOT
BRANCH   1   9
HETATM    9  C   UNL     1      -6.341   1.404 -33.261  1.00  0.00     0.115 C 
HETATM   10  C   UNL     1      -6.251   2.346 -34.463  1.00  0.00     0.037 C 
BRANCH   9  11
HETATM   11  N   UNL     1      -7.435   1.676 -32.330  1.00  0.00    -0.335 N 
HETATM   12  C   UNL     1      -8.784   1.799 -32.430  1.00  0.00     0.321 C 
HETATM   13  N   UNL     1      -9.313   1.799 -33.684  1.00  0.00    -0.307 N 
HETATM   14  O   UNL     1      -9.410   1.918 -31.383  1.00  0.00    -0.247 OA
HETATM   15  H   UNL     1      -8.699   2.197 -34.372  1.00  0.00     0.170 HD
HETATM   16  H   UNL     1      -7.178   1.631 -31.350  1.00  0.00     0.165 HD
BRANCH  13  17
HETATM   17  C   UNL     1     -10.686   1.834 -34.034  1.00  0.00     0.059 A 
HETATM   18  C   UNL     1     -11.344   2.835 -34.762  1.00  0.00    -0.032 A 
HETATM   19  C   UNL     1     -10.713   4.112 -35.238  1.00  0.00     0.050 C 
HETATM   20  C   UNL     1     -12.708   2.654 -35.058  1.00  0.00     0.028 A 
HETATM   21  C   UNL     1     -13.377   1.542 -34.573  1.00  0.00     0.117 A 
HETATM   22  N   UNL     1     -12.793   0.601 -33.811  1.00  0.00    -0.271 NA
HETATM   23  C   UNL     1     -11.473   0.772 -33.564  1.00  0.00     0.146 A 
ENDBRANCH  13  17
ENDBRANCH   9  11
ENDBRANCH   1   9
TORSDOF 3
ENDMDL
MODEL 4
REMARK VINA RESULT:      -7.4      5.837      8.523
REMARK  3 active torsions:
REMARK  status: ('A' for Active; 'I' for Inactive)
REMARK    1  A    between atoms: C_3  and  N_4 
REMARK       I    between atoms: N_4  and  C_5 
REMARK       I    between atoms: C_5  and  N_6 
REMARK    2  A    between atoms: N_6  and  C_7 
REMARK    3  A    between atoms: C_7  and  C_8 
ROOT
HETATM    1  C   UNL     1     -12.381   1.710 -33.469  1.00  0.00    -0.036 A 
HETATM    2  C   UNL     1     -13.347   0.771 -33.855  1.00  0.00     0.011 A 
HETATM    3  C   UNL     1     -14.698   0.958 -33.534  1.00  0.00     0.023 A 
HETATM    4  C   UNL     1     -15.105   2.085 -32.816  1.00  0.00     0.044 A 
HETATM    5  C   UNL     1     -16.487   2.274 -32.488  1.00  0.00     0.099 C 
HETATM    6  N   UNL     1     -17.605   2.432 -32.219  1.00  0.00    -0.191 NA
HETATM    7  C   UNL     1     -14.154   3.025 -32.418  1.00  0.00     0.023 A 
HETATM    8  C   UNL     1     -12.806   2.838 -32.741  1.00  0.00     0.011 A 
ENDROOT
BRANCH   1   9
HETATM    9  C   UNL     1     -10.900   1.554 -33.772  1.00  0.00     0.115 C 
HETATM   10  C   UNL     1     -10.338   2.763 -34.523  1.00  0.00     0.037 C 
BRANCH   9  11
HETATM   11  N   UNL     1     -10.092   1.081 -32.649  1.00  0.00    -0.335 N 
HETATM   12  C   UNL     1      -8.904   0.438 -32.513  1.00  0.00     0.321 C 
HETATM   13  N   UNL     1      -8.314  -0.017 -33.652  1.00  0.00    -0.307 N 
HETATM   14  O   UNL     1      -8.472   0.305 -31.373  1.00  0.00    -0.247 OA
HETATM   15  H   UNL     1      -8.975  -0.282 -34.360  1.00  0.00     0.170 HD
HETATM   16  H   UNL     1     -10.393   1.419 -31.741  1.00  0.00     0.165 HD
BRANCH  13  17
HETATM   17  C   UNL     1      -7.047  -0.641 -33.769  1.00  0.00     0.059 A 
HETATM   18  C   UNL     1      -5.798  -0.065 -33.495  1.00  0.00    -0.032 A 
HETATM   19  C   UNL     1      -5.575   1.367 -33.099  1.00  0.00     0.050 C 
HETATM   20  C   UNL     1      -4.653  -0.874 -33.618  1.00  0.00     0.028 A 
HETATM   21  C   UNL     1      -4.775  -2.179 -34.066  1.00  0.00     0.117 A 
HETATM   22  N   UNL     1      -5.949  -2.738 -34.406  1.00  0.00    -0.271 NA
HETATM   23  C   UNL     1      -7.045  -1.958 -34.250  1.00  0.00     0.146 A 
ENDBRANCH  13  17
ENDBRANCH   9  11
ENDBRANCH   1   9
TORSDOF 3
ENDMDL
MODEL 5
REMARK VINA RESULT:      -7.2      3.452      5.664
REMARK  3 active torsions:
REMARK  status: ('A' for Active; 'I' for Inactive)
REMARK    1  A    between atoms: C_3  and  N_4 
REMARK       I    between atoms: N_4  and  C_5 
REMARK       I    between atoms: C_5  and  N_6 
REMARK    2  A    between atoms: N_6  and  C_7 
REMARK    3  A    between atoms: C_7  and  C_8 
ROOT
HETATM    1  C   UNL     1      -5.679   0.025 -33.351  1.00  0.00    -0.036 A 
HETATM    2  C   UNL     1      -6.892  -0.395 -33.916  1.00  0.00     0.011 A 
HETATM    3  C   UNL     1      -7.021  -1.675 -34.470  1.00  0.00     0.023 A 
HETATM    4  C   UNL     1      -5.938  -2.556 -34.473  1.00  0.00     0.044 A 
HETATM    5  C   UNL     1      -6.071  -3.865 -35.041  1.00  0.00     0.099 C 
HETATM    6  N   UNL     1      -6.174  -4.927 -35.500  1.00  0.00    -0.191 NA
HETATM    7  C   UNL     1      -4.722  -2.151 -33.922  1.00  0.00     0.023 A 
HETATM    8  C   UNL     1      -4.595  -0.873 -33.368  1.00  0.00     0.011 A 
ENDROOT
BRANCH   1   9
HETATM    9  C   UNL     1      -5.473   1.406 -32.752  1.00  0.00     0.115 C 
HETATM   10  C   UNL     1      -4.023   1.633 -32.321  1.00  0.00     0.037 C 
BRANCH   9  11
HETATM   11  N   UNL     1      -6.081   2.498 -33.510  1.00  0.00    -0.335 N 
HETATM   12  C   UNL     1      -7.289   3.119 -33.514  1.00  0.00     0.321 C 
HETATM   13  N   UNL     1      -8.265   2.577 -32.736  1.00  0.00    -0.307 N 
HETATM   14  O   UNL     1      -7.404   4.105 -34.233  1.00  0.00    -0.247 OA
HETATM   15  H   UNL     1      -8.190   1.580 -32.644  1.00  0.00     0.170 HD
HETATM   16  H   UNL     1      -5.432   3.031 -34.078  1.00  0.00     0.165 HD
BRANCH  13  17
HETATM   17  C   UNL     1      -9.568   3.089 -32.517  1.00  0.00     0.059 A 
HETATM   18  C   UNL     1     -10.749   2.688 -33.159  1.00  0.00    -0.032 A 
HETATM   19  C   UNL     1     -10.828   1.683 -34.272  1.00  0.00     0.050 C 
HETATM   20  C   UNL     1     -11.959   3.282 -32.756  1.00  0.00     0.028 A 
HETATM   21  C   UNL     1     -11.951   4.283 -31.797  1.00  0.00     0.117 A 
HETATM   22  N   UNL     1     -10.829   4.740 -31.215  1.00  0.00    -0.271 NA
HETATM   23  C   UNL     1      -9.677   4.135 -31.589  1.00  0.00     0.146 A 
ENDBRANCH  13  17
ENDBRANCH   9  11
ENDBRANCH   1   9
TORSDOF 3
ENDMDL
MODEL 6
REMARK VINA RESULT:      -7.2      5.413      8.220
REMARK  3 active torsions:
REMARK  status: ('A' for Active; 'I' for Inactive)
REMARK    1  A    between atoms: C_3  and  N_4 
REMARK       I    between atoms: N_4  and  C_5 
REMARK       I    between atoms: C_5  and  N_6 
REMARK    2  A    between atoms: N_6  and  C_7 
REMARK    3  A    between atoms: C_7  and  C_8 
ROOT
HETATM    1  C   UNL     1      -7.552   0.723 -33.274  1.00  0.00    -0.036 A 
HETATM    2  C   UNL     1      -7.759   0.058 -34.490  1.00  0.00     0.011 A 
HETATM    3  C   UNL     1      -6.958  -1.029 -34.861  1.00  0.00     0.023 A 
HETATM    4  C   UNL     1      -5.930  -1.467 -34.022  1.00  0.00     0.044 A 
HETATM    5  C   UNL     1      -5.110  -2.579 -34.402  1.00  0.00     0.099 C 
HETATM    6  N   UNL     1      -4.443  -3.479 -34.706  1.00  0.00    -0.191 NA
HETATM    7  C   UNL     1      -5.706  -0.812 -32.811  1.00  0.00     0.023 A 
HETATM    8  C   UNL     1      -6.509   0.273 -32.442  1.00  0.00     0.011 A 
ENDROOT
BRANCH   1   9
HETATM    9  C   UNL     1      -8.377   1.919 -32.826  1.00  0.00     0.115 C 
HETATM   10  C   UNL     1      -7.540   2.931 -32.041  1.00  0.00     0.037 C 
BRANCH   9  11
HETATM   11  N   UNL     1      -9.242   2.485 -33.859  1.00  0.00    -0.335 N 
HETATM   12  C   UNL     1     -10.580   2.527 -34.086  1.00  0.00     0.321 C 
HETATM   13  N   UNL     1     -11.370   1.786 -33.262  1.00  0.00    -0.307 N 
HETATM   14  O   UNL     1     -10.963   3.215 -35.026  1.00  0.00    -0.247 OA
HETATM   15  H   UNL     1     -10.921   0.951 -32.930  1.00  0.00     0.170 HD
HETATM   16  H   UNL     1      -8.777   3.121 -34.498  1.00  0.00     0.165 HD
BRANCH  13  17
HETATM   17  C   UNL     1     -12.786   1.734 -33.252  1.00  0.00     0.059 A 
HETATM   18  C   UNL     1     -13.656   2.618 -32.598  1.00  0.00    -0.032 A 
HETATM   19  C   UNL     1     -13.228   3.750 -31.708  1.00  0.00     0.050 C 
HETATM   20  C   UNL     1     -15.041   2.429 -32.760  1.00  0.00     0.028 A 
HETATM   21  C   UNL     1     -15.509   1.351 -33.494  1.00  0.00     0.117 A 
HETATM   22  N   UNL     1     -14.702   0.445 -34.073  1.00  0.00    -0.271 NA
HETATM   23  C   UNL     1     -13.373   0.659 -33.936  1.00  0.00     0.146 A 
ENDBRANCH  13  17
ENDBRANCH   9  11
ENDBRANCH   1   9
TORSDOF 3
ENDMDL
MODEL 7
REMARK VINA RESULT:      -7.1      1.826      2.379
REMARK  3 active torsions:
REMARK  status: ('A' for Active; 'I' for Inactive)
REMARK    1  A    between atoms: C_3  and  N_4 
REMARK       I    between atoms: N_4  and  C_5 
REMARK       I    between atoms: C_5  and  N_6 
REMARK    2  A    between atoms: N_6  and  C_7 
REMARK    3  A    between atoms: C_7  and  C_8 
ROOT
HETATM    1  C   UNL     1      -6.495   0.921 -33.712  1.00  0.00    -0.036 A 
HETATM    2  C   UNL     1      -7.341   0.458 -34.729  1.00  0.00     0.011 A 
HETATM    3  C   UNL     1      -7.367  -0.898 -35.080  1.00  0.00     0.023 A 
HETATM    4  C   UNL     1      -6.543  -1.814 -34.421  1.00  0.00     0.044 A 
HETATM    5  C   UNL     1      -6.570  -3.201 -34.780  1.00  0.00     0.099 C 
HETATM    6  N   UNL     1      -6.588  -4.326 -35.067  1.00  0.00    -0.191 NA
HETATM    7  C   UNL     1      -5.691  -1.368 -33.411  1.00  0.00     0.023 A 
HETATM    8  C   UNL     1      -5.667  -0.013 -33.062  1.00  0.00     0.011 A 
ENDROOT
BRANCH   1   9
HETATM    9  C   UNL     1      -6.410   2.382 -33.301  1.00  0.00     0.115 C 
HETATM   10  C   UNL     1      -7.620   3.185 -33.785  1.00  0.00     0.037 C 
BRANCH   9  11
HETATM   11  N   UNL     1      -6.026   2.603 -31.907  1.00  0.00    -0.335 N 
HETATM   12  C   UNL     1      -5.083   3.342 -31.268  1.00  0.00     0.321 C 
HETATM   13  N   UNL     1      -4.154   3.964 -32.045  1.00  0.00    -0.307 N 
HETATM   14  O   UNL     1      -5.136   3.371 -30.044  1.00  0.00    -0.247 OA
HETATM   15  H   UNL     1      -3.943   3.460 -32.888  1.00  0.00     0.170 HD
HETATM   16  H   UNL     1      -6.686   2.245 -31.226  1.00  0.00     0.165 HD
BRANCH  13  17
HETATM   17  C   UNL     1      -3.131   4.845 -31.616  1.00  0.00     0.059 A 
HETATM   18  C   UNL     1      -3.275   6.197 -31.272  1.00  0.00    -0.032 A 
HETATM   19  C   UNL     1      -4.549   6.985 -31.379  1.00  0.00     0.050 C 
HETATM   20  C   UNL     1      -2.140   6.889 -30.811  1.00  0.00     0.028 A 
HETATM   21  C   UNL     1      -0.911   6.251 -30.771  1.00  0.00     0.117 A 
HETATM   22  N   UNL     1      -0.726   4.978 -31.163  1.00  0.00    -0.271 NA
HETATM   23  C   UNL     1      -1.833   4.316 -31.572  1.00  0.00     0.146 A 
ENDBRANCH  13  17
ENDBRANCH   9  11
ENDBRANCH   1   9
TORSDOF 3
ENDMDL
MODEL 8
REMARK VINA RESULT:      -7.0      2.306      2.988
REMARK  3 active torsions:
REMARK  status: ('A' for Active; 'I' for Inactive)
REMARK    1  A    between atoms: C_3  and  N_4 
REMARK       I    between atoms: N_4  and  C_5 
REMARK       I    between atoms: C_5  and  N_6 
REMARK    2  A    between atoms: N_6  and  C_7 
REMARK    3  A    between atoms: C_7  and  C_8 
ROOT
HETATM    1  C   UNL     1      -7.368   0.670 -33.467  1.00  0.00    -0.036 A 
HETATM    2  C   UNL     1      -6.535   0.139 -32.472  1.00  0.00     0.011 A 
HETATM    3  C   UNL     1      -5.734  -0.982 -32.729  1.00  0.00     0.023 A 
HETATM    4  C   UNL     1      -5.757  -1.593 -33.985  1.00  0.00     0.044 A 
HETATM    5  C   UNL     1      -4.938  -2.740 -34.246  1.00  0.00     0.099 C 
HETATM    6  N   UNL     1      -4.276  -3.669 -34.463  1.00  0.00    -0.191 NA
HETATM    7  C   UNL     1      -6.586  -1.081 -34.983  1.00  0.00     0.023 A 
HETATM    8  C   UNL     1      -7.383   0.038 -34.725  1.00  0.00     0.011 A 
ENDROOT
BRANCH   1   9
HETATM    9  C   UNL     1      -8.271   1.871 -33.242  1.00  0.00     0.115 C 
HETATM   10  C   UNL     1      -8.809   1.924 -31.811  1.00  0.00     0.037 C 
BRANCH   9  11
HETATM   11  N   UNL     1      -7.750   3.133 -33.764  1.00  0.00    -0.335 N 
HETATM   12  C   UNL     1      -6.660   3.906 -33.521  1.00  0.00     0.321 C 
HETATM   13  N   UNL     1      -5.874   3.551 -32.469  1.00  0.00    -0.307 N 
HETATM   14  O   UNL     1      -6.487   4.870 -34.259  1.00  0.00    -0.247 OA
HETATM   15  H   UNL     1      -6.385   3.117 -31.722  1.00  0.00     0.170 HD
HETATM   16  H   UNL     1      -8.213   3.467 -34.603  1.00  0.00     0.165 HD
BRANCH  13  17
HETATM   17  C   UNL     1      -4.652   4.150 -32.073  1.00  0.00     0.059 A 
HETATM   18  C   UNL     1      -4.494   5.331 -31.334  1.00  0.00    -0.032 A 
HETATM   19  C   UNL     1      -5.615   6.229 -30.893  1.00  0.00     0.050 C 
HETATM   20  C   UNL     1      -3.190   5.730 -30.990  1.00  0.00     0.028 A 
HETATM   21  C   UNL     1      -2.103   4.998 -31.440  1.00  0.00     0.117 A 
HETATM   22  N   UNL     1      -2.217   3.903 -32.211  1.00  0.00    -0.271 NA
HETATM   23  C   UNL     1      -3.479   3.513 -32.505  1.00  0.00     0.146 A 
ENDBRANCH  13  17
ENDBRANCH   9  11
ENDBRANCH   1   9
TORSDOF 3
ENDMDL
MODEL 9
REMARK VINA RESULT:      -6.9      3.484      4.815
REMARK  3 active torsions:
REMARK  status: ('A' for Active; 'I' for Inactive)
REMARK    1  A    between atoms: C_3  and  N_4 
REMARK       I    between atoms: N_4  and  C_5 
REMARK       I    between atoms: C_5  and  N_6 
REMARK    2  A    between atoms: N_6  and  C_7 
REMARK    3  A    between atoms: C_7  and  C_8 
ROOT
HETATM    1  C   UNL     1      -4.391  -1.087 -32.793  1.00  0.00    -0.036 A 
HETATM    2  C   UNL     1      -5.588  -0.904 -33.498  1.00  0.00     0.011 A 
HETATM    3  C   UNL     1      -6.113  -1.926 -34.300  1.00  0.00     0.023 A 
HETATM    4  C   UNL     1      -5.446  -3.147 -34.413  1.00  0.00     0.044 A 
HETATM    5  C   UNL     1      -5.984  -4.192 -35.234  1.00  0.00     0.099 C 
HETATM    6  N   UNL     1      -6.415  -5.041 -35.898  1.00  0.00    -0.191 NA
HETATM    7  C   UNL     1      -4.250  -3.343 -33.723  1.00  0.00     0.023 A 
HETATM    8  C   UNL     1      -3.728  -2.322 -32.922  1.00  0.00     0.011 A 
ENDROOT
BRANCH   1   9
HETATM    9  C   UNL     1      -3.764  -0.010 -31.922  1.00  0.00     0.115 C 
HETATM   10  C   UNL     1      -3.467   1.265 -32.714  1.00  0.00     0.037 C 
BRANCH   9  11
HETATM   11  N   UNL     1      -4.419   0.190 -30.631  1.00  0.00    -0.335 N 
HETATM   12  C   UNL     1      -5.495   0.890 -30.189  1.00  0.00     0.321 C 
HETATM   13  N   UNL     1      -6.094   1.728 -31.078  1.00  0.00    -0.307 N 
HETATM   14  O   UNL     1      -5.826   0.721 -29.020  1.00  0.00    -0.247 OA
HETATM   15  H   UNL     1      -5.454   2.118 -31.746  1.00  0.00     0.170 HD
HETATM   16  H   UNL     1      -4.105  -0.436 -29.897  1.00  0.00     0.165 HD
BRANCH  13  17
HETATM   17  C   UNL     1      -7.269   2.494 -30.874  1.00  0.00     0.059 A 
HETATM   18  C   UNL     1      -7.370   3.716 -30.195  1.00  0.00    -0.032 A 
HETATM   19  C   UNL     1      -6.241   4.401 -29.478  1.00  0.00     0.050 C 
HETATM   20  C   UNL     1      -8.625   4.351 -30.152  1.00  0.00     0.028 A 
HETATM   21  C   UNL     1      -9.730   3.734 -30.714  1.00  0.00     0.117 A 
HETATM   22  N   UNL     1      -9.681   2.529 -31.309  1.00  0.00    -0.271 NA
HETATM   23  C   UNL     1      -8.461   1.947 -31.371  1.00  0.00     0.146 A 
ENDBRANCH  13  17
ENDBRANCH   9  11
ENDBRANCH   1   9
TORSDOF 3
ENDMDL
MODEL 10
REMARK VINA RESULT:      -6.8      4.300      7.074
REMARK  3 active torsions:
REMARK  status: ('A' for Active; 'I' for Inactive)
REMARK    1  A    between atoms: C_3  and  N_4 
REMARK       I    between atoms: N_4  and  C_5 
REMARK       I    between atoms: C_5  and  N_6 
REMARK    2  A    between atoms: N_6  and  C_7 
REMARK    3  A    between atoms: C_7  and  C_8 
ROOT
HETATM    1  C   UNL     1     -10.408   2.729 -32.628  1.00  0.00    -0.036 A 
HETATM    2  C   UNL     1     -11.594   3.476 -32.637  1.00  0.00     0.011 A 
HETATM    3  C   UNL     1     -12.778   2.940 -33.159  1.00  0.00     0.023 A 
HETATM    4  C   UNL     1     -12.794   1.646 -33.687  1.00  0.00     0.044 A 
HETATM    5  C   UNL     1     -14.006   1.098 -34.221  1.00  0.00     0.099 C 
HETATM    6  N   UNL     1     -14.984   0.650 -34.656  1.00  0.00    -0.191 NA
HETATM    7  C   UNL     1     -11.621   0.892 -33.691  1.00  0.00     0.023 A 
HETATM    8  C   UNL     1     -10.441   1.429 -33.168  1.00  0.00     0.011 A 
ENDROOT
BRANCH   1   9
HETATM    9  C   UNL     1      -9.091   3.264 -32.091  1.00  0.00     0.115 C 
HETATM   10  C   UNL     1      -8.767   2.703 -30.704  1.00  0.00     0.037 C 
BRANCH   9  11
HETATM   11  N   UNL     1      -7.987   3.243 -33.050  1.00  0.00    -0.335 N 
HETATM   12  C   UNL     1      -7.019   2.354 -33.394  1.00  0.00     0.321 C 
HETATM   13  N   UNL     1      -6.907   1.236 -32.627  1.00  0.00    -0.307 N 
HETATM   14  O   UNL     1      -6.316   2.644 -34.355  1.00  0.00    -0.247 OA
HETATM   15  H   UNL     1      -7.162   1.388 -31.667  1.00  0.00     0.170 HD
HETATM   16  H   UNL     1      -8.005   3.995 -33.730  1.00  0.00     0.165 HD
BRANCH  13  17
HETATM   17  C   UNL     1      -6.034   0.139 -32.836  1.00  0.00     0.059 A 
HETATM   18  C   UNL     1      -6.104  -0.807 -33.869  1.00  0.00    -0.032 A 
HETATM   19  C   UNL     1      -7.187  -0.871 -34.908  1.00  0.00     0.050 C 
HETATM   20  C   UNL     1      -5.102  -1.792 -33.936  1.00  0.00     0.028 A 
HETATM   21  C   UNL     1      -4.123  -1.848 -32.958  1.00  0.00     0.117 A 
HETATM   22  N   UNL     1      -4.070  -1.002 -31.915  1.00  0.00    -0.271 NA
HETATM   23  C   UNL     1      -5.021  -0.039 -31.883  1.00  0.00     0.146 A 
ENDBRANCH  13  17
ENDBRANCH   9  11
ENDBRANCH   1   9
TORSDOF 3
ENDMDL
