MODEL 1
REMARK VINA RESULT:      -9.2      0.000      0.000
REMARK  5 active torsions:
REMARK  status: ('A' for Active; 'I' for Inactive)
REMARK    1  A    between atoms: C_2  and  C_3 
REMARK    2  A    between atoms: C_7  and  C_8 
REMARK    3  A    between atoms: C_8  and  N_9 
REMARK       I    between atoms: N_9  and  C_10 
REMARK       I    between atoms: C_10  and  N_11 
REMARK    4  A    between atoms: N_11  and  C_12 
REMARK    5  A    between atoms: N_18  and  C_19 
ROOT
HETATM    1  N   UNL     1      -6.002   3.736 -31.127  1.00  0.00    -0.337 N 
HETATM    2  C   UNL     1      -6.878   3.206 -30.231  1.00  0.00     0.321 C 
HETATM    3  N   UNL     1      -7.143   1.875 -30.295  1.00  0.00    -0.309 N 
HETATM    4  O   UNL     1      -7.402   3.869 -29.337  1.00  0.00    -0.247 OA
HETATM    5  H   UNL     1      -5.309   3.075 -31.440  1.00  0.00     0.164 HD
HETATM    6  H   UNL     1      -7.655   1.586 -29.469  1.00  0.00     0.170 HD
ENDROOT
BRANCH   3   7
HETATM    7  C   UNL     1      -6.877   0.869 -31.242  1.00  0.00     0.037 A 
HETATM    8  C   UNL     1      -5.684   0.145 -31.316  1.00  0.00     0.047 A 
HETATM    9  C   UNL     1      -5.580  -0.818 -32.309  1.00  0.00     0.050 A 
HETATM   10  C   UNL     1      -6.593  -1.057 -33.216  1.00  0.00     0.048 A 
HETATM   11  C   UNL     1      -4.489  -1.741 -32.616  1.00  0.00     0.262 A 
HETATM   12  C   UNL     1      -6.157  -2.130 -34.106  1.00  0.00     0.262 A 
HETATM   13  C   UNL     1      -7.772  -0.346 -33.189  1.00  0.00     0.020 A 
HETATM   14  O   UNL     1      -6.858  -2.604 -34.980  1.00  0.00    -0.267 OA
HETATM   15  N   UNL     1      -4.881  -2.459 -33.720  1.00  0.00    -0.275 N 
HETATM   16  C   UNL     1      -7.902   0.630 -32.194  1.00  0.00     0.030 A 
HETATM   17  O   UNL     1      -3.475  -1.822 -31.947  1.00  0.00    -0.267 OA
BRANCH  15  18
HETATM   18  C   UNL     1      -4.124  -3.520 -34.305  1.00  0.00     0.096 A 
HETATM   19  C   UNL     1      -3.531  -4.618 -33.459  1.00  0.00     0.028 A 
HETATM   20  C   UNL     1      -4.658  -4.926 -34.397  1.00  0.00     0.028 A 
ENDBRANCH  15  18
ENDBRANCH   3   7
BRANCH   1  21
HETATM   21  C   UNL     1      -5.488   5.080 -30.954  1.00  0.00     0.183 C 
BRANCH  21  22
HETATM   22  C   UNL     1      -4.007   5.113 -30.944  1.00  0.00     0.047 A 
HETATM   23  N   UNL     1      -3.252   4.005 -31.213  1.00  0.00    -0.280 N 
HETATM   24  N   UNL     1      -1.934   4.248 -31.277  1.00  0.00    -0.178 NA
HETATM   25  H   UNL     1      -3.593   3.057 -31.377  1.00  0.00     0.189 HD
HETATM   26  C   UNL     1      -1.824   5.561 -31.031  1.00  0.00     0.064 A 
HETATM   27  C   UNL     1      -3.101   6.140 -30.796  1.00  0.00     0.058 A 
BRANCH  26  28
HETATM   28  C   UNL     1      -0.477   6.266 -31.086  1.00  0.00    -0.005 C 
HETATM   29  C   UNL     1       0.703   5.269 -31.081  1.00  0.00     0.021 C 
HETATM   30  C   UNL     1      -0.306   7.201 -29.873  1.00  0.00     0.021 C 
HETATM   31  C   UNL     1      -0.389   7.105 -32.378  1.00  0.00     0.021 C 
ENDBRANCH  26  28
ENDBRANCH  21  22
ENDBRANCH   1  21
TORSDOF 5
ENDMDL
MODEL 2
REMARK VINA RESULT:      -8.8      1.872      3.143
REMARK  5 active torsions:
REMARK  status: ('A' for Active; 'I' for Inactive)
REMARK    1  A    between atoms: C_2  and  C_3 
REMARK    2  A    between atoms: C_7  and  C_8 
REMARK    3  A    between atoms: C_8  and  N_9 
REMARK       I    between atoms: N_9  and  C_10 
REMARK       I    between atoms: C_10  and  N_11 
REMARK    4  A    between atoms: N_11  and  C_12 
REMARK    5  A    between atoms: N_18  and  C_19 
ROOT
HETATM    1  N   UNL     1      -2.991   4.123 -32.412  1.00  0.00    -0.337 N 
HETATM    2  C   UNL     1      -4.134   4.160 -31.676  1.00  0.00     0.321 C 
HETATM    3  N   UNL     1      -4.752   2.986 -31.382  1.00  0.00    -0.309 N 
HETATM    4  O   UNL     1      -4.604   5.203 -31.224  1.00  0.00    -0.247 OA
HETATM    5  H   UNL     1      -2.470   3.270 -32.292  1.00  0.00     0.164 HD
HETATM    6  H   UNL     1      -5.472   3.141 -30.684  1.00  0.00     0.170 HD
ENDROOT
BRANCH   3   7
HETATM    7  C   UNL     1      -4.613   1.665 -31.845  1.00  0.00     0.037 A 
HETATM    8  C   UNL     1      -5.367   1.104 -32.880  1.00  0.00     0.047 A 
HETATM    9  C   UNL     1      -5.107  -0.215 -33.219  1.00  0.00     0.050 A 
HETATM   10  C   UNL     1      -4.157  -0.974 -32.564  1.00  0.00     0.048 A 
HETATM   11  C   UNL     1      -5.698  -1.056 -34.259  1.00  0.00     0.262 A 
HETATM   12  C   UNL     1      -4.138  -2.299 -33.177  1.00  0.00     0.262 A 
HETATM   13  C   UNL     1      -3.413  -0.462 -31.524  1.00  0.00     0.020 A 
HETATM   14  O   UNL     1      -3.362  -3.179 -32.851  1.00  0.00    -0.267 OA
HETATM   15  N   UNL     1      -5.108  -2.292 -34.148  1.00  0.00    -0.275 N 
HETATM   16  C   UNL     1      -3.656   0.868 -31.164  1.00  0.00     0.030 A 
HETATM   17  O   UNL     1      -6.524  -0.650 -35.056  1.00  0.00    -0.267 OA
BRANCH  15  18
HETATM   18  C   UNL     1      -5.360  -3.389 -35.027  1.00  0.00     0.096 A 
HETATM   19  C   UNL     1      -5.542  -4.790 -34.499  1.00  0.00     0.028 A 
HETATM   20  C   UNL     1      -6.706  -4.062 -35.099  1.00  0.00     0.028 A 
ENDBRANCH  15  18
ENDBRANCH   3   7
BRANCH   1  21
HETATM   21  C   UNL     1      -2.155   5.301 -32.541  1.00  0.00     0.183 C 
BRANCH  21  22
HETATM   22  C   UNL     1      -1.433   5.612 -31.286  1.00  0.00     0.047 A 
HETATM   23  N   UNL     1      -0.215   5.063 -30.992  1.00  0.00    -0.280 N 
HETATM   24  N   UNL     1       0.343   5.550 -29.873  1.00  0.00    -0.178 NA
HETATM   25  H   UNL     1       0.287   4.361 -31.535  1.00  0.00     0.189 HD
HETATM   26  C   UNL     1      -0.547   6.441 -29.415  1.00  0.00     0.064 A 
HETATM   27  C   UNL     1      -1.687   6.497 -30.262  1.00  0.00     0.058 A 
BRANCH  26  28
HETATM   28  C   UNL     1      -0.258   7.285 -28.182  1.00  0.00    -0.005 C 
HETATM   29  C   UNL     1      -1.358   8.339 -27.927  1.00  0.00     0.021 C 
HETATM   30  C   UNL     1       1.081   8.032 -28.339  1.00  0.00     0.021 C 
HETATM   31  C   UNL     1      -0.177   6.370 -26.943  1.00  0.00     0.021 C 
ENDBRANCH  26  28
ENDBRANCH  21  22
ENDBRANCH   1  21
TORSDOF 5
ENDMDL
MODEL 3
REMARK VINA RESULT:      -8.6      1.463      2.354
REMARK  5 active torsions:
REMARK  status: ('A' for Active; 'I' for Inactive)
REMARK    1  A    between atoms: C_2  and  C_3 
REMARK    2  A    between atoms: C_7  and  C_8 
REMARK    3  A    between atoms: C_8  and  N_9 
REMARK       I    between atoms: N_9  and  C_10 
REMARK       I    between atoms: C_10  and  N_11 
REMARK    4  A    between atoms: N_11  and  C_12 
REMARK    5  A    between atoms: N_18  and  C_19 
ROOT
HETATM    1  N   UNL     1      -5.072   4.442 -32.340  1.00  0.00    -0.337 N 
HETATM    2  C   UNL     1      -6.096   4.154 -31.492  1.00  0.00     0.321 C 
HETATM    3  N   UNL     1      -6.306   2.857 -31.147  1.00  0.00    -0.309 N 
HETATM    4  O   UNL     1      -6.807   5.022 -30.986  1.00  0.00    -0.247 OA
HETATM    5  H   UNL     1      -4.312   3.783 -32.281  1.00  0.00     0.164 HD
HETATM    6  H   UNL     1      -6.966   2.808 -30.378  1.00  0.00     0.170 HD
ENDROOT
BRANCH   3   7
HETATM    7  C   UNL     1      -5.828   1.627 -31.632  1.00  0.00     0.037 A 
HETATM    8  C   UNL     1      -6.380   0.933 -32.713  1.00  0.00     0.047 A 
HETATM    9  C   UNL     1      -5.790  -0.270 -33.070  1.00  0.00     0.050 A 
HETATM   10  C   UNL     1      -4.709  -0.795 -32.388  1.00  0.00     0.048 A 
HETATM   11  C   UNL     1      -6.115  -1.195 -34.154  1.00  0.00     0.262 A 
HETATM   12  C   UNL     1      -4.340  -2.054 -33.029  1.00  0.00     0.262 A 
HETATM   13  C   UNL     1      -4.155  -0.151 -31.304  1.00  0.00     0.020 A 
HETATM   14  O   UNL     1      -3.386  -2.727 -32.688  1.00  0.00    -0.267 OA
HETATM   15  N   UNL     1      -5.244  -2.252 -34.044  1.00  0.00    -0.275 N 
HETATM   16  C   UNL     1      -4.732   1.066 -30.925  1.00  0.00     0.030 A 
HETATM   17  O   UNL     1      -6.983  -0.977 -34.979  1.00  0.00    -0.267 OA
BRANCH  15  18
HETATM   18  C   UNL     1      -5.183  -3.348 -34.958  1.00  0.00     0.096 A 
HETATM   19  C   UNL     1      -5.238  -4.775 -34.474  1.00  0.00     0.028 A 
HETATM   20  C   UNL     1      -6.384  -4.208 -35.254  1.00  0.00     0.028 A 
ENDBRANCH  15  18
ENDBRANCH   3   7
BRANCH   1  21
HETATM   21  C   UNL     1      -4.641   5.810 -32.544  1.00  0.00     0.183 C 
BRANCH  21  22
HETATM   22  C   UNL     1      -3.492   6.167 -31.679  1.00  0.00     0.047 A 
HETATM   23  N   UNL     1      -3.653   6.542 -30.374  1.00  0.00    -0.280 N 
HETATM   24  N   UNL     1      -2.498   6.712 -29.712  1.00  0.00    -0.178 NA
HETATM   25  H   UNL     1      -4.535   6.681 -29.881  1.00  0.00     0.189 HD
HETATM   26  C   UNL     1      -1.549   6.448 -30.621  1.00  0.00     0.064 A 
HETATM   27  C   UNL     1      -2.130   6.121 -31.877  1.00  0.00     0.058 A 
BRANCH  26  28
HETATM   28  C   UNL     1      -0.074   6.455 -30.250  1.00  0.00    -0.005 C 
HETATM   29  C   UNL     1       0.828   6.820 -31.450  1.00  0.00     0.021 C 
HETATM   30  C   UNL     1       0.362   5.067 -29.740  1.00  0.00     0.021 C 
HETATM   31  C   UNL     1       0.170   7.494 -29.135  1.00  0.00     0.021 C 
ENDBRANCH  26  28
ENDBRANCH  21  22
ENDBRANCH   1  21
TORSDOF 5
ENDMDL
MODEL 4
REMARK VINA RESULT:      -8.4      3.250      6.558
REMARK  5 active torsions:
REMARK  status: ('A' for Active; 'I' for Inactive)
REMARK    1  A    between atoms: C_2  and  C_3 
REMARK    2  A    between atoms: C_7  and  C_8 
REMARK    3  A    between atoms: C_8  and  N_9 
REMARK       I    between atoms: N_9  and  C_10 
REMARK       I    between atoms: C_10  and  N_11 
REMARK    4  A    between atoms: N_11  and  C_12 
REMARK    5  A    between atoms: N_18  and  C_19 
ROOT
HETATM    1  N   UNL     1      -7.464   2.996 -30.645  1.00  0.00    -0.337 N 
HETATM    2  C   UNL     1      -6.350   3.714 -30.951  1.00  0.00     0.321 C 
HETATM    3  N   UNL     1      -5.392   3.127 -31.714  1.00  0.00    -0.309 N 
HETATM    4  O   UNL     1      -6.197   4.886 -30.610  1.00  0.00    -0.247 OA
HETATM    5  H   UNL     1      -7.695   2.307 -31.343  1.00  0.00     0.164 HD
HETATM    6  H   UNL     1      -4.719   3.823 -32.017  1.00  0.00     0.170 HD
ENDROOT
BRANCH   3   7
HETATM    7  C   UNL     1      -5.147   1.806 -32.132  1.00  0.00     0.037 A 
HETATM    8  C   UNL     1      -5.852   1.152 -33.146  1.00  0.00     0.047 A 
HETATM    9  C   UNL     1      -5.487  -0.153 -33.441  1.00  0.00     0.050 A 
HETATM   10  C   UNL     1      -4.481  -0.811 -32.760  1.00  0.00     0.048 A 
HETATM   11  C   UNL     1      -6.007  -1.073 -34.451  1.00  0.00     0.262 A 
HETATM   12  C   UNL     1      -4.354  -2.151 -33.328  1.00  0.00     0.262 A 
HETATM   13  C   UNL     1      -3.782  -0.207 -31.739  1.00  0.00     0.020 A 
HETATM   14  O   UNL     1      -3.512  -2.954 -32.973  1.00  0.00    -0.267 OA
HETATM   15  N   UNL     1      -5.321  -2.253 -34.298  1.00  0.00    -0.275 N 
HETATM   16  C   UNL     1      -4.132   1.112 -31.424  1.00  0.00     0.030 A 
HETATM   17  O   UNL     1      -6.861  -0.761 -35.261  1.00  0.00    -0.267 OA
BRANCH  15  18
HETATM   18  C   UNL     1      -5.482  -3.397 -35.139  1.00  0.00     0.096 A 
HETATM   19  C   UNL     1      -5.522  -4.791 -34.566  1.00  0.00     0.028 A 
HETATM   20  C   UNL     1      -6.760  -4.196 -35.163  1.00  0.00     0.028 A 
ENDBRANCH  15  18
ENDBRANCH   3   7
BRANCH   1  21
HETATM   21  C   UNL     1      -8.623   3.640 -30.059  1.00  0.00     0.183 C 
BRANCH  21  22
HETATM   22  C   UNL     1      -9.843   3.444 -30.876  1.00  0.00     0.047 A 
HETATM   23  N   UNL     1     -11.065   3.914 -30.483  1.00  0.00    -0.280 N 
HETATM   24  N   UNL     1     -12.030   3.751 -31.400  1.00  0.00    -0.178 NA
HETATM   25  H   UNL     1     -11.290   4.372 -29.599  1.00  0.00     0.189 HD
HETATM   26  C   UNL     1     -11.418   3.142 -32.425  1.00  0.00     0.064 A 
HETATM   27  C   UNL     1     -10.046   2.912 -32.130  1.00  0.00     0.058 A 
BRANCH  26  28
HETATM   28  C   UNL     1     -12.156   2.839 -33.721  1.00  0.00    -0.005 C 
HETATM   29  C   UNL     1     -12.374   4.106 -34.578  1.00  0.00     0.021 C 
HETATM   30  C   UNL     1     -13.540   2.229 -33.425  1.00  0.00     0.021 C 
HETATM   31  C   UNL     1     -11.335   1.833 -34.555  1.00  0.00     0.021 C 
ENDBRANCH  26  28
ENDBRANCH  21  22
ENDBRANCH   1  21
TORSDOF 5
ENDMDL
MODEL 5
REMARK VINA RESULT:      -8.1      4.104      6.796
REMARK  5 active torsions:
REMARK  status: ('A' for Active; 'I' for Inactive)
REMARK    1  A    between atoms: C_2  and  C_3 
REMARK    2  A    between atoms: C_7  and  C_8 
REMARK    3  A    between atoms: C_8  and  N_9 
REMARK       I    between atoms: N_9  and  C_10 
REMARK       I    between atoms: C_10  and  N_11 
REMARK    4  A    between atoms: N_11  and  C_12 
REMARK    5  A    between atoms: N_18  and  C_19 
ROOT
HETATM    1  N   UNL     1      -8.149   2.666 -31.541  1.00  0.00    -0.337 N 
HETATM    2  C   UNL     1      -7.575   3.424 -32.514  1.00  0.00     0.321 C 
HETATM    3  N   UNL     1      -7.034   2.795 -33.590  1.00  0.00    -0.309 N 
HETATM    4  O   UNL     1      -7.570   4.654 -32.485  1.00  0.00    -0.247 OA
HETATM    5  H   UNL     1      -8.523   1.796 -31.886  1.00  0.00     0.164 HD
HETATM    6  H   UNL     1      -6.815   3.474 -34.311  1.00  0.00     0.170 HD
ENDROOT
BRANCH   3   7
HETATM    7  C   UNL     1      -6.715   1.457 -33.882  1.00  0.00     0.037 A 
HETATM    8  C   UNL     1      -5.527   0.825 -33.504  1.00  0.00     0.047 A 
HETATM    9  C   UNL     1      -5.364  -0.503 -33.868  1.00  0.00     0.050 A 
HETATM   10  C   UNL     1      -6.315  -1.193 -34.594  1.00  0.00     0.048 A 
HETATM   11  C   UNL     1      -4.264  -1.427 -33.597  1.00  0.00     0.262 A 
HETATM   12  C   UNL     1      -5.830  -2.556 -34.792  1.00  0.00     0.262 A 
HETATM   13  C   UNL     1      -7.486  -0.595 -35.004  1.00  0.00     0.020 A 
HETATM   14  O   UNL     1      -6.474  -3.423 -35.351  1.00  0.00    -0.267 OA
HETATM   15  N   UNL     1      -4.587  -2.613 -34.212  1.00  0.00    -0.275 N 
HETATM   16  C   UNL     1      -7.674   0.745 -34.647  1.00  0.00     0.030 A 
HETATM   17  O   UNL     1      -3.299  -1.135 -32.915  1.00  0.00    -0.267 OA
BRANCH  15  18
HETATM   18  C   UNL     1      -3.802  -3.804 -34.133  1.00  0.00     0.096 A 
HETATM   19  C   UNL     1      -3.581  -4.510 -32.819  1.00  0.00     0.028 A 
HETATM   20  C   UNL     1      -4.422  -5.153 -33.879  1.00  0.00     0.028 A 
ENDBRANCH  15  18
ENDBRANCH   3   7
BRANCH   1  21
HETATM   21  C   UNL     1      -8.959   3.277 -30.506  1.00  0.00     0.183 C 
BRANCH  21  22
HETATM   22  C   UNL     1     -10.373   3.426 -30.920  1.00  0.00     0.047 A 
HETATM   23  N   UNL     1     -11.338   3.885 -30.066  1.00  0.00    -0.280 N 
HETATM   24  N   UNL     1     -12.534   4.068 -30.645  1.00  0.00    -0.178 NA
HETATM   25  H   UNL     1     -11.224   4.104 -29.076  1.00  0.00     0.189 HD
HETATM   26  C   UNL     1     -12.346   3.706 -31.922  1.00  0.00     0.064 A 
HETATM   27  C   UNL     1     -11.007   3.276 -32.134  1.00  0.00     0.058 A 
BRANCH  26  28
HETATM   28  C   UNL     1     -13.457   3.837 -32.953  1.00  0.00    -0.005 C 
HETATM   29  C   UNL     1     -13.825   2.479 -33.590  1.00  0.00     0.021 C 
HETATM   30  C   UNL     1     -13.032   4.788 -34.090  1.00  0.00     0.021 C 
HETATM   31  C   UNL     1     -14.721   4.405 -32.275  1.00  0.00     0.021 C 
ENDBRANCH  26  28
ENDBRANCH  21  22
ENDBRANCH   1  21
TORSDOF 5
ENDMDL
MODEL 6
REMARK VINA RESULT:      -8.1      2.154      2.910
REMARK  5 active torsions:
REMARK  status: ('A' for Active; 'I' for Inactive)
REMARK    1  A    between atoms: C_2  and  C_3 
REMARK    2  A    between atoms: C_7  and  C_8 
REMARK    3  A    between atoms: C_8  and  N_9 
REMARK       I    between atoms: N_9  and  C_10 
REMARK       I    between atoms: C_10  and  N_11 
REMARK    4  A    between atoms: N_11  and  C_12 
REMARK    5  A    between atoms: N_18  and  C_19 
ROOT
HETATM    1  N   UNL     1      -5.914   5.835 -29.789  1.00  0.00    -0.337 N 
HETATM    2  C   UNL     1      -6.619   5.473 -28.683  1.00  0.00     0.321 C 
HETATM    3  N   UNL     1      -7.250   4.270 -28.683  1.00  0.00    -0.309 N 
HETATM    4  O   UNL     1      -6.666   6.165 -27.666  1.00  0.00    -0.247 OA
HETATM    5  H   UNL     1      -5.548   5.048 -30.300  1.00  0.00     0.164 HD
HETATM    6  H   UNL     1      -7.572   4.051 -27.747  1.00  0.00     0.170 HD
ENDROOT
BRANCH   3   7
HETATM    7  C   UNL     1      -7.549   3.323 -29.679  1.00  0.00     0.037 A 
HETATM    8  C   UNL     1      -6.662   2.343 -30.132  1.00  0.00     0.047 A 
HETATM    9  C   UNL     1      -7.112   1.480 -31.121  1.00  0.00     0.050 A 
HETATM   10  C   UNL     1      -8.376   1.578 -31.668  1.00  0.00     0.048 A 
HETATM   11  C   UNL     1      -6.440   0.354 -31.766  1.00  0.00     0.262 A 
HETATM   12  C   UNL     1      -8.519   0.519 -32.664  1.00  0.00     0.262 A 
HETATM   13  C   UNL     1      -9.267   2.546 -31.264  1.00  0.00     0.020 A 
HETATM   14  O   UNL     1      -9.547   0.311 -33.281  1.00  0.00    -0.267 OA
HETATM   15  N   UNL     1      -7.316  -0.142 -32.702  1.00  0.00    -0.275 N 
HETATM   16  C   UNL     1      -8.837   3.428 -30.265  1.00  0.00     0.030 A 
HETATM   17  O   UNL     1      -5.329  -0.032 -31.450  1.00  0.00    -0.267 OA
BRANCH  15  18
HETATM   18  C   UNL     1      -7.070  -1.295 -33.508  1.00  0.00     0.096 A 
HETATM   19  C   UNL     1      -6.900  -1.184 -35.003  1.00  0.00     0.028 A 
HETATM   20  C   UNL     1      -5.728  -1.552 -34.145  1.00  0.00     0.028 A 
ENDBRANCH  15  18
ENDBRANCH   3   7
BRANCH   1  21
HETATM   21  C   UNL     1      -5.019   6.975 -29.757  1.00  0.00     0.183 C 
BRANCH  21  22
HETATM   22  C   UNL     1      -3.601   6.574 -29.903  1.00  0.00     0.047 A 
HETATM   23  N   UNL     1      -3.204   5.610 -30.789  1.00  0.00    -0.280 N 
HETATM   24  N   UNL     1      -1.873   5.463 -30.870  1.00  0.00    -0.178 NA
HETATM   25  H   UNL     1      -3.807   5.033 -31.376  1.00  0.00     0.189 HD
HETATM   26  C   UNL     1      -1.384   6.356 -29.999  1.00  0.00     0.064 A 
HETATM   27  C   UNL     1      -2.436   7.062 -29.354  1.00  0.00     0.058 A 
BRANCH  26  28
HETATM   28  C   UNL     1       0.115   6.566 -29.839  1.00  0.00    -0.005 C 
HETATM   29  C   UNL     1       0.815   5.331 -29.230  1.00  0.00     0.021 C 
HETATM   30  C   UNL     1       0.397   7.768 -28.916  1.00  0.00     0.021 C 
HETATM   31  C   UNL     1       0.745   6.840 -31.221  1.00  0.00     0.021 C 
ENDBRANCH  26  28
ENDBRANCH  21  22
ENDBRANCH   1  21
TORSDOF 5
ENDMDL
MODEL 7
REMARK VINA RESULT:      -8.1      3.609      9.710
REMARK  5 active torsions:
REMARK  status: ('A' for Active; 'I' for Inactive)
REMARK    1  A    between atoms: C_2  and  C_3 
REMARK    2  A    between atoms: C_7  and  C_8 
REMARK    3  A    between atoms: C_8  and  N_9 
REMARK       I    between atoms: N_9  and  C_10 
REMARK       I    between atoms: C_10  and  N_11 
REMARK    4  A    between atoms: N_11  and  C_12 
REMARK    5  A    between atoms: N_18  and  C_19 
ROOT
HETATM    1  N   UNL     1      -4.285   5.513 -33.218  1.00  0.00    -0.337 N 
HETATM    2  C   UNL     1      -3.317   5.771 -34.138  1.00  0.00     0.321 C 
HETATM    3  N   UNL     1      -2.051   5.998 -33.699  1.00  0.00    -0.309 N 
HETATM    4  O   UNL     1      -3.527   5.757 -35.350  1.00  0.00    -0.247 OA
HETATM    5  H   UNL     1      -3.931   5.075 -32.382  1.00  0.00     0.164 HD
HETATM    6  H   UNL     1      -1.408   5.990 -34.483  1.00  0.00     0.170 HD
ENDROOT
BRANCH   3   7
HETATM    7  C   UNL     1      -1.485   6.251 -32.436  1.00  0.00     0.037 A 
HETATM    8  C   UNL     1      -1.754   7.382 -31.659  1.00  0.00     0.047 A 
HETATM    9  C   UNL     1      -1.114   7.483 -30.433  1.00  0.00     0.050 A 
HETATM   10  C   UNL     1      -0.226   6.526 -29.981  1.00  0.00     0.048 A 
HETATM   11  C   UNL     1      -1.212   8.513 -29.400  1.00  0.00     0.262 A 
HETATM   12  C   UNL     1       0.249   6.939 -28.663  1.00  0.00     0.262 A 
HETATM   13  C   UNL     1       0.082   5.413 -30.731  1.00  0.00     0.020 A 
HETATM   14  O   UNL     1       1.004   6.271 -27.982  1.00  0.00    -0.267 OA
HETATM   15  N   UNL     1      -0.343   8.149 -28.399  1.00  0.00    -0.275 N 
HETATM   16  C   UNL     1      -0.553   5.288 -31.972  1.00  0.00     0.030 A 
HETATM   17  O   UNL     1      -1.971   9.462 -29.473  1.00  0.00    -0.267 OA
BRANCH  15  18
HETATM   18  C   UNL     1      -0.186   8.858 -27.169  1.00  0.00     0.096 A 
HETATM   19  C   UNL     1       1.116   9.533 -26.815  1.00  0.00     0.028 A 
HETATM   20  C   UNL     1      -0.095  10.361 -27.120  1.00  0.00     0.028 A 
ENDBRANCH  15  18
ENDBRANCH   3   7
BRANCH   1  21
HETATM   21  C   UNL     1      -5.583   5.015 -33.628  1.00  0.00     0.183 C 
BRANCH  21  22
HETATM   22  C   UNL     1      -5.708   3.553 -33.431  1.00  0.00     0.047 A 
HETATM   23  N   UNL     1      -6.500   2.775 -34.230  1.00  0.00    -0.280 N 
HETATM   24  N   UNL     1      -6.397   1.461 -33.981  1.00  0.00    -0.178 NA
HETATM   25  H   UNL     1      -7.120   3.095 -34.974  1.00  0.00     0.189 HD
HETATM   26  C   UNL     1      -5.514   1.378 -32.976  1.00  0.00     0.064 A 
HETATM   27  C   UNL     1      -5.070   2.671 -32.586  1.00  0.00     0.058 A 
BRANCH  26  28
HETATM   28  C   UNL     1      -5.054   0.032 -32.436  1.00  0.00    -0.005 C 
HETATM   29  C   UNL     1      -6.015  -0.524 -31.362  1.00  0.00     0.021 C 
HETATM   30  C   UNL     1      -3.657   0.154 -31.797  1.00  0.00     0.021 C 
HETATM   31  C   UNL     1      -4.987  -0.989 -33.591  1.00  0.00     0.021 C 
ENDBRANCH  26  28
ENDBRANCH  21  22
ENDBRANCH   1  21
TORSDOF 5
ENDMDL
MODEL 8
REMARK VINA RESULT:      -8.0      3.692      9.597
REMARK  5 active torsions:
REMARK  status: ('A' for Active; 'I' for Inactive)
REMARK    1  A    between atoms: C_2  and  C_3 
REMARK    2  A    between atoms: C_7  and  C_8 
REMARK    3  A    between atoms: C_8  and  N_9 
REMARK       I    between atoms: N_9  and  C_10 
REMARK       I    between atoms: C_10  and  N_11 
REMARK    4  A    between atoms: N_11  and  C_12 
REMARK    5  A    between atoms: N_18  and  C_19 
ROOT
HETATM    1  N   UNL     1      -3.727   5.493 -33.565  1.00  0.00    -0.337 N 
HETATM    2  C   UNL     1      -2.527   5.575 -34.201  1.00  0.00     0.321 C 
HETATM    3  N   UNL     1      -1.447   5.998 -33.493  1.00  0.00    -0.309 N 
HETATM    4  O   UNL     1      -2.368   5.237 -35.373  1.00  0.00    -0.247 OA
HETATM    5  H   UNL     1      -3.640   5.311 -32.578  1.00  0.00     0.164 HD
HETATM    6  H   UNL     1      -0.600   5.834 -34.027  1.00  0.00     0.170 HD
ENDROOT
BRANCH   3   7
HETATM    7  C   UNL     1      -1.278   6.605 -32.235  1.00  0.00     0.037 A 
HETATM    8  C   UNL     1      -0.608   6.021 -31.157  1.00  0.00     0.047 A 
HETATM    9  C   UNL     1      -0.526   6.753 -29.982  1.00  0.00     0.050 A 
HETATM   10  C   UNL     1      -1.094   8.005 -29.849  1.00  0.00     0.048 A 
HETATM   11  C   UNL     1       0.125   6.430 -28.713  1.00  0.00     0.262 A 
HETATM   12  C   UNL     1      -0.812   8.487 -28.500  1.00  0.00     0.262 A 
HETATM   13  C   UNL     1      -1.783   8.600 -30.882  1.00  0.00     0.020 A 
HETATM   14  O   UNL     1      -1.137   9.589 -28.099  1.00  0.00    -0.267 OA
HETATM   15  N   UNL     1      -0.123   7.484 -27.866  1.00  0.00    -0.275 N 
HETATM   16  C   UNL     1      -1.878   7.882 -32.080  1.00  0.00     0.030 A 
HETATM   17  O   UNL     1       0.775   5.417 -28.535  1.00  0.00    -0.267 OA
BRANCH  15  18
HETATM   18  C   UNL     1       0.398   7.594 -26.540  1.00  0.00     0.096 A 
HETATM   19  C   UNL     1       1.858   7.878 -26.293  1.00  0.00     0.028 A 
HETATM   20  C   UNL     1       0.829   8.915 -25.959  1.00  0.00     0.028 A 
ENDBRANCH  15  18
ENDBRANCH   3   7
BRANCH   1  21
HETATM   21  C   UNL     1      -4.849   4.817 -34.184  1.00  0.00     0.183 C 
BRANCH  21  22
HETATM   22  C   UNL     1      -5.229   3.585 -33.454  1.00  0.00     0.047 A 
HETATM   23  N   UNL     1      -6.367   2.886 -33.750  1.00  0.00    -0.280 N 
HETATM   24  N   UNL     1      -6.488   1.736 -33.070  1.00  0.00    -0.178 NA
HETATM   25  H   UNL     1      -7.088   3.146 -34.423  1.00  0.00     0.189 HD
HETATM   26  C   UNL     1      -5.396   1.687 -32.296  1.00  0.00     0.064 A 
HETATM   27  C   UNL     1      -4.587   2.840 -32.490  1.00  0.00     0.058 A 
BRANCH  26  28
HETATM   28  C   UNL     1      -5.107   0.484 -31.409  1.00  0.00    -0.005 C 
HETATM   29  C   UNL     1      -5.585  -0.839 -32.047  1.00  0.00     0.021 C 
HETATM   30  C   UNL     1      -5.817   0.633 -30.049  1.00  0.00     0.021 C 
HETATM   31  C   UNL     1      -3.587   0.378 -31.169  1.00  0.00     0.021 C 
ENDBRANCH  26  28
ENDBRANCH  21  22
ENDBRANCH   1  21
TORSDOF 5
ENDMDL
MODEL 9
REMARK VINA RESULT:      -7.9      3.515      5.064
REMARK  5 active torsions:
REMARK  status: ('A' for Active; 'I' for Inactive)
REMARK    1  A    between atoms: C_2  and  C_3 
REMARK    2  A    between atoms: C_7  and  C_8 
REMARK    3  A    between atoms: C_8  and  N_9 
REMARK       I    between atoms: N_9  and  C_10 
REMARK       I    between atoms: C_10  and  N_11 
REMARK    4  A    between atoms: N_11  and  C_12 
REMARK    5  A    between atoms: N_18  and  C_19 
ROOT
HETATM    1  N   UNL     1      -3.322   7.764 -31.535  1.00  0.00    -0.337 N 
HETATM    2  C   UNL     1      -2.540   7.643 -32.642  1.00  0.00     0.321 C 
HETATM    3  N   UNL     1      -2.751   6.586 -33.469  1.00  0.00    -0.309 N 
HETATM    4  O   UNL     1      -1.688   8.474 -32.951  1.00  0.00    -0.247 OA
HETATM    5  H   UNL     1      -4.237   7.359 -31.650  1.00  0.00     0.164 HD
HETATM    6  H   UNL     1      -2.238   6.719 -34.334  1.00  0.00     0.170 HD
ENDROOT
BRANCH   3   7
HETATM    7  C   UNL     1      -3.486   5.392 -33.363  1.00  0.00     0.037 A 
HETATM    8  C   UNL     1      -3.065   4.261 -32.658  1.00  0.00     0.047 A 
HETATM    9  C   UNL     1      -3.909   3.161 -32.648  1.00  0.00     0.050 A 
HETATM   10  C   UNL     1      -5.117   3.150 -33.318  1.00  0.00     0.048 A 
HETATM   11  C   UNL     1      -3.763   1.866 -31.986  1.00  0.00     0.262 A 
HETATM   12  C   UNL     1      -5.746   1.852 -33.090  1.00  0.00     0.262 A 
HETATM   13  C   UNL     1      -5.553   4.236 -34.043  1.00  0.00     0.020 A 
HETATM   14  O   UNL     1      -6.850   1.558 -33.509  1.00  0.00    -0.267 OA
HETATM   15  N   UNL     1      -4.867   1.124 -32.327  1.00  0.00    -0.275 N 
HETATM   16  C   UNL     1      -4.718   5.360 -34.067  1.00  0.00     0.030 A 
HETATM   17  O   UNL     1      -2.828   1.591 -31.257  1.00  0.00    -0.267 OA
BRANCH  15  18
HETATM   18  C   UNL     1      -5.145  -0.187 -31.831  1.00  0.00     0.096 A 
HETATM   19  C   UNL     1      -5.313  -1.359 -32.765  1.00  0.00     0.028 A 
HETATM   20  C   UNL     1      -4.117  -1.288 -31.866  1.00  0.00     0.028 A 
ENDBRANCH  15  18
ENDBRANCH   3   7
BRANCH   1  21
HETATM   21  C   UNL     1      -3.321   8.987 -30.758  1.00  0.00     0.183 C 
BRANCH  21  22
HETATM   22  C   UNL     1      -2.225   9.016 -29.762  1.00  0.00     0.047 A 
HETATM   23  N   UNL     1      -2.082  10.039 -28.866  1.00  0.00    -0.280 N 
HETATM   24  N   UNL     1      -1.108   9.839 -27.965  1.00  0.00    -0.178 NA
HETATM   25  H   UNL     1      -2.638  10.893 -28.818  1.00  0.00     0.189 HD
HETATM   26  C   UNL     1      -0.590   8.647 -28.291  1.00  0.00     0.064 A 
HETATM   27  C   UNL     1      -1.249   8.103 -29.428  1.00  0.00     0.058 A 
BRANCH  26  28
HETATM   28  C   UNL     1       0.510   8.006 -27.457  1.00  0.00    -0.005 C 
HETATM   29  C   UNL     1       0.130   7.917 -25.962  1.00  0.00     0.021 C 
HETATM   30  C   UNL     1       1.813   8.822 -27.562  1.00  0.00     0.021 C 
HETATM   31  C   UNL     1       0.774   6.575 -27.969  1.00  0.00     0.021 C 
ENDBRANCH  26  28
ENDBRANCH  21  22
ENDBRANCH   1  21
TORSDOF 5
ENDMDL
MODEL 10
REMARK VINA RESULT:      -7.9      3.177      5.047
REMARK  5 active torsions:
REMARK  status: ('A' for Active; 'I' for Inactive)
REMARK    1  A    between atoms: C_2  and  C_3 
REMARK    2  A    between atoms: C_7  and  C_8 
REMARK    3  A    between atoms: C_8  and  N_9 
REMARK       I    between atoms: N_9  and  C_10 
REMARK       I    between atoms: C_10  and  N_11 
REMARK    4  A    between atoms: N_11  and  C_12 
REMARK    5  A    between atoms: N_18  and  C_19 
ROOT
HETATM    1  N   UNL     1      -0.699   5.528 -31.572  1.00  0.00    -0.337 N 
HETATM    2  C   UNL     1      -1.413   6.536 -32.143  1.00  0.00     0.321 C 
HETATM    3  N   UNL     1      -2.693   6.286 -32.522  1.00  0.00    -0.309 N 
HETATM    4  O   UNL     1      -0.966   7.673 -32.285  1.00  0.00    -0.247 OA
HETATM    5  H   UNL     1      -1.275   4.866 -31.078  1.00  0.00     0.164 HD
HETATM    6  H   UNL     1      -3.159   7.157 -32.755  1.00  0.00     0.170 HD
ENDROOT
BRANCH   3   7
HETATM    7  C   UNL     1      -3.460   5.116 -32.669  1.00  0.00     0.037 A 
HETATM    8  C   UNL     1      -3.066   3.850 -32.227  1.00  0.00     0.047 A 
HETATM    9  C   UNL     1      -3.939   2.795 -32.446  1.00  0.00     0.050 A 
HETATM   10  C   UNL     1      -5.150   2.959 -33.091  1.00  0.00     0.048 A 
HETATM   11  C   UNL     1      -3.824   1.385 -32.080  1.00  0.00     0.262 A 
HETATM   12  C   UNL     1      -5.812   1.658 -33.141  1.00  0.00     0.262 A 
HETATM   13  C   UNL     1      -5.560   4.187 -33.561  1.00  0.00     0.020 A 
HETATM   14  O   UNL     1      -6.926   1.490 -33.602  1.00  0.00    -0.267 OA
HETATM   15  N   UNL     1      -4.950   0.761 -32.562  1.00  0.00    -0.275 N 
HETATM   16  C   UNL     1      -4.695   5.268 -33.350  1.00  0.00     0.030 A 
HETATM   17  O   UNL     1      -2.894   0.936 -31.436  1.00  0.00    -0.267 OA
BRANCH  15  18
HETATM   18  C   UNL     1      -5.260  -0.618 -32.356  1.00  0.00     0.096 A 
HETATM   19  C   UNL     1      -5.461  -1.557 -33.519  1.00  0.00     0.028 A 
HETATM   20  C   UNL     1      -4.261  -1.711 -32.635  1.00  0.00     0.028 A 
ENDBRANCH  15  18
ENDBRANCH   3   7
BRANCH   1  21
HETATM   21  C   UNL     1       0.568   5.795 -30.920  1.00  0.00     0.183 C 
BRANCH  21  22
HETATM   22  C   UNL     1       0.389   6.346 -29.557  1.00  0.00     0.047 A 
HETATM   23  N   UNL     1      -0.032   5.573 -28.510  1.00  0.00    -0.280 N 
HETATM   24  N   UNL     1      -0.021   6.209 -27.328  1.00  0.00    -0.178 NA
HETATM   25  H   UNL     1      -0.323   4.596 -28.548  1.00  0.00     0.189 HD
HETATM   26  C   UNL     1       0.412   7.444 -27.616  1.00  0.00     0.064 A 
HETATM   27  C   UNL     1       0.663   7.580 -29.009  1.00  0.00     0.058 A 
BRANCH  26  28
HETATM   28  C   UNL     1       0.642   8.477 -26.523  1.00  0.00    -0.005 C 
HETATM   29  C   UNL     1       0.953   9.876 -27.099  1.00  0.00     0.021 C 
HETATM   30  C   UNL     1       1.827   8.064 -25.629  1.00  0.00     0.021 C 
HETATM   31  C   UNL     1      -0.626   8.590 -25.650  1.00  0.00     0.021 C 
ENDBRANCH  26  28
ENDBRANCH  21  22
ENDBRANCH   1  21
TORSDOF 5
ENDMDL
