MODEL 1
REMARK VINA RESULT:      -8.7      0.000      0.000
REMARK  9 active torsions:
REMARK  status: ('A' for Active; 'I' for Inactive)
REMARK    1  A    between atoms: C_2  and  O_3 
REMARK    2  A    between atoms: O_3  and  C_4 
REMARK    3  A    between atoms: C_4  and  C_5 
REMARK    4  A    between atoms: C_10  and  C_11 
REMARK       I    between atoms: C_11  and  N_12 
REMARK    5  A    between atoms: N_12  and  C_13 
REMARK    6  A    between atoms: C_15  and  C_16 
REMARK    7  A    between atoms: C_16  and  C_17 
REMARK    8  A    between atoms: C_17  and  C_18 
REMARK    9  A    between atoms: C_18  and  C_19 
ROOT
HETATM    1  C   UNL     1      -7.384   3.565 -31.717  1.00  0.00     0.725 A 
HETATM    2  N   UNL     1      -7.720   2.920 -32.806  1.00  0.00    -0.046 NA
HETATM    3  C   UNL     1      -8.755   2.117 -32.415  1.00  0.00     0.165 A 
HETATM    4  N   UNL     1      -9.107   2.245 -31.130  1.00  0.00    -0.144 NA
HETATM    5  N   UNL     1      -8.222   3.165 -30.710  1.00  0.00    -0.106 N 
HETATM    6  H   UNL     1      -8.248   3.467 -29.745  1.00  0.00     0.208 HD
ENDROOT
BRANCH   1   7
HETATM    7  N   UNL     1      -6.398   4.502 -31.533  1.00  0.00    -0.152 N 
HETATM    8  C   UNL     1      -5.302   4.246 -30.735  1.00  0.00     0.272 C 
HETATM    9  O   UNL     1      -5.138   3.257 -30.030  1.00  0.00    -0.267 OA
HETATM   10  H   UNL     1      -6.482   5.410 -31.957  1.00  0.00     0.187 HD
BRANCH   8  11
HETATM   11  C   UNL     1      -4.287   5.319 -30.753  1.00  0.00     0.063 A 
HETATM   12  C   UNL     1      -4.192   6.423 -29.909  1.00  0.00     0.022 A 
HETATM   13  N   UNL     1      -3.143   7.190 -30.351  1.00  0.00    -0.354 N 
HETATM   14  C   UNL     1      -5.018   6.893 -28.764  1.00  0.00     0.069 C 
HETATM   15  C   UNL     1      -2.607   6.681 -31.511  1.00  0.00     0.115 A 
HETATM   16  H   UNL     1      -2.852   8.076 -29.955  1.00  0.00     0.166 HD
HETATM   17  C   UNL     1      -3.237   5.461 -31.738  1.00  0.00    -0.011 A 
HETATM   18  C   UNL     1      -2.942   4.487 -32.832  1.00  0.00     0.052 C 
BRANCH  15  19
HETATM   19  C   UNL     1      -1.604   7.428 -32.240  1.00  0.00     0.310 C 
HETATM   20  O   UNL     1      -1.804   8.530 -32.735  1.00  0.00    -0.258 OA
BRANCH  19  21
HETATM   21  O   UNL     1      -0.454   6.713 -32.358  1.00  0.00    -0.317 OA
BRANCH  21  22
HETATM   22  C   UNL     1       0.412   6.717 -31.216  1.00  0.00     0.175 C 
HETATM   23  C   UNL     1       0.638   5.306 -30.710  1.00  0.00     0.034 C 
ENDBRANCH  21  22
ENDBRANCH  19  21
ENDBRANCH  15  19
ENDBRANCH   8  11
ENDBRANCH   1   7
BRANCH   3  24
HETATM   24  C   UNL     1      -9.403   1.174 -33.360  1.00  0.00     0.083 C 
BRANCH  24  25
HETATM   25  C   UNL     1      -8.693  -0.180 -33.376  1.00  0.00     0.012 C 
BRANCH  25  26
HETATM   26  C   UNL     1      -7.820  -0.337 -34.621  1.00  0.00     0.041 C 
BRANCH  26  27
HETATM   27  C   UNL     1      -6.490  -0.940 -34.296  1.00  0.00    -0.030 A 
HETATM   28  C   UNL     1      -6.113  -2.316 -34.424  1.00  0.00    -0.002 A 
HETATM   29  C   UNL     1      -4.790  -2.428 -33.995  1.00  0.00     0.042 A 
HETATM   30  C   UNL     1      -6.776  -3.481 -34.861  1.00  0.00     0.014 A 
HETATM   31  C   UNL     1      -4.096  -3.645 -33.982  1.00  0.00     0.030 A 
HETATM   32  N   UNL     1      -4.377  -1.170 -33.620  1.00  0.00    -0.365 N 
HETATM   33  C   UNL     1      -4.776  -4.783 -34.424  1.00  0.00     0.002 A 
HETATM   34  C   UNL     1      -6.098  -4.705 -34.858  1.00  0.00     0.001 A 
HETATM   35  H   UNL     1      -3.459  -0.951 -33.260  1.00  0.00     0.165 HD
HETATM   36  C   UNL     1      -5.390  -0.268 -33.800  1.00  0.00     0.096 A 
ENDBRANCH  26  27
ENDBRANCH  25  26
ENDBRANCH  24  25
ENDBRANCH   3  24
TORSDOF 9
ENDMDL
MODEL 2
REMARK VINA RESULT:      -8.6      1.783      2.590
REMARK  9 active torsions:
REMARK  status: ('A' for Active; 'I' for Inactive)
REMARK    1  A    between atoms: C_2  and  O_3 
REMARK    2  A    between atoms: O_3  and  C_4 
REMARK    3  A    between atoms: C_4  and  C_5 
REMARK    4  A    between atoms: C_10  and  C_11 
REMARK       I    between atoms: C_11  and  N_12 
REMARK    5  A    between atoms: N_12  and  C_13 
REMARK    6  A    between atoms: C_15  and  C_16 
REMARK    7  A    between atoms: C_16  and  C_17 
REMARK    8  A    between atoms: C_17  and  C_18 
REMARK    9  A    between atoms: C_18  and  C_19 
ROOT
HETATM    1  C   UNL     1      -6.217   3.586 -32.986  1.00  0.00     0.725 A 
HETATM    2  N   UNL     1      -6.646   2.500 -33.578  1.00  0.00    -0.046 NA
HETATM    3  C   UNL     1      -8.008   2.597 -33.513  1.00  0.00     0.165 A 
HETATM    4  N   UNL     1      -8.461   3.712 -32.927  1.00  0.00    -0.144 NA
HETATM    5  N   UNL     1      -7.307   4.320 -32.600  1.00  0.00    -0.106 N 
HETATM    6  H   UNL     1      -7.339   5.212 -32.126  1.00  0.00     0.208 HD
ENDROOT
BRANCH   1   7
HETATM    7  N   UNL     1      -4.927   4.002 -32.765  1.00  0.00    -0.152 N 
HETATM    8  C   UNL     1      -4.537   5.301 -33.018  1.00  0.00     0.272 C 
HETATM    9  O   UNL     1      -5.217   6.166 -33.557  1.00  0.00    -0.267 OA
HETATM   10  H   UNL     1      -4.236   3.346 -32.443  1.00  0.00     0.187 HD
BRANCH   8  11
HETATM   11  C   UNL     1      -3.150   5.599 -32.605  1.00  0.00     0.063 A 
HETATM   12  C   UNL     1      -1.988   5.486 -33.364  1.00  0.00     0.022 A 
HETATM   13  N   UNL     1      -0.929   5.789 -32.544  1.00  0.00    -0.354 N 
HETATM   14  C   UNL     1      -1.735   5.057 -34.767  1.00  0.00     0.069 C 
HETATM   15  C   UNL     1      -1.346   6.002 -31.251  1.00  0.00     0.115 A 
HETATM   16  H   UNL     1       0.048   5.760 -32.808  1.00  0.00     0.166 HD
HETATM   17  C   UNL     1      -2.737   5.983 -31.273  1.00  0.00    -0.011 A 
HETATM   18  C   UNL     1      -3.658   6.247 -30.126  1.00  0.00     0.052 C 
BRANCH  15  19
HETATM   19  C   UNL     1      -0.375   6.165 -30.190  1.00  0.00     0.310 C 
HETATM   20  O   UNL     1       0.238   5.236 -29.680  1.00  0.00    -0.258 OA
BRANCH  19  21
HETATM   21  O   UNL     1      -0.298   7.464 -29.797  1.00  0.00    -0.317 OA
BRANCH  21  22
HETATM   22  C   UNL     1      -0.188   7.691 -28.385  1.00  0.00     0.175 C 
HETATM   23  C   UNL     1       1.175   8.255 -28.039  1.00  0.00     0.034 C 
ENDBRANCH  21  22
ENDBRANCH  19  21
ENDBRANCH  15  19
ENDBRANCH   8  11
ENDBRANCH   1   7
BRANCH   3  24
HETATM   24  C   UNL     1      -8.887   1.524 -34.041  1.00  0.00     0.083 C 
BRANCH  24  25
HETATM   25  C   UNL     1      -8.334   0.137 -33.717  1.00  0.00     0.012 C 
BRANCH  25  26
HETATM   26  C   UNL     1      -7.533  -0.433 -34.888  1.00  0.00     0.041 C 
BRANCH  26  27
HETATM   27  C   UNL     1      -6.275  -1.101 -34.430  1.00  0.00    -0.030 A 
HETATM   28  C   UNL     1      -5.957  -2.494 -34.520  1.00  0.00    -0.002 A 
HETATM   29  C   UNL     1      -4.692  -2.671 -33.958  1.00  0.00     0.042 A 
HETATM   30  C   UNL     1      -6.630  -3.626 -35.024  1.00  0.00     0.014 A 
HETATM   31  C   UNL     1      -4.065  -3.921 -33.877  1.00  0.00     0.030 A 
HETATM   32  N   UNL     1      -4.257  -1.434 -33.543  1.00  0.00    -0.365 N 
HETATM   33  C   UNL     1      -4.753  -5.025 -34.387  1.00  0.00     0.002 A 
HETATM   34  C   UNL     1      -6.018  -4.883 -34.954  1.00  0.00     0.001 A 
HETATM   35  H   UNL     1      -3.370  -1.260 -33.091  1.00  0.00     0.165 HD
HETATM   36  C   UNL     1      -5.199  -0.483 -33.823  1.00  0.00     0.096 A 
ENDBRANCH  26  27
ENDBRANCH  25  26
ENDBRANCH  24  25
ENDBRANCH   3  24
TORSDOF 9
ENDMDL
MODEL 3
REMARK VINA RESULT:      -8.6      4.327      7.650
REMARK  9 active torsions:
REMARK  status: ('A' for Active; 'I' for Inactive)
REMARK    1  A    between atoms: C_2  and  O_3 
REMARK    2  A    between atoms: O_3  and  C_4 
REMARK    3  A    between atoms: C_4  and  C_5 
REMARK    4  A    between atoms: C_10  and  C_11 
REMARK       I    between atoms: C_11  and  N_12 
REMARK    5  A    between atoms: N_12  and  C_13 
REMARK    6  A    between atoms: C_15  and  C_16 
REMARK    7  A    between atoms: C_16  and  C_17 
REMARK    8  A    between atoms: C_17  and  C_18 
REMARK    9  A    between atoms: C_18  and  C_19 
ROOT
HETATM    1  C   UNL     1      -6.662   0.900 -30.857  1.00  0.00     0.725 A 
HETATM    2  N   UNL     1      -5.618   0.609 -31.591  1.00  0.00    -0.046 NA
HETATM    3  C   UNL     1      -4.617   0.396 -30.684  1.00  0.00     0.165 A 
HETATM    4  N   UNL     1      -4.990   0.514 -29.405  1.00  0.00    -0.144 NA
HETATM    5  N   UNL     1      -6.288   0.836 -29.541  1.00  0.00    -0.106 N 
HETATM    6  H   UNL     1      -6.845   0.993 -28.712  1.00  0.00     0.208 HD
ENDROOT
BRANCH   1   7
HETATM    7  N   UNL     1      -7.941   1.206 -31.250  1.00  0.00    -0.152 N 
HETATM    8  C   UNL     1      -8.227   2.379 -31.918  1.00  0.00     0.272 C 
HETATM    9  O   UNL     1      -7.447   3.300 -32.124  1.00  0.00    -0.267 OA
HETATM   10  H   UNL     1      -8.699   0.585 -31.022  1.00  0.00     0.187 HD
BRANCH   8  11
HETATM   11  C   UNL     1      -9.630   2.482 -32.370  1.00  0.00     0.063 A 
HETATM   12  C   UNL     1     -10.661   3.226 -31.801  1.00  0.00     0.022 A 
HETATM   13  N   UNL     1     -11.806   2.951 -32.506  1.00  0.00    -0.354 N 
HETATM   14  C   UNL     1     -10.722   4.127 -30.618  1.00  0.00     0.069 C 
HETATM   15  C   UNL     1     -11.585   1.979 -33.454  1.00  0.00     0.115 A 
HETATM   16  H   UNL     1     -12.727   3.320 -32.303  1.00  0.00     0.166 HD
HETATM   17  C   UNL     1     -10.216   1.731 -33.459  1.00  0.00    -0.011 A 
HETATM   18  C   UNL     1      -9.472   0.813 -34.374  1.00  0.00     0.052 C 
BRANCH  15  19
HETATM   19  C   UNL     1     -12.695   1.415 -34.192  1.00  0.00     0.310 C 
HETATM   20  O   UNL     1     -12.792   1.457 -35.413  1.00  0.00    -0.258 OA
BRANCH  19  21
HETATM   21  O   UNL     1     -13.633   0.909 -33.349  1.00  0.00    -0.317 OA
BRANCH  21  22
HETATM   22  C   UNL     1     -14.982   1.337 -33.575  1.00  0.00     0.175 C 
HETATM   23  C   UNL     1     -15.543   2.012 -32.339  1.00  0.00     0.034 C 
ENDBRANCH  21  22
ENDBRANCH  19  21
ENDBRANCH  15  19
ENDBRANCH   8  11
ENDBRANCH   1   7
BRANCH   3  24
HETATM   24  C   UNL     1      -3.233   0.081 -31.118  1.00  0.00     0.083 C 
BRANCH  24  25
HETATM   25  C   UNL     1      -3.223  -0.887 -32.300  1.00  0.00     0.012 C 
BRANCH  25  26
HETATM   26  C   UNL     1      -3.082  -2.336 -31.834  1.00  0.00     0.041 C 
BRANCH  26  27
HETATM   27  C   UNL     1      -3.657  -3.299 -32.824  1.00  0.00    -0.030 A 
HETATM   28  C   UNL     1      -4.820  -3.108 -33.637  1.00  0.00    -0.002 A 
HETATM   29  C   UNL     1      -4.994  -4.266 -34.396  1.00  0.00     0.042 A 
HETATM   30  C   UNL     1      -5.747  -2.057 -33.795  1.00  0.00     0.014 A 
HETATM   31  C   UNL     1      -6.047  -4.425 -35.307  1.00  0.00     0.030 A 
HETATM   32  N   UNL     1      -3.977  -5.128 -34.059  1.00  0.00    -0.365 N 
HETATM   33  C   UNL     1      -6.949  -3.367 -35.446  1.00  0.00     0.002 A 
HETATM   34  C   UNL     1      -6.804  -2.198 -34.702  1.00  0.00     0.001 A 
HETATM   35  H   UNL     1      -3.854  -6.051 -34.450  1.00  0.00     0.165 HD
HETATM   36  C   UNL     1      -3.166  -4.556 -33.118  1.00  0.00     0.096 A 
ENDBRANCH  26  27
ENDBRANCH  25  26
ENDBRANCH  24  25
ENDBRANCH   3  24
TORSDOF 9
ENDMDL
MODEL 4
REMARK VINA RESULT:      -8.5      2.145      3.300
REMARK  9 active torsions:
REMARK  status: ('A' for Active; 'I' for Inactive)
REMARK    1  A    between atoms: C_2  and  O_3 
REMARK    2  A    between atoms: O_3  and  C_4 
REMARK    3  A    between atoms: C_4  and  C_5 
REMARK    4  A    between atoms: C_10  and  C_11 
REMARK       I    between atoms: C_11  and  N_12 
REMARK    5  A    between atoms: N_12  and  C_13 
REMARK    6  A    between atoms: C_15  and  C_16 
REMARK    7  A    between atoms: C_16  and  C_17 
REMARK    8  A    between atoms: C_17  and  C_18 
REMARK    9  A    between atoms: C_18  and  C_19 
ROOT
HETATM    1  C   UNL     1      -6.009   3.298 -33.320  1.00  0.00     0.725 A 
HETATM    2  N   UNL     1      -6.385   2.317 -34.102  1.00  0.00    -0.046 NA
HETATM    3  C   UNL     1      -7.742   2.261 -33.943  1.00  0.00     0.165 A 
HETATM    4  N   UNL     1      -8.245   3.182 -33.112  1.00  0.00    -0.144 NA
HETATM    5  N   UNL     1      -7.128   3.824 -32.729  1.00  0.00    -0.106 N 
HETATM    6  H   UNL     1      -7.202   4.594 -32.078  1.00  0.00     0.208 HD
ENDROOT
BRANCH   1   7
HETATM    7  N   UNL     1      -4.749   3.789 -33.088  1.00  0.00    -0.152 N 
HETATM    8  C   UNL     1      -4.489   5.144 -33.108  1.00  0.00     0.272 C 
HETATM    9  O   UNL     1      -5.275   6.024 -33.438  1.00  0.00    -0.267 OA
HETATM   10  H   UNL     1      -3.983   3.155 -32.932  1.00  0.00     0.187 HD
BRANCH   8  11
HETATM   11  C   UNL     1      -3.108   5.493 -32.716  1.00  0.00     0.063 A 
HETATM   12  C   UNL     1      -1.953   5.422 -33.492  1.00  0.00     0.022 A 
HETATM   13  N   UNL     1      -0.895   5.764 -32.687  1.00  0.00    -0.354 N 
HETATM   14  C   UNL     1      -1.705   4.999 -34.897  1.00  0.00     0.069 C 
HETATM   15  C   UNL     1      -1.301   5.964 -31.388  1.00  0.00     0.115 A 
HETATM   16  H   UNL     1       0.079   5.770 -32.965  1.00  0.00     0.166 HD
HETATM   17  C   UNL     1      -2.690   5.894 -31.390  1.00  0.00    -0.011 A 
HETATM   18  C   UNL     1      -3.604   6.126 -30.230  1.00  0.00     0.052 C 
BRANCH  15  19
HETATM   19  C   UNL     1      -0.321   6.164 -30.341  1.00  0.00     0.310 C 
HETATM   20  O   UNL     1       0.241   5.249 -29.752  1.00  0.00    -0.258 OA
BRANCH  19  21
HETATM   21  O   UNL     1      -0.172   7.486 -30.060  1.00  0.00    -0.317 OA
BRANCH  21  22
HETATM   22  C   UNL     1      -0.195   7.842 -28.672  1.00  0.00     0.175 C 
HETATM   23  C   UNL     1       1.186   8.259 -28.205  1.00  0.00     0.034 C 
ENDBRANCH  21  22
ENDBRANCH  19  21
ENDBRANCH  15  19
ENDBRANCH   8  11
ENDBRANCH   1   7
BRANCH   3  24
HETATM   24  C   UNL     1      -8.560   1.234 -34.634  1.00  0.00     0.083 C 
BRANCH  24  25
HETATM   25  C   UNL     1      -7.700   0.074 -35.133  1.00  0.00     0.012 C 
BRANCH  25  26
HETATM   26  C   UNL     1      -7.616  -1.045 -34.095  1.00  0.00     0.041 C 
BRANCH  26  27
HETATM   27  C   UNL     1      -6.202  -1.452 -33.826  1.00  0.00    -0.030 A 
HETATM   28  C   UNL     1      -5.339  -0.945 -32.801  1.00  0.00    -0.002 A 
HETATM   29  C   UNL     1      -4.110  -1.593 -32.930  1.00  0.00     0.042 A 
HETATM   30  C   UNL     1      -5.488   0.011 -31.775  1.00  0.00     0.014 A 
HETATM   31  C   UNL     1      -3.024  -1.335 -32.085  1.00  0.00     0.030 A 
HETATM   32  N   UNL     1      -4.220  -2.460 -33.992  1.00  0.00    -0.365 N 
HETATM   33  C   UNL     1      -3.199  -0.386 -31.075  1.00  0.00     0.002 A 
HETATM   34  C   UNL     1      -4.413   0.280 -30.919  1.00  0.00     0.001 A 
HETATM   35  H   UNL     1      -3.477  -3.060 -34.322  1.00  0.00     0.165 HD
HETATM   36  C   UNL     1      -5.473  -2.386 -34.536  1.00  0.00     0.096 A 
ENDBRANCH  26  27
ENDBRANCH  25  26
ENDBRANCH  24  25
ENDBRANCH   3  24
TORSDOF 9
ENDMDL
MODEL 5
REMARK VINA RESULT:      -8.5      4.137      8.164
REMARK  9 active torsions:
REMARK  status: ('A' for Active; 'I' for Inactive)
REMARK    1  A    between atoms: C_2  and  O_3 
REMARK    2  A    between atoms: O_3  and  C_4 
REMARK    3  A    between atoms: C_4  and  C_5 
REMARK    4  A    between atoms: C_10  and  C_11 
REMARK       I    between atoms: C_11  and  N_12 
REMARK    5  A    between atoms: N_12  and  C_13 
REMARK    6  A    between atoms: C_15  and  C_16 
REMARK    7  A    between atoms: C_16  and  C_17 
REMARK    8  A    between atoms: C_17  and  C_18 
REMARK    9  A    between atoms: C_18  and  C_19 
ROOT
HETATM    1  C   UNL     1      -7.111   2.573 -32.605  1.00  0.00     0.725 A 
HETATM    2  N   UNL     1      -6.547   1.854 -31.667  1.00  0.00    -0.046 NA
HETATM    3  C   UNL     1      -5.222   2.178 -31.746  1.00  0.00     0.165 A 
HETATM    4  N   UNL     1      -4.925   3.092 -32.677  1.00  0.00    -0.144 NA
HETATM    5  N   UNL     1      -6.138   3.324 -33.208  1.00  0.00    -0.106 N 
HETATM    6  H   UNL     1      -6.224   3.992 -33.962  1.00  0.00     0.208 HD
ENDROOT
BRANCH   1   7
HETATM    7  N   UNL     1      -8.432   2.639 -32.972  1.00  0.00    -0.152 N 
HETATM    8  C   UNL     1      -8.908   1.960 -34.074  1.00  0.00     0.272 C 
HETATM    9  O   UNL     1      -8.231   1.348 -34.892  1.00  0.00    -0.267 OA
HETATM   10  H   UNL     1      -9.070   3.218 -32.452  1.00  0.00     0.187 HD
BRANCH   8  11
HETATM   11  C   UNL     1     -10.373   2.047 -34.243  1.00  0.00     0.063 A 
HETATM   12  C   UNL     1     -11.109   3.077 -34.824  1.00  0.00     0.022 A 
HETATM   13  N   UNL     1     -12.438   2.764 -34.684  1.00  0.00    -0.354 N 
HETATM   14  C   UNL     1     -10.718   4.373 -35.442  1.00  0.00     0.069 C 
HETATM   15  C   UNL     1     -12.604   1.614 -33.948  1.00  0.00     0.115 A 
HETATM   16  H   UNL     1     -13.215   3.342 -34.980  1.00  0.00     0.166 HD
HETATM   17  C   UNL     1     -11.332   1.090 -33.737  1.00  0.00    -0.011 A 
HETATM   18  C   UNL     1     -10.992  -0.197 -33.057  1.00  0.00     0.052 C 
BRANCH  15  19
HETATM   19  C   UNL     1     -13.927   1.197 -33.536  1.00  0.00     0.310 C 
HETATM   20  O   UNL     1     -14.322   0.038 -33.587  1.00  0.00    -0.258 OA
BRANCH  19  21
HETATM   21  O   UNL     1     -14.679   2.265 -33.161  1.00  0.00    -0.317 OA
BRANCH  21  22
HETATM   22  C   UNL     1     -15.373   2.141 -31.913  1.00  0.00     0.175 C 
HETATM   23  C   UNL     1     -16.800   2.638 -32.043  1.00  0.00     0.034 C 
ENDBRANCH  21  22
ENDBRANCH  19  21
ENDBRANCH  15  19
ENDBRANCH   8  11
ENDBRANCH   1   7
BRANCH   3  24
HETATM   24  C   UNL     1      -4.213   1.534 -30.868  1.00  0.00     0.083 C 
BRANCH  24  25
HETATM   25  C   UNL     1      -4.088   0.039 -31.162  1.00  0.00     0.012 C 
BRANCH  25  26
HETATM   26  C   UNL     1      -3.547  -0.209 -32.570  1.00  0.00     0.041 C 
BRANCH  26  27
HETATM   27  C   UNL     1      -4.476  -1.056 -33.382  1.00  0.00    -0.030 A 
HETATM   28  C   UNL     1      -4.405  -2.473 -33.576  1.00  0.00    -0.002 A 
HETATM   29  C   UNL     1      -5.460  -2.834 -34.415  1.00  0.00     0.042 A 
HETATM   30  C   UNL     1      -3.537  -3.485 -33.118  1.00  0.00     0.014 A 
HETATM   31  C   UNL     1      -5.691  -4.155 -34.818  1.00  0.00     0.030 A 
HETATM   32  N   UNL     1      -6.146  -1.682 -34.720  1.00  0.00    -0.365 N 
HETATM   33  C   UNL     1      -4.818  -5.138 -34.347  1.00  0.00     0.002 A 
HETATM   34  C   UNL     1      -3.754  -4.812 -33.508  1.00  0.00     0.001 A 
HETATM   35  H   UNL     1      -6.959  -1.640 -35.319  1.00  0.00     0.165 HD
HETATM   36  C   UNL     1      -5.566  -0.608 -34.103  1.00  0.00     0.096 A 
ENDBRANCH  26  27
ENDBRANCH  25  26
ENDBRANCH  24  25
ENDBRANCH   3  24
TORSDOF 9
ENDMDL
MODEL 6
REMARK VINA RESULT:      -8.3      3.154      9.814
REMARK  9 active torsions:
REMARK  status: ('A' for Active; 'I' for Inactive)
REMARK    1  A    between atoms: C_2  and  O_3 
REMARK    2  A    between atoms: O_3  and  C_4 
REMARK    3  A    between atoms: C_4  and  C_5 
REMARK    4  A    between atoms: C_10  and  C_11 
REMARK       I    between atoms: C_11  and  N_12 
REMARK    5  A    between atoms: N_12  and  C_13 
REMARK    6  A    between atoms: C_15  and  C_16 
REMARK    7  A    between atoms: C_16  and  C_17 
REMARK    8  A    between atoms: C_17  and  C_18 
REMARK    9  A    between atoms: C_18  and  C_19 
ROOT
HETATM    1  C   UNL     1      -3.183   3.660 -32.267  1.00  0.00     0.725 A 
HETATM    2  N   UNL     1      -2.627   4.540 -33.061  1.00  0.00    -0.046 NA
HETATM    3  C   UNL     1      -2.700   5.715 -32.365  1.00  0.00     0.165 A 
HETATM    4  N   UNL     1      -3.255   5.611 -31.152  1.00  0.00    -0.144 NA
HETATM    5  N   UNL     1      -3.555   4.301 -31.115  1.00  0.00    -0.106 N 
HETATM    6  H   UNL     1      -4.001   3.922 -30.291  1.00  0.00     0.208 HD
ENDROOT
BRANCH   1   7
HETATM    7  N   UNL     1      -3.380   2.316 -32.464  1.00  0.00    -0.152 N 
HETATM    8  C   UNL     1      -4.564   1.703 -32.109  1.00  0.00     0.272 C 
HETATM    9  O   UNL     1      -5.489   2.221 -31.495  1.00  0.00    -0.267 OA
HETATM   10  H   UNL     1      -2.640   1.750 -32.844  1.00  0.00     0.187 HD
BRANCH   8  11
HETATM   11  C   UNL     1      -4.644   0.283 -32.508  1.00  0.00     0.063 A 
HETATM   12  C   UNL     1      -3.737  -0.737 -32.231  1.00  0.00     0.022 A 
HETATM   13  N   UNL     1      -4.179  -1.868 -32.871  1.00  0.00    -0.354 N 
HETATM   14  C   UNL     1      -2.449  -0.769 -31.485  1.00  0.00     0.069 C 
HETATM   15  C   UNL     1      -5.290  -1.603 -33.638  1.00  0.00     0.115 A 
HETATM   16  H   UNL     1      -3.707  -2.764 -32.881  1.00  0.00     0.166 HD
HETATM   17  C   UNL     1      -5.662  -0.292 -33.360  1.00  0.00    -0.011 A 
HETATM   18  C   UNL     1      -6.859   0.434 -33.885  1.00  0.00     0.052 C 
BRANCH  15  19
HETATM   19  C   UNL     1      -5.817  -2.613 -34.531  1.00  0.00     0.310 C 
HETATM   20  O   UNL     1      -7.003  -2.711 -34.823  1.00  0.00    -0.258 OA
BRANCH  19  21
HETATM   21  O   UNL     1      -4.839  -3.467 -34.932  1.00  0.00    -0.317 OA
BRANCH  21  22
HETATM   22  C   UNL     1      -4.992  -4.835 -34.533  1.00  0.00     0.175 C 
HETATM   23  C   UNL     1      -3.902  -5.234 -33.558  1.00  0.00     0.034 C 
ENDBRANCH  21  22
ENDBRANCH  19  21
ENDBRANCH  15  19
ENDBRANCH   8  11
ENDBRANCH   1   7
BRANCH   3  24
HETATM   24  C   UNL     1      -2.212   6.991 -32.945  1.00  0.00     0.083 C 
BRANCH  24  25
HETATM   25  C   UNL     1      -1.248   7.705 -31.999  1.00  0.00     0.012 C 
BRANCH  25  26
HETATM   26  C   UNL     1       0.041   6.906 -31.807  1.00  0.00     0.041 C 
BRANCH  26  27
HETATM   27  C   UNL     1       0.147   6.340 -30.426  1.00  0.00    -0.030 A 
HETATM   28  C   UNL     1      -0.144   7.011 -29.195  1.00  0.00    -0.002 A 
HETATM   29  C   UNL     1       0.109   6.111 -28.159  1.00  0.00     0.042 A 
HETATM   30  C   UNL     1      -0.595   8.305 -28.863  1.00  0.00     0.014 A 
HETATM   31  C   UNL     1      -0.069   6.439 -26.809  1.00  0.00     0.030 A 
HETATM   32  N   UNL     1       0.536   4.938 -28.737  1.00  0.00    -0.365 N 
HETATM   33  C   UNL     1      -0.521   7.726 -26.509  1.00  0.00     0.002 A 
HETATM   34  C   UNL     1      -0.781   8.649 -27.519  1.00  0.00     0.001 A 
HETATM   35  H   UNL     1       0.798   4.109 -28.224  1.00  0.00     0.165 HD
HETATM   36  C   UNL     1       0.560   5.063 -30.099  1.00  0.00     0.096 A 
ENDBRANCH  26  27
ENDBRANCH  25  26
ENDBRANCH  24  25
ENDBRANCH   3  24
TORSDOF 9
ENDMDL
MODEL 7
REMARK VINA RESULT:      -8.2      1.509      2.447
REMARK  9 active torsions:
REMARK  status: ('A' for Active; 'I' for Inactive)
REMARK    1  A    between atoms: C_2  and  O_3 
REMARK    2  A    between atoms: O_3  and  C_4 
REMARK    3  A    between atoms: C_4  and  C_5 
REMARK    4  A    between atoms: C_10  and  C_11 
REMARK       I    between atoms: C_11  and  N_12 
REMARK    5  A    between atoms: N_12  and  C_13 
REMARK    6  A    between atoms: C_15  and  C_16 
REMARK    7  A    between atoms: C_16  and  C_17 
REMARK    8  A    between atoms: C_17  and  C_18 
REMARK    9  A    between atoms: C_18  and  C_19 
ROOT
HETATM    1  C   UNL     1      -7.235   3.118 -32.479  1.00  0.00     0.725 A 
HETATM    2  N   UNL     1      -7.343   2.495 -33.625  1.00  0.00    -0.046 NA
HETATM    3  C   UNL     1      -8.423   1.673 -33.459  1.00  0.00     0.165 A 
HETATM    4  N   UNL     1      -9.019   1.768 -32.265  1.00  0.00    -0.144 NA
HETATM    5  N   UNL     1      -8.246   2.688 -31.662  1.00  0.00    -0.106 N 
HETATM    6  H   UNL     1      -8.464   2.968 -30.715  1.00  0.00     0.208 HD
ENDROOT
BRANCH   1   7
HETATM    7  N   UNL     1      -6.316   4.061 -32.087  1.00  0.00    -0.152 N 
HETATM    8  C   UNL     1      -5.759   4.042 -30.825  1.00  0.00     0.272 C 
HETATM    9  O   UNL     1      -6.084   3.302 -29.905  1.00  0.00    -0.267 OA
HETATM   10  H   UNL     1      -6.062   4.805 -32.714  1.00  0.00     0.187 HD
BRANCH   8  11
HETATM   11  C   UNL     1      -4.702   5.055 -30.624  1.00  0.00     0.063 A 
HETATM   12  C   UNL     1      -4.817   6.304 -30.018  1.00  0.00     0.022 A 
HETATM   13  N   UNL     1      -3.601   6.930 -30.131  1.00  0.00    -0.354 N 
HETATM   14  C   UNL     1      -5.962   7.023 -29.395  1.00  0.00     0.069 C 
HETATM   15  C   UNL     1      -2.721   6.178 -30.875  1.00  0.00     0.115 A 
HETATM   16  H   UNL     1      -3.389   7.868 -29.813  1.00  0.00     0.166 HD
HETATM   17  C   UNL     1      -3.346   4.960 -31.118  1.00  0.00    -0.011 A 
HETATM   18  C   UNL     1      -2.764   3.774 -31.818  1.00  0.00     0.052 C 
BRANCH  15  19
HETATM   19  C   UNL     1      -1.440   6.728 -31.263  1.00  0.00     0.310 C 
HETATM   20  O   UNL     1      -0.415   6.595 -30.605  1.00  0.00    -0.258 OA
BRANCH  19  21
HETATM   21  O   UNL     1      -1.549   7.462 -32.401  1.00  0.00    -0.317 OA
BRANCH  21  22
HETATM   22  C   UNL     1      -0.878   6.941 -33.555  1.00  0.00     0.175 C 
HETATM   23  C   UNL     1      -1.830   6.120 -34.403  1.00  0.00     0.034 C 
ENDBRANCH  21  22
ENDBRANCH  19  21
ENDBRANCH  15  19
ENDBRANCH   8  11
ENDBRANCH   1   7
BRANCH   3  24
HETATM   24  C   UNL     1      -8.861   0.745 -34.532  1.00  0.00     0.083 C 
BRANCH  24  25
HETATM   25  C   UNL     1      -7.713  -0.145 -35.006  1.00  0.00     0.012 C 
BRANCH  25  26
HETATM   26  C   UNL     1      -7.503  -1.334 -34.068  1.00  0.00     0.041 C 
BRANCH  26  27
HETATM   27  C   UNL     1      -6.053  -1.576 -33.789  1.00  0.00    -0.030 A 
HETATM   28  C   UNL     1      -5.251  -0.944 -32.786  1.00  0.00    -0.002 A 
HETATM   29  C   UNL     1      -3.959  -1.460 -32.897  1.00  0.00     0.042 A 
HETATM   30  C   UNL     1      -5.502   0.026 -31.793  1.00  0.00     0.014 A 
HETATM   31  C   UNL     1      -2.907  -1.057 -32.065  1.00  0.00     0.030 A 
HETATM   32  N   UNL     1      -3.975  -2.371 -33.927  1.00  0.00    -0.365 N 
HETATM   33  C   UNL     1      -3.184  -0.098 -31.088  1.00  0.00     0.002 A 
HETATM   34  C   UNL     1      -4.463   0.438 -30.951  1.00  0.00     0.001 A 
HETATM   35  H   UNL     1      -3.171  -2.899 -34.238  1.00  0.00     0.165 HD
HETATM   36  C   UNL     1      -5.228  -2.451 -34.469  1.00  0.00     0.096 A 
ENDBRANCH  26  27
ENDBRANCH  25  26
ENDBRANCH  24  25
ENDBRANCH   3  24
TORSDOF 9
ENDMDL
MODEL 8
REMARK VINA RESULT:      -8.2      2.697      3.635
REMARK  9 active torsions:
REMARK  status: ('A' for Active; 'I' for Inactive)
REMARK    1  A    between atoms: C_2  and  O_3 
REMARK    2  A    between atoms: O_3  and  C_4 
REMARK    3  A    between atoms: C_4  and  C_5 
REMARK    4  A    between atoms: C_10  and  C_11 
REMARK       I    between atoms: C_11  and  N_12 
REMARK    5  A    between atoms: N_12  and  C_13 
REMARK    6  A    between atoms: C_15  and  C_16 
REMARK    7  A    between atoms: C_16  and  C_17 
REMARK    8  A    between atoms: C_17  and  C_18 
REMARK    9  A    between atoms: C_18  and  C_19 
ROOT
HETATM    1  C   UNL     1      -4.317   4.284 -32.262  1.00  0.00     0.725 A 
HETATM    2  N   UNL     1      -5.235   3.371 -32.065  1.00  0.00    -0.046 NA
HETATM    3  C   UNL     1      -5.864   3.260 -33.274  1.00  0.00     0.165 A 
HETATM    4  N   UNL     1      -5.366   4.046 -34.236  1.00  0.00    -0.144 NA
HETATM    5  N   UNL     1      -4.389   4.685 -33.569  1.00  0.00    -0.106 N 
HETATM    6  H   UNL     1      -3.825   5.366 -34.059  1.00  0.00     0.208 HD
ENDROOT
BRANCH   1   7
HETATM    7  N   UNL     1      -3.395   4.791 -31.380  1.00  0.00    -0.152 N 
HETATM    8  C   UNL     1      -3.014   6.116 -31.421  1.00  0.00     0.272 C 
HETATM    9  O   UNL     1      -3.336   6.933 -32.276  1.00  0.00    -0.267 OA
HETATM   10  H   UNL     1      -2.957   4.186 -30.707  1.00  0.00     0.187 HD
BRANCH   8  11
HETATM   11  C   UNL     1      -2.110   6.512 -30.322  1.00  0.00     0.063 A 
HETATM   12  C   UNL     1      -0.732   6.325 -30.237  1.00  0.00     0.022 A 
HETATM   13  N   UNL     1      -0.331   6.775 -29.004  1.00  0.00    -0.354 N 
HETATM   14  C   UNL     1       0.261   5.706 -31.155  1.00  0.00     0.069 C 
HETATM   15  C   UNL     1      -1.408   7.160 -28.239  1.00  0.00     0.115 A 
HETATM   16  H   UNL     1       0.614   6.737 -28.641  1.00  0.00     0.166 HD
HETATM   17  C   UNL     1      -2.525   7.097 -29.065  1.00  0.00    -0.011 A 
HETATM   18  C   UNL     1      -3.923   7.496 -28.719  1.00  0.00     0.052 C 
BRANCH  15  19
HETATM   19  C   UNL     1      -1.226   7.504 -26.845  1.00  0.00     0.310 C 
HETATM   20  O   UNL     1      -1.675   6.842 -25.917  1.00  0.00    -0.258 OA
BRANCH  19  21
HETATM   21  O   UNL     1      -0.561   8.682 -26.717  1.00  0.00    -0.317 OA
BRANCH  21  22
HETATM   22  C   UNL     1       0.659   8.640 -25.966  1.00  0.00     0.175 C 
HETATM   23  C   UNL     1       1.858   8.669 -26.892  1.00  0.00     0.034 C 
ENDBRANCH  21  22
ENDBRANCH  19  21
ENDBRANCH  15  19
ENDBRANCH   8  11
ENDBRANCH   1   7
BRANCH   3  24
HETATM   24  C   UNL     1      -7.018   2.347 -33.465  1.00  0.00     0.083 C 
BRANCH  24  25
HETATM   25  C   UNL     1      -6.797   1.406 -34.649  1.00  0.00     0.012 C 
BRANCH  25  26
HETATM   26  C   UNL     1      -7.188  -0.031 -34.300  1.00  0.00     0.041 C 
BRANCH  26  27
HETATM   27  C   UNL     1      -5.989  -0.896 -34.075  1.00  0.00    -0.030 A 
HETATM   28  C   UNL     1      -5.884  -2.304 -34.317  1.00  0.00    -0.002 A 
HETATM   29  C   UNL     1      -4.595  -2.695 -33.953  1.00  0.00     0.042 A 
HETATM   30  C   UNL     1      -6.768  -3.286 -34.809  1.00  0.00     0.014 A 
HETATM   31  C   UNL     1      -4.145  -4.018 -34.057  1.00  0.00     0.030 A 
HETATM   32  N   UNL     1      -3.941  -1.570 -33.507  1.00  0.00    -0.365 N 
HETATM   33  C   UNL     1      -5.042  -4.970 -34.550  1.00  0.00     0.002 A 
HETATM   34  C   UNL     1      -6.336  -4.612 -34.922  1.00  0.00     0.001 A 
HETATM   35  H   UNL     1      -2.988  -1.556 -33.171  1.00  0.00     0.165 HD
HETATM   36  C   UNL     1      -4.767  -0.483 -33.579  1.00  0.00     0.096 A 
ENDBRANCH  26  27
ENDBRANCH  25  26
ENDBRANCH  24  25
ENDBRANCH   3  24
TORSDOF 9
ENDMDL
MODEL 9
REMARK VINA RESULT:      -8.1      2.854      9.533
REMARK  9 active torsions:
REMARK  status: ('A' for Active; 'I' for Inactive)
REMARK    1  A    between atoms: C_2  and  O_3 
REMARK    2  A    between atoms: O_3  and  C_4 
REMARK    3  A    between atoms: C_4  and  C_5 
REMARK    4  A    between atoms: C_10  and  C_11 
REMARK       I    between atoms: C_11  and  N_12 
REMARK    5  A    between atoms: N_12  and  C_13 
REMARK    6  A    between atoms: C_15  and  C_16 
REMARK    7  A    between atoms: C_16  and  C_17 
REMARK    8  A    between atoms: C_17  and  C_18 
REMARK    9  A    between atoms: C_18  and  C_19 
ROOT
HETATM    1  C   UNL     1      -4.386   3.889 -31.509  1.00  0.00     0.725 A 
HETATM    2  N   UNL     1      -3.934   5.038 -31.943  1.00  0.00    -0.046 NA
HETATM    3  C   UNL     1      -4.247   5.920 -30.947  1.00  0.00     0.165 A 
HETATM    4  N   UNL     1      -4.857   5.374 -29.888  1.00  0.00    -0.144 NA
HETATM    5  N   UNL     1      -4.936   4.087 -30.270  1.00  0.00    -0.106 N 
HETATM    6  H   UNL     1      -5.366   3.416 -29.649  1.00  0.00     0.208 HD
ENDROOT
BRANCH   1   7
HETATM    7  N   UNL     1      -4.344   2.656 -32.112  1.00  0.00    -0.152 N 
HETATM    8  C   UNL     1      -5.409   1.782 -32.039  1.00  0.00     0.272 C 
HETATM    9  O   UNL     1      -6.420   1.933 -31.364  1.00  0.00    -0.267 OA
HETATM   10  H   UNL     1      -3.511   2.360 -32.592  1.00  0.00     0.187 HD
BRANCH   8  11
HETATM   11  C   UNL     1      -5.234   0.559 -32.849  1.00  0.00     0.063 A 
HETATM   12  C   UNL     1      -5.943   0.176 -33.986  1.00  0.00     0.022 A 
HETATM   13  N   UNL     1      -5.496  -1.070 -34.349  1.00  0.00    -0.354 N 
HETATM   14  C   UNL     1      -7.052   0.813 -34.747  1.00  0.00     0.069 C 
HETATM   15  C   UNL     1      -4.590  -1.560 -33.437  1.00  0.00     0.115 A 
HETATM   16  H   UNL     1      -5.850  -1.621 -35.122  1.00  0.00     0.166 HD
HETATM   17  C   UNL     1      -4.334  -0.530 -32.538  1.00  0.00    -0.011 A 
HETATM   18  C   UNL     1      -3.355  -0.545 -31.408  1.00  0.00     0.052 C 
BRANCH  15  19
HETATM   19  C   UNL     1      -4.124  -2.927 -33.536  1.00  0.00     0.310 C 
HETATM   20  O   UNL     1      -3.436  -3.474 -32.682  1.00  0.00    -0.258 OA
BRANCH  19  21
HETATM   21  O   UNL     1      -4.488  -3.481 -34.722  1.00  0.00    -0.317 OA
BRANCH  21  22
HETATM   22  C   UNL     1      -5.227  -4.707 -34.644  1.00  0.00     0.175 C 
HETATM   23  C   UNL     1      -6.657  -4.498 -35.103  1.00  0.00     0.034 C 
ENDBRANCH  21  22
ENDBRANCH  19  21
ENDBRANCH  15  19
ENDBRANCH   8  11
ENDBRANCH   1   7
BRANCH   3  24
HETATM   24  C   UNL     1      -3.941   7.368 -31.069  1.00  0.00     0.083 C 
BRANCH  24  25
HETATM   25  C   UNL     1      -3.047   7.651 -32.276  1.00  0.00     0.012 C 
BRANCH  25  26
HETATM   26  C   UNL     1      -1.689   8.207 -31.846  1.00  0.00     0.041 C 
BRANCH  26  27
HETATM   27  C   UNL     1      -0.906   7.213 -31.048  1.00  0.00    -0.030 A 
HETATM   28  C   UNL     1      -0.448   7.359 -29.699  1.00  0.00    -0.002 A 
HETATM   29  C   UNL     1       0.250   6.198 -29.366  1.00  0.00     0.042 A 
HETATM   30  C   UNL     1      -0.558   8.376 -28.728  1.00  0.00     0.014 A 
HETATM   31  C   UNL     1       0.842   6.001 -28.112  1.00  0.00     0.030 A 
HETATM   32  N   UNL     1       0.218   5.376 -30.469  1.00  0.00    -0.365 N 
HETATM   33  C   UNL     1       0.714   7.023 -27.168  1.00  0.00     0.002 A 
HETATM   34  C   UNL     1       0.025   8.196 -27.468  1.00  0.00     0.001 A 
HETATM   35  H   UNL     1       0.651   4.465 -30.518  1.00  0.00     0.165 HD
HETATM   36  C   UNL     1      -0.477   5.974 -31.484  1.00  0.00     0.096 A 
ENDBRANCH  26  27
ENDBRANCH  25  26
ENDBRANCH  24  25
ENDBRANCH   3  24
TORSDOF 9
ENDMDL
MODEL 10
REMARK VINA RESULT:      -8.0      3.060      9.878
REMARK  9 active torsions:
REMARK  status: ('A' for Active; 'I' for Inactive)
REMARK    1  A    between atoms: C_2  and  O_3 
REMARK    2  A    between atoms: O_3  and  C_4 
REMARK    3  A    between atoms: C_4  and  C_5 
REMARK    4  A    between atoms: C_10  and  C_11 
REMARK       I    between atoms: C_11  and  N_12 
REMARK    5  A    between atoms: N_12  and  C_13 
REMARK    6  A    between atoms: C_15  and  C_16 
REMARK    7  A    between atoms: C_16  and  C_17 
REMARK    8  A    between atoms: C_17  and  C_18 
REMARK    9  A    between atoms: C_18  and  C_19 
ROOT
HETATM    1  C   UNL     1      -3.350   3.444 -32.435  1.00  0.00     0.725 A 
HETATM    2  N   UNL     1      -2.939   4.418 -33.207  1.00  0.00    -0.046 NA
HETATM    3  C   UNL     1      -1.883   4.961 -32.530  1.00  0.00     0.165 A 
HETATM    4  N   UNL     1      -1.591   4.356 -31.372  1.00  0.00    -0.144 NA
HETATM    5  N   UNL     1      -2.536   3.400 -31.334  1.00  0.00    -0.106 N 
HETATM    6  H   UNL     1      -2.563   2.769 -30.545  1.00  0.00     0.208 HD
ENDROOT
BRANCH   1   7
HETATM    7  N   UNL     1      -4.386   2.564 -32.624  1.00  0.00    -0.152 N 
HETATM    8  C   UNL     1      -5.126   2.084 -31.564  1.00  0.00     0.272 C 
HETATM    9  O   UNL     1      -4.890   2.271 -30.376  1.00  0.00    -0.267 OA
HETATM   10  H   UNL     1      -4.599   2.230 -33.549  1.00  0.00     0.187 HD
BRANCH   8  11
HETATM   11  C   UNL     1      -6.276   1.248 -31.967  1.00  0.00     0.063 A 
HETATM   12  C   UNL     1      -6.260   0.074 -32.716  1.00  0.00     0.022 A 
HETATM   13  N   UNL     1      -7.565  -0.306 -32.914  1.00  0.00    -0.354 N 
HETATM   14  C   UNL     1      -5.161  -0.713 -33.338  1.00  0.00     0.069 C 
HETATM   15  C   UNL     1      -8.438   0.628 -32.406  1.00  0.00     0.115 A 
HETATM   16  H   UNL     1      -7.871  -1.106 -33.454  1.00  0.00     0.166 HD
HETATM   17  C   UNL     1      -7.667   1.565 -31.725  1.00  0.00    -0.011 A 
HETATM   18  C   UNL     1      -8.161   2.731 -30.933  1.00  0.00     0.052 C 
BRANCH  15  19
HETATM   19  C   UNL     1      -9.858   0.510 -32.658  1.00  0.00     0.310 C 
HETATM   20  O   UNL     1     -10.464  -0.555 -32.657  1.00  0.00    -0.258 OA
BRANCH  19  21
HETATM   21  O   UNL     1     -10.400   1.719 -32.963  1.00  0.00    -0.317 OA
BRANCH  21  22
HETATM   22  C   UNL     1     -10.265   2.145 -34.325  1.00  0.00     0.175 C 
HETATM   23  C   UNL     1      -9.863   3.606 -34.390  1.00  0.00     0.034 C 
ENDBRANCH  21  22
ENDBRANCH  19  21
ENDBRANCH  15  19
ENDBRANCH   8  11
ENDBRANCH   1   7
BRANCH   3  24
HETATM   24  C   UNL     1      -1.153   6.143 -33.053  1.00  0.00     0.083 C 
BRANCH  24  25
HETATM   25  C   UNL     1      -0.408   6.880 -31.940  1.00  0.00     0.012 C 
BRANCH  25  26
HETATM   26  C   UNL     1      -1.314   7.891 -31.237  1.00  0.00     0.041 C 
BRANCH  26  27
HETATM   27  C   UNL     1      -1.536   7.535 -29.801  1.00  0.00    -0.030 A 
HETATM   28  C   UNL     1      -0.575   7.589 -28.740  1.00  0.00    -0.002 A 
HETATM   29  C   UNL     1      -1.212   7.155 -27.577  1.00  0.00     0.042 A 
HETATM   30  C   UNL     1       0.782   7.962 -28.661  1.00  0.00     0.014 A 
HETATM   31  C   UNL     1      -0.562   7.078 -26.339  1.00  0.00     0.030 A 
HETATM   32  N   UNL     1      -2.510   6.849 -27.916  1.00  0.00    -0.365 N 
HETATM   33  C   UNL     1       0.782   7.457 -26.289  1.00  0.00     0.002 A 
HETATM   34  C   UNL     1       1.448   7.894 -27.432  1.00  0.00     0.001 A 
HETATM   35  H   UNL     1      -3.205   6.502 -27.270  1.00  0.00     0.165 HD
HETATM   36  C   UNL     1      -2.717   7.077 -29.249  1.00  0.00     0.096 A 
ENDBRANCH  26  27
ENDBRANCH  25  26
ENDBRANCH  24  25
ENDBRANCH   3  24
TORSDOF 9
ENDMDL
