MODEL 1
REMARK VINA RESULT:      -8.5      0.000      0.000
REMARK  7 active torsions:
REMARK  status: ('A' for Active; 'I' for Inactive)
REMARK    1  A    between atoms: C_2  and  C_3 
REMARK    2  A    between atoms: C_3  and  N_4 
REMARK    3  A    between atoms: C_3  and  C_22 
REMARK       I    between atoms: N_4  and  C_5 
REMARK       I    between atoms: C_5  and  N_6 
REMARK    4  A    between atoms: N_6  and  C_7 
REMARK    5  A    between atoms: C_7  and  C_8 
REMARK    6  A    between atoms: C_11  and  N_12 
REMARK       I    between atoms: N_12  and  C_13 
REMARK       I    between atoms: C_13  and  N_14 
REMARK    7  A    between atoms: N_14  and  C_15 
ROOT
HETATM    1  N   UNL     1      -7.445   2.040 -33.126  1.00  0.00    -0.331 N 
HETATM    2  C   UNL     1      -6.895   3.256 -33.432  1.00  0.00     0.317 C 
HETATM    3  N   UNL     1      -6.756   4.034 -32.319  1.00  0.00    -0.339 N 
HETATM    4  O   UNL     1      -6.582   3.601 -34.564  1.00  0.00    -0.247 OA
HETATM    5  H   UNL     1      -7.965   2.026 -32.263  1.00  0.00     0.165 HD
HETATM    6  H   UNL     1      -6.647   3.546 -31.443  1.00  0.00     0.164 HD
ENDROOT
BRANCH   1   7
HETATM    7  C   UNL     1      -7.875   1.103 -34.162  1.00  0.00     0.159 C 
BRANCH   7   8
HETATM    8  C   UNL     1      -9.372   0.712 -34.019  1.00  0.00     0.008 C 
HETATM    9  C   UNL     1     -10.279   1.907 -34.336  1.00  0.00     0.012 C 
HETATM   10  C   UNL     1      -9.746   0.141 -32.643  1.00  0.00     0.012 C 
ENDBRANCH   7   8
BRANCH   7  11
HETATM   11  C   UNL     1      -6.966  -0.103 -34.178  1.00  0.00     0.128 A 
HETATM   12  N   UNL     1      -5.783  -0.243 -33.610  1.00  0.00    -0.231 NA
HETATM   13  C   UNL     1      -5.399  -1.538 -33.858  1.00  0.00     0.085 A 
HETATM   14  C   UNL     1      -6.367  -2.212 -34.592  1.00  0.00     0.062 A 
HETATM   15  C   UNL     1      -4.232  -2.215 -33.481  1.00  0.00     0.034 A 
HETATM   16  N   UNL     1      -7.352  -1.281 -34.780  1.00  0.00    -0.341 N 
HETATM   17  C   UNL     1      -6.242  -3.545 -34.987  1.00  0.00     0.032 A 
HETATM   18  H   UNL     1      -8.220  -1.403 -35.292  1.00  0.00     0.167 HD
HETATM   19  C   UNL     1      -5.070  -4.206 -34.601  1.00  0.00     0.002 A 
HETATM   20  C   UNL     1      -4.080  -3.556 -33.860  1.00  0.00     0.002 A 
ENDBRANCH   7  11
ENDBRANCH   1   7
BRANCH   3  21
HETATM   21  C   UNL     1      -6.174   5.355 -32.398  1.00  0.00     0.162 C 
BRANCH  21  22
HETATM   22  C   UNL     1      -4.700   5.287 -32.096  1.00  0.00    -0.040 A 
HETATM   23  C   UNL     1      -3.848   6.362 -32.367  1.00  0.00     0.011 A 
HETATM   24  C   UNL     1      -2.474   6.266 -32.112  1.00  0.00     0.030 A 
HETATM   25  C   UNL     1      -1.927   5.087 -31.602  1.00  0.00     0.036 A 
HETATM   26  C   UNL     1      -2.784   4.026 -31.296  1.00  0.00     0.030 A 
HETATM   27  C   UNL     1      -4.155   4.118 -31.550  1.00  0.00     0.011 A 
BRANCH  25  28
HETATM   28  N   UNL     1      -0.562   4.894 -31.325  1.00  0.00    -0.309 N 
HETATM   29  C   UNL     1       0.205   5.106 -30.218  1.00  0.00     0.321 C 
HETATM   30  N   UNL     1      -0.325   5.883 -29.234  1.00  0.00    -0.339 N 
HETATM   31  O   UNL     1       1.343   4.646 -30.191  1.00  0.00    -0.247 OA
HETATM   32  H   UNL     1      -0.985   6.563 -29.581  1.00  0.00     0.164 HD
HETATM   33  H   UNL     1      -0.003   4.496 -32.070  1.00  0.00     0.170 HD
BRANCH  30  34
HETATM   34  C   UNL     1       0.406   6.287 -28.037  1.00  0.00     0.078 C 
HETATM   35  C   UNL     1       0.994   7.694 -28.138  1.00  0.00     0.032 C 
HETATM   36  C   UNL     1      -0.437   6.120 -26.775  1.00  0.00     0.032 C 
ENDBRANCH  30  34
ENDBRANCH  25  28
ENDBRANCH  21  22
ENDBRANCH   3  21
TORSDOF 7
ENDMDL
MODEL 2
REMARK VINA RESULT:      -8.5      2.639      9.550
REMARK  7 active torsions:
REMARK  status: ('A' for Active; 'I' for Inactive)
REMARK    1  A    between atoms: C_2  and  C_3 
REMARK    2  A    between atoms: C_3  and  N_4 
REMARK    3  A    between atoms: C_3  and  C_22 
REMARK       I    between atoms: N_4  and  C_5 
REMARK       I    between atoms: C_5  and  N_6 
REMARK    4  A    between atoms: N_6  and  C_7 
REMARK    5  A    between atoms: C_7  and  C_8 
REMARK    6  A    between atoms: C_11  and  N_12 
REMARK       I    between atoms: N_12  and  C_13 
REMARK       I    between atoms: C_13  and  N_14 
REMARK    7  A    between atoms: N_14  and  C_15 
ROOT
HETATM    1  N   UNL     1      -2.943   3.373 -32.858  1.00  0.00    -0.331 N 
HETATM    2  C   UNL     1      -3.642   2.538 -32.029  1.00  0.00     0.317 C 
HETATM    3  N   UNL     1      -3.537   1.236 -32.428  1.00  0.00    -0.339 N 
HETATM    4  O   UNL     1      -4.287   2.916 -31.060  1.00  0.00    -0.247 OA
HETATM    5  H   UNL     1      -2.769   2.995 -33.776  1.00  0.00     0.165 HD
HETATM    6  H   UNL     1      -2.703   0.991 -32.939  1.00  0.00     0.164 HD
ENDROOT
BRANCH   1   7
HETATM    7  C   UNL     1      -3.052   4.827 -32.762  1.00  0.00     0.159 C 
BRANCH   7   8
HETATM    8  C   UNL     1      -2.785   5.530 -34.121  1.00  0.00     0.008 C 
HETATM    9  C   UNL     1      -3.842   5.128 -35.157  1.00  0.00     0.012 C 
HETATM   10  C   UNL     1      -1.385   5.276 -34.698  1.00  0.00     0.012 C 
ENDBRANCH   7   8
BRANCH   7  11
HETATM   11  C   UNL     1      -2.152   5.341 -31.664  1.00  0.00     0.128 A 
HETATM   12  N   UNL     1      -1.137   4.728 -31.083  1.00  0.00    -0.231 NA
HETATM   13  C   UNL     1      -0.605   5.637 -30.201  1.00  0.00     0.085 A 
HETATM   14  C   UNL     1      -1.303   6.837 -30.242  1.00  0.00     0.062 A 
HETATM   15  C   UNL     1       0.486   5.508 -29.330  1.00  0.00     0.034 A 
HETATM   16  N   UNL     1      -2.277   6.625 -31.179  1.00  0.00    -0.341 N 
HETATM   17  C   UNL     1      -0.980   7.940 -29.450  1.00  0.00     0.032 A 
HETATM   18  H   UNL     1      -2.998   7.278 -31.471  1.00  0.00     0.167 HD
HETATM   19  C   UNL     1       0.113   7.794 -28.587  1.00  0.00     0.002 A 
HETATM   20  C   UNL     1       0.836   6.601 -28.526  1.00  0.00     0.002 A 
ENDBRANCH   7  11
ENDBRANCH   1   7
BRANCH   3  21
HETATM   21  C   UNL     1      -4.177   0.173 -31.687  1.00  0.00     0.162 C 
BRANCH  21  22
HETATM   22  C   UNL     1      -5.637   0.098 -32.050  1.00  0.00    -0.040 A 
HETATM   23  C   UNL     1      -6.053  -0.236 -33.342  1.00  0.00     0.011 A 
HETATM   24  C   UNL     1      -7.415  -0.265 -33.669  1.00  0.00     0.030 A 
HETATM   25  C   UNL     1      -8.381   0.061 -32.715  1.00  0.00     0.036 A 
HETATM   26  C   UNL     1      -7.967   0.358 -31.413  1.00  0.00     0.030 A 
HETATM   27  C   UNL     1      -6.609   0.388 -31.084  1.00  0.00     0.011 A 
BRANCH  25  28
HETATM   28  N   UNL     1      -9.767   0.071 -32.953  1.00  0.00    -0.309 N 
HETATM   29  C   UNL     1     -10.624   1.014 -33.435  1.00  0.00     0.321 C 
HETATM   30  N   UNL     1     -10.173   2.298 -33.484  1.00  0.00    -0.339 N 
HETATM   31  O   UNL     1     -11.765   0.676 -33.738  1.00  0.00    -0.247 OA
HETATM   32  H   UNL     1      -9.478   2.498 -32.781  1.00  0.00     0.164 HD
HETATM   33  H   UNL     1     -10.263  -0.790 -32.759  1.00  0.00     0.170 HD
BRANCH  30  34
HETATM   34  C   UNL     1     -11.000   3.434 -33.878  1.00  0.00     0.078 C 
HETATM   35  C   UNL     1     -11.604   4.178 -32.688  1.00  0.00     0.032 C 
HETATM   36  C   UNL     1     -10.253   4.383 -34.812  1.00  0.00     0.032 C 
ENDBRANCH  30  34
ENDBRANCH  25  28
ENDBRANCH  21  22
ENDBRANCH   3  21
TORSDOF 7
ENDMDL
MODEL 3
REMARK VINA RESULT:      -8.5      1.750      4.263
REMARK  7 active torsions:
REMARK  status: ('A' for Active; 'I' for Inactive)
REMARK    1  A    between atoms: C_2  and  C_3 
REMARK    2  A    between atoms: C_3  and  N_4 
REMARK    3  A    between atoms: C_3  and  C_22 
REMARK       I    between atoms: N_4  and  C_5 
REMARK       I    between atoms: C_5  and  N_6 
REMARK    4  A    between atoms: N_6  and  C_7 
REMARK    5  A    between atoms: C_7  and  C_8 
REMARK    6  A    between atoms: C_11  and  N_12 
REMARK       I    between atoms: N_12  and  C_13 
REMARK       I    between atoms: C_13  and  N_14 
REMARK    7  A    between atoms: N_14  and  C_15 
ROOT
HETATM    1  N   UNL     1      -7.072   1.784 -33.950  1.00  0.00    -0.331 N 
HETATM    2  C   UNL     1      -6.792   3.027 -33.448  1.00  0.00     0.317 C 
HETATM    3  N   UNL     1      -5.938   3.712 -34.264  1.00  0.00    -0.339 N 
HETATM    4  O   UNL     1      -7.244   3.460 -32.396  1.00  0.00    -0.247 OA
HETATM    5  H   UNL     1      -6.385   1.435 -34.599  1.00  0.00     0.165 HD
HETATM    6  H   UNL     1      -5.959   3.466 -35.242  1.00  0.00     0.164 HD
ENDROOT
BRANCH   1   7
HETATM    7  C   UNL     1      -7.803   0.784 -33.174  1.00  0.00     0.159 C 
BRANCH   7   8
HETATM    8  C   UNL     1      -7.199  -0.639 -33.326  1.00  0.00     0.008 C 
HETATM    9  C   UNL     1      -5.861  -0.743 -32.583  1.00  0.00     0.012 C 
HETATM   10  C   UNL     1      -7.008  -1.090 -34.781  1.00  0.00     0.012 C 
ENDBRANCH   7   8
BRANCH   7  11
HETATM   11  C   UNL     1      -9.270   0.825 -33.530  1.00  0.00     0.128 A 
HETATM   12  N   UNL     1     -10.250   0.085 -33.047  1.00  0.00    -0.231 NA
HETATM   13  C   UNL     1     -11.399   0.551 -33.638  1.00  0.00     0.085 A 
HETATM   14  C   UNL     1     -11.122   1.604 -34.502  1.00  0.00     0.062 A 
HETATM   15  C   UNL     1     -12.725   0.125 -33.482  1.00  0.00     0.034 A 
HETATM   16  N   UNL     1      -9.765   1.760 -34.413  1.00  0.00    -0.341 N 
HETATM   17  C   UNL     1     -12.101   2.271 -35.238  1.00  0.00     0.032 A 
HETATM   18  H   UNL     1      -9.192   2.428 -34.918  1.00  0.00     0.167 HD
HETATM   19  C   UNL     1     -13.420   1.833 -35.068  1.00  0.00     0.002 A 
HETATM   20  C   UNL     1     -13.731   0.779 -34.206  1.00  0.00     0.002 A 
ENDBRANCH   7  11
ENDBRANCH   1   7
BRANCH   3  21
HETATM   21  C   UNL     1      -5.521   5.059 -33.946  1.00  0.00     0.162 C 
BRANCH  21  22
HETATM   22  C   UNL     1      -4.154   5.039 -33.313  1.00  0.00    -0.040 A 
HETATM   23  C   UNL     1      -3.017   5.449 -34.015  1.00  0.00     0.011 A 
HETATM   24  C   UNL     1      -1.750   5.388 -33.420  1.00  0.00     0.030 A 
HETATM   25  C   UNL     1      -1.598   4.897 -32.122  1.00  0.00     0.036 A 
HETATM   26  C   UNL     1      -2.739   4.522 -31.407  1.00  0.00     0.030 A 
HETATM   27  C   UNL     1      -4.004   4.581 -31.998  1.00  0.00     0.011 A 
BRANCH  25  28
HETATM   28  N   UNL     1      -0.368   4.788 -31.448  1.00  0.00    -0.309 N 
HETATM   29  C   UNL     1       0.056   5.178 -30.213  1.00  0.00     0.321 C 
HETATM   30  N   UNL     1      -0.722   6.068 -29.539  1.00  0.00    -0.339 N 
HETATM   31  O   UNL     1       1.137   4.762 -29.801  1.00  0.00    -0.247 OA
HETATM   32  H   UNL     1      -1.251   6.670 -30.151  1.00  0.00     0.164 HD
HETATM   33  H   UNL     1       0.375   4.307 -31.941  1.00  0.00     0.170 HD
BRANCH  30  34
HETATM   34  C   UNL     1      -0.356   6.658 -28.256  1.00  0.00     0.078 C 
HETATM   35  C   UNL     1       0.652   7.799 -28.385  1.00  0.00     0.032 C 
HETATM   36  C   UNL     1      -1.585   7.083 -27.456  1.00  0.00     0.032 C 
ENDBRANCH  30  34
ENDBRANCH  25  28
ENDBRANCH  21  22
ENDBRANCH   3  21
TORSDOF 7
ENDMDL
MODEL 4
REMARK VINA RESULT:      -8.5      3.707      6.762
REMARK  7 active torsions:
REMARK  status: ('A' for Active; 'I' for Inactive)
REMARK    1  A    between atoms: C_2  and  C_3 
REMARK    2  A    between atoms: C_3  and  N_4 
REMARK    3  A    between atoms: C_3  and  C_22 
REMARK       I    between atoms: N_4  and  C_5 
REMARK       I    between atoms: C_5  and  N_6 
REMARK    4  A    between atoms: N_6  and  C_7 
REMARK    5  A    between atoms: C_7  and  C_8 
REMARK    6  A    between atoms: C_11  and  N_12 
REMARK       I    between atoms: N_12  and  C_13 
REMARK       I    between atoms: C_13  and  N_14 
REMARK    7  A    between atoms: N_14  and  C_15 
ROOT
HETATM    1  N   UNL     1      -2.134   4.889 -31.075  1.00  0.00    -0.331 N 
HETATM    2  C   UNL     1      -0.809   5.093 -30.797  1.00  0.00     0.317 C 
HETATM    3  N   UNL     1      -0.641   5.673 -29.572  1.00  0.00    -0.339 N 
HETATM    4  O   UNL     1       0.105   4.803 -31.558  1.00  0.00    -0.247 OA
HETATM    5  H   UNL     1      -2.763   5.476 -30.551  1.00  0.00     0.165 HD
HETATM    6  H   UNL     1      -1.362   5.494 -28.890  1.00  0.00     0.164 HD
ENDROOT
BRANCH   1   7
HETATM    7  C   UNL     1      -2.589   4.463 -32.397  1.00  0.00     0.159 C 
BRANCH   7   8
HETATM    8  C   UNL     1      -3.357   5.586 -33.147  1.00  0.00     0.008 C 
HETATM    9  C   UNL     1      -2.471   6.226 -34.223  1.00  0.00     0.012 C 
HETATM   10  C   UNL     1      -3.919   6.685 -32.233  1.00  0.00     0.012 C 
ENDBRANCH   7   8
BRANCH   7  11
HETATM   11  C   UNL     1      -3.399   3.194 -32.281  1.00  0.00     0.128 A 
HETATM   12  N   UNL     1      -3.144   2.125 -31.550  1.00  0.00    -0.231 NA
HETATM   13  C   UNL     1      -4.210   1.280 -31.737  1.00  0.00     0.085 A 
HETATM   14  C   UNL     1      -5.144   1.840 -32.599  1.00  0.00     0.062 A 
HETATM   15  C   UNL     1      -4.453   0.010 -31.196  1.00  0.00     0.034 A 
HETATM   16  N   UNL     1      -4.608   3.056 -32.928  1.00  0.00    -0.341 N 
HETATM   17  C   UNL     1      -6.328   1.201 -32.969  1.00  0.00     0.032 A 
HETATM   18  H   UNL     1      -5.001   3.748 -33.558  1.00  0.00     0.167 HD
HETATM   19  C   UNL     1      -6.556  -0.066 -32.418  1.00  0.00     0.002 A 
HETATM   20  C   UNL     1      -5.637  -0.654 -31.546  1.00  0.00     0.002 A 
ENDBRANCH   7  11
ENDBRANCH   1   7
BRANCH   3  21
HETATM   21  C   UNL     1       0.678   5.962 -29.056  1.00  0.00     0.162 C 
BRANCH  21  22
HETATM   22  C   UNL     1       0.596   7.041 -28.009  1.00  0.00    -0.040 A 
HETATM   23  C   UNL     1       1.361   8.208 -28.101  1.00  0.00     0.011 A 
HETATM   24  C   UNL     1       1.297   9.185 -27.098  1.00  0.00     0.030 A 
HETATM   25  C   UNL     1       0.485   9.000 -25.978  1.00  0.00     0.036 A 
HETATM   26  C   UNL     1      -0.308   7.851 -25.905  1.00  0.00     0.030 A 
HETATM   27  C   UNL     1      -0.247   6.875 -26.904  1.00  0.00     0.011 A 
BRANCH  25  28
HETATM   28  N   UNL     1       0.365   9.917 -24.919  1.00  0.00    -0.309 N 
HETATM   29  C   UNL     1       1.178  10.249 -23.877  1.00  0.00     0.321 C 
HETATM   30  N   UNL     1       2.207   9.404 -23.595  1.00  0.00    -0.339 N 
HETATM   31  O   UNL     1       0.909  11.247 -23.212  1.00  0.00    -0.247 OA
HETATM   32  H   UNL     1       2.014   8.449 -23.856  1.00  0.00     0.164 HD
HETATM   33  H   UNL     1      -0.476  10.482 -24.905  1.00  0.00     0.170 HD
BRANCH  30  34
HETATM   34  C   UNL     1       3.101   9.565 -22.453  1.00  0.00     0.078 C 
HETATM   35  C   UNL     1       3.499   8.237 -21.811  1.00  0.00     0.032 C 
HETATM   36  C   UNL     1       4.324  10.408 -22.805  1.00  0.00     0.032 C 
ENDBRANCH  30  34
ENDBRANCH  25  28
ENDBRANCH  21  22
ENDBRANCH   3  21
TORSDOF 7
ENDMDL
MODEL 5
REMARK VINA RESULT:      -8.4      2.310      3.177
REMARK  7 active torsions:
REMARK  status: ('A' for Active; 'I' for Inactive)
REMARK    1  A    between atoms: C_2  and  C_3 
REMARK    2  A    between atoms: C_3  and  N_4 
REMARK    3  A    between atoms: C_3  and  C_22 
REMARK       I    between atoms: N_4  and  C_5 
REMARK       I    between atoms: C_5  and  N_6 
REMARK    4  A    between atoms: N_6  and  C_7 
REMARK    5  A    between atoms: C_7  and  C_8 
REMARK    6  A    between atoms: C_11  and  N_12 
REMARK       I    between atoms: N_12  and  C_13 
REMARK       I    between atoms: C_13  and  N_14 
REMARK    7  A    between atoms: N_14  and  C_15 
ROOT
HETATM    1  N   UNL     1      -4.521   1.977 -32.143  1.00  0.00    -0.331 N 
HETATM    2  C   UNL     1      -4.197   3.135 -32.798  1.00  0.00     0.317 C 
HETATM    3  N   UNL     1      -2.924   3.534 -32.505  1.00  0.00    -0.339 N 
HETATM    4  O   UNL     1      -4.959   3.739 -33.542  1.00  0.00    -0.247 OA
HETATM    5  H   UNL     1      -3.963   1.795 -31.324  1.00  0.00     0.165 HD
HETATM    6  H   UNL     1      -2.275   2.806 -32.247  1.00  0.00     0.164 HD
ENDROOT
BRANCH   1   7
HETATM    7  C   UNL     1      -5.884   1.449 -32.135  1.00  0.00     0.159 C 
BRANCH   7   8
HETATM    8  C   UNL     1      -6.503   1.437 -30.711  1.00  0.00     0.008 C 
HETATM    9  C   UNL     1      -6.756   2.866 -30.216  1.00  0.00     0.012 C 
HETATM   10  C   UNL     1      -5.670   0.678 -29.668  1.00  0.00     0.012 C 
ENDBRANCH   7   8
BRANCH   7  11
HETATM   11  C   UNL     1      -5.914   0.087 -32.785  1.00  0.00     0.128 A 
HETATM   12  N   UNL     1      -6.946  -0.545 -33.313  1.00  0.00    -0.231 NA
HETATM   13  C   UNL     1      -6.444  -1.714 -33.832  1.00  0.00     0.085 A 
HETATM   14  C   UNL     1      -5.073  -1.803 -33.623  1.00  0.00     0.062 A 
HETATM   15  C   UNL     1      -7.103  -2.752 -34.504  1.00  0.00     0.034 A 
HETATM   16  N   UNL     1      -4.761  -0.647 -32.960  1.00  0.00    -0.341 N 
HETATM   17  C   UNL     1      -4.301  -2.886 -34.046  1.00  0.00     0.032 A 
HETATM   18  H   UNL     1      -3.847  -0.364 -32.621  1.00  0.00     0.167 HD
HETATM   19  C   UNL     1      -4.976  -3.913 -34.717  1.00  0.00     0.002 A 
HETATM   20  C   UNL     1      -6.352  -3.851 -34.945  1.00  0.00     0.002 A 
ENDBRANCH   7  11
ENDBRANCH   1   7
BRANCH   3  21
HETATM   21  C   UNL     1      -2.357   4.722 -33.103  1.00  0.00     0.162 C 
BRANCH  21  22
HETATM   22  C   UNL     1      -1.578   5.494 -32.071  1.00  0.00    -0.040 A 
HETATM   23  C   UNL     1      -1.645   6.889 -31.998  1.00  0.00     0.011 A 
HETATM   24  C   UNL     1      -0.885   7.592 -31.054  1.00  0.00     0.030 A 
HETATM   25  C   UNL     1      -0.030   6.914 -30.183  1.00  0.00     0.036 A 
HETATM   26  C   UNL     1       0.008   5.517 -30.231  1.00  0.00     0.030 A 
HETATM   27  C   UNL     1      -0.749   4.813 -31.171  1.00  0.00     0.011 A 
BRANCH  25  28
HETATM   28  N   UNL     1       0.778   7.533 -29.213  1.00  0.00    -0.309 N 
HETATM   29  C   UNL     1       0.590   7.835 -27.897  1.00  0.00     0.321 C 
HETATM   30  N   UNL     1      -0.685   7.785 -27.422  1.00  0.00    -0.339 N 
HETATM   31  O   UNL     1       1.557   8.193 -27.229  1.00  0.00    -0.247 OA
HETATM   32  H   UNL     1      -1.377   7.976 -28.131  1.00  0.00     0.164 HD
HETATM   33  H   UNL     1       1.707   7.807 -29.508  1.00  0.00     0.170 HD
BRANCH  30  34
HETATM   34  C   UNL     1      -1.064   8.177 -26.068  1.00  0.00     0.078 C 
HETATM   35  C   UNL     1      -1.318   9.677 -25.926  1.00  0.00     0.032 C 
HETATM   36  C   UNL     1      -2.241   7.356 -25.549  1.00  0.00     0.032 C 
ENDBRANCH  30  34
ENDBRANCH  25  28
ENDBRANCH  21  22
ENDBRANCH   3  21
TORSDOF 7
ENDMDL
MODEL 6
REMARK VINA RESULT:      -8.2      2.334     10.042
REMARK  7 active torsions:
REMARK  status: ('A' for Active; 'I' for Inactive)
REMARK    1  A    between atoms: C_2  and  C_3 
REMARK    2  A    between atoms: C_3  and  N_4 
REMARK    3  A    between atoms: C_3  and  C_22 
REMARK       I    between atoms: N_4  and  C_5 
REMARK       I    between atoms: C_5  and  N_6 
REMARK    4  A    between atoms: N_6  and  C_7 
REMARK    5  A    between atoms: C_7  and  C_8 
REMARK    6  A    between atoms: C_11  and  N_12 
REMARK       I    between atoms: N_12  and  C_13 
REMARK       I    between atoms: C_13  and  N_14 
REMARK    7  A    between atoms: N_14  and  C_15 
ROOT
HETATM    1  N   UNL     1      -2.769   5.164 -30.697  1.00  0.00    -0.331 N 
HETATM    2  C   UNL     1      -4.129   5.024 -30.762  1.00  0.00     0.317 C 
HETATM    3  N   UNL     1      -4.503   3.720 -30.606  1.00  0.00    -0.339 N 
HETATM    4  O   UNL     1      -4.907   5.951 -30.948  1.00  0.00    -0.247 OA
HETATM    5  H   UNL     1      -2.255   4.321 -30.896  1.00  0.00     0.165 HD
HETATM    6  H   UNL     1      -3.879   3.136 -30.070  1.00  0.00     0.164 HD
ENDROOT
BRANCH   1   7
HETATM    7  C   UNL     1      -2.105   6.425 -31.026  1.00  0.00     0.159 C 
BRANCH   7   8
HETATM    8  C   UNL     1      -1.417   6.384 -32.417  1.00  0.00     0.008 C 
HETATM    9  C   UNL     1      -2.223   7.186 -33.446  1.00  0.00     0.012 C 
HETATM   10  C   UNL     1      -1.171   4.967 -32.957  1.00  0.00     0.012 C 
ENDBRANCH   7   8
BRANCH   7  11
HETATM   11  C   UNL     1      -1.148   6.807 -29.923  1.00  0.00     0.128 A 
HETATM   12  N   UNL     1      -0.157   7.679 -29.965  1.00  0.00    -0.231 NA
HETATM   13  C   UNL     1       0.366   7.714 -28.696  1.00  0.00     0.085 A 
HETATM   14  C   UNL     1      -0.319   6.849 -27.851  1.00  0.00     0.062 A 
HETATM   15  C   UNL     1       1.430   8.470 -28.185  1.00  0.00     0.034 A 
HETATM   16  N   UNL     1      -1.276   6.288 -28.653  1.00  0.00    -0.341 N 
HETATM   17  C   UNL     1      -0.002   6.682 -26.503  1.00  0.00     0.032 A 
HETATM   18  H   UNL     1      -1.962   5.588 -28.389  1.00  0.00     0.167 HD
HETATM   19  C   UNL     1       1.063   7.445 -26.009  1.00  0.00     0.002 A 
HETATM   20  C   UNL     1       1.769   8.325 -26.833  1.00  0.00     0.002 A 
ENDBRANCH   7  11
ENDBRANCH   1   7
BRANCH   3  21
HETATM   21  C   UNL     1      -5.897   3.336 -30.616  1.00  0.00     0.162 C 
BRANCH  21  22
HETATM   22  C   UNL     1      -6.105   2.180 -31.560  1.00  0.00    -0.040 A 
HETATM   23  C   UNL     1      -5.782   2.278 -32.917  1.00  0.00     0.011 A 
HETATM   24  C   UNL     1      -6.016   1.204 -33.786  1.00  0.00     0.030 A 
HETATM   25  C   UNL     1      -6.597   0.024 -33.316  1.00  0.00     0.036 A 
HETATM   26  C   UNL     1      -6.886  -0.086 -31.953  1.00  0.00     0.030 A 
HETATM   27  C   UNL     1      -6.653   0.983 -31.084  1.00  0.00     0.011 A 
BRANCH  25  28
HETATM   28  N   UNL     1      -6.880  -1.099 -34.113  1.00  0.00    -0.309 N 
HETATM   29  C   UNL     1      -6.266  -2.305 -34.277  1.00  0.00     0.321 C 
HETATM   30  N   UNL     1      -4.996  -2.426 -33.804  1.00  0.00    -0.339 N 
HETATM   31  O   UNL     1      -6.857  -3.190 -34.892  1.00  0.00    -0.247 OA
HETATM   32  H   UNL     1      -4.492  -1.552 -33.800  1.00  0.00     0.164 HD
HETATM   33  H   UNL     1      -7.717  -1.049 -34.681  1.00  0.00     0.170 HD
BRANCH  30  34
HETATM   34  C   UNL     1      -4.169  -3.614 -33.992  1.00  0.00     0.078 C 
HETATM   35  C   UNL     1      -3.318  -3.954 -32.770  1.00  0.00     0.032 C 
HETATM   36  C   UNL     1      -4.996  -4.813 -34.452  1.00  0.00     0.032 C 
ENDBRANCH  30  34
ENDBRANCH  25  28
ENDBRANCH  21  22
ENDBRANCH   3  21
TORSDOF 7
ENDMDL
MODEL 7
REMARK VINA RESULT:      -8.2      2.979     10.216
REMARK  7 active torsions:
REMARK  status: ('A' for Active; 'I' for Inactive)
REMARK    1  A    between atoms: C_2  and  C_3 
REMARK    2  A    between atoms: C_3  and  N_4 
REMARK    3  A    between atoms: C_3  and  C_22 
REMARK       I    between atoms: N_4  and  C_5 
REMARK       I    between atoms: C_5  and  N_6 
REMARK    4  A    between atoms: N_6  and  C_7 
REMARK    5  A    between atoms: C_7  and  C_8 
REMARK    6  A    between atoms: C_11  and  N_12 
REMARK       I    between atoms: N_12  and  C_13 
REMARK       I    between atoms: C_13  and  N_14 
REMARK    7  A    between atoms: N_14  and  C_15 
ROOT
HETATM    1  N   UNL     1      -3.631   3.725 -32.491  1.00  0.00    -0.331 N 
HETATM    2  C   UNL     1      -4.766   3.466 -31.771  1.00  0.00     0.317 C 
HETATM    3  N   UNL     1      -5.179   2.175 -31.937  1.00  0.00    -0.339 N 
HETATM    4  O   UNL     1      -5.343   4.295 -31.077  1.00  0.00    -0.247 OA
HETATM    5  H   UNL     1      -3.478   3.097 -33.263  1.00  0.00     0.165 HD
HETATM    6  H   UNL     1      -4.462   1.502 -32.162  1.00  0.00     0.164 HD
ENDROOT
BRANCH   1   7
HETATM    7  C   UNL     1      -3.100   5.079 -32.637  1.00  0.00     0.159 C 
BRANCH   7   8
HETATM    8  C   UNL     1      -2.427   5.303 -34.019  1.00  0.00     0.008 C 
HETATM    9  C   UNL     1      -1.721   6.664 -34.066  1.00  0.00     0.012 C 
HETATM   10  C   UNL     1      -3.385   5.187 -35.213  1.00  0.00     0.012 C 
ENDBRANCH   7   8
BRANCH   7  11
HETATM   11  C   UNL     1      -2.172   5.396 -31.489  1.00  0.00     0.128 A 
HETATM   12  N   UNL     1      -1.067   4.768 -31.133  1.00  0.00    -0.231 NA
HETATM   13  C   UNL     1      -0.555   5.481 -30.076  1.00  0.00     0.085 A 
HETATM   14  C   UNL     1      -1.360   6.573 -29.776  1.00  0.00     0.062 A 
HETATM   15  C   UNL     1       0.603   5.256 -29.319  1.00  0.00     0.034 A 
HETATM   16  N   UNL     1      -2.377   6.499 -30.689  1.00  0.00    -0.341 N 
HETATM   17  C   UNL     1      -1.081   7.473 -28.746  1.00  0.00     0.032 A 
HETATM   18  H   UNL     1      -3.173   7.124 -30.770  1.00  0.00     0.167 HD
HETATM   19  C   UNL     1       0.081   7.234 -28.002  1.00  0.00     0.002 A 
HETATM   20  C   UNL     1       0.911   6.146 -28.281  1.00  0.00     0.002 A 
ENDBRANCH   7  11
ENDBRANCH   1   7
BRANCH   3  21
HETATM   21  C   UNL     1      -6.346   1.669 -31.252  1.00  0.00     0.162 C 
BRANCH  21  22
HETATM   22  C   UNL     1      -7.506   1.581 -32.209  1.00  0.00    -0.040 A 
HETATM   23  C   UNL     1      -8.041   0.348 -32.597  1.00  0.00     0.011 A 
HETATM   24  C   UNL     1      -9.097   0.286 -33.516  1.00  0.00     0.030 A 
HETATM   25  C   UNL     1      -9.620   1.453 -34.077  1.00  0.00     0.036 A 
HETATM   26  C   UNL     1      -9.110   2.686 -33.660  1.00  0.00     0.030 A 
HETATM   27  C   UNL     1      -8.057   2.751 -32.744  1.00  0.00     0.011 A 
BRANCH  25  28
HETATM   28  N   UNL     1     -10.669   1.488 -35.013  1.00  0.00    -0.309 N 
HETATM   29  C   UNL     1     -11.986   1.828 -34.926  1.00  0.00     0.321 C 
HETATM   30  N   UNL     1     -12.523   1.922 -33.679  1.00  0.00    -0.339 N 
HETATM   31  O   UNL     1     -12.630   1.968 -35.962  1.00  0.00    -0.247 OA
HETATM   32  H   UNL     1     -12.067   1.323 -33.007  1.00  0.00     0.164 HD
HETATM   33  H   UNL     1     -10.432   1.238 -35.965  1.00  0.00     0.170 HD
BRANCH  30  34
HETATM   34  C   UNL     1     -13.937   2.175 -33.421  1.00  0.00     0.078 C 
HETATM   35  C   UNL     1     -14.801   0.919 -33.526  1.00  0.00     0.032 C 
HETATM   36  C   UNL     1     -14.151   2.894 -32.091  1.00  0.00     0.032 C 
ENDBRANCH  30  34
ENDBRANCH  25  28
ENDBRANCH  21  22
ENDBRANCH   3  21
TORSDOF 7
ENDMDL
MODEL 8
REMARK VINA RESULT:      -8.1      2.623      4.285
REMARK  7 active torsions:
REMARK  status: ('A' for Active; 'I' for Inactive)
REMARK    1  A    between atoms: C_2  and  C_3 
REMARK    2  A    between atoms: C_3  and  N_4 
REMARK    3  A    between atoms: C_3  and  C_22 
REMARK       I    between atoms: N_4  and  C_5 
REMARK       I    between atoms: C_5  and  N_6 
REMARK    4  A    between atoms: N_6  and  C_7 
REMARK    5  A    between atoms: C_7  and  C_8 
REMARK    6  A    between atoms: C_11  and  N_12 
REMARK       I    between atoms: N_12  and  C_13 
REMARK       I    between atoms: C_13  and  N_14 
REMARK    7  A    between atoms: N_14  and  C_15 
ROOT
HETATM    1  N   UNL     1      -3.868   3.166 -31.440  1.00  0.00    -0.331 N 
HETATM    2  C   UNL     1      -2.981   4.027 -32.028  1.00  0.00     0.317 C 
HETATM    3  N   UNL     1      -1.924   4.291 -31.205  1.00  0.00    -0.339 N 
HETATM    4  O   UNL     1      -3.128   4.507 -33.144  1.00  0.00    -0.247 OA
HETATM    5  H   UNL     1      -3.815   3.137 -30.435  1.00  0.00     0.165 HD
HETATM    6  H   UNL     1      -1.688   3.574 -30.535  1.00  0.00     0.164 HD
ENDROOT
BRANCH   1   7
HETATM    7  C   UNL     1      -5.174   2.878 -32.032  1.00  0.00     0.159 C 
BRANCH   7   8
HETATM    8  C   UNL     1      -6.332   3.028 -31.007  1.00  0.00     0.008 C 
HETATM    9  C   UNL     1      -6.403   1.804 -30.085  1.00  0.00     0.012 C 
HETATM   10  C   UNL     1      -7.709   3.266 -31.642  1.00  0.00     0.012 C 
ENDBRANCH   7   8
BRANCH   7  11
HETATM   11  C   UNL     1      -5.157   1.516 -32.683  1.00  0.00     0.128 A 
HETATM   12  N   UNL     1      -4.298   0.531 -32.498  1.00  0.00    -0.231 NA
HETATM   13  C   UNL     1      -4.754  -0.513 -33.265  1.00  0.00     0.085 A 
HETATM   14  C   UNL     1      -5.920  -0.166 -33.935  1.00  0.00     0.062 A 
HETATM   15  C   UNL     1      -4.222  -1.798 -33.438  1.00  0.00     0.034 A 
HETATM   16  N   UNL     1      -6.157   1.125 -33.546  1.00  0.00    -0.341 N 
HETATM   17  C   UNL     1      -6.603  -1.035 -34.787  1.00  0.00     0.032 A 
HETATM   18  H   UNL     1      -6.920   1.724 -33.846  1.00  0.00     0.167 HD
HETATM   19  C   UNL     1      -6.059  -2.315 -34.946  1.00  0.00     0.002 A 
HETATM   20  C   UNL     1      -4.889  -2.694 -34.285  1.00  0.00     0.002 A 
ENDBRANCH   7  11
ENDBRANCH   1   7
BRANCH   3  21
HETATM   21  C   UNL     1      -0.848   5.160 -31.626  1.00  0.00     0.162 C 
BRANCH  21  22
HETATM   22  C   UNL     1      -0.258   5.864 -30.432  1.00  0.00    -0.040 A 
HETATM   23  C   UNL     1       0.360   5.154 -29.398  1.00  0.00     0.011 A 
HETATM   24  C   UNL     1       0.872   5.824 -28.278  1.00  0.00     0.030 A 
HETATM   25  C   UNL     1       0.753   7.211 -28.165  1.00  0.00     0.036 A 
HETATM   26  C   UNL     1       0.168   7.923 -29.216  1.00  0.00     0.030 A 
HETATM   27  C   UNL     1      -0.343   7.258 -30.334  1.00  0.00     0.011 A 
BRANCH  25  28
HETATM   28  N   UNL     1       1.223   7.967 -27.077  1.00  0.00    -0.309 N 
HETATM   29  C   UNL     1       0.630   8.441 -25.945  1.00  0.00     0.321 C 
HETATM   30  N   UNL     1      -0.730   8.439 -25.907  1.00  0.00    -0.339 N 
HETATM   31  O   UNL     1       1.341   8.899 -25.053  1.00  0.00    -0.247 OA
HETATM   32  H   UNL     1      -1.149   8.524 -26.821  1.00  0.00     0.164 HD
HETATM   33  H   UNL     1       2.206   8.210 -27.088  1.00  0.00     0.170 HD
BRANCH  30  34
HETATM   34  C   UNL     1      -1.513   9.006 -24.813  1.00  0.00     0.078 C 
HETATM   35  C   UNL     1      -1.833  10.487 -25.009  1.00  0.00     0.032 C 
HETATM   36  C   UNL     1      -2.773   8.190 -24.536  1.00  0.00     0.032 C 
ENDBRANCH  30  34
ENDBRANCH  25  28
ENDBRANCH  21  22
ENDBRANCH   3  21
TORSDOF 7
ENDMDL
MODEL 9
REMARK VINA RESULT:      -8.0      2.845     10.508
REMARK  7 active torsions:
REMARK  status: ('A' for Active; 'I' for Inactive)
REMARK    1  A    between atoms: C_2  and  C_3 
REMARK    2  A    between atoms: C_3  and  N_4 
REMARK    3  A    between atoms: C_3  and  C_22 
REMARK       I    between atoms: N_4  and  C_5 
REMARK       I    between atoms: C_5  and  N_6 
REMARK    4  A    between atoms: N_6  and  C_7 
REMARK    5  A    between atoms: C_7  and  C_8 
REMARK    6  A    between atoms: C_11  and  N_12 
REMARK       I    between atoms: N_12  and  C_13 
REMARK       I    between atoms: C_13  and  N_14 
REMARK    7  A    between atoms: N_14  and  C_15 
ROOT
HETATM    1  N   UNL     1      -2.970   6.000 -30.274  1.00  0.00    -0.331 N 
HETATM    2  C   UNL     1      -4.216   6.327 -29.810  1.00  0.00     0.317 C 
HETATM    3  N   UNL     1      -4.946   5.213 -29.514  1.00  0.00    -0.339 N 
HETATM    4  O   UNL     1      -4.623   7.476 -29.690  1.00  0.00    -0.247 OA
HETATM    5  H   UNL     1      -2.900   5.068 -30.649  1.00  0.00     0.165 HD
HETATM    6  H   UNL     1      -4.423   4.390 -29.255  1.00  0.00     0.164 HD
ENDROOT
BRANCH   1   7
HETATM    7  C   UNL     1      -2.068   7.001 -30.841  1.00  0.00     0.159 C 
BRANCH   7   8
HETATM    8  C   UNL     1      -1.200   6.427 -31.994  1.00  0.00     0.008 C 
HETATM    9  C   UNL     1      -1.338   7.286 -33.257  1.00  0.00     0.012 C 
HETATM   10  C   UNL     1      -1.502   4.962 -32.341  1.00  0.00     0.012 C 
ENDBRANCH   7   8
BRANCH   7  11
HETATM   11  C   UNL     1      -1.232   7.621 -29.748  1.00  0.00     0.128 A 
HETATM   12  N   UNL     1      -0.003   7.309 -29.381  1.00  0.00    -0.231 NA
HETATM   13  C   UNL     1       0.332   8.203 -28.394  1.00  0.00     0.085 A 
HETATM   14  C   UNL     1      -0.711   9.088 -28.149  1.00  0.00     0.062 A 
HETATM   15  C   UNL     1       1.519   8.324 -27.659  1.00  0.00     0.034 A 
HETATM   16  N   UNL     1      -1.690   8.699 -29.022  1.00  0.00    -0.341 N 
HETATM   17  C   UNL     1      -0.646  10.105 -27.195  1.00  0.00     0.032 A 
HETATM   18  H   UNL     1      -2.615   9.105 -29.124  1.00  0.00     0.167 HD
HETATM   19  C   UNL     1       0.547  10.212 -26.472  1.00  0.00     0.002 A 
HETATM   20  C   UNL     1       1.614   9.339 -26.697  1.00  0.00     0.002 A 
ENDBRANCH   7  11
ENDBRANCH   1   7
BRANCH   3  21
HETATM   21  C   UNL     1      -6.288   5.316 -28.985  1.00  0.00     0.162 C 
BRANCH  21  22
HETATM   22  C   UNL     1      -7.199   4.354 -29.701  1.00  0.00    -0.040 A 
HETATM   23  C   UNL     1      -8.505   4.708 -30.051  1.00  0.00     0.011 A 
HETATM   24  C   UNL     1      -9.349   3.787 -30.686  1.00  0.00     0.030 A 
HETATM   25  C   UNL     1      -8.907   2.491 -30.960  1.00  0.00     0.036 A 
HETATM   26  C   UNL     1      -7.589   2.149 -30.643  1.00  0.00     0.030 A 
HETATM   27  C   UNL     1      -6.745   3.066 -30.011  1.00  0.00     0.011 A 
BRANCH  25  28
HETATM   28  N   UNL     1      -9.684   1.497 -31.581  1.00  0.00    -0.309 N 
HETATM   29  C   UNL     1      -9.377   0.439 -32.384  1.00  0.00     0.321 C 
HETATM   30  N   UNL     1      -8.135   0.419 -32.939  1.00  0.00    -0.339 N 
HETATM   31  O   UNL     1     -10.245  -0.399 -32.615  1.00  0.00    -0.247 OA
HETATM   32  H   UNL     1      -7.751   1.342 -33.079  1.00  0.00     0.164 HD
HETATM   33  H   UNL     1     -10.680   1.525 -31.401  1.00  0.00     0.170 HD
BRANCH  30  34
HETATM   34  C   UNL     1      -7.690  -0.587 -33.899  1.00  0.00     0.078 C 
HETATM   35  C   UNL     1      -7.640  -0.067 -35.334  1.00  0.00     0.032 C 
HETATM   36  C   UNL     1      -6.364  -1.219 -33.483  1.00  0.00     0.032 C 
ENDBRANCH  30  34
ENDBRANCH  25  28
ENDBRANCH  21  22
ENDBRANCH   3  21
TORSDOF 7
ENDMDL
MODEL 10
REMARK VINA RESULT:      -7.9      3.546      4.873
REMARK  7 active torsions:
REMARK  status: ('A' for Active; 'I' for Inactive)
REMARK    1  A    between atoms: C_2  and  C_3 
REMARK    2  A    between atoms: C_3  and  N_4 
REMARK    3  A    between atoms: C_3  and  C_22 
REMARK       I    between atoms: N_4  and  C_5 
REMARK       I    between atoms: C_5  and  N_6 
REMARK    4  A    between atoms: N_6  and  C_7 
REMARK    5  A    between atoms: C_7  and  C_8 
REMARK    6  A    between atoms: C_11  and  N_12 
REMARK       I    between atoms: N_12  and  C_13 
REMARK       I    between atoms: C_13  and  N_14 
REMARK    7  A    between atoms: N_14  and  C_15 
ROOT
HETATM    1  N   UNL     1      -6.238   3.721 -33.562  1.00  0.00    -0.331 N 
HETATM    2  C   UNL     1      -5.479   4.808 -33.902  1.00  0.00     0.317 C 
HETATM    3  N   UNL     1      -4.371   4.440 -34.608  1.00  0.00    -0.339 N 
HETATM    4  O   UNL     1      -5.758   5.961 -33.597  1.00  0.00    -0.247 OA
HETATM    5  H   UNL     1      -5.734   2.848 -33.557  1.00  0.00     0.165 HD
HETATM    6  H   UNL     1      -4.442   3.586 -35.141  1.00  0.00     0.164 HD
ENDROOT
BRANCH   1   7
HETATM    7  C   UNL     1      -7.369   3.824 -32.641  1.00  0.00     0.159 C 
BRANCH   7   8
HETATM    8  C   UNL     1      -7.198   2.919 -31.391  1.00  0.00     0.008 C 
HETATM    9  C   UNL     1      -7.734   3.618 -30.136  1.00  0.00     0.012 C 
HETATM   10  C   UNL     1      -5.755   2.459 -31.139  1.00  0.00     0.012 C 
ENDBRANCH   7   8
BRANCH   7  11
HETATM   11  C   UNL     1      -8.659   3.550 -33.376  1.00  0.00     0.128 A 
HETATM   12  N   UNL     1      -9.298   4.330 -34.228  1.00  0.00    -0.231 NA
HETATM   13  C   UNL     1     -10.377   3.602 -34.667  1.00  0.00     0.085 A 
HETATM   14  C   UNL     1     -10.403   2.345 -34.075  1.00  0.00     0.062 A 
HETATM   15  C   UNL     1     -11.381   3.949 -35.581  1.00  0.00     0.034 A 
HETATM   16  N   UNL     1      -9.302   2.336 -33.263  1.00  0.00    -0.341 N 
HETATM   17  C   UNL     1     -11.390   1.394 -34.337  1.00  0.00     0.032 A 
HETATM   18  H   UNL     1      -8.999   1.584 -32.651  1.00  0.00     0.167 HD
HETATM   19  C   UNL     1     -12.384   1.757 -35.253  1.00  0.00     0.002 A 
HETATM   20  C   UNL     1     -12.383   3.012 -35.867  1.00  0.00     0.002 A 
ENDBRANCH   7  11
ENDBRANCH   1   7
BRANCH   3  21
HETATM   21  C   UNL     1      -3.433   5.427 -35.095  1.00  0.00     0.162 C 
BRANCH  21  22
HETATM   22  C   UNL     1      -2.446   5.777 -34.011  1.00  0.00    -0.040 A 
HETATM   23  C   UNL     1      -1.898   4.798 -33.178  1.00  0.00     0.011 A 
HETATM   24  C   UNL     1      -1.009   5.148 -32.152  1.00  0.00     0.030 A 
HETATM   25  C   UNL     1      -0.673   6.485 -31.931  1.00  0.00     0.036 A 
HETATM   26  C   UNL     1      -1.192   7.460 -32.788  1.00  0.00     0.030 A 
HETATM   27  C   UNL     1      -2.079   7.113 -33.811  1.00  0.00     0.011 A 
BRANCH  25  28
HETATM   28  N   UNL     1       0.198   6.933 -30.922  1.00  0.00    -0.309 N 
HETATM   29  C   UNL     1       0.010   7.306 -29.624  1.00  0.00     0.321 C 
HETATM   30  N   UNL     1      -1.267   7.559 -29.229  1.00  0.00    -0.339 N 
HETATM   31  O   UNL     1       0.994   7.454 -28.904  1.00  0.00    -0.247 OA
HETATM   32  H   UNL     1      -1.856   7.882 -29.982  1.00  0.00     0.164 HD
HETATM   33  H   UNL     1       1.181   6.980 -31.163  1.00  0.00     0.170 HD
BRANCH  30  34
HETATM   34  C   UNL     1      -1.623   8.065 -27.907  1.00  0.00     0.078 C 
HETATM   35  C   UNL     1      -1.659   9.591 -27.837  1.00  0.00     0.032 C 
HETATM   36  C   UNL     1      -2.921   7.447 -27.394  1.00  0.00     0.032 C 
ENDBRANCH  30  34
ENDBRANCH  25  28
ENDBRANCH  21  22
ENDBRANCH   3  21
TORSDOF 7
ENDMDL
