MODEL 1
REMARK VINA RESULT:      -8.6      0.000      0.000
REMARK  7 active torsions:
REMARK  status: ('A' for Active; 'I' for Inactive)
REMARK    1  A    between atoms: C_3  and  N_4 
REMARK       I    between atoms: N_4  and  C_5 
REMARK    2  A    between atoms: C_5  and  C_6 
REMARK    3  A    between atoms: C_7  and  C_8 
REMARK    4  A    between atoms: C_19  and  C_20 
REMARK    5  A    between atoms: C_20  and  C_21 
REMARK    6  A    between atoms: C_21  and  C_22 
REMARK    7  A    between atoms: C_22  and  O_23 
ROOT
HETATM    1  C   UNL     1      -8.089   1.435 -33.003  1.00  0.00     0.062 A 
HETATM    2  C   UNL     1      -7.325   2.679 -32.567  1.00  0.00     0.202 A 
HETATM    3  N   UNL     1      -8.053   3.415 -31.525  1.00  0.00    -0.083 N 
HETATM    4  C   UNL     1      -9.297   3.067 -31.071  1.00  0.00     0.726 A 
HETATM    5  N   UNL     1      -9.904   1.977 -31.574  1.00  0.00    -0.192 N 
HETATM    6  N   UNL     1      -7.637   4.575 -30.971  1.00  0.00    -0.140 NA
HETATM    7  C   UNL     1      -8.642   4.819 -30.118  1.00  0.00     0.166 A 
HETATM    8  N   UNL     1      -9.687   3.927 -30.167  1.00  0.00    -0.046 NA
HETATM    9  C   UNL     1      -9.312   1.134 -32.504  1.00  0.00     0.037 A 
HETATM   10  C   UNL     1     -10.115  -0.083 -32.892  1.00  0.00     0.070 C 
HETATM   11  H   UNL     1     -10.802   1.698 -31.186  1.00  0.00     0.184 HD
ENDROOT
BRANCH   1  12
HETATM   12  C   UNL     1      -7.390   0.483 -33.904  1.00  0.00     0.256 C 
HETATM   13  N   UNL     1      -7.107  -0.722 -33.299  1.00  0.00    -0.323 N 
HETATM   14  H   UNL     1      -7.323  -0.807 -32.317  1.00  0.00     0.169 HD
HETATM   15  O   UNL     1      -7.120   0.837 -35.045  1.00  0.00    -0.267 OA
BRANCH  13  16
HETATM   16  C   UNL     1      -6.499  -1.856 -33.894  1.00  0.00     0.041 A 
HETATM   17  C   UNL     1      -5.090  -1.906 -33.990  1.00  0.00    -0.035 A 
HETATM   18  C   UNL     1      -4.203  -0.804 -33.475  1.00  0.00     0.050 C 
HETATM   19  C   UNL     1      -4.475  -3.031 -34.571  1.00  0.00     0.009 A 
HETATM   20  C   UNL     1      -5.235  -4.092 -35.056  1.00  0.00     0.001 A 
HETATM   21  C   UNL     1      -6.620  -4.045 -34.961  1.00  0.00     0.002 A 
HETATM   22  C   UNL     1      -7.244  -2.937 -34.383  1.00  0.00     0.030 A 
ENDBRANCH  13  16
ENDBRANCH   1  12
BRANCH   2  23
HETATM   23  C   UNL     1      -5.891   2.406 -32.130  1.00  0.00    -0.025 A 
HETATM   24  C   UNL     1      -4.825   2.991 -32.834  1.00  0.00     0.052 A 
HETATM   25  C   UNL     1      -3.512   2.736 -32.451  1.00  0.00     0.117 A 
HETATM   26  F   UNL     1      -2.507   3.301 -33.135  1.00  0.00    -0.206 F 
HETATM   27  C   UNL     1      -3.227   1.907 -31.376  1.00  0.00     0.042 A 
HETATM   28  C   UNL     1      -4.274   1.324 -30.664  1.00  0.00     0.004 A 
HETATM   29  C   UNL     1      -5.598   1.572 -31.036  1.00  0.00     0.010 A 
ENDBRANCH   2  23
BRANCH   7  30
HETATM   30  C   UNL     1      -8.627   5.962 -29.169  1.00  0.00     0.085 C 
BRANCH  30  31
HETATM   31  C   UNL     1      -7.220   6.480 -28.880  1.00  0.00     0.034 C 
BRANCH  31  32
HETATM   32  C   UNL     1      -6.469   5.631 -27.859  1.00  0.00     0.164 C 
BRANCH  32  33
HETATM   33  O   UNL     1      -5.588   4.741 -28.536  1.00  0.00    -0.401 OA
HETATM   34  H   UNL     1      -4.755   4.714 -28.036  1.00  0.00     0.209 HD
ENDBRANCH  32  33
ENDBRANCH  31  32
ENDBRANCH  30  31
ENDBRANCH   7  30
TORSDOF 7
ENDMDL
MODEL 2
REMARK VINA RESULT:      -8.5      3.236      6.134
REMARK  7 active torsions:
REMARK  status: ('A' for Active; 'I' for Inactive)
REMARK    1  A    between atoms: C_3  and  N_4 
REMARK       I    between atoms: N_4  and  C_5 
REMARK    2  A    between atoms: C_5  and  C_6 
REMARK    3  A    between atoms: C_7  and  C_8 
REMARK    4  A    between atoms: C_19  and  C_20 
REMARK    5  A    between atoms: C_20  and  C_21 
REMARK    6  A    between atoms: C_21  and  C_22 
REMARK    7  A    between atoms: C_22  and  O_23 
ROOT
HETATM    1  C   UNL     1      -8.404   3.690 -32.736  1.00  0.00     0.062 A 
HETATM    2  C   UNL     1      -7.462   3.331 -33.879  1.00  0.00     0.202 A 
HETATM    3  N   UNL     1      -6.288   4.213 -33.900  1.00  0.00    -0.083 N 
HETATM    4  C   UNL     1      -6.111   5.272 -33.051  1.00  0.00     0.726 A 
HETATM    5  N   UNL     1      -7.042   5.532 -32.115  1.00  0.00    -0.192 N 
HETATM    6  N   UNL     1      -5.301   4.154 -34.820  1.00  0.00    -0.140 NA
HETATM    7  C   UNL     1      -4.511   5.155 -34.404  1.00  0.00     0.166 A 
HETATM    8  N   UNL     1      -4.988   5.876 -33.335  1.00  0.00    -0.046 NA
HETATM    9  C   UNL     1      -8.167   4.743 -31.916  1.00  0.00     0.037 A 
HETATM   10  C   UNL     1      -9.057   5.146 -30.767  1.00  0.00     0.070 C 
HETATM   11  H   UNL     1      -6.871   6.287 -31.455  1.00  0.00     0.184 HD
ENDROOT
BRANCH   1  12
HETATM   12  C   UNL     1      -9.533   2.765 -32.462  1.00  0.00     0.256 C 
HETATM   13  N   UNL     1     -10.599   2.948 -33.316  1.00  0.00    -0.323 N 
HETATM   14  H   UNL     1     -10.540   3.716 -33.968  1.00  0.00     0.169 HD
HETATM   15  O   UNL     1      -9.436   1.971 -31.535  1.00  0.00    -0.267 OA
BRANCH  13  16
HETATM   16  C   UNL     1     -11.801   2.198 -33.356  1.00  0.00     0.041 A 
HETATM   17  C   UNL     1     -13.015   2.832 -33.008  1.00  0.00    -0.035 A 
HETATM   18  C   UNL     1     -13.086   4.281 -32.604  1.00  0.00     0.050 C 
HETATM   19  C   UNL     1     -14.216   2.100 -33.054  1.00  0.00     0.009 A 
HETATM   20  C   UNL     1     -14.224   0.759 -33.431  1.00  0.00     0.001 A 
HETATM   21  C   UNL     1     -13.032   0.136 -33.775  1.00  0.00     0.002 A 
HETATM   22  C   UNL     1     -11.833   0.851 -33.739  1.00  0.00     0.030 A 
ENDBRANCH  13  16
ENDBRANCH   1  12
BRANCH   2  23
HETATM   23  C   UNL     1      -7.037   1.869 -33.896  1.00  0.00    -0.025 A 
HETATM   24  C   UNL     1      -6.222   1.367 -32.868  1.00  0.00     0.052 A 
HETATM   25  C   UNL     1      -5.817   0.037 -32.882  1.00  0.00     0.117 A 
HETATM   26  F   UNL     1      -5.038  -0.424 -31.894  1.00  0.00    -0.206 F 
HETATM   27  C   UNL     1      -6.205  -0.819 -33.904  1.00  0.00     0.042 A 
HETATM   28  C   UNL     1      -7.019  -0.339 -34.928  1.00  0.00     0.004 A 
HETATM   29  C   UNL     1      -7.435   0.995 -34.925  1.00  0.00     0.010 A 
ENDBRANCH   2  23
BRANCH   7  30
HETATM   30  C   UNL     1      -3.202   5.459 -35.037  1.00  0.00     0.085 C 
BRANCH  30  31
HETATM   31  C   UNL     1      -2.015   5.186 -34.116  1.00  0.00     0.034 C 
BRANCH  31  32
HETATM   32  C   UNL     1      -1.359   6.460 -33.595  1.00  0.00     0.164 C 
BRANCH  32  33
HETATM   33  O   UNL     1      -1.780   7.569 -34.383  1.00  0.00    -0.401 OA
HETATM   34  H   UNL     1      -1.189   7.623 -35.154  1.00  0.00     0.209 HD
ENDBRANCH  32  33
ENDBRANCH  31  32
ENDBRANCH  30  31
ENDBRANCH   7  30
TORSDOF 7
ENDMDL
MODEL 3
REMARK VINA RESULT:      -8.1      3.359      5.729
REMARK  7 active torsions:
REMARK  status: ('A' for Active; 'I' for Inactive)
REMARK    1  A    between atoms: C_3  and  N_4 
REMARK       I    between atoms: N_4  and  C_5 
REMARK    2  A    between atoms: C_5  and  C_6 
REMARK    3  A    between atoms: C_7  and  C_8 
REMARK    4  A    between atoms: C_19  and  C_20 
REMARK    5  A    between atoms: C_20  and  C_21 
REMARK    6  A    between atoms: C_21  and  C_22 
REMARK    7  A    between atoms: C_22  and  O_23 
ROOT
HETATM    1  C   UNL     1      -8.110   4.212 -33.121  1.00  0.00     0.062 A 
HETATM    2  C   UNL     1      -6.869   3.388 -33.444  1.00  0.00     0.202 A 
HETATM    3  N   UNL     1      -5.669   4.233 -33.507  1.00  0.00    -0.083 N 
HETATM    4  C   UNL     1      -5.686   5.595 -33.377  1.00  0.00     0.726 A 
HETATM    5  N   UNL     1      -6.853   6.225 -33.152  1.00  0.00    -0.192 N 
HETATM    6  N   UNL     1      -4.431   3.785 -33.809  1.00  0.00    -0.140 NA
HETATM    7  C   UNL     1      -3.731   4.928 -33.748  1.00  0.00     0.166 A 
HETATM    8  N   UNL     1      -4.471   6.061 -33.506  1.00  0.00    -0.046 NA
HETATM    9  C   UNL     1      -8.061   5.559 -32.986  1.00  0.00     0.037 A 
HETATM   10  C   UNL     1      -9.251   6.428 -32.663  1.00  0.00     0.070 C 
HETATM   11  H   UNL     1      -6.843   7.230 -32.999  1.00  0.00     0.184 HD
ENDROOT
BRANCH   1  12
HETATM   12  C   UNL     1      -9.365   3.473 -32.826  1.00  0.00     0.256 C 
HETATM   13  N   UNL     1      -9.950   2.935 -33.951  1.00  0.00    -0.323 N 
HETATM   14  H   UNL     1      -9.526   3.154 -34.841  1.00  0.00     0.169 HD
HETATM   15  O   UNL     1      -9.764   3.424 -31.669  1.00  0.00    -0.267 OA
BRANCH  13  16
HETATM   16  C   UNL     1     -11.118   2.133 -34.007  1.00  0.00     0.041 A 
HETATM   17  C   UNL     1     -11.061   0.806 -33.526  1.00  0.00    -0.035 A 
HETATM   18  C   UNL     1      -9.808   0.208 -32.945  1.00  0.00     0.050 C 
HETATM   19  C   UNL     1     -12.217   0.004 -33.568  1.00  0.00     0.009 A 
HETATM   20  C   UNL     1     -13.413   0.499 -34.082  1.00  0.00     0.001 A 
HETATM   21  C   UNL     1     -13.471   1.803 -34.553  1.00  0.00     0.002 A 
HETATM   22  C   UNL     1     -12.333   2.613 -34.514  1.00  0.00     0.030 A 
ENDBRANCH  13  16
ENDBRANCH   1  12
BRANCH   2  23
HETATM   23  C   UNL     1      -6.647   2.208 -32.507  1.00  0.00    -0.025 A 
HETATM   24  C   UNL     1      -6.479   0.918 -33.039  1.00  0.00     0.052 A 
HETATM   25  C   UNL     1      -6.289  -0.168 -32.192  1.00  0.00     0.117 A 
HETATM   26  F   UNL     1      -6.133  -1.391 -32.716  1.00  0.00    -0.206 F 
HETATM   27  C   UNL     1      -6.261  -0.006 -30.813  1.00  0.00     0.042 A 
HETATM   28  C   UNL     1      -6.420   1.268 -30.271  1.00  0.00     0.004 A 
HETATM   29  C   UNL     1      -6.609   2.369 -31.110  1.00  0.00     0.010 A 
ENDBRANCH   2  23
BRANCH   7  30
HETATM   30  C   UNL     1      -2.255   4.972 -33.911  1.00  0.00     0.085 C 
BRANCH  30  31
HETATM   31  C   UNL     1      -1.552   5.726 -32.785  1.00  0.00     0.034 C 
BRANCH  31  32
HETATM   32  C   UNL     1      -1.002   7.079 -33.224  1.00  0.00     0.164 C 
BRANCH  32  33
HETATM   33  O   UNL     1      -1.733   7.545 -34.354  1.00  0.00    -0.401 OA
HETATM   34  H   UNL     1      -1.895   6.783 -34.935  1.00  0.00     0.209 HD
ENDBRANCH  32  33
ENDBRANCH  31  32
ENDBRANCH  30  31
ENDBRANCH   7  30
TORSDOF 7
ENDMDL
MODEL 4
REMARK VINA RESULT:      -8.0      2.487      4.164
REMARK  7 active torsions:
REMARK  status: ('A' for Active; 'I' for Inactive)
REMARK    1  A    between atoms: C_3  and  N_4 
REMARK       I    between atoms: N_4  and  C_5 
REMARK    2  A    between atoms: C_5  and  C_6 
REMARK    3  A    between atoms: C_7  and  C_8 
REMARK    4  A    between atoms: C_19  and  C_20 
REMARK    5  A    between atoms: C_20  and  C_21 
REMARK    6  A    between atoms: C_21  and  C_22 
REMARK    7  A    between atoms: C_22  and  O_23 
ROOT
HETATM    1  C   UNL     1      -6.041   1.909 -31.170  1.00  0.00     0.062 A 
HETATM    2  C   UNL     1      -7.456   2.461 -31.050  1.00  0.00     0.202 A 
HETATM    3  N   UNL     1      -7.452   3.928 -30.977  1.00  0.00    -0.083 N 
HETATM    4  C   UNL     1      -6.315   4.689 -30.935  1.00  0.00     0.726 A 
HETATM    5  N   UNL     1      -5.113   4.086 -30.988  1.00  0.00    -0.192 N 
HETATM    6  N   UNL     1      -8.557   4.692 -30.831  1.00  0.00    -0.140 NA
HETATM    7  C   UNL     1      -8.012   5.917 -30.805  1.00  0.00     0.166 A 
HETATM    8  N   UNL     1      -6.638   5.952 -30.845  1.00  0.00    -0.046 NA
HETATM    9  C   UNL     1      -4.952   2.715 -31.140  1.00  0.00     0.037 A 
HETATM   10  C   UNL     1      -3.528   2.231 -31.258  1.00  0.00     0.070 C 
HETATM   11  H   UNL     1      -4.278   4.666 -31.015  1.00  0.00     0.184 HD
ENDROOT
BRANCH   1  12
HETATM   12  C   UNL     1      -5.893   0.459 -31.454  1.00  0.00     0.256 C 
HETATM   13  N   UNL     1      -5.437   0.204 -32.729  1.00  0.00    -0.323 N 
HETATM   14  H   UNL     1      -5.327   0.995 -33.346  1.00  0.00     0.169 HD
HETATM   15  O   UNL     1      -6.193  -0.348 -30.584  1.00  0.00    -0.267 OA
BRANCH  13  16
HETATM   16  C   UNL     1      -5.141  -1.063 -33.294  1.00  0.00     0.041 A 
HETATM   17  C   UNL     1      -5.932  -1.536 -34.366  1.00  0.00    -0.035 A 
HETATM   18  C   UNL     1      -7.075  -0.743 -34.941  1.00  0.00     0.050 C 
HETATM   19  C   UNL     1      -5.641  -2.787 -34.940  1.00  0.00     0.009 A 
HETATM   20  C   UNL     1      -4.589  -3.567 -34.465  1.00  0.00     0.001 A 
HETATM   21  C   UNL     1      -3.811  -3.102 -33.414  1.00  0.00     0.002 A 
HETATM   22  C   UNL     1      -4.084  -1.860 -32.836  1.00  0.00     0.030 A 
ENDBRANCH  13  16
ENDBRANCH   1  12
BRANCH   2  23
HETATM   23  C   UNL     1      -8.404   1.980 -32.140  1.00  0.00    -0.025 A 
HETATM   24  C   UNL     1      -9.202   0.844 -31.919  1.00  0.00     0.052 A 
HETATM   25  C   UNL     1     -10.061   0.389 -32.913  1.00  0.00     0.117 A 
HETATM   26  F   UNL     1     -10.812  -0.697 -32.685  1.00  0.00    -0.206 F 
HETATM   27  C   UNL     1     -10.150   1.039 -34.136  1.00  0.00     0.042 A 
HETATM   28  C   UNL     1      -9.370   2.170 -34.369  1.00  0.00     0.004 A 
HETATM   29  C   UNL     1      -8.504   2.640 -33.378  1.00  0.00     0.010 A 
ENDBRANCH   2  23
BRANCH   7  30
HETATM   30  C   UNL     1      -8.830   7.156 -30.754  1.00  0.00     0.085 C 
BRANCH  30  31
HETATM   31  C   UNL     1      -9.613   7.302 -29.451  1.00  0.00     0.034 C 
BRANCH  31  32
HETATM   32  C   UNL     1      -8.738   7.166 -28.210  1.00  0.00     0.164 C 
BRANCH  32  33
HETATM   33  O   UNL     1      -9.527   7.387 -27.045  1.00  0.00    -0.401 OA
HETATM   34  H   UNL     1      -9.573   6.547 -26.558  1.00  0.00     0.209 HD
ENDBRANCH  32  33
ENDBRANCH  31  32
ENDBRANCH  30  31
ENDBRANCH   7  30
TORSDOF 7
ENDMDL
MODEL 5
REMARK VINA RESULT:      -8.0      3.786      8.177
REMARK  7 active torsions:
REMARK  status: ('A' for Active; 'I' for Inactive)
REMARK    1  A    between atoms: C_3  and  N_4 
REMARK       I    between atoms: N_4  and  C_5 
REMARK    2  A    between atoms: C_5  and  C_6 
REMARK    3  A    between atoms: C_7  and  C_8 
REMARK    4  A    between atoms: C_19  and  C_20 
REMARK    5  A    between atoms: C_20  and  C_21 
REMARK    6  A    between atoms: C_21  and  C_22 
REMARK    7  A    between atoms: C_22  and  O_23 
ROOT
HETATM    1  C   UNL     1      -4.749   4.908 -30.534  1.00  0.00     0.062 A 
HETATM    2  C   UNL     1      -3.903   3.876 -31.269  1.00  0.00     0.202 A 
HETATM    3  N   UNL     1      -4.687   2.678 -31.598  1.00  0.00    -0.083 N 
HETATM    4  C   UNL     1      -5.988   2.487 -31.215  1.00  0.00     0.726 A 
HETATM    5  N   UNL     1      -6.619   3.447 -30.515  1.00  0.00    -0.192 N 
HETATM    6  N   UNL     1      -4.193   1.583 -32.216  1.00  0.00    -0.140 NA
HETATM    7  C   UNL     1      -5.286   0.806 -32.257  1.00  0.00     0.166 A 
HETATM    8  N   UNL     1      -6.398   1.319 -31.633  1.00  0.00    -0.046 NA
HETATM    9  C   UNL     1      -6.040   4.668 -30.196  1.00  0.00     0.037 A 
HETATM   10  C   UNL     1      -6.929   5.649 -29.475  1.00  0.00     0.070 C 
HETATM   11  H   UNL     1      -7.602   3.316 -30.287  1.00  0.00     0.184 HD
ENDROOT
BRANCH   1  12
HETATM   12  C   UNL     1      -4.153   6.250 -30.313  1.00  0.00     0.256 C 
HETATM   13  N   UNL     1      -3.330   6.298 -29.209  1.00  0.00    -0.323 N 
HETATM   14  H   UNL     1      -3.277   5.468 -28.637  1.00  0.00     0.169 HD
HETATM   15  O   UNL     1      -4.444   7.160 -31.078  1.00  0.00    -0.267 OA
BRANCH  13  16
HETATM   16  C   UNL     1      -2.571   7.407 -28.755  1.00  0.00     0.041 A 
HETATM   17  C   UNL     1      -1.166   7.381 -28.905  1.00  0.00    -0.035 A 
HETATM   18  C   UNL     1      -0.439   6.225 -29.538  1.00  0.00     0.050 C 
HETATM   19  C   UNL     1      -0.404   8.481 -28.467  1.00  0.00     0.009 A 
HETATM   20  C   UNL     1      -1.014   9.588 -27.883  1.00  0.00     0.001 A 
HETATM   21  C   UNL     1      -2.394   9.615 -27.738  1.00  0.00     0.002 A 
HETATM   22  C   UNL     1      -3.165   8.533 -28.172  1.00  0.00     0.030 A 
ENDBRANCH  13  16
ENDBRANCH   1  12
BRANCH   2  23
HETATM   23  C   UNL     1      -3.201   4.416 -32.508  1.00  0.00    -0.025 A 
HETATM   24  C   UNL     1      -3.941   4.660 -33.677  1.00  0.00     0.052 A 
HETATM   25  C   UNL     1      -3.307   5.140 -34.818  1.00  0.00     0.117 A 
HETATM   26  F   UNL     1      -4.029   5.365 -35.925  1.00  0.00    -0.206 F 
HETATM   27  C   UNL     1      -1.942   5.388 -34.829  1.00  0.00     0.042 A 
HETATM   28  C   UNL     1      -1.195   5.157 -33.675  1.00  0.00     0.004 A 
HETATM   29  C   UNL     1      -1.819   4.677 -32.521  1.00  0.00     0.010 A 
ENDBRANCH   2  23
BRANCH   7  30
HETATM   30  C   UNL     1      -5.305  -0.512 -32.942  1.00  0.00     0.085 C 
BRANCH  30  31
HETATM   31  C   UNL     1      -3.908  -1.057 -33.229  1.00  0.00     0.034 C 
BRANCH  31  32
HETATM   32  C   UNL     1      -3.301  -1.800 -32.044  1.00  0.00     0.164 C 
BRANCH  32  33
HETATM   33  O   UNL     1      -2.373  -0.953 -31.375  1.00  0.00    -0.401 OA
HETATM   34  H   UNL     1      -2.007  -0.339 -32.034  1.00  0.00     0.209 HD
ENDBRANCH  32  33
ENDBRANCH  31  32
ENDBRANCH  30  31
ENDBRANCH   7  30
TORSDOF 7
ENDMDL
MODEL 6
REMARK VINA RESULT:      -7.9      3.045      5.705
REMARK  7 active torsions:
REMARK  status: ('A' for Active; 'I' for Inactive)
REMARK    1  A    between atoms: C_3  and  N_4 
REMARK       I    between atoms: N_4  and  C_5 
REMARK    2  A    between atoms: C_5  and  C_6 
REMARK    3  A    between atoms: C_7  and  C_8 
REMARK    4  A    between atoms: C_19  and  C_20 
REMARK    5  A    between atoms: C_20  and  C_21 
REMARK    6  A    between atoms: C_21  and  C_22 
REMARK    7  A    between atoms: C_22  and  O_23 
ROOT
HETATM    1  C   UNL     1      -7.599   3.171 -31.979  1.00  0.00     0.062 A 
HETATM    2  C   UNL     1      -6.381   2.827 -32.827  1.00  0.00     0.202 A 
HETATM    3  N   UNL     1      -5.188   3.552 -32.369  1.00  0.00    -0.083 N 
HETATM    4  C   UNL     1      -5.198   4.481 -31.364  1.00  0.00     0.726 A 
HETATM    5  N   UNL     1      -6.349   4.750 -30.722  1.00  0.00    -0.192 N 
HETATM    6  N   UNL     1      -3.972   3.474 -32.951  1.00  0.00    -0.140 NA
HETATM    7  C   UNL     1      -3.271   4.316 -32.178  1.00  0.00     0.166 A 
HETATM    8  N   UNL     1      -3.995   4.968 -31.209  1.00  0.00    -0.046 NA
HETATM    9  C   UNL     1      -7.543   4.090 -30.984  1.00  0.00     0.037 A 
HETATM   10  C   UNL     1      -8.710   4.471 -30.109  1.00  0.00     0.070 C 
HETATM   11  H   UNL     1      -6.331   5.399 -29.940  1.00  0.00     0.184 HD
ENDROOT
BRANCH   1  12
HETATM   12  C   UNL     1      -8.830   2.369 -32.192  1.00  0.00     0.256 C 
HETATM   13  N   UNL     1      -9.566   2.790 -33.278  1.00  0.00    -0.323 N 
HETATM   14  H   UNL     1      -9.249   3.619 -33.757  1.00  0.00     0.169 HD
HETATM   15  O   UNL     1      -9.086   1.461 -31.412  1.00  0.00    -0.267 OA
BRANCH  13  16
HETATM   16  C   UNL     1     -10.758   2.208 -33.781  1.00  0.00     0.041 A 
HETATM   17  C   UNL     1     -11.484   2.892 -34.782  1.00  0.00    -0.035 A 
HETATM   18  C   UNL     1     -11.038   4.215 -35.346  1.00  0.00     0.050 C 
HETATM   19  C   UNL     1     -12.663   2.320 -35.295  1.00  0.00     0.009 A 
HETATM   20  C   UNL     1     -13.126   1.092 -34.827  1.00  0.00     0.001 A 
HETATM   21  C   UNL     1     -12.412   0.419 -33.846  1.00  0.00     0.002 A 
HETATM   22  C   UNL     1     -11.238   0.972 -33.329  1.00  0.00     0.030 A 
ENDBRANCH  13  16
ENDBRANCH   1  12
BRANCH   2  23
HETATM   23  C   UNL     1      -6.096   1.333 -32.927  1.00  0.00    -0.025 A 
HETATM   24  C   UNL     1      -6.365   0.651 -34.125  1.00  0.00     0.052 A 
HETATM   25  C   UNL     1      -6.122  -0.715 -34.221  1.00  0.00     0.117 A 
HETATM   26  F   UNL     1      -6.387  -1.350 -35.371  1.00  0.00    -0.206 F 
HETATM   27  C   UNL     1      -5.612  -1.430 -33.145  1.00  0.00     0.042 A 
HETATM   28  C   UNL     1      -5.334  -0.766 -31.952  1.00  0.00     0.004 A 
HETATM   29  C   UNL     1      -5.572   0.607 -31.842  1.00  0.00     0.010 A 
ENDBRANCH   2  23
BRANCH   7  30
HETATM   30  C   UNL     1      -1.808   4.523 -32.340  1.00  0.00     0.085 C 
BRANCH  30  31
HETATM   31  C   UNL     1      -1.468   5.743 -33.193  1.00  0.00     0.034 C 
BRANCH  31  32
HETATM   32  C   UNL     1      -1.751   5.533 -34.676  1.00  0.00     0.164 C 
BRANCH  32  33
HETATM   33  O   UNL     1      -3.078   5.955 -34.972  1.00  0.00    -0.401 OA
HETATM   34  H   UNL     1      -3.684   5.258 -34.669  1.00  0.00     0.209 HD
ENDBRANCH  32  33
ENDBRANCH  31  32
ENDBRANCH  30  31
ENDBRANCH   7  30
TORSDOF 7
ENDMDL
MODEL 7
REMARK VINA RESULT:      -7.8      2.853      5.526
REMARK  7 active torsions:
REMARK  status: ('A' for Active; 'I' for Inactive)
REMARK    1  A    between atoms: C_3  and  N_4 
REMARK       I    between atoms: N_4  and  C_5 
REMARK    2  A    between atoms: C_5  and  C_6 
REMARK    3  A    between atoms: C_7  and  C_8 
REMARK    4  A    between atoms: C_19  and  C_20 
REMARK    5  A    between atoms: C_20  and  C_21 
REMARK    6  A    between atoms: C_21  and  C_22 
REMARK    7  A    between atoms: C_22  and  O_23 
ROOT
HETATM    1  C   UNL     1      -8.226   3.940 -33.303  1.00  0.00     0.062 A 
HETATM    2  C   UNL     1      -6.888   3.357 -33.743  1.00  0.00     0.202 A 
HETATM    3  N   UNL     1      -5.793   3.825 -32.884  1.00  0.00    -0.083 N 
HETATM    4  C   UNL     1      -5.949   4.735 -31.873  1.00  0.00     0.726 A 
HETATM    5  N   UNL     1      -7.172   5.229 -31.611  1.00  0.00    -0.192 N 
HETATM    6  N   UNL     1      -4.492   3.503 -33.055  1.00  0.00    -0.140 NA
HETATM    7  C   UNL     1      -3.931   4.184 -32.045  1.00  0.00     0.166 A 
HETATM    8  N   UNL     1      -4.791   4.967 -31.313  1.00  0.00    -0.046 NA
HETATM    9  C   UNL     1      -8.320   4.825 -32.281  1.00  0.00     0.037 A 
HETATM   10  C   UNL     1      -9.612   5.433 -31.796  1.00  0.00     0.070 C 
HETATM   11  H   UNL     1      -7.284   5.860 -30.821  1.00  0.00     0.184 HD
ENDROOT
BRANCH   1  12
HETATM   12  C   UNL     1      -9.451   3.404 -33.947  1.00  0.00     0.256 C 
HETATM   13  N   UNL     1     -10.128   2.504 -33.153  1.00  0.00    -0.323 N 
HETATM   14  H   UNL     1      -9.698   2.248 -32.277  1.00  0.00     0.169 HD
HETATM   15  O   UNL     1      -9.733   3.773 -35.080  1.00  0.00    -0.267 OA
BRANCH  13  16
HETATM   16  C   UNL     1     -11.354   1.856 -33.449  1.00  0.00     0.041 A 
HETATM   17  C   UNL     1     -11.440   0.453 -33.298  1.00  0.00    -0.035 A 
HETATM   18  C   UNL     1     -10.282  -0.384 -32.825  1.00  0.00     0.050 C 
HETATM   19  C   UNL     1     -12.655  -0.199 -33.579  1.00  0.00     0.009 A 
HETATM   20  C   UNL     1     -13.770   0.516 -34.009  1.00  0.00     0.001 A 
HETATM   21  C   UNL     1     -13.687   1.894 -34.155  1.00  0.00     0.002 A 
HETATM   22  C   UNL     1     -12.489   2.557 -33.876  1.00  0.00     0.030 A 
ENDBRANCH  13  16
ENDBRANCH   1  12
BRANCH   2  23
HETATM   23  C   UNL     1      -6.877   1.838 -33.848  1.00  0.00    -0.025 A 
HETATM   24  C   UNL     1      -6.617   1.062 -32.706  1.00  0.00     0.052 A 
HETATM   25  C   UNL     1      -6.592  -0.326 -32.795  1.00  0.00     0.117 A 
HETATM   26  F   UNL     1      -6.340  -1.050 -31.696  1.00  0.00    -0.206 F 
HETATM   27  C   UNL     1      -6.821  -0.971 -34.002  1.00  0.00     0.042 A 
HETATM   28  C   UNL     1      -7.086  -0.216 -35.143  1.00  0.00     0.004 A 
HETATM   29  C   UNL     1      -7.117   1.179 -35.068  1.00  0.00     0.010 A 
ENDBRANCH   2  23
BRANCH   7  30
HETATM   30  C   UNL     1      -2.484   4.091 -31.722  1.00  0.00     0.085 C 
BRANCH  30  31
HETATM   31  C   UNL     1      -1.903   5.401 -31.196  1.00  0.00     0.034 C 
BRANCH  31  32
HETATM   32  C   UNL     1      -0.430   5.292 -30.817  1.00  0.00     0.164 C 
BRANCH  32  33
HETATM   33  O   UNL     1      -0.308   5.210 -29.401  1.00  0.00    -0.401 OA
HETATM   34  H   UNL     1       0.429   5.785 -29.135  1.00  0.00     0.209 HD
ENDBRANCH  32  33
ENDBRANCH  31  32
ENDBRANCH  30  31
ENDBRANCH   7  30
TORSDOF 7
ENDMDL
MODEL 8
REMARK VINA RESULT:      -7.8     15.600     19.308
REMARK  7 active torsions:
REMARK  status: ('A' for Active; 'I' for Inactive)
REMARK    1  A    between atoms: C_3  and  N_4 
REMARK       I    between atoms: N_4  and  C_5 
REMARK    2  A    between atoms: C_5  and  C_6 
REMARK    3  A    between atoms: C_7  and  C_8 
REMARK    4  A    between atoms: C_19  and  C_20 
REMARK    5  A    between atoms: C_20  and  C_21 
REMARK    6  A    between atoms: C_21  and  C_22 
REMARK    7  A    between atoms: C_22  and  O_23 
ROOT
HETATM    1  C   UNL     1      -3.749 -13.619 -39.713  1.00  0.00     0.062 A 
HETATM    2  C   UNL     1      -4.536 -13.425 -41.004  1.00  0.00     0.202 A 
HETATM    3  N   UNL     1      -4.010 -14.272 -42.083  1.00  0.00    -0.083 N 
HETATM    4  C   UNL     1      -2.903 -15.067 -41.960  1.00  0.00     0.726 A 
HETATM    5  N   UNL     1      -2.249 -15.115 -40.785  1.00  0.00    -0.192 N 
HETATM    6  N   UNL     1      -4.484 -14.286 -43.347  1.00  0.00    -0.140 NA
HETATM    7  C   UNL     1      -3.669 -15.190 -43.910  1.00  0.00     0.166 A 
HETATM    8  N   UNL     1      -2.673 -15.674 -43.095  1.00  0.00    -0.046 NA
HETATM    9  C   UNL     1      -2.669 -14.435 -39.649  1.00  0.00     0.037 A 
HETATM   10  C   UNL     1      -1.853 -14.673 -38.403  1.00  0.00     0.070 C 
HETATM   11  H   UNL     1      -1.463 -15.753 -40.690  1.00  0.00     0.184 HD
ENDROOT
BRANCH   1  12
HETATM   12  C   UNL     1      -4.284 -12.983 -38.483  1.00  0.00     0.256 C 
HETATM   13  N   UNL     1      -4.849 -13.888 -37.610  1.00  0.00    -0.323 N 
HETATM   14  H   UNL     1      -4.912 -14.847 -37.918  1.00  0.00     0.169 HD
HETATM   15  O   UNL     1      -4.201 -11.768 -38.361  1.00  0.00    -0.267 OA
BRANCH  13  16
HETATM   16  C   UNL     1      -5.398 -13.615 -36.332  1.00  0.00     0.041 A 
HETATM   17  C   UNL     1      -6.795 -13.728 -36.149  1.00  0.00    -0.035 A 
HETATM   18  C   UNL     1      -7.727 -14.137 -37.258  1.00  0.00     0.050 C 
HETATM   19  C   UNL     1      -7.350 -13.469 -34.882  1.00  0.00     0.009 A 
HETATM   20  C   UNL     1      -6.543 -13.098 -33.809  1.00  0.00     0.001 A 
HETATM   21  C   UNL     1      -5.171 -12.990 -33.987  1.00  0.00     0.002 A 
HETATM   22  C   UNL     1      -4.605 -13.248 -35.238  1.00  0.00     0.030 A 
ENDBRANCH  13  16
ENDBRANCH   1  12
BRANCH   2  23
HETATM   23  C   UNL     1      -6.038 -13.620 -40.850  1.00  0.00    -0.025 A 
HETATM   24  C   UNL     1      -6.880 -12.500 -40.744  1.00  0.00     0.052 A 
HETATM   25  C   UNL     1      -8.252 -12.669 -40.590  1.00  0.00     0.117 A 
HETATM   26  F   UNL     1      -9.039 -11.589 -40.489  1.00  0.00    -0.206 F 
HETATM   27  C   UNL     1      -8.817 -13.935 -40.537  1.00  0.00     0.042 A 
HETATM   28  C   UNL     1      -7.996 -15.056 -40.647  1.00  0.00     0.004 A 
HETATM   29  C   UNL     1      -6.617 -14.902 -40.805  1.00  0.00     0.010 A 
ENDBRANCH   2  23
BRANCH   7  30
HETATM   30  C   UNL     1      -3.834 -15.655 -45.311  1.00  0.00     0.085 C 
BRANCH  30  31
HETATM   31  C   UNL     1      -3.260 -17.050 -45.549  1.00  0.00     0.034 C 
BRANCH  31  32
HETATM   32  C   UNL     1      -1.924 -17.028 -46.283  1.00  0.00     0.164 C 
BRANCH  32  33
HETATM   33  O   UNL     1      -2.103 -16.471 -47.581  1.00  0.00    -0.401 OA
HETATM   34  H   UNL     1      -3.022 -16.639 -47.850  1.00  0.00     0.209 HD
ENDBRANCH  32  33
ENDBRANCH  31  32
ENDBRANCH  30  31
ENDBRANCH   7  30
TORSDOF 7
ENDMDL
MODEL 9
REMARK VINA RESULT:      -7.6      2.626      7.930
REMARK  7 active torsions:
REMARK  status: ('A' for Active; 'I' for Inactive)
REMARK    1  A    between atoms: C_3  and  N_4 
REMARK       I    between atoms: N_4  and  C_5 
REMARK    2  A    between atoms: C_5  and  C_6 
REMARK    3  A    between atoms: C_7  and  C_8 
REMARK    4  A    between atoms: C_19  and  C_20 
REMARK    5  A    between atoms: C_20  and  C_21 
REMARK    6  A    between atoms: C_21  and  C_22 
REMARK    7  A    between atoms: C_22  and  O_23 
ROOT
HETATM    1  C   UNL     1      -5.767   2.571 -32.733  1.00  0.00     0.062 A 
HETATM    2  C   UNL     1      -6.297   1.471 -33.646  1.00  0.00     0.202 A 
HETATM    3  N   UNL     1      -5.455   0.270 -33.580  1.00  0.00    -0.083 N 
HETATM    4  C   UNL     1      -4.296   0.187 -32.856  1.00  0.00     0.726 A 
HETATM    5  N   UNL     1      -3.892   1.246 -32.131  1.00  0.00    -0.192 N 
HETATM    6  N   UNL     1      -5.659  -0.851 -34.306  1.00  0.00    -0.140 NA
HETATM    7  C   UNL     1      -4.631  -1.606 -33.893  1.00  0.00     0.166 A 
HETATM    8  N   UNL     1      -3.763  -0.995 -33.020  1.00  0.00    -0.046 NA
HETATM    9  C   UNL     1      -4.620   2.424 -32.026  1.00  0.00     0.037 A 
HETATM   10  C   UNL     1      -4.046   3.471 -31.104  1.00  0.00     0.070 C 
HETATM   11  H   UNL     1      -3.061   1.151 -31.552  1.00  0.00     0.184 HD
ENDROOT
BRANCH   1  12
HETATM   12  C   UNL     1      -6.620   3.770 -32.539  1.00  0.00     0.256 C 
HETATM   13  N   UNL     1      -7.418   3.688 -31.418  1.00  0.00    -0.323 N 
HETATM   14  H   UNL     1      -7.402   2.820 -30.904  1.00  0.00     0.169 HD
HETATM   15  O   UNL     1      -6.561   4.678 -33.359  1.00  0.00    -0.267 OA
BRANCH  13  16
HETATM   16  C   UNL     1      -8.302   4.680 -30.923  1.00  0.00     0.041 A 
HETATM   17  C   UNL     1      -7.971   5.356 -29.728  1.00  0.00    -0.035 A 
HETATM   18  C   UNL     1      -6.708   5.073 -28.959  1.00  0.00     0.050 C 
HETATM   19  C   UNL     1      -8.837   6.349 -29.232  1.00  0.00     0.009 A 
HETATM   20  C   UNL     1     -10.016   6.670 -29.900  1.00  0.00     0.001 A 
HETATM   21  C   UNL     1     -10.341   6.008 -31.076  1.00  0.00     0.002 A 
HETATM   22  C   UNL     1      -9.490   5.023 -31.583  1.00  0.00     0.030 A 
ENDBRANCH  13  16
ENDBRANCH   1  12
BRANCH   2  23
HETATM   23  C   UNL     1      -7.759   1.117 -33.405  1.00  0.00    -0.025 A 
HETATM   24  C   UNL     1      -8.732   1.496 -34.345  1.00  0.00     0.052 A 
HETATM   25  C   UNL     1     -10.071   1.189 -34.128  1.00  0.00     0.117 A 
HETATM   26  F   UNL     1     -10.985   1.559 -35.035  1.00  0.00    -0.206 F 
HETATM   27  C   UNL     1     -10.474   0.507 -32.988  1.00  0.00     0.042 A 
HETATM   28  C   UNL     1      -9.520   0.119 -32.049  1.00  0.00     0.004 A 
HETATM   29  C   UNL     1      -8.171   0.419 -32.255  1.00  0.00     0.010 A 
ENDBRANCH   2  23
BRANCH   7  30
HETATM   30  C   UNL     1      -4.446  -3.014 -34.329  1.00  0.00     0.085 C 
BRANCH  30  31
HETATM   31  C   UNL     1      -5.541  -3.495 -35.278  1.00  0.00     0.034 C 
BRANCH  31  32
HETATM   32  C   UNL     1      -5.944  -4.946 -35.039  1.00  0.00     0.164 C 
BRANCH  32  33
HETATM   33  O   UNL     1      -4.817  -5.682 -34.575  1.00  0.00    -0.401 OA
HETATM   34  H   UNL     1      -5.112  -6.234 -33.831  1.00  0.00     0.209 HD
ENDBRANCH  32  33
ENDBRANCH  31  32
ENDBRANCH  30  31
ENDBRANCH   7  30
TORSDOF 7
ENDMDL
MODEL 10
REMARK VINA RESULT:      -7.6     15.482     17.404
REMARK  7 active torsions:
REMARK  status: ('A' for Active; 'I' for Inactive)
REMARK    1  A    between atoms: C_3  and  N_4 
REMARK       I    between atoms: N_4  and  C_5 
REMARK    2  A    between atoms: C_5  and  C_6 
REMARK    3  A    between atoms: C_7  and  C_8 
REMARK    4  A    between atoms: C_19  and  C_20 
REMARK    5  A    between atoms: C_20  and  C_21 
REMARK    6  A    between atoms: C_21  and  C_22 
REMARK    7  A    between atoms: C_22  and  O_23 
ROOT
HETATM    1  C   UNL     1      -4.173 -13.170 -39.369  1.00  0.00     0.062 A 
HETATM    2  C   UNL     1      -5.312 -12.813 -38.422  1.00  0.00     0.202 A 
HETATM    3  N   UNL     1      -6.620 -13.024 -39.057  1.00  0.00    -0.083 N 
HETATM    4  C   UNL     1      -6.784 -13.410 -40.360  1.00  0.00     0.726 A 
HETATM    5  N   UNL     1      -5.700 -13.641 -41.123  1.00  0.00    -0.192 N 
HETATM    6  N   UNL     1      -7.808 -12.759 -38.472  1.00  0.00    -0.140 NA
HETATM    7  C   UNL     1      -8.653 -13.102 -39.456  1.00  0.00     0.166 A 
HETATM    8  N   UNL     1      -8.060 -13.485 -40.635  1.00  0.00    -0.046 NA
HETATM    9  C   UNL     1      -4.399 -13.563 -40.646  1.00  0.00     0.037 A 
HETATM   10  C   UNL     1      -3.316 -13.933 -41.629  1.00  0.00     0.070 C 
HETATM   11  H   UNL     1      -5.837 -13.982 -42.072  1.00  0.00     0.184 HD
ENDROOT
BRANCH   1  12
HETATM   12  C   UNL     1      -2.799 -13.200 -38.806  1.00  0.00     0.256 C 
HETATM   13  N   UNL     1      -2.198 -14.435 -38.918  1.00  0.00    -0.323 N 
HETATM   14  H   UNL     1      -2.759 -15.189 -39.286  1.00  0.00     0.169 HD
HETATM   15  O   UNL     1      -2.345 -12.182 -38.298  1.00  0.00    -0.267 OA
BRANCH  13  16
HETATM   16  C   UNL     1      -0.879 -14.782 -38.530  1.00  0.00     0.041 A 
HETATM   17  C   UNL     1      -0.693 -15.606 -37.397  1.00  0.00    -0.035 A 
HETATM   18  C   UNL     1      -1.844 -16.139 -36.585  1.00  0.00     0.050 C 
HETATM   19  C   UNL     1       0.611 -15.964 -37.009  1.00  0.00     0.009 A 
HETATM   20  C   UNL     1       1.720 -15.516 -37.722  1.00  0.00     0.001 A 
HETATM   21  C   UNL     1       1.538 -14.709 -38.837  1.00  0.00     0.002 A 
HETATM   22  C   UNL     1       0.250 -14.348 -39.237  1.00  0.00     0.030 A 
ENDBRANCH  13  16
ENDBRANCH   1  12
BRANCH   2  23
HETATM   23  C   UNL     1      -5.247 -13.523 -37.077  1.00  0.00    -0.025 A 
HETATM   24  C   UNL     1      -5.137 -12.770 -35.895  1.00  0.00     0.052 A 
HETATM   25  C   UNL     1      -5.063 -13.410 -34.663  1.00  0.00     0.117 A 
HETATM   26  F   UNL     1      -4.957 -12.676 -33.547  1.00  0.00    -0.206 F 
HETATM   27  C   UNL     1      -5.095 -14.795 -34.571  1.00  0.00     0.042 A 
HETATM   28  C   UNL     1      -5.210 -15.556 -35.733  1.00  0.00     0.004 A 
HETATM   29  C   UNL     1      -5.288 -14.926 -36.978  1.00  0.00     0.010 A 
ENDBRANCH   2  23
BRANCH   7  30
HETATM   30  C   UNL     1     -10.128 -13.089 -39.285  1.00  0.00     0.085 C 
BRANCH  30  31
HETATM   31  C   UNL     1     -10.865 -12.523 -40.497  1.00  0.00     0.034 C 
BRANCH  31  32
HETATM   32  C   UNL     1     -11.189 -11.039 -40.360  1.00  0.00     0.164 C 
BRANCH  32  33
HETATM   33  O   UNL     1     -10.837 -10.362 -41.562  1.00  0.00    -0.401 OA
HETATM   34  H   UNL     1     -10.338  -9.564 -41.315  1.00  0.00     0.209 HD
ENDBRANCH  32  33
ENDBRANCH  31  32
ENDBRANCH  30  31
ENDBRANCH   7  30
TORSDOF 7
ENDMDL
