MODEL 1
REMARK VINA RESULT:      -9.2      0.000      0.000
REMARK  8 active torsions:
REMARK  status: ('A' for Active; 'I' for Inactive)
REMARK    1  A    between atoms: O_2  and  C_3 
REMARK    2  A    between atoms: C_4  and  O_5 
REMARK    3  A    between atoms: C_6  and  C_7 
REMARK    4  A    between atoms: C_7  and  C_8 
REMARK    5  A    between atoms: C_11  and  C_12 
REMARK    6  A    between atoms: C_12  and  N_13 
REMARK    7  A    between atoms: C_16  and  N_17 
REMARK       I    between atoms: N_17  and  C_18 
REMARK       I    between atoms: C_18  and  N_19 
REMARK    8  A    between atoms: N_19  and  C_20 
ROOT
HETATM    1  N   UNL     1      -4.435   3.371 -30.570  1.00  0.00    -0.065 N 
HETATM    2  H   UNL     1      -4.234   3.911 -29.719  1.00  0.00     0.280 HD
HETATM    3  C   UNL     1      -5.401   2.260 -30.186  1.00  0.00     0.260 C 
HETATM    4  C   UNL     1      -6.506   2.307 -31.258  1.00  0.00     0.113 C 
HETATM    5  C   UNL     1      -6.614   3.807 -31.498  1.00  0.00     0.054 C 
HETATM    6  C   UNL     1      -5.166   4.270 -31.542  1.00  0.00     0.237 C 
ENDROOT
BRANCH   1   7
HETATM    7  C   UNL     1      -3.104   2.866 -31.070  1.00  0.00     0.273 C 
BRANCH   7   8
HETATM    8  C   UNL     1      -2.404   3.906 -31.905  1.00  0.00    -0.029 A 
HETATM    9  C   UNL     1      -1.468   4.771 -31.308  1.00  0.00     0.019 A 
HETATM   10  C   UNL     1      -0.862   5.812 -32.035  1.00  0.00    -0.018 A 
HETATM   11  C   UNL     1      -1.230   5.989 -33.371  1.00  0.00     0.105 A 
HETATM   12  C   UNL     1      -2.119   5.107 -33.986  1.00  0.00     0.102 A 
HETATM   13  C   UNL     1      -2.720   4.081 -33.259  1.00  0.00     0.048 A 
BRANCH  10  14
HETATM   14  C   UNL     1       0.120   6.736 -31.352  1.00  0.00     0.068 C 
BRANCH  14  15
HETATM   15  C   UNL     1      -0.248   6.992 -29.917  1.00  0.00    -0.032 C 
HETATM   16  C   UNL     1       0.546   7.596 -29.023  1.00  0.00     0.007 C 
ENDBRANCH  14  15
ENDBRANCH  10  14
BRANCH  11  17
HETATM   17  O   UNL     1      -0.735   7.058 -34.063  1.00  0.00    -0.357 OA
HETATM   18  H   UNL     1      -1.301   7.180 -34.847  1.00  0.00     0.218 HD
ENDBRANCH  11  17
BRANCH  12  19
HETATM   19  O   UNL     1      -2.488   5.275 -35.295  1.00  0.00    -0.353 OA
HETATM   20  C   UNL     1      -3.912   5.184 -35.432  1.00  0.00     0.210 C 
ENDBRANCH  12  19
ENDBRANCH   7   8
ENDBRANCH   1   7
BRANCH   4  21
HETATM   21  N   UNL     1      -6.208   1.605 -32.511  1.00  0.00    -0.337 N 
HETATM   22  C   UNL     1      -6.016   0.231 -32.477  1.00  0.00     0.321 C 
HETATM   23  N   UNL     1      -5.969  -0.303 -33.741  1.00  0.00    -0.309 N 
HETATM   24  O   UNL     1      -5.882  -0.356 -31.414  1.00  0.00    -0.247 OA
HETATM   25  H   UNL     1      -6.020   0.341 -34.517  1.00  0.00     0.170 HD
HETATM   26  H   UNL     1      -6.786   1.877 -33.299  1.00  0.00     0.164 HD
BRANCH  23  27
HETATM   27  C   UNL     1      -5.832  -1.665 -34.089  1.00  0.00     0.036 A 
HETATM   28  C   UNL     1      -6.890  -2.470 -34.525  1.00  0.00     0.032 A 
HETATM   29  C   UNL     1      -6.670  -3.811 -34.858  1.00  0.00     0.044 A 
HETATM   30  C   UNL     1      -5.392  -4.345 -34.759  1.00  0.00     0.116 A 
HETATM   31  F   UNL     1      -5.184  -5.628 -35.081  1.00  0.00    -0.206 F 
HETATM   32  C   UNL     1      -4.328  -3.563 -34.332  1.00  0.00     0.044 A 
HETATM   33  C   UNL     1      -4.549  -2.225 -33.995  1.00  0.00     0.032 A 
ENDBRANCH  23  27
ENDBRANCH   4  21
TORSDOF 8
ENDMDL
MODEL 2
REMARK VINA RESULT:      -8.8      4.344      9.780
REMARK  8 active torsions:
REMARK  status: ('A' for Active; 'I' for Inactive)
REMARK    1  A    between atoms: O_2  and  C_3 
REMARK    2  A    between atoms: C_4  and  O_5 
REMARK    3  A    between atoms: C_6  and  C_7 
REMARK    4  A    between atoms: C_7  and  C_8 
REMARK    5  A    between atoms: C_11  and  C_12 
REMARK    6  A    between atoms: C_12  and  N_13 
REMARK    7  A    between atoms: C_16  and  N_17 
REMARK       I    between atoms: N_17  and  C_18 
REMARK       I    between atoms: C_18  and  N_19 
REMARK    8  A    between atoms: N_19  and  C_20 
ROOT
HETATM    1  N   UNL     1      -4.255   3.926 -33.282  1.00  0.00    -0.065 N 
HETATM    2  H   UNL     1      -4.571   3.395 -34.104  1.00  0.00     0.280 HD
HETATM    3  C   UNL     1      -3.052   3.195 -32.705  1.00  0.00     0.260 C 
HETATM    4  C   UNL     1      -1.997   4.292 -32.468  1.00  0.00     0.113 C 
HETATM    5  C   UNL     1      -2.247   5.197 -33.667  1.00  0.00     0.054 C 
HETATM    6  C   UNL     1      -3.763   5.278 -33.748  1.00  0.00     0.237 C 
ENDROOT
BRANCH   1   7
HETATM    7  C   UNL     1      -5.433   3.982 -32.342  1.00  0.00     0.273 C 
BRANCH   7   8
HETATM    8  C   UNL     1      -6.604   3.207 -32.887  1.00  0.00    -0.029 A 
HETATM    9  C   UNL     1      -6.383   2.118 -33.751  1.00  0.00     0.019 A 
HETATM   10  C   UNL     1      -7.452   1.428 -34.351  1.00  0.00    -0.018 A 
HETATM   11  C   UNL     1      -8.753   1.864 -34.090  1.00  0.00     0.105 A 
HETATM   12  C   UNL     1      -8.985   2.910 -33.196  1.00  0.00     0.102 A 
HETATM   13  C   UNL     1      -7.922   3.593 -32.609  1.00  0.00     0.048 A 
BRANCH  10  14
HETATM   14  C   UNL     1      -7.173   0.279 -35.293  1.00  0.00     0.068 C 
BRANCH  14  15
HETATM   15  C   UNL     1      -6.429  -0.839 -34.617  1.00  0.00    -0.032 C 
HETATM   16  C   UNL     1      -6.849  -2.111 -34.566  1.00  0.00     0.007 C 
ENDBRANCH  14  15
ENDBRANCH  10  14
BRANCH  11  17
HETATM   17  O   UNL     1      -9.797   1.277 -34.746  1.00  0.00    -0.357 OA
HETATM   18  H   UNL     1     -10.601   1.775 -34.510  1.00  0.00     0.218 HD
ENDBRANCH  11  17
BRANCH  12  19
HETATM   19  O   UNL     1     -10.258   3.347 -32.936  1.00  0.00    -0.353 OA
HETATM   20  C   UNL     1     -10.313   4.010 -31.667  1.00  0.00     0.210 C 
ENDBRANCH  12  19
ENDBRANCH   7   8
ENDBRANCH   1   7
BRANCH   4  21
HETATM   21  N   UNL     1      -2.131   5.046 -31.217  1.00  0.00    -0.337 N 
HETATM   22  C   UNL     1      -0.984   5.367 -30.505  1.00  0.00     0.321 C 
HETATM   23  N   UNL     1      -1.252   6.253 -29.491  1.00  0.00    -0.309 N 
HETATM   24  O   UNL     1       0.091   4.859 -30.787  1.00  0.00    -0.247 OA
HETATM   25  H   UNL     1      -2.216   6.514 -29.348  1.00  0.00     0.170 HD
HETATM   26  H   UNL     1      -2.770   5.832 -31.260  1.00  0.00     0.164 HD
BRANCH  23  27
HETATM   27  C   UNL     1      -0.326   6.832 -28.595  1.00  0.00     0.036 A 
HETATM   28  C   UNL     1       0.566   7.852 -28.944  1.00  0.00     0.032 A 
HETATM   29  C   UNL     1       1.449   8.378 -27.994  1.00  0.00     0.044 A 
HETATM   30  C   UNL     1       1.437   7.887 -26.696  1.00  0.00     0.116 A 
HETATM   31  F   UNL     1       2.281   8.394 -25.789  1.00  0.00    -0.206 F 
HETATM   32  C   UNL     1       0.558   6.878 -26.327  1.00  0.00     0.044 A 
HETATM   33  C   UNL     1      -0.321   6.350 -27.277  1.00  0.00     0.032 A 
ENDBRANCH  23  27
ENDBRANCH   4  21
TORSDOF 8
ENDMDL
MODEL 3
REMARK VINA RESULT:      -8.6      4.303      9.742
REMARK  8 active torsions:
REMARK  status: ('A' for Active; 'I' for Inactive)
REMARK    1  A    between atoms: O_2  and  C_3 
REMARK    2  A    between atoms: C_4  and  O_5 
REMARK    3  A    between atoms: C_6  and  C_7 
REMARK    4  A    between atoms: C_7  and  C_8 
REMARK    5  A    between atoms: C_11  and  C_12 
REMARK    6  A    between atoms: C_12  and  N_13 
REMARK    7  A    between atoms: C_16  and  N_17 
REMARK       I    between atoms: N_17  and  C_18 
REMARK       I    between atoms: C_18  and  N_19 
REMARK    8  A    between atoms: N_19  and  C_20 
ROOT
HETATM    1  N   UNL     1      -5.029   3.228 -31.847  1.00  0.00    -0.065 N 
HETATM    2  H   UNL     1      -5.930   2.942 -32.252  1.00  0.00     0.280 HD
HETATM    3  C   UNL     1      -4.676   4.585 -32.437  1.00  0.00     0.260 C 
HETATM    4  C   UNL     1      -4.259   5.446 -31.230  1.00  0.00     0.113 C 
HETATM    5  C   UNL     1      -5.225   4.941 -30.166  1.00  0.00     0.054 C 
HETATM    6  C   UNL     1      -5.219   3.433 -30.360  1.00  0.00     0.237 C 
ENDROOT
BRANCH   1   7
HETATM    7  C   UNL     1      -4.046   2.141 -32.205  1.00  0.00     0.273 C 
BRANCH   7   8
HETATM    8  C   UNL     1      -4.730   0.995 -32.905  1.00  0.00    -0.029 A 
HETATM    9  C   UNL     1      -5.993   1.188 -33.495  1.00  0.00     0.019 A 
HETATM   10  C   UNL     1      -6.701   0.121 -34.077  1.00  0.00    -0.018 A 
HETATM   11  C   UNL     1      -6.132  -1.154 -34.035  1.00  0.00     0.105 A 
HETATM   12  C   UNL     1      -4.860  -1.347 -33.497  1.00  0.00     0.102 A 
HETATM   13  C   UNL     1      -4.165  -0.286 -32.917  1.00  0.00     0.048 A 
BRANCH  10  14
HETATM   14  C   UNL     1      -8.067   0.363 -34.680  1.00  0.00     0.068 C 
BRANCH  14  15
HETATM   15  C   UNL     1      -9.064   0.824 -33.654  1.00  0.00    -0.032 C 
HETATM   16  C   UNL     1      -9.746   0.012 -32.835  1.00  0.00     0.007 C 
ENDBRANCH  14  15
ENDBRANCH  10  14
BRANCH  11  17
HETATM   17  O   UNL     1      -6.850  -2.220 -34.498  1.00  0.00    -0.357 OA
HETATM   18  H   UNL     1      -6.220  -2.827 -34.926  1.00  0.00     0.218 HD
ENDBRANCH  11  17
BRANCH  12  19
HETATM   19  O   UNL     1      -4.295  -2.594 -33.449  1.00  0.00    -0.353 OA
HETATM   20  C   UNL     1      -3.421  -2.707 -32.319  1.00  0.00     0.210 C 
ENDBRANCH  12  19
ENDBRANCH   7   8
ENDBRANCH   1   7
BRANCH   4  21
HETATM   21  N   UNL     1      -2.871   5.287 -30.782  1.00  0.00    -0.337 N 
HETATM   22  C   UNL     1      -2.294   6.298 -30.026  1.00  0.00     0.321 C 
HETATM   23  N   UNL     1      -1.086   5.908 -29.503  1.00  0.00    -0.309 N 
HETATM   24  O   UNL     1      -2.840   7.385 -29.913  1.00  0.00    -0.247 OA
HETATM   25  H   UNL     1      -0.744   4.994 -29.761  1.00  0.00     0.170 HD
HETATM   26  H   UNL     1      -2.648   4.372 -30.407  1.00  0.00     0.164 HD
BRANCH  23  27
HETATM   27  C   UNL     1      -0.242   6.655 -28.652  1.00  0.00     0.036 A 
HETATM   28  C   UNL     1       0.603   7.680 -29.092  1.00  0.00     0.032 A 
HETATM   29  C   UNL     1       1.404   8.378 -28.182  1.00  0.00     0.044 A 
HETATM   30  C   UNL     1       1.357   8.055 -26.833  1.00  0.00     0.116 A 
HETATM   31  F   UNL     1       2.123   8.727 -25.965  1.00  0.00    -0.206 F 
HETATM   32  C   UNL     1       0.524   7.045 -26.374  1.00  0.00     0.044 A 
HETATM   33  C   UNL     1      -0.274   6.344 -27.283  1.00  0.00     0.032 A 
ENDBRANCH  23  27
ENDBRANCH   4  21
TORSDOF 8
ENDMDL
MODEL 4
REMARK VINA RESULT:      -8.4      2.165      2.975
REMARK  8 active torsions:
REMARK  status: ('A' for Active; 'I' for Inactive)
REMARK    1  A    between atoms: O_2  and  C_3 
REMARK    2  A    between atoms: C_4  and  O_5 
REMARK    3  A    between atoms: C_6  and  C_7 
REMARK    4  A    between atoms: C_7  and  C_8 
REMARK    5  A    between atoms: C_11  and  C_12 
REMARK    6  A    between atoms: C_12  and  N_13 
REMARK    7  A    between atoms: C_16  and  N_17 
REMARK       I    between atoms: N_17  and  C_18 
REMARK       I    between atoms: C_18  and  N_19 
REMARK    8  A    between atoms: N_19  and  C_20 
ROOT
HETATM    1  N   UNL     1      -7.501   4.292 -33.128  1.00  0.00    -0.065 N 
HETATM    2  H   UNL     1      -7.660   5.149 -32.582  1.00  0.00     0.280 HD
HETATM    3  C   UNL     1      -7.416   3.135 -32.143  1.00  0.00     0.260 C 
HETATM    4  C   UNL     1      -8.330   2.045 -32.734  1.00  0.00     0.113 C 
HETATM    5  C   UNL     1      -9.450   2.892 -33.321  1.00  0.00     0.054 C 
HETATM    6  C   UNL     1      -8.717   4.044 -33.991  1.00  0.00     0.237 C 
ENDROOT
BRANCH   1   7
HETATM    7  C   UNL     1      -6.225   4.520 -33.900  1.00  0.00     0.273 C 
BRANCH   7   8
HETATM    8  C   UNL     1      -5.021   4.461 -32.996  1.00  0.00    -0.029 A 
HETATM    9  C   UNL     1      -4.366   5.650 -32.622  1.00  0.00     0.019 A 
HETATM   10  C   UNL     1      -3.188   5.628 -31.854  1.00  0.00    -0.018 A 
HETATM   11  C   UNL     1      -2.658   4.389 -31.487  1.00  0.00     0.105 A 
HETATM   12  C   UNL     1      -3.326   3.207 -31.810  1.00  0.00     0.102 A 
HETATM   13  C   UNL     1      -4.491   3.235 -32.575  1.00  0.00     0.048 A 
BRANCH  10  14
HETATM   14  C   UNL     1      -2.500   6.925 -31.494  1.00  0.00     0.068 C 
BRANCH  14  15
HETATM   15  C   UNL     1      -1.889   7.594 -32.693  1.00  0.00    -0.032 C 
HETATM   16  C   UNL     1      -0.991   7.025 -33.508  1.00  0.00     0.007 C 
ENDBRANCH  14  15
ENDBRANCH  10  14
BRANCH  11  17
HETATM   17  O   UNL     1      -1.459   4.343 -30.835  1.00  0.00    -0.357 OA
HETATM   18  H   UNL     1      -1.466   3.544 -30.276  1.00  0.00     0.218 HD
ENDBRANCH  11  17
BRANCH  12  19
HETATM   19  O   UNL     1      -2.813   1.987 -31.456  1.00  0.00    -0.353 OA
HETATM   20  C   UNL     1      -3.624   0.928 -31.982  1.00  0.00     0.210 C 
ENDBRANCH  12  19
ENDBRANCH   7   8
ENDBRANCH   1   7
BRANCH   4  21
HETATM   21  N   UNL     1      -7.726   1.199 -33.769  1.00  0.00    -0.337 N 
HETATM   22  C   UNL     1      -7.147  -0.005 -33.393  1.00  0.00     0.321 C 
HETATM   23  N   UNL     1      -6.831  -0.774 -34.485  1.00  0.00    -0.309 N 
HETATM   24  O   UNL     1      -6.948  -0.263 -32.216  1.00  0.00    -0.247 OA
HETATM   25  H   UNL     1      -6.995  -0.373 -35.397  1.00  0.00     0.170 HD
HETATM   26  H   UNL     1      -8.283   1.094 -34.610  1.00  0.00     0.164 HD
BRANCH  23  27
HETATM   27  C   UNL     1      -6.272  -2.072 -34.484  1.00  0.00     0.036 A 
HETATM   28  C   UNL     1      -6.999  -3.236 -34.755  1.00  0.00     0.032 A 
HETATM   29  C   UNL     1      -6.369  -4.485 -34.741  1.00  0.00     0.044 A 
HETATM   30  C   UNL     1      -5.012  -4.569 -34.459  1.00  0.00     0.116 A 
HETATM   31  F   UNL     1      -4.411  -5.766 -34.449  1.00  0.00    -0.206 F 
HETATM   32  C   UNL     1      -4.272  -3.427 -34.191  1.00  0.00     0.044 A 
HETATM   33  C   UNL     1      -4.901  -2.179 -34.201  1.00  0.00     0.032 A 
ENDBRANCH  23  27
ENDBRANCH   4  21
TORSDOF 8
ENDMDL
MODEL 5
REMARK VINA RESULT:      -8.4      3.483      8.418
REMARK  8 active torsions:
REMARK  status: ('A' for Active; 'I' for Inactive)
REMARK    1  A    between atoms: O_2  and  C_3 
REMARK    2  A    between atoms: C_4  and  O_5 
REMARK    3  A    between atoms: C_6  and  C_7 
REMARK    4  A    between atoms: C_7  and  C_8 
REMARK    5  A    between atoms: C_11  and  C_12 
REMARK    6  A    between atoms: C_12  and  N_13 
REMARK    7  A    between atoms: C_16  and  N_17 
REMARK       I    between atoms: N_17  and  C_18 
REMARK       I    between atoms: C_18  and  N_19 
REMARK    8  A    between atoms: N_19  and  C_20 
ROOT
HETATM    1  N   UNL     1      -9.521   1.656 -32.861  1.00  0.00    -0.065 N 
HETATM    2  H   UNL     1     -10.346   1.175 -33.242  1.00  0.00     0.280 HD
HETATM    3  C   UNL     1      -8.581   1.935 -34.024  1.00  0.00     0.260 C 
HETATM    4  C   UNL     1      -8.172   3.411 -33.858  1.00  0.00     0.113 C 
HETATM    5  C   UNL     1      -9.470   4.015 -33.341  1.00  0.00     0.054 C 
HETATM    6  C   UNL     1      -9.959   2.999 -32.320  1.00  0.00     0.237 C 
ENDROOT
BRANCH   1   7
HETATM    7  C   UNL     1      -8.938   0.728 -31.824  1.00  0.00     0.273 C 
BRANCH   7   8
HETATM    8  C   UNL     1      -7.611   0.172 -32.272  1.00  0.00    -0.029 A 
HETATM    9  C   UNL     1      -7.545  -0.645 -33.416  1.00  0.00     0.019 A 
HETATM   10  C   UNL     1      -6.340  -1.255 -33.812  1.00  0.00    -0.018 A 
HETATM   11  C   UNL     1      -5.204  -1.052 -33.026  1.00  0.00     0.105 A 
HETATM   12  C   UNL     1      -5.248  -0.204 -31.919  1.00  0.00     0.102 A 
HETATM   13  C   UNL     1      -6.445   0.393 -31.528  1.00  0.00     0.048 A 
BRANCH  10  14
HETATM   14  C   UNL     1      -6.314  -2.147 -35.033  1.00  0.00     0.068 C 
BRANCH  14  15
HETATM   15  C   UNL     1      -6.776  -3.544 -34.723  1.00  0.00    -0.032 C 
HETATM   16  C   UNL     1      -6.417  -4.634 -35.414  1.00  0.00     0.007 C 
ENDBRANCH  14  15
ENDBRANCH  10  14
BRANCH  11  17
HETATM   17  O   UNL     1      -4.053  -1.721 -33.332  1.00  0.00    -0.357 OA
HETATM   18  H   UNL     1      -4.037  -2.530 -32.789  1.00  0.00     0.218 HD
ENDBRANCH  11  17
BRANCH  12  19
HETATM   19  O   UNL     1      -4.139  -0.002 -31.140  1.00  0.00    -0.353 OA
HETATM   20  C   UNL     1      -3.632   1.326 -31.321  1.00  0.00     0.210 C 
ENDBRANCH  12  19
ENDBRANCH   7   8
ENDBRANCH   1   7
BRANCH   4  21
HETATM   21  N   UNL     1      -7.074   3.666 -32.918  1.00  0.00    -0.337 N 
HETATM   22  C   UNL     1      -5.890   4.200 -33.405  1.00  0.00     0.321 C 
HETATM   23  N   UNL     1      -5.054   4.585 -32.386  1.00  0.00    -0.309 N 
HETATM   24  O   UNL     1      -5.676   4.259 -34.607  1.00  0.00    -0.247 OA
HETATM   25  H   UNL     1      -5.357   4.393 -31.442  1.00  0.00     0.170 HD
HETATM   26  H   UNL     1      -7.352   4.113 -32.052  1.00  0.00     0.164 HD
BRANCH  23  27
HETATM   27  C   UNL     1      -3.791   5.206 -32.504  1.00  0.00     0.036 A 
HETATM   28  C   UNL     1      -2.610   4.522 -32.813  1.00  0.00     0.032 A 
HETATM   29  C   UNL     1      -1.398   5.213 -32.919  1.00  0.00     0.044 A 
HETATM   30  C   UNL     1      -1.368   6.586 -32.720  1.00  0.00     0.116 A 
HETATM   31  F   UNL     1      -0.207   7.245 -32.824  1.00  0.00    -0.206 F 
HETATM   32  C   UNL     1      -2.527   7.284 -32.415  1.00  0.00     0.044 A 
HETATM   33  C   UNL     1      -3.738   6.594 -32.305  1.00  0.00     0.032 A 
ENDBRANCH  23  27
ENDBRANCH   4  21
TORSDOF 8
ENDMDL
MODEL 6
REMARK VINA RESULT:      -8.3      4.151      9.754
REMARK  8 active torsions:
REMARK  status: ('A' for Active; 'I' for Inactive)
REMARK    1  A    between atoms: O_2  and  C_3 
REMARK    2  A    between atoms: C_4  and  O_5 
REMARK    3  A    between atoms: C_6  and  C_7 
REMARK    4  A    between atoms: C_7  and  C_8 
REMARK    5  A    between atoms: C_11  and  C_12 
REMARK    6  A    between atoms: C_12  and  N_13 
REMARK    7  A    between atoms: C_16  and  N_17 
REMARK       I    between atoms: N_17  and  C_18 
REMARK       I    between atoms: C_18  and  N_19 
REMARK    8  A    between atoms: N_19  and  C_20 
ROOT
HETATM    1  N   UNL     1      -4.155   3.720 -32.777  1.00  0.00    -0.065 N 
HETATM    2  H   UNL     1      -4.561   3.366 -33.653  1.00  0.00     0.280 HD
HETATM    3  C   UNL     1      -2.646   3.769 -32.963  1.00  0.00     0.260 C 
HETATM    4  C   UNL     1      -2.228   5.160 -32.450  1.00  0.00     0.113 C 
HETATM    5  C   UNL     1      -3.408   6.005 -32.911  1.00  0.00     0.054 C 
HETATM    6  C   UNL     1      -4.618   5.146 -32.579  1.00  0.00     0.237 C 
ENDROOT
BRANCH   1   7
HETATM    7  C   UNL     1      -4.599   2.765 -31.696  1.00  0.00     0.273 C 
BRANCH   7   8
HETATM    8  C   UNL     1      -5.264   1.547 -32.283  1.00  0.00    -0.029 A 
HETATM    9  C   UNL     1      -4.479   0.478 -32.754  1.00  0.00     0.019 A 
HETATM   10  C   UNL     1      -5.060  -0.634 -33.389  1.00  0.00    -0.018 A 
HETATM   11  C   UNL     1      -6.445  -0.647 -33.569  1.00  0.00     0.105 A 
HETATM   12  C   UNL     1      -7.237   0.383 -33.061  1.00  0.00     0.102 A 
HETATM   13  C   UNL     1      -6.655   1.486 -32.437  1.00  0.00     0.048 A 
BRANCH  10  14
HETATM   14  C   UNL     1      -4.181  -1.751 -33.904  1.00  0.00     0.068 C 
BRANCH  14  15
HETATM   15  C   UNL     1      -3.969  -2.825 -32.874  1.00  0.00    -0.032 C 
HETATM   16  C   UNL     1      -3.050  -2.775 -31.900  1.00  0.00     0.007 C 
ENDBRANCH  14  15
ENDBRANCH  10  14
BRANCH  11  17
HETATM   17  O   UNL     1      -7.016  -1.666 -34.277  1.00  0.00    -0.357 OA
HETATM   18  H   UNL     1      -6.294  -2.245 -34.581  1.00  0.00     0.218 HD
ENDBRANCH  11  17
BRANCH  12  19
HETATM   19  O   UNL     1      -8.596   0.381 -33.235  1.00  0.00    -0.353 OA
HETATM   20  C   UNL     1      -9.266   0.378 -31.968  1.00  0.00     0.210 C 
ENDBRANCH  12  19
ENDBRANCH   7   8
ENDBRANCH   1   7
BRANCH   4  21
HETATM   21  N   UNL     1      -2.047   5.276 -30.999  1.00  0.00    -0.337 N 
HETATM   22  C   UNL     1      -0.942   5.965 -30.518  1.00  0.00     0.321 C 
HETATM   23  N   UNL     1      -1.031   6.177 -29.164  1.00  0.00    -0.309 N 
HETATM   24  O   UNL     1      -0.028   6.282 -31.264  1.00  0.00    -0.247 OA
HETATM   25  H   UNL     1      -1.824   5.777 -28.685  1.00  0.00     0.170 HD
HETATM   26  H   UNL     1      -2.886   5.518 -30.484  1.00  0.00     0.164 HD
BRANCH  23  27
HETATM   27  C   UNL     1      -0.117   6.878 -28.347  1.00  0.00     0.036 A 
HETATM   28  C   UNL     1       0.719   7.900 -28.809  1.00  0.00     0.032 A 
HETATM   29  C   UNL     1       1.593   8.551 -27.932  1.00  0.00     0.044 A 
HETATM   30  C   UNL     1       1.627   8.185 -26.594  1.00  0.00     0.116 A 
HETATM   31  F   UNL     1       2.463   8.812 -25.756  1.00  0.00    -0.206 F 
HETATM   32  C   UNL     1       0.804   7.176 -26.114  1.00  0.00     0.044 A 
HETATM   33  C   UNL     1      -0.066   6.522 -26.990  1.00  0.00     0.032 A 
ENDBRANCH  23  27
ENDBRANCH   4  21
TORSDOF 8
ENDMDL
MODEL 7
REMARK VINA RESULT:      -8.3      2.312      3.290
REMARK  8 active torsions:
REMARK  status: ('A' for Active; 'I' for Inactive)
REMARK    1  A    between atoms: O_2  and  C_3 
REMARK    2  A    between atoms: C_4  and  O_5 
REMARK    3  A    between atoms: C_6  and  C_7 
REMARK    4  A    between atoms: C_7  and  C_8 
REMARK    5  A    between atoms: C_11  and  C_12 
REMARK    6  A    between atoms: C_12  and  N_13 
REMARK    7  A    between atoms: C_16  and  N_17 
REMARK       I    between atoms: N_17  and  C_18 
REMARK       I    between atoms: C_18  and  N_19 
REMARK    8  A    between atoms: N_19  and  C_20 
ROOT
HETATM    1  N   UNL     1      -5.783   4.464 -30.542  1.00  0.00    -0.065 N 
HETATM    2  H   UNL     1      -5.837   5.160 -29.786  1.00  0.00     0.280 HD
HETATM    3  C   UNL     1      -5.500   3.115 -29.898  1.00  0.00     0.260 C 
HETATM    4  C   UNL     1      -6.506   2.146 -30.548  1.00  0.00     0.113 C 
HETATM    5  C   UNL     1      -7.725   3.048 -30.691  1.00  0.00     0.054 C 
HETATM    6  C   UNL     1      -7.144   4.362 -31.192  1.00  0.00     0.237 C 
ENDROOT
BRANCH   1   7
HETATM    7  C   UNL     1      -4.686   4.933 -31.464  1.00  0.00     0.273 C 
BRANCH   7   8
HETATM    8  C   UNL     1      -3.693   5.801 -30.735  1.00  0.00    -0.029 A 
HETATM    9  C   UNL     1      -2.374   5.911 -31.213  1.00  0.00     0.019 A 
HETATM   10  C   UNL     1      -1.397   6.638 -30.510  1.00  0.00    -0.018 A 
HETATM   11  C   UNL     1      -1.757   7.237 -29.301  1.00  0.00     0.105 A 
HETATM   12  C   UNL     1      -3.074   7.176 -28.843  1.00  0.00     0.102 A 
HETATM   13  C   UNL     1      -4.037   6.450 -29.542  1.00  0.00     0.048 A 
BRANCH  10  14
HETATM   14  C   UNL     1       0.016   6.712 -31.043  1.00  0.00     0.068 C 
BRANCH  14  15
HETATM   15  C   UNL     1       0.697   5.372 -31.028  1.00  0.00    -0.032 C 
HETATM   16  C   UNL     1       0.943   4.655 -29.923  1.00  0.00     0.007 C 
ENDBRANCH  14  15
ENDBRANCH  10  14
BRANCH  11  17
HETATM   17  O   UNL     1      -0.798   7.856 -28.550  1.00  0.00    -0.357 OA
HETATM   18  H   UNL     1       0.007   7.310 -28.607  1.00  0.00     0.218 HD
ENDBRANCH  11  17
BRANCH  12  19
HETATM   19  O   UNL     1      -3.437   7.757 -27.657  1.00  0.00    -0.353 OA
HETATM   20  C   UNL     1      -4.133   6.818 -26.828  1.00  0.00     0.210 C 
ENDBRANCH  12  19
ENDBRANCH   7   8
ENDBRANCH   1   7
BRANCH   4  21
HETATM   21  N   UNL     1      -6.113   1.599 -31.850  1.00  0.00    -0.337 N 
HETATM   22  C   UNL     1      -5.944   0.228 -31.974  1.00  0.00     0.321 C 
HETATM   23  N   UNL     1      -5.798  -0.146 -33.288  1.00  0.00    -0.309 N 
HETATM   24  O   UNL     1      -5.908  -0.491 -30.987  1.00  0.00    -0.247 OA
HETATM   25  H   UNL     1      -5.775   0.591 -33.978  1.00  0.00     0.170 HD
HETATM   26  H   UNL     1      -6.619   1.981 -32.642  1.00  0.00     0.164 HD
BRANCH  23  27
HETATM   27  C   UNL     1      -5.651  -1.457 -33.793  1.00  0.00     0.036 A 
HETATM   28  C   UNL     1      -4.433  -2.144 -33.841  1.00  0.00     0.032 A 
HETATM   29  C   UNL     1      -4.373  -3.445 -34.351  1.00  0.00     0.044 A 
HETATM   30  C   UNL     1      -5.530  -4.060 -34.808  1.00  0.00     0.116 A 
HETATM   31  F   UNL     1      -5.469  -5.307 -35.293  1.00  0.00    -0.206 F 
HETATM   32  C   UNL     1      -6.749  -3.399 -34.767  1.00  0.00     0.044 A 
HETATM   33  C   UNL     1      -6.809  -2.097 -34.261  1.00  0.00     0.032 A 
ENDBRANCH  23  27
ENDBRANCH   4  21
TORSDOF 8
ENDMDL
MODEL 8
REMARK VINA RESULT:      -8.3      1.800      2.381
REMARK  8 active torsions:
REMARK  status: ('A' for Active; 'I' for Inactive)
REMARK    1  A    between atoms: O_2  and  C_3 
REMARK    2  A    between atoms: C_4  and  O_5 
REMARK    3  A    between atoms: C_6  and  C_7 
REMARK    4  A    between atoms: C_7  and  C_8 
REMARK    5  A    between atoms: C_11  and  C_12 
REMARK    6  A    between atoms: C_12  and  N_13 
REMARK    7  A    between atoms: C_16  and  N_17 
REMARK       I    between atoms: N_17  and  C_18 
REMARK       I    between atoms: C_18  and  N_19 
REMARK    8  A    between atoms: N_19  and  C_20 
ROOT
HETATM    1  N   UNL     1      -6.294   4.747 -30.911  1.00  0.00    -0.065 N 
HETATM    2  H   UNL     1      -6.381   5.490 -30.205  1.00  0.00     0.280 HD
HETATM    3  C   UNL     1      -5.092   3.896 -30.530  1.00  0.00     0.260 C 
HETATM    4  C   UNL     1      -5.588   2.441 -30.633  1.00  0.00     0.113 C 
HETATM    5  C   UNL     1      -7.019   2.586 -30.135  1.00  0.00     0.054 C 
HETATM    6  C   UNL     1      -7.511   3.855 -30.816  1.00  0.00     0.237 C 
ENDROOT
BRANCH   1   7
HETATM    7  C   UNL     1      -6.139   5.448 -32.238  1.00  0.00     0.273 C 
BRANCH   7   8
HETATM    8  C   UNL     1      -4.842   6.214 -32.303  1.00  0.00    -0.029 A 
HETATM    9  C   UNL     1      -4.638   7.319 -31.455  1.00  0.00     0.019 A 
HETATM   10  C   UNL     1      -3.480   8.112 -31.550  1.00  0.00    -0.018 A 
HETATM   11  C   UNL     1      -2.537   7.794 -32.529  1.00  0.00     0.105 A 
HETATM   12  C   UNL     1      -2.706   6.672 -33.341  1.00  0.00     0.102 A 
HETATM   13  C   UNL     1      -3.858   5.893 -33.246  1.00  0.00     0.048 A 
BRANCH  10  14
HETATM   14  C   UNL     1      -3.308   9.305 -30.638  1.00  0.00     0.068 C 
BRANCH  14  15
HETATM   15  C   UNL     1      -2.837   8.907 -29.267  1.00  0.00    -0.032 C 
HETATM   16  C   UNL     1      -1.712   8.223 -29.017  1.00  0.00     0.007 C 
ENDBRANCH  14  15
ENDBRANCH  10  14
BRANCH  11  17
HETATM   17  O   UNL     1      -1.459   8.614 -32.709  1.00  0.00    -0.357 OA
HETATM   18  H   UNL     1      -1.503   9.302 -32.019  1.00  0.00     0.218 HD
ENDBRANCH  11  17
BRANCH  12  19
HETATM   19  O   UNL     1      -1.788   6.354 -34.307  1.00  0.00    -0.353 OA
HETATM   20  C   UNL     1      -2.029   5.037 -34.817  1.00  0.00     0.210 C 
ENDBRANCH  12  19
ENDBRANCH   7   8
ENDBRANCH   1   7
BRANCH   4  21
HETATM   21  N   UNL     1      -5.567   1.856 -31.978  1.00  0.00    -0.337 N 
HETATM   22  C   UNL     1      -5.382   0.486 -32.107  1.00  0.00     0.321 C 
HETATM   23  N   UNL     1      -5.608   0.066 -33.395  1.00  0.00    -0.309 N 
HETATM   24  O   UNL     1      -5.029  -0.190 -31.153  1.00  0.00    -0.247 OA
HETATM   25  H   UNL     1      -5.818   0.775 -34.082  1.00  0.00     0.170 HD
HETATM   26  H   UNL     1      -6.297   2.189 -32.598  1.00  0.00     0.164 HD
BRANCH  23  27
HETATM   27  C   UNL     1      -5.557  -1.258 -33.883  1.00  0.00     0.036 A 
HETATM   28  C   UNL     1      -4.375  -1.992 -34.030  1.00  0.00     0.032 A 
HETATM   29  C   UNL     1      -4.410  -3.304 -34.516  1.00  0.00     0.044 A 
HETATM   30  C   UNL     1      -5.627  -3.882 -34.849  1.00  0.00     0.116 A 
HETATM   31  F   UNL     1      -5.658  -5.139 -35.311  1.00  0.00    -0.206 F 
HETATM   32  C   UNL     1      -6.812  -3.174 -34.708  1.00  0.00     0.044 A 
HETATM   33  C   UNL     1      -6.777  -1.862 -34.227  1.00  0.00     0.032 A 
ENDBRANCH  23  27
ENDBRANCH   4  21
TORSDOF 8
ENDMDL
MODEL 9
REMARK VINA RESULT:      -8.2      4.611      9.600
REMARK  8 active torsions:
REMARK  status: ('A' for Active; 'I' for Inactive)
REMARK    1  A    between atoms: O_2  and  C_3 
REMARK    2  A    between atoms: C_4  and  O_5 
REMARK    3  A    between atoms: C_6  and  C_7 
REMARK    4  A    between atoms: C_7  and  C_8 
REMARK    5  A    between atoms: C_11  and  C_12 
REMARK    6  A    between atoms: C_12  and  N_13 
REMARK    7  A    between atoms: C_16  and  N_17 
REMARK       I    between atoms: N_17  and  C_18 
REMARK       I    between atoms: C_18  and  N_19 
REMARK    8  A    between atoms: N_19  and  C_20 
ROOT
HETATM    1  N   UNL     1      -5.609   4.118 -31.415  1.00  0.00    -0.065 N 
HETATM    2  H   UNL     1      -6.562   3.907 -31.736  1.00  0.00     0.280 HD
HETATM    3  C   UNL     1      -5.383   5.610 -31.610  1.00  0.00     0.260 C 
HETATM    4  C   UNL     1      -4.774   6.096 -30.281  1.00  0.00     0.113 C 
HETATM    5  C   UNL     1      -5.533   5.233 -29.282  1.00  0.00     0.054 C 
HETATM    6  C   UNL     1      -5.539   3.856 -29.927  1.00  0.00     0.237 C 
ENDROOT
BRANCH   1   7
HETATM    7  C   UNL     1      -4.688   3.256 -32.242  1.00  0.00     0.273 C 
BRANCH   7   8
HETATM    8  C   UNL     1      -5.300   1.905 -32.511  1.00  0.00    -0.029 A 
HETATM    9  C   UNL     1      -4.469   0.786 -32.708  1.00  0.00     0.019 A 
HETATM   10  C   UNL     1      -5.000  -0.471 -33.050  1.00  0.00    -0.018 A 
HETATM   11  C   UNL     1      -6.382  -0.584 -33.218  1.00  0.00     0.105 A 
HETATM   12  C   UNL     1      -7.218   0.507 -32.977  1.00  0.00     0.102 A 
HETATM   13  C   UNL     1      -6.686   1.751 -32.643  1.00  0.00     0.048 A 
BRANCH  10  14
HETATM   14  C   UNL     1      -4.073  -1.643 -33.278  1.00  0.00     0.068 C 
BRANCH  14  15
HETATM   15  C   UNL     1      -3.565  -2.222 -31.986  1.00  0.00    -0.032 C 
HETATM   16  C   UNL     1      -2.891  -3.375 -31.882  1.00  0.00     0.007 C 
ENDBRANCH  14  15
ENDBRANCH  10  14
BRANCH  11  17
HETATM   17  O   UNL     1      -6.906  -1.767 -33.655  1.00  0.00    -0.357 OA
HETATM   18  H   UNL     1      -7.827  -1.808 -33.339  1.00  0.00     0.218 HD
ENDBRANCH  11  17
BRANCH  12  19
HETATM   19  O   UNL     1      -8.575   0.406 -33.143  1.00  0.00    -0.353 OA
HETATM   20  C   UNL     1      -8.978   1.019 -34.374  1.00  0.00     0.210 C 
ENDBRANCH  12  19
ENDBRANCH   7   8
ENDBRANCH   1   7
BRANCH   4  21
HETATM   21  N   UNL     1      -3.328   5.903 -30.135  1.00  0.00    -0.337 N 
HETATM   22  C   UNL     1      -2.621   6.759 -29.301  1.00  0.00     0.321 C 
HETATM   23  N   UNL     1      -1.337   6.317 -29.097  1.00  0.00    -0.309 N 
HETATM   24  O   UNL     1      -3.137   7.777 -28.867  1.00  0.00    -0.247 OA
HETATM   25  H   UNL     1      -1.048   5.490 -29.598  1.00  0.00     0.170 HD
HETATM   26  H   UNL     1      -3.038   4.940 -30.005  1.00  0.00     0.164 HD
BRANCH  23  27
HETATM   27  C   UNL     1      -0.351   6.906 -28.275  1.00  0.00     0.036 A 
HETATM   28  C   UNL     1      -0.153   6.573 -26.931  1.00  0.00     0.032 A 
HETATM   29  C   UNL     1       0.851   7.199 -26.186  1.00  0.00     0.044 A 
HETATM   30  C   UNL     1       1.661   8.154 -26.786  1.00  0.00     0.116 A 
HETATM   31  F   UNL     1       2.624   8.750 -26.071  1.00  0.00    -0.206 F 
HETATM   32  C   UNL     1       1.485   8.497 -28.119  1.00  0.00     0.044 A 
HETATM   33  C   UNL     1       0.478   7.875 -28.862  1.00  0.00     0.032 A 
ENDBRANCH  23  27
ENDBRANCH   4  21
TORSDOF 8
ENDMDL
MODEL 10
REMARK VINA RESULT:      -8.1      2.173      3.579
REMARK  8 active torsions:
REMARK  status: ('A' for Active; 'I' for Inactive)
REMARK    1  A    between atoms: O_2  and  C_3 
REMARK    2  A    between atoms: C_4  and  O_5 
REMARK    3  A    between atoms: C_6  and  C_7 
REMARK    4  A    between atoms: C_7  and  C_8 
REMARK    5  A    between atoms: C_11  and  C_12 
REMARK    6  A    between atoms: C_12  and  N_13 
REMARK    7  A    between atoms: C_16  and  N_17 
REMARK       I    between atoms: N_17  and  C_18 
REMARK       I    between atoms: C_18  and  N_19 
REMARK    8  A    between atoms: N_19  and  C_20 
ROOT
HETATM    1  N   UNL     1      -7.734   4.679 -31.107  1.00  0.00    -0.065 N 
HETATM    2  H   UNL     1      -8.098   5.392 -30.461  1.00  0.00     0.280 HD
HETATM    3  C   UNL     1      -6.916   3.696 -30.284  1.00  0.00     0.260 C 
HETATM    4  C   UNL     1      -7.396   2.304 -30.737  1.00  0.00     0.113 C 
HETATM    5  C   UNL     1      -8.879   2.567 -30.957  1.00  0.00     0.054 C 
HETATM    6  C   UNL     1      -8.906   3.908 -31.673  1.00  0.00     0.237 C 
ENDROOT
BRANCH   1   7
HETATM    7  C   UNL     1      -6.923   5.424 -32.138  1.00  0.00     0.273 C 
BRANCH   7   8
HETATM    8  C   UNL     1      -5.526   5.696 -31.642  1.00  0.00    -0.029 A 
HETATM    9  C   UNL     1      -4.430   5.053 -32.249  1.00  0.00     0.019 A 
HETATM   10  C   UNL     1      -3.123   5.212 -31.755  1.00  0.00    -0.018 A 
HETATM   11  C   UNL     1      -2.932   6.007 -30.623  1.00  0.00     0.105 A 
HETATM   12  C   UNL     1      -4.004   6.688 -30.045  1.00  0.00     0.102 A 
HETATM   13  C   UNL     1      -5.299   6.523 -30.535  1.00  0.00     0.048 A 
BRANCH  10  14
HETATM   14  C   UNL     1      -1.974   4.486 -32.419  1.00  0.00     0.068 C 
BRANCH  14  15
HETATM   15  C   UNL     1      -2.043   4.570 -33.918  1.00  0.00    -0.032 C 
HETATM   16  C   UNL     1      -1.384   5.470 -34.661  1.00  0.00     0.007 C 
ENDBRANCH  14  15
ENDBRANCH  10  14
BRANCH  11  17
HETATM   17  O   UNL     1      -1.688   6.087 -30.066  1.00  0.00    -0.357 OA
HETATM   18  H   UNL     1      -1.602   6.978 -29.681  1.00  0.00     0.218 HD
ENDBRANCH  11  17
BRANCH  12  19
HETATM   19  O   UNL     1      -3.828   7.468 -28.932  1.00  0.00    -0.353 OA
HETATM   20  C   UNL     1      -4.430   6.854 -27.786  1.00  0.00     0.210 C 
ENDBRANCH  12  19
ENDBRANCH   7   8
ENDBRANCH   1   7
BRANCH   4  21
HETATM   21  N   UNL     1      -6.777   1.784 -31.962  1.00  0.00    -0.337 N 
HETATM   22  C   UNL     1      -6.538   0.421 -32.062  1.00  0.00     0.321 C 
HETATM   23  N   UNL     1      -6.169   0.066 -33.336  1.00  0.00    -0.309 N 
HETATM   24  O   UNL     1      -6.635  -0.305 -31.084  1.00  0.00    -0.247 OA
HETATM   25  H   UNL     1      -6.062   0.810 -34.010  1.00  0.00     0.170 HD
HETATM   26  H   UNL     1      -7.163   2.155 -32.823  1.00  0.00     0.164 HD
BRANCH  23  27
HETATM   27  C   UNL     1      -5.893  -1.233 -33.815  1.00  0.00     0.036 A 
HETATM   28  C   UNL     1      -4.608  -1.783 -33.889  1.00  0.00     0.032 A 
HETATM   29  C   UNL     1      -4.419  -3.082 -34.371  1.00  0.00     0.044 A 
HETATM   30  C   UNL     1      -5.515  -3.834 -34.774  1.00  0.00     0.116 A 
HETATM   31  F   UNL     1      -5.331  -5.079 -35.232  1.00  0.00    -0.206 F 
HETATM   32  C   UNL     1      -6.798  -3.310 -34.706  1.00  0.00     0.044 A 
HETATM   33  C   UNL     1      -6.987  -2.010 -34.229  1.00  0.00     0.032 A 
ENDBRANCH  23  27
ENDBRANCH   4  21
TORSDOF 8
ENDMDL
