MODEL 1
REMARK VINA RESULT:      -9.4      0.000      0.000
REMARK  7 active torsions:
REMARK  status: ('A' for Active; 'I' for Inactive)
REMARK    1  A    between atoms: C_2  and  N_3 
REMARK    2  A    between atoms: C_2  and  C_10 
REMARK    3  A    between atoms: N_11  and  C_12 
REMARK    4  A    between atoms: C_19  and  S_20 
REMARK    5  A    between atoms: S_20  and  C_21 
REMARK    6  A    between atoms: C_21  and  C_22 
REMARK    7  A    between atoms: C_21  and  C_28 
REMARK       I    between atoms: C_22  and  N_23 
REMARK       I    between atoms: N_23  and  C_24 
REMARK       I    between atoms: C_24  and  N_25 
ROOT
HETATM    1  C   UNL     1      -4.968   4.995 -30.381  1.00  0.00     0.166 A 
HETATM    2  N   UNL     1      -4.379   4.139 -31.310  1.00  0.00    -0.274 N 
HETATM    3  C   UNL     1      -4.851   2.884 -30.951  1.00  0.00     0.197 A 
HETATM    4  N   UNL     1      -5.741   3.009 -29.995  1.00  0.00    -0.122 NA
HETATM    5  N   UNL     1      -5.835   4.322 -29.655  1.00  0.00    -0.131 NA
ENDROOT
BRANCH   3   6
HETATM    6  S   UNL     1      -4.395   1.402 -31.718  1.00  0.00    -0.070 SA
BRANCH   6   7
HETATM    7  C   UNL     1      -5.977   0.603 -32.202  1.00  0.00     0.180 C 
BRANCH   7   8
HETATM    8  C   UNL     1      -6.881   0.358 -30.978  1.00  0.00     0.244 C 
HETATM    9  N   UNL     1      -8.142   0.924 -30.950  1.00  0.00    -0.278 N 
HETATM   10  C   UNL     1      -8.649   1.946 -31.711  1.00  0.00     0.320 C 
HETATM   11  H   UNL     1      -8.664   0.677 -30.125  1.00  0.00     0.173 HD
HETATM   12  N   UNL     1      -9.910   2.305 -31.348  1.00  0.00    -0.352 N 
HETATM   13  O   UNL     1      -8.102   2.490 -32.657  1.00  0.00    -0.247 OA
HETATM   14  H   UNL     1     -10.197   2.267 -30.380  1.00  0.00     0.160 HD
HETATM   15  H   UNL     1     -10.275   3.097 -31.865  1.00  0.00     0.160 HD
HETATM   16  O   UNL     1      -6.539  -0.295 -29.985  1.00  0.00    -0.271 OA
ENDBRANCH   7   8
BRANCH   7  17
HETATM   17  C   UNL     1      -5.790  -0.589 -33.131  1.00  0.00    -0.035 A 
HETATM   18  C   UNL     1      -6.897  -1.093 -33.838  1.00  0.00     0.009 A 
HETATM   19  C   UNL     1      -6.764  -2.188 -34.695  1.00  0.00     0.001 A 
HETATM   20  C   UNL     1      -5.525  -2.798 -34.862  1.00  0.00     0.000 A 
HETATM   21  C   UNL     1      -4.417  -2.315 -34.172  1.00  0.00     0.001 A 
HETATM   22  C   UNL     1      -4.547  -1.221 -33.313  1.00  0.00     0.009 A 
ENDBRANCH   7  17
ENDBRANCH   6   7
ENDBRANCH   3   6
BRANCH   2  23
HETATM   23  C   UNL     1      -3.476   4.507 -32.341  1.00  0.00     0.043 A 
HETATM   24  C   UNL     1      -3.939   4.812 -33.629  1.00  0.00     0.033 A 
HETATM   25  C   UNL     1      -3.029   5.175 -34.626  1.00  0.00     0.044 A 
HETATM   26  C   UNL     1      -1.671   5.233 -34.336  1.00  0.00     0.116 A 
HETATM   27  F   UNL     1      -0.804   5.581 -35.293  1.00  0.00    -0.206 F 
HETATM   28  C   UNL     1      -1.201   4.937 -33.061  1.00  0.00     0.044 A 
HETATM   29  C   UNL     1      -2.102   4.575 -32.058  1.00  0.00     0.033 A 
ENDBRANCH   2  23
BRANCH   1  30
HETATM   30  C   UNL     1      -4.560   6.407 -30.096  1.00  0.00     0.255 C 
HETATM   31  C   UNL     1      -5.751   7.257 -29.644  1.00  0.00     0.049 C 
BRANCH  30  32
HETATM   32  N   UNL     1      -3.427   6.541 -29.046  1.00  0.00    -0.060 N 
HETATM   33  H   UNL     1      -3.156   5.579 -28.814  1.00  0.00     0.280 HD
HETATM   34  C   UNL     1      -2.166   7.238 -29.535  1.00  0.00     0.236 C 
HETATM   35  C   UNL     1      -1.076   7.074 -28.481  1.00  0.00     0.028 C 
HETATM   36  C   UNL     1      -1.515   7.640 -27.135  1.00  0.00     0.003 C 
HETATM   37  C   UNL     1      -2.845   7.043 -26.689  1.00  0.00     0.028 C 
HETATM   38  C   UNL     1      -3.919   7.178 -27.763  1.00  0.00     0.236 C 
ENDBRANCH  30  32
ENDBRANCH   1  30
TORSDOF 7
ENDMDL
MODEL 2
REMARK VINA RESULT:      -9.2      2.969      4.569
REMARK  7 active torsions:
REMARK  status: ('A' for Active; 'I' for Inactive)
REMARK    1  A    between atoms: C_2  and  N_3 
REMARK    2  A    between atoms: C_2  and  C_10 
REMARK    3  A    between atoms: N_11  and  C_12 
REMARK    4  A    between atoms: C_19  and  S_20 
REMARK    5  A    between atoms: S_20  and  C_21 
REMARK    6  A    between atoms: C_21  and  C_22 
REMARK    7  A    between atoms: C_21  and  C_28 
REMARK       I    between atoms: C_22  and  N_23 
REMARK       I    between atoms: N_23  and  C_24 
REMARK       I    between atoms: C_24  and  N_25 
ROOT
HETATM    1  C   UNL     1      -6.777   4.996 -31.666  1.00  0.00     0.166 A 
HETATM    2  N   UNL     1      -7.119   3.645 -31.638  1.00  0.00    -0.274 N 
HETATM    3  C   UNL     1      -8.502   3.650 -31.750  1.00  0.00     0.197 A 
HETATM    4  N   UNL     1      -8.918   4.875 -31.966  1.00  0.00    -0.122 NA
HETATM    5  N   UNL     1      -7.847   5.711 -31.940  1.00  0.00    -0.131 NA
ENDROOT
BRANCH   3   6
HETATM    6  S   UNL     1      -9.500   2.238 -31.702  1.00  0.00    -0.070 SA
BRANCH   6   7
HETATM    7  C   UNL     1      -9.579   1.644 -33.439  1.00  0.00     0.180 C 
BRANCH   7   8
HETATM    8  C   UNL     1     -11.007   1.207 -33.820  1.00  0.00     0.244 C 
HETATM    9  N   UNL     1     -11.713   1.952 -34.746  1.00  0.00    -0.278 N 
HETATM   10  C   UNL     1     -11.479   3.228 -35.190  1.00  0.00     0.320 C 
HETATM   11  H   UNL     1     -12.620   1.565 -34.949  1.00  0.00     0.173 HD
HETATM   12  N   UNL     1     -12.437   3.678 -36.045  1.00  0.00    -0.352 N 
HETATM   13  O   UNL     1     -10.513   3.926 -34.925  1.00  0.00    -0.247 OA
HETATM   14  H   UNL     1     -13.402   3.402 -35.926  1.00  0.00     0.160 HD
HETATM   15  H   UNL     1     -12.306   4.641 -36.336  1.00  0.00     0.160 HD
HETATM   16  O   UNL     1     -11.588   0.236 -33.322  1.00  0.00    -0.271 OA
ENDBRANCH   7   8
BRANCH   7  17
HETATM   17  C   UNL     1      -8.472   0.658 -33.790  1.00  0.00    -0.035 A 
HETATM   18  C   UNL     1      -7.827   0.760 -35.036  1.00  0.00     0.009 A 
HETATM   19  C   UNL     1      -6.812  -0.131 -35.394  1.00  0.00     0.001 A 
HETATM   20  C   UNL     1      -6.423  -1.136 -34.515  1.00  0.00     0.000 A 
HETATM   21  C   UNL     1      -7.049  -1.254 -33.277  1.00  0.00     0.001 A 
HETATM   22  C   UNL     1      -8.065  -0.365 -32.917  1.00  0.00     0.009 A 
ENDBRANCH   7  17
ENDBRANCH   6   7
ENDBRANCH   3   6
BRANCH   2  23
HETATM   23  C   UNL     1      -6.225   2.553 -31.485  1.00  0.00     0.043 A 
HETATM   24  C   UNL     1      -5.332   2.204 -32.507  1.00  0.00     0.033 A 
HETATM   25  C   UNL     1      -4.460   1.126 -32.330  1.00  0.00     0.044 A 
HETATM   26  C   UNL     1      -4.482   0.407 -31.140  1.00  0.00     0.116 A 
HETATM   27  F   UNL     1      -3.645  -0.624 -30.975  1.00  0.00    -0.206 F 
HETATM   28  C   UNL     1      -5.359   0.747 -30.118  1.00  0.00     0.044 A 
HETATM   29  C   UNL     1      -6.233   1.823 -30.285  1.00  0.00     0.033 A 
ENDBRANCH   2  23
BRANCH   1  30
HETATM   30  C   UNL     1      -5.462   5.586 -31.260  1.00  0.00     0.255 C 
HETATM   31  C   UNL     1      -5.138   5.284 -29.794  1.00  0.00     0.049 C 
BRANCH  30  32
HETATM   32  N   UNL     1      -4.265   5.135 -32.137  1.00  0.00    -0.060 N 
HETATM   33  H   UNL     1      -4.443   4.146 -32.351  1.00  0.00     0.280 HD
HETATM   34  C   UNL     1      -4.133   5.848 -33.474  1.00  0.00     0.236 C 
HETATM   35  C   UNL     1      -3.076   5.133 -34.309  1.00  0.00     0.028 C 
HETATM   36  C   UNL     1      -1.733   5.092 -33.586  1.00  0.00     0.003 C 
HETATM   37  C   UNL     1      -1.872   4.494 -32.191  1.00  0.00     0.028 C 
HETATM   38  C   UNL     1      -2.956   5.190 -31.377  1.00  0.00     0.236 C 
ENDBRANCH  30  32
ENDBRANCH   1  30
TORSDOF 7
ENDMDL
MODEL 3
REMARK VINA RESULT:      -9.1      2.614      7.510
REMARK  7 active torsions:
REMARK  status: ('A' for Active; 'I' for Inactive)
REMARK    1  A    between atoms: C_2  and  N_3 
REMARK    2  A    between atoms: C_2  and  C_10 
REMARK    3  A    between atoms: N_11  and  C_12 
REMARK    4  A    between atoms: C_19  and  S_20 
REMARK    5  A    between atoms: S_20  and  C_21 
REMARK    6  A    between atoms: C_21  and  C_22 
REMARK    7  A    between atoms: C_21  and  C_28 
REMARK       I    between atoms: C_22  and  N_23 
REMARK       I    between atoms: N_23  and  C_24 
REMARK       I    between atoms: C_24  and  N_25 
ROOT
HETATM    1  C   UNL     1      -5.323   2.654 -31.283  1.00  0.00     0.166 A 
HETATM    2  N   UNL     1      -4.986   3.956 -31.646  1.00  0.00    -0.274 N 
HETATM    3  C   UNL     1      -5.836   4.744 -30.883  1.00  0.00     0.197 A 
HETATM    4  N   UNL     1      -6.506   3.984 -30.051  1.00  0.00    -0.122 NA
HETATM    5  N   UNL     1      -6.171   2.686 -30.278  1.00  0.00    -0.131 NA
ENDROOT
BRANCH   3   6
HETATM    6  S   UNL     1      -5.920   6.470 -30.966  1.00  0.00    -0.070 SA
BRANCH   6   7
HETATM    7  C   UNL     1      -4.636   7.072 -29.797  1.00  0.00     0.180 C 
BRANCH   7   8
HETATM    8  C   UNL     1      -5.138   8.281 -28.983  1.00  0.00     0.244 C 
HETATM    9  N   UNL     1      -4.884   8.329 -27.625  1.00  0.00    -0.278 N 
HETATM   10  C   UNL     1      -4.506   7.319 -26.779  1.00  0.00     0.320 C 
HETATM   11  H   UNL     1      -5.223   9.174 -27.194  1.00  0.00     0.173 HD
HETATM   12  N   UNL     1      -4.430   7.714 -25.479  1.00  0.00    -0.352 N 
HETATM   13  O   UNL     1      -4.209   6.178 -27.094  1.00  0.00    -0.247 OA
HETATM   14  H   UNL     1      -5.071   8.404 -25.114  1.00  0.00     0.160 HD
HETATM   15  H   UNL     1      -4.207   6.963 -24.835  1.00  0.00     0.160 HD
HETATM   16  O   UNL     1      -5.793   9.213 -29.464  1.00  0.00    -0.271 OA
ENDBRANCH   7   8
BRANCH   7  17
HETATM   17  C   UNL     1      -3.264   7.233 -30.439  1.00  0.00    -0.035 A 
HETATM   18  C   UNL     1      -3.159   7.865 -31.691  1.00  0.00     0.009 A 
HETATM   19  C   UNL     1      -1.918   8.025 -32.312  1.00  0.00     0.001 A 
HETATM   20  C   UNL     1      -0.762   7.559 -31.695  1.00  0.00     0.000 A 
HETATM   21  C   UNL     1      -0.845   6.930 -30.455  1.00  0.00     0.001 A 
HETATM   22  C   UNL     1      -2.085   6.767 -29.833  1.00  0.00     0.009 A 
ENDBRANCH   7  17
ENDBRANCH   6   7
ENDBRANCH   3   6
BRANCH   2  23
HETATM   23  C   UNL     1      -4.018   4.338 -32.612  1.00  0.00     0.043 A 
HETATM   24  C   UNL     1      -4.404   4.921 -33.827  1.00  0.00     0.033 A 
HETATM   25  C   UNL     1      -3.431   5.290 -34.761  1.00  0.00     0.044 A 
HETATM   26  C   UNL     1      -2.086   5.079 -34.478  1.00  0.00     0.116 A 
HETATM   27  F   UNL     1      -1.158   5.435 -35.373  1.00  0.00    -0.206 F 
HETATM   28  C   UNL     1      -1.691   4.506 -33.275  1.00  0.00     0.044 A 
HETATM   29  C   UNL     1      -2.656   4.135 -32.336  1.00  0.00     0.033 A 
ENDBRANCH   2  23
BRANCH   1  30
HETATM   30  C   UNL     1      -4.954   1.405 -32.022  1.00  0.00     0.255 C 
HETATM   31  C   UNL     1      -4.504   0.296 -31.066  1.00  0.00     0.049 C 
BRANCH  30  32
HETATM   32  N   UNL     1      -6.079   0.849 -32.933  1.00  0.00    -0.060 N 
HETATM   33  H   UNL     1      -6.818   0.538 -32.292  1.00  0.00     0.280 HD
HETATM   34  C   UNL     1      -6.719   1.864 -33.869  1.00  0.00     0.236 C 
HETATM   35  C   UNL     1      -7.950   1.232 -34.508  1.00  0.00     0.028 C 
HETATM   36  C   UNL     1      -7.591  -0.043 -35.263  1.00  0.00     0.003 C 
HETATM   37  C   UNL     1      -6.835  -1.022 -34.371  1.00  0.00     0.028 C 
HETATM   38  C   UNL     1      -5.627  -0.371 -33.707  1.00  0.00     0.236 C 
ENDBRANCH  30  32
ENDBRANCH   1  30
TORSDOF 7
ENDMDL
MODEL 4
REMARK VINA RESULT:      -8.8      2.748      7.569
REMARK  7 active torsions:
REMARK  status: ('A' for Active; 'I' for Inactive)
REMARK    1  A    between atoms: C_2  and  N_3 
REMARK    2  A    between atoms: C_2  and  C_10 
REMARK    3  A    between atoms: N_11  and  C_12 
REMARK    4  A    between atoms: C_19  and  S_20 
REMARK    5  A    between atoms: S_20  and  C_21 
REMARK    6  A    between atoms: C_21  and  C_22 
REMARK    7  A    between atoms: C_21  and  C_28 
REMARK       I    between atoms: C_22  and  N_23 
REMARK       I    between atoms: N_23  and  C_24 
REMARK       I    between atoms: C_24  and  N_25 
ROOT
HETATM    1  C   UNL     1      -5.769   3.034 -30.907  1.00  0.00     0.166 A 
HETATM    2  N   UNL     1      -5.270   4.260 -31.343  1.00  0.00    -0.274 N 
HETATM    3  C   UNL     1      -5.960   5.191 -30.579  1.00  0.00     0.197 A 
HETATM    4  N   UNL     1      -6.688   4.567 -29.684  1.00  0.00    -0.122 NA
HETATM    5  N   UNL     1      -6.552   3.227 -29.867  1.00  0.00    -0.131 NA
ENDROOT
BRANCH   3   6
HETATM    6  S   UNL     1      -5.803   6.906 -30.736  1.00  0.00    -0.070 SA
BRANCH   6   7
HETATM    7  C   UNL     1      -4.339   7.351 -29.717  1.00  0.00     0.180 C 
BRANCH   7   8
HETATM    8  C   UNL     1      -4.603   8.614 -28.874  1.00  0.00     0.244 C 
HETATM    9  N   UNL     1      -4.447   8.552 -27.502  1.00  0.00    -0.278 N 
HETATM   10  C   UNL     1      -4.381   7.450 -26.688  1.00  0.00     0.320 C 
HETATM   11  H   UNL     1      -4.611   9.436 -27.049  1.00  0.00     0.173 HD
HETATM   12  N   UNL     1      -4.313   7.769 -25.367  1.00  0.00    -0.352 N 
HETATM   13  O   UNL     1      -4.338   6.283 -27.044  1.00  0.00    -0.247 OA
HETATM   14  H   UNL     1      -4.800   8.577 -25.007  1.00  0.00     0.160 HD
HETATM   15  H   UNL     1      -4.321   6.963 -24.751  1.00  0.00     0.160 HD
HETATM   16  O   UNL     1      -4.983   9.693 -29.346  1.00  0.00    -0.271 OA
ENDBRANCH   7   8
BRANCH   7  17
HETATM   17  C   UNL     1      -3.034   7.343 -30.501  1.00  0.00    -0.035 A 
HETATM   18  C   UNL     1      -1.890   6.757 -29.930  1.00  0.00     0.009 A 
HETATM   19  C   UNL     1      -0.674   6.736 -30.618  1.00  0.00     0.001 A 
HETATM   20  C   UNL     1      -0.580   7.298 -31.887  1.00  0.00     0.000 A 
HETATM   21  C   UNL     1      -1.701   7.884 -32.470  1.00  0.00     0.001 A 
HETATM   22  C   UNL     1      -2.917   7.907 -31.783  1.00  0.00     0.009 A 
ENDBRANCH   7  17
ENDBRANCH   6   7
ENDBRANCH   3   6
BRANCH   2  23
HETATM   23  C   UNL     1      -4.308   4.462 -32.367  1.00  0.00     0.043 A 
HETATM   24  C   UNL     1      -2.976   4.063 -32.193  1.00  0.00     0.033 A 
HETATM   25  C   UNL     1      -2.049   4.271 -33.219  1.00  0.00     0.044 A 
HETATM   26  C   UNL     1      -2.454   4.870 -34.406  1.00  0.00     0.116 A 
HETATM   27  F   UNL     1      -1.564   5.066 -35.385  1.00  0.00    -0.206 F 
HETATM   28  C   UNL     1      -3.773   5.265 -34.592  1.00  0.00     0.044 A 
HETATM   29  C   UNL     1      -4.707   5.061 -33.574  1.00  0.00     0.033 A 
ENDBRANCH   2  23
BRANCH   1  30
HETATM   30  C   UNL     1      -5.619   1.718 -31.604  1.00  0.00     0.255 C 
HETATM   31  C   UNL     1      -5.818   0.544 -30.642  1.00  0.00     0.049 C 
BRANCH  30  32
HETATM   32  N   UNL     1      -6.564   1.531 -32.819  1.00  0.00    -0.060 N 
HETATM   33  H   UNL     1      -6.618   2.454 -33.266  1.00  0.00     0.280 HD
HETATM   34  C   UNL     1      -6.070   0.565 -33.885  1.00  0.00     0.236 C 
HETATM   35  C   UNL     1      -6.977   0.677 -35.106  1.00  0.00     0.028 C 
HETATM   36  C   UNL     1      -8.429   0.383 -34.747  1.00  0.00     0.003 C 
HETATM   37  C   UNL     1      -8.903   1.258 -33.592  1.00  0.00     0.028 C 
HETATM   38  C   UNL     1      -7.971   1.169 -32.390  1.00  0.00     0.236 C 
ENDBRANCH  30  32
ENDBRANCH   1  30
TORSDOF 7
ENDMDL
MODEL 5
REMARK VINA RESULT:      -8.8      3.390      7.673
REMARK  7 active torsions:
REMARK  status: ('A' for Active; 'I' for Inactive)
REMARK    1  A    between atoms: C_2  and  N_3 
REMARK    2  A    between atoms: C_2  and  C_10 
REMARK    3  A    between atoms: N_11  and  C_12 
REMARK    4  A    between atoms: C_19  and  S_20 
REMARK    5  A    between atoms: S_20  and  C_21 
REMARK    6  A    between atoms: C_21  and  C_22 
REMARK    7  A    between atoms: C_21  and  C_28 
REMARK       I    between atoms: C_22  and  N_23 
REMARK       I    between atoms: N_23  and  C_24 
REMARK       I    between atoms: C_24  and  N_25 
ROOT
HETATM    1  C   UNL     1      -9.671   1.876 -32.699  1.00  0.00     0.166 A 
HETATM    2  N   UNL     1      -8.480   2.362 -32.161  1.00  0.00    -0.274 N 
HETATM    3  C   UNL     1      -7.951   1.271 -31.487  1.00  0.00     0.197 A 
HETATM    4  N   UNL     1      -8.687   0.212 -31.724  1.00  0.00    -0.122 NA
HETATM    5  N   UNL     1      -9.743   0.578 -32.498  1.00  0.00    -0.131 NA
ENDROOT
BRANCH   3   6
HETATM    6  S   UNL     1      -6.494   1.300 -30.555  1.00  0.00    -0.070 SA
BRANCH   6   7
HETATM    7  C   UNL     1      -5.133   1.317 -31.790  1.00  0.00     0.180 C 
BRANCH   7   8
HETATM    8  C   UNL     1      -4.244   0.064 -31.664  1.00  0.00     0.244 C 
HETATM    9  N   UNL     1      -4.271  -0.883 -32.671  1.00  0.00    -0.278 N 
HETATM   10  C   UNL     1      -5.200  -1.064 -33.663  1.00  0.00     0.320 C 
HETATM   11  H   UNL     1      -3.631  -1.644 -32.510  1.00  0.00     0.173 HD
HETATM   12  N   UNL     1      -4.950  -2.160 -34.431  1.00  0.00    -0.352 N 
HETATM   13  O   UNL     1      -6.146  -0.336 -33.917  1.00  0.00    -0.247 OA
HETATM   14  H   UNL     1      -4.544  -2.990 -34.025  1.00  0.00     0.160 HD
HETATM   15  H   UNL     1      -5.661  -2.338 -35.133  1.00  0.00     0.160 HD
HETATM   16  O   UNL     1      -3.517  -0.173 -30.692  1.00  0.00    -0.271 OA
ENDBRANCH   7   8
BRANCH   7  17
HETATM   17  C   UNL     1      -4.393   2.647 -31.853  1.00  0.00    -0.035 A 
HETATM   18  C   UNL     1      -3.440   2.858 -32.866  1.00  0.00     0.009 A 
HETATM   19  C   UNL     1      -2.738   4.063 -32.951  1.00  0.00     0.001 A 
HETATM   20  C   UNL     1      -2.976   5.077 -32.028  1.00  0.00     0.000 A 
HETATM   21  C   UNL     1      -3.915   4.887 -31.018  1.00  0.00     0.001 A 
HETATM   22  C   UNL     1      -4.617   3.683 -30.930  1.00  0.00     0.009 A 
ENDBRANCH   7  17
ENDBRANCH   6   7
ENDBRANCH   3   6
BRANCH   2  23
HETATM   23  C   UNL     1      -7.986   3.688 -32.270  1.00  0.00     0.043 A 
HETATM   24  C   UNL     1      -7.270   4.100 -33.402  1.00  0.00     0.033 A 
HETATM   25  C   UNL     1      -6.796   5.412 -33.485  1.00  0.00     0.044 A 
HETATM   26  C   UNL     1      -7.040   6.303 -32.446  1.00  0.00     0.116 A 
HETATM   27  F   UNL     1      -6.585   7.558 -32.530  1.00  0.00    -0.206 F 
HETATM   28  C   UNL     1      -7.753   5.908 -31.320  1.00  0.00     0.044 A 
HETATM   29  C   UNL     1      -8.231   4.598 -31.229  1.00  0.00     0.033 A 
ENDBRANCH   2  23
BRANCH   1  30
HETATM   30  C   UNL     1     -10.796   2.699 -33.245  1.00  0.00     0.255 C 
HETATM   31  C   UNL     1     -10.550   3.093 -34.704  1.00  0.00     0.049 C 
BRANCH  30  32
HETATM   32  N   UNL     1     -12.187   2.021 -33.142  1.00  0.00    -0.060 N 
HETATM   33  H   UNL     1     -12.106   1.350 -32.369  1.00  0.00     0.280 HD
HETATM   34  C   UNL     1     -13.339   2.950 -32.787  1.00  0.00     0.236 C 
HETATM   35  C   UNL     1     -14.573   2.107 -32.486  1.00  0.00     0.028 C 
HETATM   36  C   UNL     1     -14.943   1.221 -33.671  1.00  0.00     0.003 C 
HETATM   37  C   UNL     1     -13.759   0.373 -34.121  1.00  0.00     0.028 C 
HETATM   38  C   UNL     1     -12.518   1.220 -34.384  1.00  0.00     0.236 C 
ENDBRANCH  30  32
ENDBRANCH   1  30
TORSDOF 7
ENDMDL
MODEL 6
REMARK VINA RESULT:      -8.7      3.569      5.547
REMARK  7 active torsions:
REMARK  status: ('A' for Active; 'I' for Inactive)
REMARK    1  A    between atoms: C_2  and  N_3 
REMARK    2  A    between atoms: C_2  and  C_10 
REMARK    3  A    between atoms: N_11  and  C_12 
REMARK    4  A    between atoms: C_19  and  S_20 
REMARK    5  A    between atoms: S_20  and  C_21 
REMARK    6  A    between atoms: C_21  and  C_22 
REMARK    7  A    between atoms: C_21  and  C_28 
REMARK       I    between atoms: C_22  and  N_23 
REMARK       I    between atoms: N_23  and  C_24 
REMARK       I    between atoms: C_24  and  N_25 
ROOT
HETATM    1  C   UNL     1      -5.395   4.970 -33.296  1.00  0.00     0.166 A 
HETATM    2  N   UNL     1      -6.314   3.963 -33.007  1.00  0.00    -0.274 N 
HETATM    3  C   UNL     1      -7.292   4.609 -32.264  1.00  0.00     0.197 A 
HETATM    4  N   UNL     1      -7.043   5.897 -32.241  1.00  0.00    -0.122 NA
HETATM    5  N   UNL     1      -5.879   6.129 -32.903  1.00  0.00    -0.131 NA
ENDROOT
BRANCH   3   6
HETATM    6  S   UNL     1      -8.669   3.833 -31.561  1.00  0.00    -0.070 SA
BRANCH   6   7
HETATM    7  C   UNL     1      -9.946   3.829 -32.882  1.00  0.00     0.180 C 
BRANCH   7   8
HETATM    8  C   UNL     1     -10.903   5.029 -32.744  1.00  0.00     0.244 C 
HETATM    9  N   UNL     1     -10.952   5.969 -33.756  1.00  0.00    -0.278 N 
HETATM   10  C   UNL     1     -10.058   6.197 -34.769  1.00  0.00     0.320 C 
HETATM   11  H   UNL     1     -11.631   6.693 -33.584  1.00  0.00     0.173 HD
HETATM   12  N   UNL     1     -10.387   7.271 -35.538  1.00  0.00    -0.352 N 
HETATM   13  O   UNL     1      -9.077   5.523 -35.041  1.00  0.00    -0.247 OA
HETATM   14  H   UNL     1     -10.831   8.080 -35.127  1.00  0.00     0.160 HD
HETATM   15  H   UNL     1      -9.704   7.485 -36.256  1.00  0.00     0.160 HD
HETATM   16  O   UNL     1     -11.621   5.230 -31.757  1.00  0.00    -0.271 OA
ENDBRANCH   7   8
BRANCH   7  17
HETATM   17  C   UNL     1     -10.613   2.472 -33.071  1.00  0.00    -0.035 A 
HETATM   18  C   UNL     1      -9.889   1.301 -32.781  1.00  0.00     0.009 A 
HETATM   19  C   UNL     1     -10.467   0.041 -32.948  1.00  0.00     0.001 A 
HETATM   20  C   UNL     1     -11.776  -0.074 -33.405  1.00  0.00     0.000 A 
HETATM   21  C   UNL     1     -12.509   1.073 -33.698  1.00  0.00     0.001 A 
HETATM   22  C   UNL     1     -11.933   2.335 -33.533  1.00  0.00     0.009 A 
ENDBRANCH   7  17
ENDBRANCH   6   7
ENDBRANCH   3   6
BRANCH   2  23
HETATM   23  C   UNL     1      -6.208   2.596 -33.373  1.00  0.00     0.043 A 
HETATM   24  C   UNL     1      -6.846   2.106 -34.521  1.00  0.00     0.033 A 
HETATM   25  C   UNL     1      -6.723   0.755 -34.861  1.00  0.00     0.044 A 
HETATM   26  C   UNL     1      -5.969  -0.094 -34.060  1.00  0.00     0.116 A 
HETATM   27  F   UNL     1      -5.853  -1.385 -34.389  1.00  0.00    -0.206 F 
HETATM   28  C   UNL     1      -5.327   0.381 -32.922  1.00  0.00     0.044 A 
HETATM   29  C   UNL     1      -5.443   1.729 -32.575  1.00  0.00     0.033 A 
ENDBRANCH   2  23
BRANCH   1  30
HETATM   30  C   UNL     1      -3.995   4.777 -33.790  1.00  0.00     0.255 C 
HETATM   31  C   UNL     1      -3.868   5.128 -35.275  1.00  0.00     0.049 C 
BRANCH  30  32
HETATM   32  N   UNL     1      -2.926   5.573 -32.998  1.00  0.00    -0.060 N 
HETATM   33  H   UNL     1      -3.441   6.046 -32.246  1.00  0.00     0.280 HD
HETATM   34  C   UNL     1      -1.855   4.729 -32.323  1.00  0.00     0.236 C 
HETATM   35  C   UNL     1      -1.037   5.625 -31.398  1.00  0.00     0.028 C 
HETATM   36  C   UNL     1      -0.406   6.784 -32.163  1.00  0.00     0.003 C 
HETATM   37  C   UNL     1      -1.452   7.566 -32.949  1.00  0.00     0.028 C 
HETATM   38  C   UNL     1      -2.290   6.658 -33.843  1.00  0.00     0.236 C 
ENDBRANCH  30  32
ENDBRANCH   1  30
TORSDOF 7
ENDMDL
MODEL 7
REMARK VINA RESULT:      -8.6      1.945      2.691
REMARK  7 active torsions:
REMARK  status: ('A' for Active; 'I' for Inactive)
REMARK    1  A    between atoms: C_2  and  N_3 
REMARK    2  A    between atoms: C_2  and  C_10 
REMARK    3  A    between atoms: N_11  and  C_12 
REMARK    4  A    between atoms: C_19  and  S_20 
REMARK    5  A    between atoms: S_20  and  C_21 
REMARK    6  A    between atoms: C_21  and  C_22 
REMARK    7  A    between atoms: C_21  and  C_28 
REMARK       I    between atoms: C_22  and  N_23 
REMARK       I    between atoms: N_23  and  C_24 
REMARK       I    between atoms: C_24  and  N_25 
ROOT
HETATM    1  C   UNL     1      -6.591   5.069 -32.505  1.00  0.00     0.166 A 
HETATM    2  N   UNL     1      -5.559   4.154 -32.700  1.00  0.00    -0.274 N 
HETATM    3  C   UNL     1      -6.217   2.956 -32.937  1.00  0.00     0.197 A 
HETATM    4  N   UNL     1      -7.508   3.175 -33.013  1.00  0.00    -0.122 NA
HETATM    5  N   UNL     1      -7.743   4.491 -32.771  1.00  0.00    -0.131 NA
ENDROOT
BRANCH   3   6
HETATM    6  S   UNL     1      -5.435   1.432 -33.181  1.00  0.00    -0.070 SA
BRANCH   6   7
HETATM    7  C   UNL     1      -6.798   0.210 -33.337  1.00  0.00     0.180 C 
BRANCH   7   8
HETATM    8  C   UNL     1      -7.687   0.195 -32.079  1.00  0.00     0.244 C 
HETATM    9  N   UNL     1      -9.062   0.215 -32.226  1.00  0.00    -0.278 N 
HETATM   10  C   UNL     1      -9.809   0.555 -33.324  1.00  0.00     0.320 C 
HETATM   11  H   UNL     1      -9.550   0.169 -31.347  1.00  0.00     0.173 HD
HETATM   12  N   UNL     1     -11.148   0.545 -33.081  1.00  0.00    -0.352 N 
HETATM   13  O   UNL     1      -9.388   0.806 -34.442  1.00  0.00    -0.247 OA
HETATM   14  H   UNL     1     -11.507   0.818 -32.178  1.00  0.00     0.160 HD
HETATM   15  H   UNL     1     -11.709   0.849 -33.868  1.00  0.00     0.160 HD
HETATM   16  O   UNL     1      -7.248   0.199 -30.922  1.00  0.00    -0.271 OA
ENDBRANCH   7   8
BRANCH   7  17
HETATM   17  C   UNL     1      -6.332  -1.153 -33.831  1.00  0.00    -0.035 A 
HETATM   18  C   UNL     1      -4.958  -1.457 -33.823  1.00  0.00     0.009 A 
HETATM   19  C   UNL     1      -4.493  -2.695 -34.273  1.00  0.00     0.001 A 
HETATM   20  C   UNL     1      -5.391  -3.651 -34.738  1.00  0.00     0.000 A 
HETATM   21  C   UNL     1      -6.754  -3.370 -34.755  1.00  0.00     0.001 A 
HETATM   22  C   UNL     1      -7.221  -2.132 -34.306  1.00  0.00     0.009 A 
ENDBRANCH   7  17
ENDBRANCH   6   7
ENDBRANCH   3   6
BRANCH   2  23
HETATM   23  C   UNL     1      -4.167   4.425 -32.623  1.00  0.00     0.043 A 
HETATM   24  C   UNL     1      -3.485   5.004 -33.702  1.00  0.00     0.033 A 
HETATM   25  C   UNL     1      -2.115   5.263 -33.599  1.00  0.00     0.044 A 
HETATM   26  C   UNL     1      -1.437   4.946 -32.427  1.00  0.00     0.116 A 
HETATM   27  F   UNL     1      -0.126   5.195 -32.333  1.00  0.00    -0.206 F 
HETATM   28  C   UNL     1      -2.104   4.375 -31.350  1.00  0.00     0.044 A 
HETATM   29  C   UNL     1      -3.473   4.114 -31.443  1.00  0.00     0.033 A 
ENDBRANCH   2  23
BRANCH   1  30
HETATM   30  C   UNL     1      -6.463   6.433 -31.900  1.00  0.00     0.255 C 
HETATM   31  C   UNL     1      -7.625   7.342 -32.309  1.00  0.00     0.049 C 
BRANCH  30  32
HETATM   32  N   UNL     1      -6.351   6.435 -30.354  1.00  0.00    -0.060 N 
HETATM   33  H   UNL     1      -7.018   7.147 -30.034  1.00  0.00     0.280 HD
HETATM   34  C   UNL     1      -6.749   5.134 -29.671  1.00  0.00     0.236 C 
HETATM   35  C   UNL     1      -6.819   5.373 -28.166  1.00  0.00     0.028 C 
HETATM   36  C   UNL     1      -5.488   5.880 -27.622  1.00  0.00     0.003 C 
HETATM   37  C   UNL     1      -5.011   7.113 -28.382  1.00  0.00     0.028 C 
HETATM   38  C   UNL     1      -4.980   6.877 -29.888  1.00  0.00     0.236 C 
ENDBRANCH  30  32
ENDBRANCH   1  30
TORSDOF 7
ENDMDL
MODEL 8
REMARK VINA RESULT:      -8.6      2.475      7.275
REMARK  7 active torsions:
REMARK  status: ('A' for Active; 'I' for Inactive)
REMARK    1  A    between atoms: C_2  and  N_3 
REMARK    2  A    between atoms: C_2  and  C_10 
REMARK    3  A    between atoms: N_11  and  C_12 
REMARK    4  A    between atoms: C_19  and  S_20 
REMARK    5  A    between atoms: S_20  and  C_21 
REMARK    6  A    between atoms: C_21  and  C_22 
REMARK    7  A    between atoms: C_21  and  C_28 
REMARK       I    between atoms: C_22  and  N_23 
REMARK       I    between atoms: N_23  and  C_24 
REMARK       I    between atoms: C_24  and  N_25 
ROOT
HETATM    1  C   UNL     1      -5.162   2.392 -31.889  1.00  0.00     0.166 A 
HETATM    2  N   UNL     1      -5.031   3.724 -32.274  1.00  0.00    -0.274 N 
HETATM    3  C   UNL     1      -6.204   4.316 -31.825  1.00  0.00     0.197 A 
HETATM    4  N   UNL     1      -6.890   3.447 -31.122  1.00  0.00    -0.122 NA
HETATM    5  N   UNL     1      -6.234   2.257 -31.137  1.00  0.00    -0.131 NA
ENDROOT
BRANCH   3   6
HETATM    6  S   UNL     1      -6.635   5.971 -32.085  1.00  0.00    -0.070 SA
BRANCH   6   7
HETATM    7  C   UNL     1      -6.014   6.869 -30.607  1.00  0.00     0.180 C 
BRANCH   7   8
HETATM    8  C   UNL     1      -6.915   8.069 -30.257  1.00  0.00     0.244 C 
HETATM    9  N   UNL     1      -7.806   7.956 -29.206  1.00  0.00    -0.278 N 
HETATM   10  C   UNL     1      -8.262   6.827 -28.575  1.00  0.00     0.320 C 
HETATM   11  H   UNL     1      -8.323   8.804 -29.038  1.00  0.00     0.173 HD
HETATM   12  N   UNL     1      -9.207   7.089 -27.632  1.00  0.00    -0.352 N 
HETATM   13  O   UNL     1      -7.873   5.684 -28.756  1.00  0.00    -0.247 OA
HETATM   14  H   UNL     1      -9.869   7.841 -27.763  1.00  0.00     0.160 HD
HETATM   15  H   UNL     1      -9.594   6.258 -27.198  1.00  0.00     0.160 HD
HETATM   16  O   UNL     1      -6.920   9.135 -30.883  1.00  0.00    -0.271 OA
ENDBRANCH   7   8
BRANCH   7  17
HETATM   17  C   UNL     1      -4.520   7.161 -30.663  1.00  0.00    -0.035 A 
HETATM   18  C   UNL     1      -3.700   6.773 -29.588  1.00  0.00     0.009 A 
HETATM   19  C   UNL     1      -2.327   7.030 -29.602  1.00  0.00     0.001 A 
HETATM   20  C   UNL     1      -1.749   7.677 -30.690  1.00  0.00     0.000 A 
HETATM   21  C   UNL     1      -2.543   8.069 -31.764  1.00  0.00     0.001 A 
HETATM   22  C   UNL     1      -3.916   7.815 -31.751  1.00  0.00     0.009 A 
ENDBRANCH   7  17
ENDBRANCH   6   7
ENDBRANCH   3   6
BRANCH   2  23
HETATM   23  C   UNL     1      -3.948   4.290 -32.996  1.00  0.00     0.043 A 
HETATM   24  C   UNL     1      -4.142   4.847 -34.268  1.00  0.00     0.033 A 
HETATM   25  C   UNL     1      -3.059   5.400 -34.956  1.00  0.00     0.044 A 
HETATM   26  C   UNL     1      -1.795   5.397 -34.376  1.00  0.00     0.116 A 
HETATM   27  F   UNL     1      -0.762   5.929 -35.038  1.00  0.00    -0.206 F 
HETATM   28  C   UNL     1      -1.592   4.853 -33.113  1.00  0.00     0.044 A 
HETATM   29  C   UNL     1      -2.668   4.299 -32.417  1.00  0.00     0.033 A 
ENDBRANCH   2  23
BRANCH   1  30
HETATM   30  C   UNL     1      -4.348   1.240 -32.392  1.00  0.00     0.255 C 
HETATM   31  C   UNL     1      -3.455   0.658 -31.293  1.00  0.00     0.049 C 
BRANCH  30  32
HETATM   32  N   UNL     1      -5.186   0.092 -33.012  1.00  0.00    -0.060 N 
HETATM   33  H   UNL     1      -5.725  -0.302 -32.233  1.00  0.00     0.280 HD
HETATM   34  C   UNL     1      -6.200   0.521 -34.063  1.00  0.00     0.236 C 
HETATM   35  C   UNL     1      -7.098  -0.667 -34.390  1.00  0.00     0.028 C 
HETATM   36  C   UNL     1      -6.284  -1.859 -34.883  1.00  0.00     0.003 C 
HETATM   37  C   UNL     1      -5.179  -2.223 -33.897  1.00  0.00     0.028 C 
HETATM   38  C   UNL     1      -4.309  -1.021 -33.547  1.00  0.00     0.236 C 
ENDBRANCH  30  32
ENDBRANCH   1  30
TORSDOF 7
ENDMDL
MODEL 9
REMARK VINA RESULT:      -8.6      2.870      7.155
REMARK  7 active torsions:
REMARK  status: ('A' for Active; 'I' for Inactive)
REMARK    1  A    between atoms: C_2  and  N_3 
REMARK    2  A    between atoms: C_2  and  C_10 
REMARK    3  A    between atoms: N_11  and  C_12 
REMARK    4  A    between atoms: C_19  and  S_20 
REMARK    5  A    between atoms: S_20  and  C_21 
REMARK    6  A    between atoms: C_21  and  C_22 
REMARK    7  A    between atoms: C_21  and  C_28 
REMARK       I    between atoms: C_22  and  N_23 
REMARK       I    between atoms: N_23  and  C_24 
REMARK       I    between atoms: C_24  and  N_25 
ROOT
HETATM    1  C   UNL     1      -6.376   3.770 -31.439  1.00  0.00     0.166 A 
HETATM    2  N   UNL     1      -5.564   4.853 -31.769  1.00  0.00    -0.274 N 
HETATM    3  C   UNL     1      -6.059   5.890 -30.990  1.00  0.00     0.197 A 
HETATM    4  N   UNL     1      -6.979   5.425 -30.179  1.00  0.00    -0.122 NA
HETATM    5  N   UNL     1      -7.161   4.103 -30.437  1.00  0.00    -0.131 NA
ENDROOT
BRANCH   3   6
HETATM    6  S   UNL     1      -5.478   7.518 -31.030  1.00  0.00    -0.070 SA
BRANCH   6   7
HETATM    7  C   UNL     1      -4.048   7.549 -29.876  1.00  0.00     0.180 C 
BRANCH   7   8
HETATM    8  C   UNL     1      -4.147   8.727 -28.888  1.00  0.00     0.244 C 
HETATM    9  N   UNL     1      -4.105   8.471 -27.530  1.00  0.00    -0.278 N 
HETATM   10  C   UNL     1      -4.293   7.286 -26.866  1.00  0.00     0.320 C 
HETATM   11  H   UNL     1      -4.144   9.309 -26.973  1.00  0.00     0.173 HD
HETATM   12  N   UNL     1      -4.266   7.424 -25.513  1.00  0.00    -0.352 N 
HETATM   13  O   UNL     1      -4.428   6.183 -27.371  1.00  0.00    -0.247 OA
HETATM   14  H   UNL     1      -4.629   8.259 -25.075  1.00  0.00     0.160 HD
HETATM   15  H   UNL     1      -4.460   6.565 -25.010  1.00  0.00     0.160 HD
HETATM   16  O   UNL     1      -4.297   9.906 -29.231  1.00  0.00    -0.271 OA
ENDBRANCH   7   8
BRANCH   7  17
HETATM   17  C   UNL     1      -2.705   7.386 -30.575  1.00  0.00    -0.035 A 
HETATM   18  C   UNL     1      -1.629   6.807 -29.878  1.00  0.00     0.009 A 
HETATM   19  C   UNL     1      -0.382   6.648 -30.486  1.00  0.00     0.001 A 
HETATM   20  C   UNL     1      -0.186   7.063 -31.799  1.00  0.00     0.000 A 
HETATM   21  C   UNL     1      -1.238   7.639 -32.507  1.00  0.00     0.001 A 
HETATM   22  C   UNL     1      -2.487   7.800 -31.901  1.00  0.00     0.009 A 
ENDBRANCH   7  17
ENDBRANCH   6   7
ENDBRANCH   3   6
BRANCH   2  23
HETATM   23  C   UNL     1      -4.511   4.858 -32.721  1.00  0.00     0.043 A 
HETATM   24  C   UNL     1      -4.698   5.402 -34.000  1.00  0.00     0.033 A 
HETATM   25  C   UNL     1      -3.644   5.396 -34.918  1.00  0.00     0.044 A 
HETATM   26  C   UNL     1      -2.416   4.852 -34.558  1.00  0.00     0.116 A 
HETATM   27  F   UNL     1      -1.410   4.849 -35.440  1.00  0.00    -0.206 F 
HETATM   28  C   UNL     1      -2.217   4.314 -33.292  1.00  0.00     0.044 A 
HETATM   29  C   UNL     1      -3.264   4.317 -32.368  1.00  0.00     0.033 A 
ENDBRANCH   2  23
BRANCH   1  30
HETATM   30  C   UNL     1      -6.502   2.491 -32.207  1.00  0.00     0.255 C 
HETATM   31  C   UNL     1      -6.884   2.746 -33.668  1.00  0.00     0.049 C 
BRANCH  30  32
HETATM   32  N   UNL     1      -5.231   1.603 -32.174  1.00  0.00    -0.060 N 
HETATM   33  H   UNL     1      -4.532   2.107 -32.732  1.00  0.00     0.280 HD
HETATM   34  C   UNL     1      -4.617   1.398 -30.797  1.00  0.00     0.236 C 
HETATM   35  C   UNL     1      -3.261   0.719 -30.962  1.00  0.00     0.028 C 
HETATM   36  C   UNL     1      -3.391  -0.611 -31.696  1.00  0.00     0.003 C 
HETATM   37  C   UNL     1      -4.120  -0.443 -33.025  1.00  0.00     0.028 C 
HETATM   38  C   UNL     1      -5.457   0.269 -32.856  1.00  0.00     0.236 C 
ENDBRANCH  30  32
ENDBRANCH   1  30
TORSDOF 7
ENDMDL
MODEL 10
REMARK VINA RESULT:      -8.3      1.628      2.020
REMARK  7 active torsions:
REMARK  status: ('A' for Active; 'I' for Inactive)
REMARK    1  A    between atoms: C_2  and  N_3 
REMARK    2  A    between atoms: C_2  and  C_10 
REMARK    3  A    between atoms: N_11  and  C_12 
REMARK    4  A    between atoms: C_19  and  S_20 
REMARK    5  A    between atoms: S_20  and  C_21 
REMARK    6  A    between atoms: C_21  and  C_22 
REMARK    7  A    between atoms: C_21  and  C_28 
REMARK       I    between atoms: C_22  and  N_23 
REMARK       I    between atoms: N_23  and  C_24 
REMARK       I    between atoms: C_24  and  N_25 
ROOT
HETATM    1  C   UNL     1      -5.773   6.241 -31.340  1.00  0.00     0.166 A 
HETATM    2  N   UNL     1      -5.168   5.120 -31.905  1.00  0.00    -0.274 N 
HETATM    3  C   UNL     1      -5.846   4.053 -31.333  1.00  0.00     0.197 A 
HETATM    4  N   UNL     1      -6.843   4.506 -30.611  1.00  0.00    -0.122 NA
HETATM    5  N   UNL     1      -6.818   5.864 -30.634  1.00  0.00    -0.131 NA
ENDROOT
BRANCH   3   6
HETATM    6  S   UNL     1      -5.474   2.387 -31.611  1.00  0.00    -0.070 SA
BRANCH   6   7
HETATM    7  C   UNL     1      -6.702   1.820 -32.855  1.00  0.00     0.180 C 
BRANCH   7   8
HETATM    8  C   UNL     1      -8.145   2.009 -32.348  1.00  0.00     0.244 C 
HETATM    9  N   UNL     1      -8.965   2.926 -32.980  1.00  0.00    -0.278 N 
HETATM   10  C   UNL     1      -8.626   3.952 -33.824  1.00  0.00     0.320 C 
HETATM   11  H   UNL     1      -9.895   2.950 -32.595  1.00  0.00     0.173 HD
HETATM   12  N   UNL     1      -9.693   4.714 -34.190  1.00  0.00    -0.352 N 
HETATM   13  O   UNL     1      -7.517   4.188 -34.275  1.00  0.00    -0.247 OA
HETATM   14  H   UNL     1     -10.450   4.882 -33.544  1.00  0.00     0.160 HD
HETATM   15  H   UNL     1      -9.448   5.510 -34.769  1.00  0.00     0.160 HD
HETATM   16  O   UNL     1      -8.620   1.409 -31.376  1.00  0.00    -0.271 OA
ENDBRANCH   7   8
BRANCH   7  17
HETATM   17  C   UNL     1      -6.382   0.449 -33.437  1.00  0.00    -0.035 A 
HETATM   18  C   UNL     1      -5.178  -0.186 -33.083  1.00  0.00     0.009 A 
HETATM   19  C   UNL     1      -4.849  -1.441 -33.602  1.00  0.00     0.001 A 
HETATM   20  C   UNL     1      -5.716  -2.083 -34.480  1.00  0.00     0.000 A 
HETATM   21  C   UNL     1      -6.913  -1.471 -34.842  1.00  0.00     0.001 A 
HETATM   22  C   UNL     1      -7.244  -0.216 -34.326  1.00  0.00     0.009 A 
ENDBRANCH   7  17
ENDBRANCH   6   7
ENDBRANCH   3   6
BRANCH   2  23
HETATM   23  C   UNL     1      -4.082   5.120 -32.820  1.00  0.00     0.043 A 
HETATM   24  C   UNL     1      -4.295   5.321 -34.191  1.00  0.00     0.033 A 
HETATM   25  C   UNL     1      -3.208   5.318 -35.070  1.00  0.00     0.044 A 
HETATM   26  C   UNL     1      -1.922   5.119 -34.580  1.00  0.00     0.116 A 
HETATM   27  F   UNL     1      -0.885   5.119 -35.425  1.00  0.00    -0.206 F 
HETATM   28  C   UNL     1      -1.699   4.925 -33.222  1.00  0.00     0.044 A 
HETATM   29  C   UNL     1      -2.778   4.926 -32.336  1.00  0.00     0.033 A 
ENDBRANCH   2  23
BRANCH   1  30
HETATM   30  C   UNL     1      -5.235   7.638 -31.350  1.00  0.00     0.255 C 
HETATM   31  C   UNL     1      -6.323   8.664 -31.022  1.00  0.00     0.049 C 
BRANCH  30  32
HETATM   32  N   UNL     1      -4.034   7.863 -30.395  1.00  0.00    -0.060 N 
HETATM   33  H   UNL     1      -3.702   6.923 -30.150  1.00  0.00     0.280 HD
HETATM   34  C   UNL     1      -2.847   8.595 -31.003  1.00  0.00     0.236 C 
HETATM   35  C   UNL     1      -1.675   8.520 -30.030  1.00  0.00     0.028 C 
HETATM   36  C   UNL     1      -2.039   9.120 -28.676  1.00  0.00     0.003 C 
HETATM   37  C   UNL     1      -3.303   8.483 -28.109  1.00  0.00     0.028 C 
HETATM   38  C   UNL     1      -4.459   8.529 -29.102  1.00  0.00     0.236 C 
ENDBRANCH  30  32
ENDBRANCH   1  30
TORSDOF 7
ENDMDL
