MODEL 1
REMARK VINA RESULT:      -9.7      0.000      0.000
REMARK  4 active torsions:
REMARK  status: ('A' for Active; 'I' for Inactive)
REMARK    1  A    between atoms: C_6  and  N_7 
REMARK       I    between atoms: N_7  and  C_8 
REMARK    2  A    between atoms: C_8  and  C_9 
REMARK    3  A    between atoms: C_10  and  C_11 
REMARK    4  A    between atoms: C_14  and  O_15 
ROOT
HETATM    1  C   UNL     1      -5.709   0.919 -32.147  1.00  0.00     0.131 C 
HETATM    2  C   UNL     1      -6.349   0.426 -33.473  1.00  0.00     0.177 C 
HETATM    3  N   UNL     1      -7.801   0.636 -33.434  1.00  0.00    -0.088 N 
HETATM    4  C   UNL     1      -8.533   0.891 -32.302  1.00  0.00     0.721 A 
HETATM    5  N   UNL     1      -7.941   1.055 -31.098  1.00  0.00    -0.218 N 
HETATM    6  C   UNL     1      -6.582   0.545 -30.927  1.00  0.00     0.111 C 
HETATM    7  C   UNL     1      -6.004   1.032 -29.601  1.00  0.00     0.034 C 
HETATM    8  N   UNL     1      -8.575   0.720 -34.535  1.00  0.00    -0.149 NA
HETATM    9  C   UNL     1      -9.774   0.941 -33.986  1.00  0.00     0.275 A 
HETATM   10  N   UNL     1      -9.789   1.054 -32.622  1.00  0.00    -0.055 NA
HETATM   11  H   UNL     1      -8.567   0.933 -30.299  1.00  0.00     0.178 HD
ENDROOT
BRANCH   1  12
HETATM   12  C   UNL     1      -5.377   2.411 -32.297  1.00  0.00     0.230 C 
HETATM   13  N   UNL     1      -4.055   2.701 -32.534  1.00  0.00    -0.326 N 
HETATM   14  H   UNL     1      -3.452   1.881 -32.598  1.00  0.00     0.169 HD
HETATM   15  O   UNL     1      -6.289   3.211 -32.110  1.00  0.00    -0.273 OA
BRANCH  13  16
HETATM   16  C   UNL     1      -3.343   3.914 -32.697  1.00  0.00     0.040 A 
HETATM   17  C   UNL     1      -3.512   4.912 -33.672  1.00  0.00    -0.035 A 
HETATM   18  C   UNL     1      -2.683   6.061 -33.623  1.00  0.00     0.015 A 
HETATM   19  C   UNL     1      -4.504   4.875 -34.797  1.00  0.00     0.050 C 
HETATM   20  C   UNL     1      -1.687   6.227 -32.654  1.00  0.00    -0.061 A 
HETATM   21  C   UNL     1      -0.817   7.448 -32.632  1.00  0.00     0.048 C 
HETATM   22  C   UNL     1      -1.510   5.225 -31.709  1.00  0.00     0.009 A 
HETATM   23  C   UNL     1      -2.325   4.091 -31.734  1.00  0.00     0.030 A 
ENDBRANCH  13  16
ENDBRANCH   1  12
BRANCH   2  24
HETATM   24  C   UNL     1      -6.034  -1.024 -33.874  1.00  0.00    -0.032 A 
HETATM   25  C   UNL     1      -4.746  -1.576 -33.884  1.00  0.00     0.012 A 
HETATM   26  C   UNL     1      -4.535  -2.910 -34.252  1.00  0.00     0.037 A 
HETATM   27  C   UNL     1      -5.600  -3.733 -34.614  1.00  0.00     0.068 A 
HETATM   28  C   UNL     1      -6.883  -3.199 -34.636  1.00  0.00     0.037 A 
HETATM   29  C   UNL     1      -7.094  -1.861 -34.277  1.00  0.00     0.012 A 
BRANCH  27  30
HETATM   30  O   UNL     1      -5.253  -5.016 -34.934  1.00  0.00    -0.356 OA
HETATM   31  C   UNL     1      -4.195  -5.595 -34.180  1.00  0.00     0.210 C 
ENDBRANCH  27  30
ENDBRANCH   2  24
TORSDOF 4
ENDMDL
MODEL 2
REMARK VINA RESULT:      -9.2      2.720      6.532
REMARK  4 active torsions:
REMARK  status: ('A' for Active; 'I' for Inactive)
REMARK    1  A    between atoms: C_6  and  N_7 
REMARK       I    between atoms: N_7  and  C_8 
REMARK    2  A    between atoms: C_8  and  C_9 
REMARK    3  A    between atoms: C_10  and  C_11 
REMARK    4  A    between atoms: C_14  and  O_15 
ROOT
HETATM    1  C   UNL     1      -7.197   1.373 -33.632  1.00  0.00     0.131 C 
HETATM    2  C   UNL     1      -6.957   0.175 -32.673  1.00  0.00     0.177 C 
HETATM    3  N   UNL     1      -6.475   0.663 -31.376  1.00  0.00    -0.088 N 
HETATM    4  C   UNL     1      -5.976   1.920 -31.139  1.00  0.00     0.721 A 
HETATM    5  N   UNL     1      -5.963   2.870 -32.101  1.00  0.00    -0.218 N 
HETATM    6  C   UNL     1      -6.083   2.437 -33.493  1.00  0.00     0.111 C 
HETATM    7  C   UNL     1      -6.291   3.648 -34.399  1.00  0.00     0.034 C 
HETATM    8  N   UNL     1      -6.578  -0.036 -30.227  1.00  0.00    -0.149 NA
HETATM    9  C   UNL     1      -6.044   0.825 -29.357  1.00  0.00     0.275 A 
HETATM   10  N   UNL     1      -5.665   2.034 -29.876  1.00  0.00    -0.055 NA
HETATM   11  H   UNL     1      -5.312   3.638 -31.927  1.00  0.00     0.178 HD
ENDROOT
BRANCH   1  12
HETATM   12  C   UNL     1      -8.632   1.878 -33.423  1.00  0.00     0.230 C 
HETATM   13  N   UNL     1      -9.612   1.147 -34.050  1.00  0.00    -0.326 N 
HETATM   14  H   UNL     1      -9.265   0.341 -34.569  1.00  0.00     0.169 HD
HETATM   15  O   UNL     1      -8.774   2.925 -32.797  1.00  0.00    -0.273 OA
BRANCH  13  16
HETATM   16  C   UNL     1     -11.018   1.287 -34.138  1.00  0.00     0.040 A 
HETATM   17  C   UNL     1     -11.767   2.335 -34.702  1.00  0.00    -0.035 A 
HETATM   18  C   UNL     1     -13.182   2.247 -34.689  1.00  0.00     0.015 A 
HETATM   19  C   UNL     1     -11.200   3.578 -35.323  1.00  0.00     0.050 C 
HETATM   20  C   UNL     1     -13.861   1.166 -34.115  1.00  0.00    -0.061 A 
HETATM   21  C   UNL     1     -15.358   1.103 -34.106  1.00  0.00     0.048 C 
HETATM   22  C   UNL     1     -13.114   0.147 -33.538  1.00  0.00     0.009 A 
HETATM   23  C   UNL     1     -11.719   0.211 -33.552  1.00  0.00     0.030 A 
ENDBRANCH  13  16
ENDBRANCH   1  12
BRANCH   2  24
HETATM   24  C   UNL     1      -6.031  -0.933 -33.199  1.00  0.00    -0.032 A 
HETATM   25  C   UNL     1      -4.760  -1.210 -32.677  1.00  0.00     0.012 A 
HETATM   26  C   UNL     1      -3.974  -2.243 -33.202  1.00  0.00     0.037 A 
HETATM   27  C   UNL     1      -4.433  -3.032 -34.255  1.00  0.00     0.068 A 
HETATM   28  C   UNL     1      -5.680  -2.758 -34.805  1.00  0.00     0.037 A 
HETATM   29  C   UNL     1      -6.463  -1.718 -34.287  1.00  0.00     0.012 A 
BRANCH  27  30
HETATM   30  O   UNL     1      -3.571  -4.014 -34.657  1.00  0.00    -0.356 OA
HETATM   31  C   UNL     1      -3.323  -5.062 -33.726  1.00  0.00     0.210 C 
ENDBRANCH  27  30
ENDBRANCH   2  24
TORSDOF 4
ENDMDL
MODEL 3
REMARK VINA RESULT:      -8.9      2.662      5.841
REMARK  4 active torsions:
REMARK  status: ('A' for Active; 'I' for Inactive)
REMARK    1  A    between atoms: C_6  and  N_7 
REMARK       I    between atoms: N_7  and  C_8 
REMARK    2  A    between atoms: C_8  and  C_9 
REMARK    3  A    between atoms: C_10  and  C_11 
REMARK    4  A    between atoms: C_14  and  O_15 
ROOT
HETATM    1  C   UNL     1      -7.060   1.842 -33.723  1.00  0.00     0.131 C 
HETATM    2  C   UNL     1      -7.057   0.589 -32.806  1.00  0.00     0.177 C 
HETATM    3  N   UNL     1      -6.497   0.932 -31.494  1.00  0.00    -0.088 N 
HETATM    4  C   UNL     1      -5.769   2.062 -31.216  1.00  0.00     0.721 A 
HETATM    5  N   UNL     1      -5.572   3.024 -32.144  1.00  0.00    -0.218 N 
HETATM    6  C   UNL     1      -5.765   2.670 -33.550  1.00  0.00     0.111 C 
HETATM    7  C   UNL     1      -5.734   3.928 -34.414  1.00  0.00     0.034 C 
HETATM    8  N   UNL     1      -6.737   0.227 -30.369  1.00  0.00    -0.149 NA
HETATM    9  C   UNL     1      -6.052   0.941 -29.471  1.00  0.00     0.275 A 
HETATM   10  N   UNL     1      -5.448   2.073 -29.949  1.00  0.00    -0.055 NA
HETATM   11  H   UNL     1      -4.787   3.648 -31.946  1.00  0.00     0.178 HD
ENDROOT
BRANCH   1  12
HETATM   12  C   UNL     1      -8.374   2.604 -33.494  1.00  0.00     0.230 C 
HETATM   13  N   UNL     1      -9.108   2.868 -34.626  1.00  0.00    -0.326 N 
HETATM   14  H   UNL     1      -8.694   2.508 -35.486  1.00  0.00     0.169 HD
HETATM   15  O   UNL     1      -8.612   2.983 -32.351  1.00  0.00    -0.273 OA
BRANCH  13  16
HETATM   16  C   UNL     1     -10.325   3.554 -34.853  1.00  0.00     0.040 A 
HETATM   17  C   UNL     1     -11.625   3.030 -34.968  1.00  0.00    -0.035 A 
HETATM   18  C   UNL     1     -12.704   3.925 -35.181  1.00  0.00     0.015 A 
HETATM   19  C   UNL     1     -11.990   1.577 -34.898  1.00  0.00     0.050 C 
HETATM   20  C   UNL     1     -12.521   5.306 -35.303  1.00  0.00    -0.061 A 
HETATM   21  C   UNL     1     -13.679   6.228 -35.538  1.00  0.00     0.048 C 
HETATM   22  C   UNL     1     -11.231   5.813 -35.213  1.00  0.00     0.009 A 
HETATM   23  C   UNL     1     -10.156   4.949 -34.992  1.00  0.00     0.030 A 
ENDBRANCH  13  16
ENDBRANCH   1  12
BRANCH   2  24
HETATM   24  C   UNL     1      -6.356  -0.657 -33.371  1.00  0.00    -0.032 A 
HETATM   25  C   UNL     1      -4.983  -0.910 -33.250  1.00  0.00     0.012 A 
HETATM   26  C   UNL     1      -4.414  -2.073 -33.783  1.00  0.00     0.037 A 
HETATM   27  C   UNL     1      -5.196  -3.017 -34.445  1.00  0.00     0.068 A 
HETATM   28  C   UNL     1      -6.556  -2.774 -34.599  1.00  0.00     0.037 A 
HETATM   29  C   UNL     1      -7.125  -1.606 -34.075  1.00  0.00     0.012 A 
BRANCH  27  30
HETATM   30  O   UNL     1      -4.515  -4.112 -34.900  1.00  0.00    -0.356 OA
HETATM   31  C   UNL     1      -3.644  -4.749 -33.973  1.00  0.00     0.210 C 
ENDBRANCH  27  30
ENDBRANCH   2  24
TORSDOF 4
ENDMDL
MODEL 4
REMARK VINA RESULT:      -8.6      3.597      5.679
REMARK  4 active torsions:
REMARK  status: ('A' for Active; 'I' for Inactive)
REMARK    1  A    between atoms: C_6  and  N_7 
REMARK       I    between atoms: N_7  and  C_8 
REMARK    2  A    between atoms: C_8  and  C_9 
REMARK    3  A    between atoms: C_10  and  C_11 
REMARK    4  A    between atoms: C_14  and  O_15 
ROOT
HETATM    1  C   UNL     1      -4.327   5.113 -30.951  1.00  0.00     0.131 C 
HETATM    2  C   UNL     1      -3.334   4.221 -31.745  1.00  0.00     0.177 C 
HETATM    3  N   UNL     1      -3.156   4.757 -33.099  1.00  0.00    -0.088 N 
HETATM    4  C   UNL     1      -3.977   5.676 -33.701  1.00  0.00     0.721 A 
HETATM    5  N   UNL     1      -5.011   6.242 -33.040  1.00  0.00    -0.218 N 
HETATM    6  C   UNL     1      -5.508   5.569 -31.840  1.00  0.00     0.111 C 
HETATM    7  C   UNL     1      -6.499   6.472 -31.108  1.00  0.00     0.034 C 
HETATM    8  N   UNL     1      -2.082   4.493 -33.873  1.00  0.00    -0.149 NA
HETATM    9  C   UNL     1      -2.368   5.219 -34.958  1.00  0.00     0.275 A 
HETATM   10  N   UNL     1      -3.518   5.958 -34.891  1.00  0.00    -0.055 NA
HETATM   11  H   UNL     1      -5.722   6.658 -33.644  1.00  0.00     0.178 HD
ENDROOT
BRANCH   1  12
HETATM   12  C   UNL     1      -3.530   6.236 -30.272  1.00  0.00     0.230 C 
HETATM   13  N   UNL     1      -2.227   5.932 -29.963  1.00  0.00    -0.326 N 
HETATM   14  H   UNL     1      -1.940   4.993 -30.239  1.00  0.00     0.169 HD
HETATM   15  O   UNL     1      -4.139   7.264 -29.989  1.00  0.00    -0.273 OA
BRANCH  13  16
HETATM   16  C   UNL     1      -1.189   6.651 -29.322  1.00  0.00     0.040 A 
HETATM   17  C   UNL     1       0.055   7.053 -29.837  1.00  0.00    -0.035 A 
HETATM   18  C   UNL     1       0.934   7.788 -29.003  1.00  0.00     0.015 A 
HETATM   19  C   UNL     1       0.563   6.762 -31.219  1.00  0.00     0.050 C 
HETATM   20  C   UNL     1       0.618   8.108 -27.678  1.00  0.00    -0.061 A 
HETATM   21  C   UNL     1       1.572   8.878 -26.814  1.00  0.00     0.048 C 
HETATM   22  C   UNL     1      -0.603   7.686 -27.168  1.00  0.00     0.009 A 
HETATM   23  C   UNL     1      -1.487   6.971 -27.979  1.00  0.00     0.030 A 
ENDBRANCH  13  16
ENDBRANCH   1  12
BRANCH   2  24
HETATM   24  C   UNL     1      -3.678   2.724 -31.809  1.00  0.00    -0.032 A 
HETATM   25  C   UNL     1      -2.991   1.727 -31.101  1.00  0.00     0.012 A 
HETATM   26  C   UNL     1      -3.367   0.382 -31.201  1.00  0.00     0.037 A 
HETATM   27  C   UNL     1      -4.439  -0.007 -32.002  1.00  0.00     0.068 A 
HETATM   28  C   UNL     1      -5.118   0.962 -32.732  1.00  0.00     0.037 A 
HETATM   29  C   UNL     1      -4.737   2.307 -32.640  1.00  0.00     0.012 A 
BRANCH  27  30
HETATM   30  O   UNL     1      -4.707  -1.347 -31.993  1.00  0.00    -0.356 OA
HETATM   31  C   UNL     1      -3.605  -2.216 -32.230  1.00  0.00     0.210 C 
ENDBRANCH  27  30
ENDBRANCH   2  24
TORSDOF 4
ENDMDL
MODEL 5
REMARK VINA RESULT:      -8.5      4.585     10.027
REMARK  4 active torsions:
REMARK  status: ('A' for Active; 'I' for Inactive)
REMARK    1  A    between atoms: C_6  and  N_7 
REMARK       I    between atoms: N_7  and  C_8 
REMARK    2  A    between atoms: C_8  and  C_9 
REMARK    3  A    between atoms: C_10  and  C_11 
REMARK    4  A    between atoms: C_14  and  O_15 
ROOT
HETATM    1  C   UNL     1      -1.838   6.200 -30.883  1.00  0.00     0.131 C 
HETATM    2  C   UNL     1      -2.179   6.985 -29.588  1.00  0.00     0.177 C 
HETATM    3  N   UNL     1      -2.782   8.277 -29.932  1.00  0.00    -0.088 N 
HETATM    4  C   UNL     1      -2.741   8.865 -31.171  1.00  0.00     0.721 A 
HETATM    5  N   UNL     1      -2.187   8.239 -32.234  1.00  0.00    -0.218 N 
HETATM    6  C   UNL     1      -1.265   7.134 -31.974  1.00  0.00     0.111 C 
HETATM    7  C   UNL     1      -0.939   6.410 -33.277  1.00  0.00     0.034 C 
HETATM    8  N   UNL     1      -3.560   8.989 -29.090  1.00  0.00    -0.149 NA
HETATM    9  C   UNL     1      -3.879  10.033 -29.860  1.00  0.00     0.275 A 
HETATM   10  N   UNL     1      -3.399   9.993 -31.141  1.00  0.00    -0.055 NA
HETATM   11  H   UNL     1      -1.933   8.860 -33.004  1.00  0.00     0.178 HD
ENDROOT
BRANCH   1  12
HETATM   12  C   UNL     1      -3.072   5.380 -31.288  1.00  0.00     0.230 C 
HETATM   13  N   UNL     1      -3.017   4.041 -30.984  1.00  0.00    -0.326 N 
HETATM   14  H   UNL     1      -2.161   3.756 -30.508  1.00  0.00     0.169 HD
HETATM   15  O   UNL     1      -3.952   5.962 -31.917  1.00  0.00    -0.273 OA
BRANCH  13  16
HETATM   16  C   UNL     1      -3.902   2.959 -31.209  1.00  0.00     0.040 A 
HETATM   17  C   UNL     1      -5.199   2.761 -30.703  1.00  0.00    -0.035 A 
HETATM   18  C   UNL     1      -5.909   1.595 -31.085  1.00  0.00     0.015 A 
HETATM   19  C   UNL     1      -5.920   3.683 -29.765  1.00  0.00     0.050 C 
HETATM   20  C   UNL     1      -5.358   0.623 -31.927  1.00  0.00    -0.061 A 
HETATM   21  C   UNL     1      -6.128  -0.606 -32.306  1.00  0.00     0.048 C 
HETATM   22  C   UNL     1      -4.067   0.814 -32.402  1.00  0.00     0.009 A 
HETATM   23  C   UNL     1      -3.357   1.962 -32.047  1.00  0.00     0.030 A 
ENDBRANCH  13  16
ENDBRANCH   1  12
BRANCH   2  24
HETATM   24  C   UNL     1      -1.018   7.189 -28.600  1.00  0.00    -0.032 A 
HETATM   25  C   UNL     1      -0.984   6.656 -27.304  1.00  0.00     0.012 A 
HETATM   26  C   UNL     1       0.112   6.876 -26.462  1.00  0.00     0.037 A 
HETATM   27  C   UNL     1       1.206   7.627 -26.888  1.00  0.00     0.068 A 
HETATM   28  C   UNL     1       1.182   8.187 -28.159  1.00  0.00     0.037 A 
HETATM   29  C   UNL     1       0.081   7.975 -29.000  1.00  0.00     0.012 A 
BRANCH  27  30
HETATM   30  O   UNL     1       2.213   7.748 -25.971  1.00  0.00    -0.356 OA
HETATM   31  C   UNL     1       2.291   8.985 -25.273  1.00  0.00     0.210 C 
ENDBRANCH  27  30
ENDBRANCH   2  24
TORSDOF 4
ENDMDL
MODEL 6
REMARK VINA RESULT:      -8.3      3.049      5.213
REMARK  4 active torsions:
REMARK  status: ('A' for Active; 'I' for Inactive)
REMARK    1  A    between atoms: C_6  and  N_7 
REMARK       I    between atoms: N_7  and  C_8 
REMARK    2  A    between atoms: C_8  and  C_9 
REMARK    3  A    between atoms: C_10  and  C_11 
REMARK    4  A    between atoms: C_14  and  O_15 
ROOT
HETATM    1  C   UNL     1      -7.830   1.331 -32.953  1.00  0.00     0.131 C 
HETATM    2  C   UNL     1      -8.736   2.509 -33.403  1.00  0.00     0.177 C 
HETATM    3  N   UNL     1      -8.781   3.532 -32.352  1.00  0.00    -0.088 N 
HETATM    4  C   UNL     1      -8.391   3.347 -31.050  1.00  0.00     0.721 A 
HETATM    5  N   UNL     1      -7.837   2.186 -30.635  1.00  0.00    -0.218 N 
HETATM    6  C   UNL     1      -8.043   0.995 -31.459  1.00  0.00     0.111 C 
HETATM    7  C   UNL     1      -7.154  -0.143 -30.964  1.00  0.00     0.034 C 
HETATM    8  N   UNL     1      -9.105   4.823 -32.577  1.00  0.00    -0.149 NA
HETATM    9  C   UNL     1      -8.971   5.335 -31.350  1.00  0.00     0.275 A 
HETATM   10  N   UNL     1      -8.534   4.464 -30.388  1.00  0.00    -0.055 NA
HETATM   11  H   UNL     1      -7.869   2.039 -29.625  1.00  0.00     0.178 HD
ENDROOT
BRANCH   1  12
HETATM   12  C   UNL     1      -6.385   1.648 -33.366  1.00  0.00     0.230 C 
HETATM   13  N   UNL     1      -5.949   2.915 -33.061  1.00  0.00    -0.326 N 
HETATM   14  H   UNL     1      -6.639   3.490 -32.579  1.00  0.00     0.169 HD
HETATM   15  O   UNL     1      -5.780   0.788 -33.999  1.00  0.00    -0.273 OA
BRANCH  13  16
HETATM   16  C   UNL     1      -4.732   3.602 -33.290  1.00  0.00     0.040 A 
HETATM   17  C   UNL     1      -3.506   3.474 -32.613  1.00  0.00    -0.035 A 
HETATM   18  C   UNL     1      -2.408   4.265 -33.036  1.00  0.00     0.015 A 
HETATM   19  C   UNL     1      -3.242   2.567 -31.448  1.00  0.00     0.050 C 
HETATM   20  C   UNL     1      -2.506   5.184 -34.087  1.00  0.00    -0.061 A 
HETATM   21  C   UNL     1      -1.331   6.015 -34.507  1.00  0.00     0.048 C 
HETATM   22  C   UNL     1      -3.727   5.321 -34.734  1.00  0.00     0.009 A 
HETATM   23  C   UNL     1      -4.817   4.543 -34.339  1.00  0.00     0.030 A 
ENDBRANCH  13  16
ENDBRANCH   1  12
BRANCH   2  24
HETATM   24  C   UNL     1     -10.161   2.134 -33.839  1.00  0.00    -0.032 A 
HETATM   25  C   UNL     1     -10.865   1.022 -33.356  1.00  0.00     0.012 A 
HETATM   26  C   UNL     1     -12.167   0.746 -33.791  1.00  0.00     0.037 A 
HETATM   27  C   UNL     1     -12.806   1.573 -34.714  1.00  0.00     0.068 A 
HETATM   28  C   UNL     1     -12.117   2.666 -35.225  1.00  0.00     0.037 A 
HETATM   29  C   UNL     1     -10.811   2.937 -34.797  1.00  0.00     0.012 A 
BRANCH  27  30
HETATM   30  O   UNL     1     -14.079   1.197 -35.038  1.00  0.00    -0.356 OA
HETATM   31  C   UNL     1     -14.984   1.017 -33.955  1.00  0.00     0.210 C 
ENDBRANCH  27  30
ENDBRANCH   2  24
TORSDOF 4
ENDMDL
MODEL 7
REMARK VINA RESULT:      -8.3      4.764      8.815
REMARK  4 active torsions:
REMARK  status: ('A' for Active; 'I' for Inactive)
REMARK    1  A    between atoms: C_6  and  N_7 
REMARK       I    between atoms: N_7  and  C_8 
REMARK    2  A    between atoms: C_8  and  C_9 
REMARK    3  A    between atoms: C_10  and  C_11 
REMARK    4  A    between atoms: C_14  and  O_15 
ROOT
HETATM    1  C   UNL     1     -11.867   2.522 -34.352  1.00  0.00     0.131 C 
HETATM    2  C   UNL     1     -11.391   3.866 -33.739  1.00  0.00     0.177 C 
HETATM    3  N   UNL     1     -12.037   4.078 -32.439  1.00  0.00    -0.088 N 
HETATM    4  C   UNL     1     -13.139   3.400 -31.983  1.00  0.00     0.721 A 
HETATM    5  N   UNL     1     -13.690   2.388 -32.690  1.00  0.00    -0.218 N 
HETATM    6  C   UNL     1     -13.379   2.300 -34.116  1.00  0.00     0.111 C 
HETATM    7  C   UNL     1     -13.889   0.976 -34.680  1.00  0.00     0.034 C 
HETATM    8  N   UNL     1     -11.544   4.891 -31.481  1.00  0.00    -0.149 NA
HETATM    9  C   UNL     1     -12.447   4.717 -30.512  1.00  0.00     0.275 A 
HETATM   10  N   UNL     1     -13.438   3.811 -30.779  1.00  0.00    -0.055 NA
HETATM   11  H   UNL     1     -14.653   2.166 -32.429  1.00  0.00     0.178 HD
ENDROOT
BRANCH   1  12
HETATM   12  C   UNL     1     -10.942   1.406 -33.845  1.00  0.00     0.230 C 
HETATM   13  N   UNL     1      -9.628   1.506 -34.233  1.00  0.00    -0.326 N 
HETATM   14  H   UNL     1      -9.422   2.327 -34.803  1.00  0.00     0.169 HD
HETATM   15  O   UNL     1     -11.462   0.487 -33.218  1.00  0.00    -0.273 OA
BRANCH  13  16
HETATM   16  C   UNL     1      -8.489   0.693 -34.017  1.00  0.00     0.040 A 
HETATM   17  C   UNL     1      -7.859   0.362 -32.805  1.00  0.00    -0.035 A 
HETATM   18  C   UNL     1      -6.728  -0.493 -32.835  1.00  0.00     0.015 A 
HETATM   19  C   UNL     1      -8.270   0.847 -31.446  1.00  0.00     0.050 C 
HETATM   20  C   UNL     1      -6.203  -1.000 -34.028  1.00  0.00    -0.061 A 
HETATM   21  C   UNL     1      -5.000  -1.895 -34.031  1.00  0.00     0.048 C 
HETATM   22  C   UNL     1      -6.816  -0.648 -35.223  1.00  0.00     0.009 A 
HETATM   23  C   UNL     1      -7.938   0.183 -35.213  1.00  0.00     0.030 A 
ENDBRANCH  13  16
ENDBRANCH   1  12
BRANCH   2  24
HETATM   24  C   UNL     1     -11.566   5.110 -34.626  1.00  0.00    -0.032 A 
HETATM   25  C   UNL     1     -12.803   5.581 -35.085  1.00  0.00     0.012 A 
HETATM   26  C   UNL     1     -12.888   6.728 -35.884  1.00  0.00     0.037 A 
HETATM   27  C   UNL     1     -11.745   7.440 -36.241  1.00  0.00     0.068 A 
HETATM   28  C   UNL     1     -10.505   6.976 -35.818  1.00  0.00     0.037 A 
HETATM   29  C   UNL     1     -10.418   5.823 -35.027  1.00  0.00     0.012 A 
BRANCH  27  30
HETATM   30  O   UNL     1     -11.973   8.549 -37.008  1.00  0.00    -0.356 OA
HETATM   31  C   UNL     1     -13.184   8.565 -37.755  1.00  0.00     0.210 C 
ENDBRANCH  27  30
ENDBRANCH   2  24
TORSDOF 4
ENDMDL
MODEL 8
REMARK VINA RESULT:      -8.0      3.380      7.568
REMARK  4 active torsions:
REMARK  status: ('A' for Active; 'I' for Inactive)
REMARK    1  A    between atoms: C_6  and  N_7 
REMARK       I    between atoms: N_7  and  C_8 
REMARK    2  A    between atoms: C_8  and  C_9 
REMARK    3  A    between atoms: C_10  and  C_11 
REMARK    4  A    between atoms: C_14  and  O_15 
ROOT
HETATM    1  C   UNL     1      -7.230   4.227 -31.493  1.00  0.00     0.131 C 
HETATM    2  C   UNL     1      -6.419   3.297 -32.434  1.00  0.00     0.177 C 
HETATM    3  N   UNL     1      -6.096   2.044 -31.741  1.00  0.00    -0.088 N 
HETATM    4  C   UNL     1      -6.177   1.846 -30.386  1.00  0.00     0.721 A 
HETATM    5  N   UNL     1      -6.655   2.802 -29.558  1.00  0.00    -0.218 N 
HETATM    6  C   UNL     1      -6.684   4.180 -30.047  1.00  0.00     0.111 C 
HETATM    7  C   UNL     1      -7.468   5.061 -29.077  1.00  0.00     0.034 C 
HETATM    8  N   UNL     1      -5.794   0.893 -32.377  1.00  0.00    -0.149 NA
HETATM    9  C   UNL     1      -5.621   0.069 -31.340  1.00  0.00     0.275 A 
HETATM   10  N   UNL     1      -5.849   0.614 -30.105  1.00  0.00    -0.055 NA
HETATM   11  H   UNL     1      -6.392   2.682 -28.578  1.00  0.00     0.178 HD
ENDROOT
BRANCH   1  12
HETATM   12  C   UNL     1      -8.721   3.894 -31.653  1.00  0.00     0.230 C 
HETATM   13  N   UNL     1      -9.009   2.890 -32.546  1.00  0.00    -0.326 N 
HETATM   14  H   UNL     1      -8.188   2.473 -32.985  1.00  0.00     0.169 HD
HETATM   15  O   UNL     1      -9.522   4.599 -31.047  1.00  0.00    -0.273 OA
BRANCH  13  16
HETATM   16  C   UNL     1     -10.221   2.314 -32.999  1.00  0.00     0.040 A 
HETATM   17  C   UNL     1     -10.574   0.957 -33.087  1.00  0.00    -0.035 A 
HETATM   18  C   UNL     1     -11.866   0.617 -33.561  1.00  0.00     0.015 A 
HETATM   19  C   UNL     1      -9.689  -0.201 -32.730  1.00  0.00     0.050 C 
HETATM   20  C   UNL     1     -12.794   1.583 -33.967  1.00  0.00    -0.061 A 
HETATM   21  C   UNL     1     -14.150   1.195 -34.474  1.00  0.00     0.048 C 
HETATM   22  C   UNL     1     -12.428   2.921 -33.900  1.00  0.00     0.009 A 
HETATM   23  C   UNL     1     -11.164   3.275 -33.424  1.00  0.00     0.030 A 
ENDBRANCH  13  16
ENDBRANCH   1  12
BRANCH   2  24
HETATM   24  C   UNL     1      -5.147   3.904 -33.048  1.00  0.00    -0.032 A 
HETATM   25  C   UNL     1      -3.892   3.901 -32.423  1.00  0.00     0.012 A 
HETATM   26  C   UNL     1      -2.773   4.466 -33.047  1.00  0.00     0.037 A 
HETATM   27  C   UNL     1      -2.871   5.044 -34.311  1.00  0.00     0.068 A 
HETATM   28  C   UNL     1      -4.111   5.081 -34.938  1.00  0.00     0.037 A 
HETATM   29  C   UNL     1      -5.233   4.524 -34.310  1.00  0.00     0.012 A 
BRANCH  27  30
HETATM   30  O   UNL     1      -1.699   5.542 -34.808  1.00  0.00    -0.356 OA
HETATM   31  C   UNL     1      -1.073   6.570 -34.050  1.00  0.00     0.210 C 
ENDBRANCH  27  30
ENDBRANCH   2  24
TORSDOF 4
ENDMDL
MODEL 9
REMARK VINA RESULT:      -8.0      3.997      6.750
REMARK  4 active torsions:
REMARK  status: ('A' for Active; 'I' for Inactive)
REMARK    1  A    between atoms: C_6  and  N_7 
REMARK       I    between atoms: N_7  and  C_8 
REMARK    2  A    between atoms: C_8  and  C_9 
REMARK    3  A    between atoms: C_10  and  C_11 
REMARK    4  A    between atoms: C_14  and  O_15 
ROOT
HETATM    1  C   UNL     1      -3.263   5.811 -30.612  1.00  0.00     0.131 C 
HETATM    2  C   UNL     1      -2.846   4.604 -31.496  1.00  0.00     0.177 C 
HETATM    3  N   UNL     1      -2.793   5.012 -32.904  1.00  0.00    -0.088 N 
HETATM    4  C   UNL     1      -3.351   6.155 -33.418  1.00  0.00     0.721 A 
HETATM    5  N   UNL     1      -3.948   7.071 -32.624  1.00  0.00    -0.218 N 
HETATM    6  C   UNL     1      -4.372   6.648 -31.290  1.00  0.00     0.111 C 
HETATM    7  C   UNL     1      -4.797   7.863 -30.468  1.00  0.00     0.034 C 
HETATM    8  N   UNL     1      -2.078   4.361 -33.845  1.00  0.00    -0.149 NA
HETATM    9  C   UNL     1      -2.322   5.119 -34.918  1.00  0.00     0.275 A 
HETATM   10  N   UNL     1      -3.095   6.228 -34.697  1.00  0.00    -0.055 NA
HETATM   11  H   UNL     1      -4.582   7.705 -33.113  1.00  0.00     0.178 HD
ENDROOT
BRANCH   1  12
HETATM   12  C   UNL     1      -1.994   6.580 -30.217  1.00  0.00     0.230 C 
HETATM   13  N   UNL     1      -1.816   6.772 -28.868  1.00  0.00    -0.326 N 
HETATM   14  H   UNL     1      -2.548   6.362 -28.288  1.00  0.00     0.169 HD
HETATM   15  O   UNL     1      -1.301   7.027 -31.127  1.00  0.00    -0.273 OA
BRANCH  13  16
HETATM   16  C   UNL     1      -0.826   7.439 -28.106  1.00  0.00     0.040 A 
HETATM   17  C   UNL     1      -0.700   8.811 -27.831  1.00  0.00    -0.035 A 
HETATM   18  C   UNL     1       0.378   9.249 -27.021  1.00  0.00     0.015 A 
HETATM   19  C   UNL     1      -1.613   9.890 -28.334  1.00  0.00     0.050 C 
HETATM   20  C   UNL     1       1.334   8.367 -26.504  1.00  0.00    -0.061 A 
HETATM   21  C   UNL     1       2.470   8.858 -25.658  1.00  0.00     0.048 C 
HETATM   22  C   UNL     1       1.217   7.016 -26.802  1.00  0.00     0.009 A 
HETATM   23  C   UNL     1       0.155   6.565 -27.588  1.00  0.00     0.030 A 
ENDBRANCH  13  16
ENDBRANCH   1  12
BRANCH   2  24
HETATM   24  C   UNL     1      -3.699   3.334 -31.344  1.00  0.00    -0.032 A 
HETATM   25  C   UNL     1      -4.877   3.262 -30.589  1.00  0.00     0.012 A 
HETATM   26  C   UNL     1      -5.609   2.071 -30.504  1.00  0.00     0.037 A 
HETATM   27  C   UNL     1      -5.191   0.922 -31.173  1.00  0.00     0.068 A 
HETATM   28  C   UNL     1      -4.011   0.963 -31.906  1.00  0.00     0.037 A 
HETATM   29  C   UNL     1      -3.274   2.152 -31.984  1.00  0.00     0.012 A 
BRANCH  27  30
HETATM   30  O   UNL     1      -6.007  -0.164 -31.017  1.00  0.00    -0.356 OA
HETATM   31  C   UNL     1      -6.726  -0.588 -32.168  1.00  0.00     0.210 C 
ENDBRANCH  27  30
ENDBRANCH   2  24
TORSDOF 4
ENDMDL
MODEL 10
REMARK VINA RESULT:      -8.0      3.927      7.783
REMARK  4 active torsions:
REMARK  status: ('A' for Active; 'I' for Inactive)
REMARK    1  A    between atoms: C_6  and  N_7 
REMARK       I    between atoms: N_7  and  C_8 
REMARK    2  A    between atoms: C_8  and  C_9 
REMARK    3  A    between atoms: C_10  and  C_11 
REMARK    4  A    between atoms: C_14  and  O_15 
ROOT
HETATM    1  C   UNL     1      -9.627   2.701 -33.274  1.00  0.00     0.131 C 
HETATM    2  C   UNL     1      -8.708   1.824 -32.382  1.00  0.00     0.177 C 
HETATM    3  N   UNL     1      -7.832   2.680 -31.574  1.00  0.00    -0.088 N 
HETATM    4  C   UNL     1      -7.597   4.012 -31.804  1.00  0.00     0.721 A 
HETATM    5  N   UNL     1      -8.240   4.686 -32.784  1.00  0.00    -0.218 N 
HETATM    6  C   UNL     1      -8.858   3.909 -33.858  1.00  0.00     0.111 C 
HETATM    7  C   UNL     1      -9.729   4.817 -34.723  1.00  0.00     0.034 C 
HETATM    8  N   UNL     1      -7.244   2.280 -30.428  1.00  0.00    -0.149 NA
HETATM    9  C   UNL     1      -6.602   3.396 -30.070  1.00  0.00     0.275 A 
HETATM   10  N   UNL     1      -6.794   4.479 -30.885  1.00  0.00    -0.055 NA
HETATM   11  H   UNL     1      -7.784   5.555 -33.068  1.00  0.00     0.178 HD
ENDROOT
BRANCH   1  12
HETATM   12  C   UNL     1     -10.894   3.039 -32.476  1.00  0.00     0.230 C 
HETATM   13  N   UNL     1     -12.082   2.795 -33.122  1.00  0.00    -0.326 N 
HETATM   14  H   UNL     1     -11.976   2.400 -34.056  1.00  0.00     0.169 HD
HETATM   15  O   UNL     1     -10.743   3.571 -31.380  1.00  0.00    -0.273 OA
BRANCH  13  16
HETATM   16  C   UNL     1     -13.438   2.991 -32.765  1.00  0.00     0.040 A 
HETATM   17  C   UNL     1     -14.080   4.172 -32.354  1.00  0.00    -0.035 A 
HETATM   18  C   UNL     1     -15.467   4.128 -32.061  1.00  0.00     0.015 A 
HETATM   19  C   UNL     1     -13.422   5.508 -32.179  1.00  0.00     0.050 C 
HETATM   20  C   UNL     1     -16.214   2.948 -32.143  1.00  0.00    -0.061 A 
HETATM   21  C   UNL     1     -17.677   2.928 -31.818  1.00  0.00     0.048 C 
HETATM   22  C   UNL     1     -15.566   1.780 -32.526  1.00  0.00     0.009 A 
HETATM   23  C   UNL     1     -14.204   1.806 -32.830  1.00  0.00     0.030 A 
ENDBRANCH  13  16
ENDBRANCH   1  12
BRANCH   2  24
HETATM   24  C   UNL     1      -7.876   0.758 -33.115  1.00  0.00    -0.032 A 
HETATM   25  C   UNL     1      -7.048  -0.173 -32.473  1.00  0.00     0.012 A 
HETATM   26  C   UNL     1      -6.326  -1.123 -33.206  1.00  0.00     0.037 A 
HETATM   27  C   UNL     1      -6.414  -1.176 -34.595  1.00  0.00     0.068 A 
HETATM   28  C   UNL     1      -7.209  -0.246 -35.254  1.00  0.00     0.037 A 
HETATM   29  C   UNL     1      -7.925   0.711 -34.522  1.00  0.00     0.012 A 
BRANCH  27  30
HETATM   30  O   UNL     1      -5.670  -2.162 -35.182  1.00  0.00    -0.356 OA
HETATM   31  C   UNL     1      -4.791  -2.886 -34.329  1.00  0.00     0.210 C 
ENDBRANCH  27  30
ENDBRANCH   2  24
TORSDOF 4
ENDMDL
