MODEL 1
REMARK VINA RESULT:      -9.0      0.000      0.000
REMARK  5 active torsions:
REMARK  status: ('A' for Active; 'I' for Inactive)
REMARK    1  A    between atoms: C_8  and  N_9 
REMARK    2  A    between atoms: N_9  and  C_10 
REMARK    3  A    between atoms: C_10  and  C_11 
REMARK       I    between atoms: C_11  and  N_12 
REMARK    4  A    between atoms: N_12  and  N_13 
REMARK    5  A    between atoms: C_14  and  C_15 
ROOT
HETATM    1  C   UNL     1      -9.126   2.541 -34.217  1.00  0.00     0.250 C 
HETATM    2  N   UNL     1      -9.030   1.252 -34.743  1.00  0.00    -0.246 N 
HETATM    3  O   UNL     1      -8.209   3.154 -33.673  1.00  0.00    -0.270 OA
HETATM    4  H   UNL     1      -9.732   0.950 -35.412  1.00  0.00     0.192 HD
ENDROOT
BRANCH   2   5
HETATM    5  N   UNL     1      -7.885   0.494 -34.800  1.00  0.00    -0.184 NA
HETATM    6  C   UNL     1      -7.513  -0.155 -33.743  1.00  0.00     0.153 C 
BRANCH   6   7
HETATM    7  C   UNL     1      -6.290  -0.942 -33.765  1.00  0.00     0.018 A 
HETATM    8  C   UNL     1      -6.088  -2.302 -34.181  1.00  0.00     0.004 A 
HETATM    9  C   UNL     1      -4.736  -2.596 -34.005  1.00  0.00     0.043 A 
HETATM   10  C   UNL     1      -6.924  -3.319 -34.691  1.00  0.00     0.014 A 
HETATM   11  C   UNL     1      -4.180  -3.846 -34.309  1.00  0.00     0.030 A 
HETATM   12  N   UNL     1      -4.135  -1.465 -33.509  1.00  0.00    -0.358 N 
HETATM   13  C   UNL     1      -5.033  -4.831 -34.811  1.00  0.00     0.002 A 
HETATM   14  C   UNL     1      -6.388  -4.574 -35.001  1.00  0.00     0.001 A 
HETATM   15  H   UNL     1      -3.151  -1.394 -33.292  1.00  0.00     0.166 HD
HETATM   16  C   UNL     1      -5.053  -0.457 -33.357  1.00  0.00     0.018 A 
HETATM   17  C   UNL     1      -4.654   0.878 -32.838  1.00  0.00     0.069 C 
ENDBRANCH   6   7
ENDBRANCH   2   5
BRANCH   1  18
HETATM   18  C   UNL     1     -10.530   3.145 -34.383  1.00  0.00     0.197 C 
BRANCH  18  19
HETATM   19  N   UNL     1     -11.329   2.963 -33.157  1.00  0.00    -0.284 NA
HETATM   20  H   UNL     1     -11.450   3.846 -32.663  1.00  0.00     0.128 HD
BRANCH  19  21
HETATM   21  C   UNL     1     -12.569   2.336 -33.405  1.00  0.00     0.016 A 
HETATM   22  C   UNL     1     -13.734   2.693 -32.689  1.00  0.00    -0.019 A 
HETATM   23  C   UNL     1     -13.730   3.856 -31.730  1.00  0.00     0.052 C 
HETATM   24  C   UNL     1     -14.907   1.942 -32.894  1.00  0.00     0.041 A 
HETATM   25 CL   UNL     1     -16.367   2.279 -32.026  1.00  0.00    -0.084 Cl
HETATM   26  C   UNL     1     -14.937   0.882 -33.804  1.00  0.00     0.024 A 
HETATM   27  C   UNL     1     -13.792   0.547 -34.518  1.00  0.00     0.003 A 
HETATM   28  C   UNL     1     -12.615   1.264 -34.313  1.00  0.00     0.024 A 
ENDBRANCH  19  21
ENDBRANCH  18  19
ENDBRANCH   1  18
TORSDOF 5
ENDMDL
MODEL 2
REMARK VINA RESULT:      -8.8      5.886      9.477
REMARK  5 active torsions:
REMARK  status: ('A' for Active; 'I' for Inactive)
REMARK    1  A    between atoms: C_8  and  N_9 
REMARK    2  A    between atoms: N_9  and  C_10 
REMARK    3  A    between atoms: C_10  and  C_11 
REMARK       I    between atoms: C_11  and  N_12 
REMARK    4  A    between atoms: N_12  and  N_13 
REMARK    5  A    between atoms: C_14  and  C_15 
ROOT
HETATM    1  C   UNL     1      -3.423   0.432 -31.292  1.00  0.00     0.250 C 
HETATM    2  N   UNL     1      -4.010   1.587 -31.810  1.00  0.00    -0.246 N 
HETATM    3  O   UNL     1      -2.299   0.369 -30.799  1.00  0.00    -0.270 OA
HETATM    4  H   UNL     1      -5.019   1.607 -31.925  1.00  0.00     0.192 HD
ENDROOT
BRANCH   2   5
HETATM    5  N   UNL     1      -3.455   2.845 -31.789  1.00  0.00    -0.184 NA
HETATM    6  C   UNL     1      -2.813   3.261 -32.835  1.00  0.00     0.153 C 
BRANCH   6   7
HETATM    7  C   UNL     1      -2.191   4.576 -32.830  1.00  0.00     0.018 A 
HETATM    8  C   UNL     1      -1.273   5.147 -31.884  1.00  0.00     0.004 A 
HETATM    9  C   UNL     1      -0.974   6.438 -32.321  1.00  0.00     0.043 A 
HETATM   10  C   UNL     1      -0.665   4.694 -30.693  1.00  0.00     0.014 A 
HETATM   11  C   UNL     1      -0.104   7.294 -31.632  1.00  0.00     0.030 A 
HETATM   12  N   UNL     1      -1.671   6.645 -33.485  1.00  0.00    -0.358 N 
HETATM   13  C   UNL     1       0.481   6.818 -30.457  1.00  0.00     0.002 A 
HETATM   14  C   UNL     1       0.206   5.535 -29.991  1.00  0.00     0.001 A 
HETATM   15  H   UNL     1      -1.636   7.500 -34.022  1.00  0.00     0.166 HD
HETATM   16  C   UNL     1      -2.411   5.537 -33.809  1.00  0.00     0.018 A 
HETATM   17  C   UNL     1      -3.256   5.505 -35.033  1.00  0.00     0.069 C 
ENDBRANCH   6   7
ENDBRANCH   2   5
BRANCH   1  18
HETATM   18  C   UNL     1      -4.342  -0.796 -31.397  1.00  0.00     0.197 C 
BRANCH  18  19
HETATM   19  N   UNL     1      -4.926  -0.901 -32.747  1.00  0.00    -0.284 NA
HETATM   20  H   UNL     1      -4.579  -0.161 -33.356  1.00  0.00     0.128 HD
BRANCH  19  21
HETATM   21  C   UNL     1      -4.739  -2.176 -33.324  1.00  0.00     0.016 A 
HETATM   22  C   UNL     1      -5.659  -2.709 -34.253  1.00  0.00    -0.019 A 
HETATM   23  C   UNL     1      -6.807  -1.881 -34.772  1.00  0.00     0.052 C 
HETATM   24  C   UNL     1      -5.482  -4.035 -34.692  1.00  0.00     0.041 A 
HETATM   25 CL   UNL     1      -6.587  -4.786 -35.794  1.00  0.00    -0.084 Cl
HETATM   26  C   UNL     1      -4.404  -4.805 -34.246  1.00  0.00     0.024 A 
HETATM   27  C   UNL     1      -3.491  -4.268 -33.346  1.00  0.00     0.003 A 
HETATM   28  C   UNL     1      -3.663  -2.965 -32.881  1.00  0.00     0.024 A 
ENDBRANCH  19  21
ENDBRANCH  18  19
ENDBRANCH   1  18
TORSDOF 5
ENDMDL
MODEL 3
REMARK VINA RESULT:      -8.6      1.469      2.004
REMARK  5 active torsions:
REMARK  status: ('A' for Active; 'I' for Inactive)
REMARK    1  A    between atoms: C_8  and  N_9 
REMARK    2  A    between atoms: N_9  and  C_10 
REMARK    3  A    between atoms: C_10  and  C_11 
REMARK       I    between atoms: C_11  and  N_12 
REMARK    4  A    between atoms: N_12  and  N_13 
REMARK    5  A    between atoms: C_14  and  C_15 
ROOT
HETATM    1  C   UNL     1      -9.414   1.709 -32.508  1.00  0.00     0.250 C 
HETATM    2  N   UNL     1      -8.021   1.777 -32.564  1.00  0.00    -0.246 N 
HETATM    3  O   UNL     1     -10.072   0.670 -32.498  1.00  0.00    -0.270 OA
HETATM    4  H   UNL     1      -7.568   2.641 -32.281  1.00  0.00     0.192 HD
ENDROOT
BRANCH   2   5
HETATM    5  N   UNL     1      -7.166   0.701 -32.548  1.00  0.00    -0.184 NA
HETATM    6  C   UNL     1      -6.379   0.515 -33.559  1.00  0.00     0.153 C 
BRANCH   6   7
HETATM    7  C   UNL     1      -5.484  -0.631 -33.583  1.00  0.00     0.018 A 
HETATM    8  C   UNL     1      -5.723  -1.965 -34.060  1.00  0.00     0.004 A 
HETATM    9  C   UNL     1      -4.553  -2.697 -33.857  1.00  0.00     0.043 A 
HETATM   10  C   UNL     1      -6.824  -2.628 -34.645  1.00  0.00     0.014 A 
HETATM   11  C   UNL     1      -4.427  -4.049 -34.206  1.00  0.00     0.030 A 
HETATM   12  N   UNL     1      -3.636  -1.848 -33.288  1.00  0.00    -0.358 N 
HETATM   13  C   UNL     1      -5.534  -4.676 -34.782  1.00  0.00     0.002 A 
HETATM   14  C   UNL     1      -6.718  -3.978 -35.000  1.00  0.00     0.001 A 
HETATM   15  H   UNL     1      -2.694  -2.116 -33.037  1.00  0.00     0.166 HD
HETATM   16  C   UNL     1      -4.176  -0.599 -33.113  1.00  0.00     0.018 A 
HETATM   17  C   UNL     1      -3.382   0.508 -32.517  1.00  0.00     0.069 C 
ENDBRANCH   6   7
ENDBRANCH   2   5
BRANCH   1  18
HETATM   18  C   UNL     1     -10.073   3.097 -32.457  1.00  0.00     0.197 C 
BRANCH  18  19
HETATM   19  N   UNL     1     -11.055   3.251 -33.546  1.00  0.00    -0.284 NA
HETATM   20  H   UNL     1     -10.754   2.758 -34.385  1.00  0.00     0.128 HD
BRANCH  19  21
HETATM   21  C   UNL     1     -12.359   2.868 -33.162  1.00  0.00     0.016 A 
HETATM   22  C   UNL     1     -13.110   1.943 -33.920  1.00  0.00    -0.019 A 
HETATM   23  C   UNL     1     -12.498   1.220 -35.093  1.00  0.00     0.052 C 
HETATM   24  C   UNL     1     -14.449   1.702 -33.554  1.00  0.00     0.041 A 
HETATM   25 CL   UNL     1     -15.458   0.619 -34.452  1.00  0.00    -0.084 Cl
HETATM   26  C   UNL     1     -15.021   2.338 -32.449  1.00  0.00     0.024 A 
HETATM   27  C   UNL     1     -14.270   3.234 -31.696  1.00  0.00     0.003 A 
HETATM   28  C   UNL     1     -12.951   3.503 -32.057  1.00  0.00     0.024 A 
ENDBRANCH  19  21
ENDBRANCH  18  19
ENDBRANCH   1  18
TORSDOF 5
ENDMDL
MODEL 4
REMARK VINA RESULT:      -8.4      5.429      9.087
REMARK  5 active torsions:
REMARK  status: ('A' for Active; 'I' for Inactive)
REMARK    1  A    between atoms: C_8  and  N_9 
REMARK    2  A    between atoms: N_9  and  C_10 
REMARK    3  A    between atoms: C_10  and  C_11 
REMARK       I    between atoms: C_11  and  N_12 
REMARK    4  A    between atoms: N_12  and  N_13 
REMARK    5  A    between atoms: C_14  and  C_15 
ROOT
HETATM    1  C   UNL     1      -6.294   1.876 -32.874  1.00  0.00     0.250 C 
HETATM    2  N   UNL     1      -4.982   2.128 -32.472  1.00  0.00    -0.246 N 
HETATM    3  O   UNL     1      -7.066   2.714 -33.337  1.00  0.00    -0.270 OA
HETATM    4  H   UNL     1      -4.346   1.341 -32.380  1.00  0.00     0.192 HD
ENDROOT
BRANCH   2   5
HETATM    5  N   UNL     1      -4.323   3.328 -32.593  1.00  0.00    -0.184 NA
HETATM    6  C   UNL     1      -3.037   3.322 -32.743  1.00  0.00     0.153 C 
BRANCH   6   7
HETATM    7  C   UNL     1      -2.310   4.578 -32.844  1.00  0.00     0.018 A 
HETATM    8  C   UNL     1      -1.353   5.153 -31.940  1.00  0.00     0.004 A 
HETATM    9  C   UNL     1      -0.949   6.373 -32.482  1.00  0.00     0.043 A 
HETATM   10  C   UNL     1      -0.789   4.758 -30.708  1.00  0.00     0.014 A 
HETATM   11  C   UNL     1      -0.015   7.213 -31.860  1.00  0.00     0.030 A 
HETATM   12  N   UNL     1      -1.622   6.535 -33.668  1.00  0.00    -0.358 N 
HETATM   13  C   UNL     1       0.524   6.795 -30.641  1.00  0.00     0.002 A 
HETATM   14  C   UNL     1       0.144   5.583 -30.071  1.00  0.00     0.001 A 
HETATM   15  H   UNL     1      -1.515   7.334 -34.276  1.00  0.00     0.166 HD
HETATM   16  C   UNL     1      -2.448   5.466 -33.905  1.00  0.00     0.018 A 
HETATM   17  C   UNL     1      -3.287   5.396 -35.130  1.00  0.00     0.069 C 
ENDBRANCH   6   7
ENDBRANCH   2   5
BRANCH   1  18
HETATM   18  C   UNL     1      -6.702   0.407 -32.679  1.00  0.00     0.197 C 
BRANCH  18  19
HETATM   19  N   UNL     1      -5.518  -0.439 -32.443  1.00  0.00    -0.284 NA
HETATM   20  H   UNL     1      -5.393  -0.629 -31.449  1.00  0.00     0.128 HD
BRANCH  19  21
HETATM   21  C   UNL     1      -5.543  -1.633 -33.197  1.00  0.00     0.016 A 
HETATM   22  C   UNL     1      -4.475  -2.556 -33.155  1.00  0.00    -0.019 A 
HETATM   23  C   UNL     1      -3.325  -2.371 -32.197  1.00  0.00     0.052 C 
HETATM   24  C   UNL     1      -4.505  -3.662 -34.027  1.00  0.00     0.041 A 
HETATM   25 CL   UNL     1      -3.217  -4.818 -34.077  1.00  0.00    -0.084 Cl
HETATM   26  C   UNL     1      -5.579  -3.865 -34.897  1.00  0.00     0.024 A 
HETATM   27  C   UNL     1      -6.636  -2.963 -34.921  1.00  0.00     0.003 A 
HETATM   28  C   UNL     1      -6.613  -1.850 -34.082  1.00  0.00     0.024 A 
ENDBRANCH  19  21
ENDBRANCH  18  19
ENDBRANCH   1  18
TORSDOF 5
ENDMDL
MODEL 5
REMARK VINA RESULT:      -8.2      5.401      7.671
REMARK  5 active torsions:
REMARK  status: ('A' for Active; 'I' for Inactive)
REMARK    1  A    between atoms: C_8  and  N_9 
REMARK    2  A    between atoms: N_9  and  C_10 
REMARK    3  A    between atoms: C_10  and  C_11 
REMARK       I    between atoms: C_11  and  N_12 
REMARK    4  A    between atoms: N_12  and  N_13 
REMARK    5  A    between atoms: C_14  and  C_15 
ROOT
HETATM    1  C   UNL     1      -5.934   3.134 -31.243  1.00  0.00     0.250 C 
HETATM    2  N   UNL     1      -5.122   1.999 -31.284  1.00  0.00    -0.246 N 
HETATM    3  O   UNL     1      -7.026   3.244 -31.797  1.00  0.00    -0.270 OA
HETATM    4  H   UNL     1      -4.398   1.898 -30.579  1.00  0.00     0.192 HD
ENDROOT
BRANCH   2   5
HETATM    5  N   UNL     1      -5.444   0.807 -31.887  1.00  0.00    -0.184 NA
HETATM    6  C   UNL     1      -4.841   0.481 -32.986  1.00  0.00     0.153 C 
BRANCH   6   7
HETATM    7  C   UNL     1      -5.182  -0.761 -33.662  1.00  0.00     0.018 A 
HETATM    8  C   UNL     1      -4.617  -2.072 -33.500  1.00  0.00     0.004 A 
HETATM    9  C   UNL     1      -5.282  -2.924 -34.382  1.00  0.00     0.043 A 
HETATM   10  C   UNL     1      -3.601  -2.622 -32.689  1.00  0.00     0.014 A 
HETATM   11  C   UNL     1      -4.985  -4.290 -34.495  1.00  0.00     0.030 A 
HETATM   12  N   UNL     1      -6.217  -2.171 -35.049  1.00  0.00    -0.358 N 
HETATM   13  C   UNL     1      -3.974  -4.803 -33.680  1.00  0.00     0.002 A 
HETATM   14  C   UNL     1      -3.290  -3.983 -32.788  1.00  0.00     0.001 A 
HETATM   15  H   UNL     1      -6.846  -2.538 -35.749  1.00  0.00     0.166 HD
HETATM   16  C   UNL     1      -6.172  -0.865 -34.632  1.00  0.00     0.018 A 
HETATM   17  C   UNL     1      -7.090   0.157 -35.200  1.00  0.00     0.069 C 
ENDBRANCH   6   7
ENDBRANCH   2   5
BRANCH   1  18
HETATM   18  C   UNL     1      -5.317   4.273 -30.416  1.00  0.00     0.197 C 
BRANCH  18  19
HETATM   19  N   UNL     1      -5.045   5.449 -31.263  1.00  0.00    -0.284 NA
HETATM   20  H   UNL     1      -5.288   6.314 -30.780  1.00  0.00     0.128 HD
BRANCH  19  21
HETATM   21  C   UNL     1      -3.717   5.481 -31.740  1.00  0.00     0.016 A 
HETATM   22  C   UNL     1      -3.419   5.299 -33.109  1.00  0.00    -0.019 A 
HETATM   23  C   UNL     1      -4.518   5.202 -34.137  1.00  0.00     0.052 C 
HETATM   24  C   UNL     1      -2.069   5.214 -33.500  1.00  0.00     0.041 A 
HETATM   25 CL   UNL     1      -1.612   4.945 -35.148  1.00  0.00    -0.084 Cl
HETATM   26  C   UNL     1      -1.038   5.335 -32.564  1.00  0.00     0.024 A 
HETATM   27  C   UNL     1      -1.337   5.532 -31.221  1.00  0.00     0.003 A 
HETATM   28  C   UNL     1      -2.668   5.596 -30.812  1.00  0.00     0.024 A 
ENDBRANCH  19  21
ENDBRANCH  18  19
ENDBRANCH   1  18
TORSDOF 5
ENDMDL
MODEL 6
REMARK VINA RESULT:      -8.2      3.163      8.626
REMARK  5 active torsions:
REMARK  status: ('A' for Active; 'I' for Inactive)
REMARK    1  A    between atoms: C_8  and  N_9 
REMARK    2  A    between atoms: N_9  and  C_10 
REMARK    3  A    between atoms: C_10  and  C_11 
REMARK       I    between atoms: C_11  and  N_12 
REMARK    4  A    between atoms: N_12  and  N_13 
REMARK    5  A    between atoms: C_14  and  C_15 
ROOT
HETATM    1  C   UNL     1      -6.333   0.929 -32.088  1.00  0.00     0.250 C 
HETATM    2  N   UNL     1      -7.579   0.309 -31.985  1.00  0.00    -0.246 N 
HETATM    3  O   UNL     1      -6.145   2.077 -32.488  1.00  0.00    -0.270 OA
HETATM    4  H   UNL     1      -7.664  -0.508 -31.387  1.00  0.00     0.192 HD
ENDROOT
BRANCH   2   5
HETATM    5  N   UNL     1      -8.792   0.901 -32.246  1.00  0.00    -0.184 NA
HETATM    6  C   UNL     1      -9.275   0.831 -33.446  1.00  0.00     0.153 C 
BRANCH   6   7
HETATM    7  C   UNL     1     -10.541   1.473 -33.759  1.00  0.00     0.018 A 
HETATM    8  C   UNL     1     -11.866   0.917 -33.771  1.00  0.00     0.004 A 
HETATM    9  C   UNL     1     -12.743   1.937 -34.144  1.00  0.00     0.043 A 
HETATM   10  C   UNL     1     -12.411  -0.358 -33.504  1.00  0.00     0.014 A 
HETATM   11  C   UNL     1     -14.127   1.749 -34.262  1.00  0.00     0.030 A 
HETATM   12  N   UNL     1     -11.990   3.067 -34.343  1.00  0.00    -0.358 N 
HETATM   13  C   UNL     1     -14.635   0.477 -33.992  1.00  0.00     0.002 A 
HETATM   14  C   UNL     1     -13.791  -0.565 -33.617  1.00  0.00     0.001 A 
HETATM   15  H   UNL     1     -12.371   3.962 -34.617  1.00  0.00     0.166 HD
HETATM   16  C   UNL     1     -10.661   2.810 -34.118  1.00  0.00     0.018 A 
HETATM   17  C   UNL     1      -9.634   3.875 -34.264  1.00  0.00     0.069 C 
ENDBRANCH   6   7
ENDBRANCH   2   5
BRANCH   1  18
HETATM   18  C   UNL     1      -5.179   0.018 -31.641  1.00  0.00     0.197 C 
BRANCH  18  19
HETATM   19  N   UNL     1      -4.283  -0.288 -32.771  1.00  0.00    -0.284 NA
HETATM   20  H   UNL     1      -3.413   0.238 -32.703  1.00  0.00     0.128 HD
BRANCH  19  21
HETATM   21  C   UNL     1      -4.040  -1.671 -32.915  1.00  0.00     0.016 A 
HETATM   22  C   UNL     1      -4.741  -2.451 -33.861  1.00  0.00    -0.019 A 
HETATM   23  C   UNL     1      -5.679  -1.810 -34.853  1.00  0.00     0.052 C 
HETATM   24  C   UNL     1      -4.544  -3.845 -33.865  1.00  0.00     0.041 A 
HETATM   25 CL   UNL     1      -5.396  -4.883 -34.958  1.00  0.00    -0.084 Cl
HETATM   26  C   UNL     1      -3.654  -4.450 -32.974  1.00  0.00     0.024 A 
HETATM   27  C   UNL     1      -2.952  -3.676 -32.057  1.00  0.00     0.003 A 
HETATM   28  C   UNL     1      -3.152  -2.297 -32.023  1.00  0.00     0.024 A 
ENDBRANCH  19  21
ENDBRANCH  18  19
ENDBRANCH   1  18
TORSDOF 5
ENDMDL
MODEL 7
REMARK VINA RESULT:      -8.1      6.354      9.398
REMARK  5 active torsions:
REMARK  status: ('A' for Active; 'I' for Inactive)
REMARK    1  A    between atoms: C_8  and  N_9 
REMARK    2  A    between atoms: N_9  and  C_10 
REMARK    3  A    between atoms: C_10  and  C_11 
REMARK       I    between atoms: C_11  and  N_12 
REMARK    4  A    between atoms: N_12  and  N_13 
REMARK    5  A    between atoms: C_14  and  C_15 
ROOT
HETATM    1  C   UNL     1      -2.937   3.849 -32.400  1.00  0.00     0.250 C 
HETATM    2  N   UNL     1      -3.605   2.751 -31.857  1.00  0.00    -0.246 N 
HETATM    3  O   UNL     1      -3.021   4.222 -33.569  1.00  0.00    -0.270 OA
HETATM    4  H   UNL     1      -3.702   2.695 -30.847  1.00  0.00     0.192 HD
ENDROOT
BRANCH   2   5
HETATM    5  N   UNL     1      -4.513   1.958 -32.519  1.00  0.00    -0.184 NA
HETATM    6  C   UNL     1      -4.829   0.811 -32.008  1.00  0.00     0.153 C 
BRANCH   6   7
HETATM    7  C   UNL     1      -5.763  -0.061 -32.701  1.00  0.00     0.018 A 
HETATM    8  C   UNL     1      -5.506  -1.259 -33.452  1.00  0.00     0.004 A 
HETATM    9  C   UNL     1      -6.733  -1.725 -33.926  1.00  0.00     0.043 A 
HETATM   10  C   UNL     1      -4.348  -1.997 -33.780  1.00  0.00     0.014 A 
HETATM   11  C   UNL     1      -6.861  -2.882 -34.706  1.00  0.00     0.030 A 
HETATM   12  N   UNL     1      -7.698  -0.856 -33.480  1.00  0.00    -0.358 N 
HETATM   13  C   UNL     1      -5.697  -3.589 -35.015  1.00  0.00     0.002 A 
HETATM   14  C   UNL     1      -4.455  -3.155 -34.559  1.00  0.00     0.001 A 
HETATM   15  H   UNL     1      -8.685  -0.956 -33.673  1.00  0.00     0.166 HD
HETATM   16  C   UNL     1      -7.135   0.154 -32.741  1.00  0.00     0.018 A 
HETATM   17  C   UNL     1      -7.971   1.226 -32.138  1.00  0.00     0.069 C 
ENDBRANCH   6   7
ENDBRANCH   2   5
BRANCH   1  18
HETATM   18  C   UNL     1      -2.056   4.574 -31.370  1.00  0.00     0.197 C 
BRANCH  18  19
HETATM   19  N   UNL     1      -2.066   6.030 -31.603  1.00  0.00    -0.284 NA
HETATM   20  H   UNL     1      -2.935   6.325 -32.047  1.00  0.00     0.128 HD
BRANCH  19  21
HETATM   21  C   UNL     1      -1.809   6.771 -30.428  1.00  0.00     0.016 A 
HETATM   22  C   UNL     1      -0.499   7.160 -30.072  1.00  0.00    -0.019 A 
HETATM   23  C   UNL     1       0.663   6.921 -31.003  1.00  0.00     0.052 C 
HETATM   24  C   UNL     1      -0.296   7.785 -28.826  1.00  0.00     0.041 A 
HETATM   25 CL   UNL     1       1.281   8.253 -28.288  1.00  0.00    -0.084 Cl
HETATM   26  C   UNL     1      -1.367   8.043 -27.966  1.00  0.00     0.024 A 
HETATM   27  C   UNL     1      -2.657   7.674 -28.330  1.00  0.00     0.003 A 
HETATM   28  C   UNL     1      -2.874   7.034 -29.550  1.00  0.00     0.024 A 
ENDBRANCH  19  21
ENDBRANCH  18  19
ENDBRANCH   1  18
TORSDOF 5
ENDMDL
MODEL 8
REMARK VINA RESULT:      -8.1      2.647      3.322
REMARK  5 active torsions:
REMARK  status: ('A' for Active; 'I' for Inactive)
REMARK    1  A    between atoms: C_8  and  N_9 
REMARK    2  A    between atoms: N_9  and  C_10 
REMARK    3  A    between atoms: C_10  and  C_11 
REMARK       I    between atoms: C_11  and  N_12 
REMARK    4  A    between atoms: N_12  and  N_13 
REMARK    5  A    between atoms: C_14  and  C_15 
ROOT
HETATM    1  C   UNL     1     -10.019   0.900 -33.854  1.00  0.00     0.250 C 
HETATM    2  N   UNL     1      -8.918   0.934 -34.711  1.00  0.00    -0.246 N 
HETATM    3  O   UNL     1     -10.243   0.022 -33.024  1.00  0.00    -0.270 OA
HETATM    4  H   UNL     1      -8.669   1.819 -35.144  1.00  0.00     0.192 HD
ENDROOT
BRANCH   2   5
HETATM    5  N   UNL     1      -7.879   0.034 -34.715  1.00  0.00    -0.184 NA
HETATM    6  C   UNL     1      -7.106  -0.032 -33.678  1.00  0.00     0.153 C 
BRANCH   6   7
HETATM    7  C   UNL     1      -5.981  -0.954 -33.666  1.00  0.00     0.018 A 
HETATM    8  C   UNL     1      -5.915  -2.317 -34.116  1.00  0.00     0.004 A 
HETATM    9  C   UNL     1      -4.616  -2.770 -33.883  1.00  0.00     0.043 A 
HETATM   10  C   UNL     1      -6.835  -3.216 -34.699  1.00  0.00     0.014 A 
HETATM   11  C   UNL     1      -4.192  -4.068 -34.201  1.00  0.00     0.030 A 
HETATM   12  N   UNL     1      -3.917  -1.730 -33.323  1.00  0.00    -0.358 N 
HETATM   13  C   UNL     1      -5.125  -4.934 -34.775  1.00  0.00     0.002 A 
HETATM   14  C   UNL     1      -6.430  -4.516 -35.023  1.00  0.00     0.001 A 
HETATM   15  H   UNL     1      -2.944  -1.780 -33.056  1.00  0.00     0.166 HD
HETATM   16  C   UNL     1      -4.720  -0.627 -33.182  1.00  0.00     0.018 A 
HETATM   17  C   UNL     1      -4.198   0.638 -32.601  1.00  0.00     0.069 C 
ENDBRANCH   6   7
ENDBRANCH   2   5
BRANCH   1  18
HETATM   18  C   UNL     1     -10.958   2.102 -34.050  1.00  0.00     0.197 C 
BRANCH  18  19
HETATM   19  N   UNL     1     -10.553   2.899 -35.222  1.00  0.00    -0.284 NA
HETATM   20  H   UNL     1     -10.734   2.395 -36.089  1.00  0.00     0.128 HD
BRANCH  19  21
HETATM   21  C   UNL     1     -11.142   4.182 -35.237  1.00  0.00     0.016 A 
HETATM   22  C   UNL     1     -10.458   5.315 -34.742  1.00  0.00    -0.019 A 
HETATM   23  C   UNL     1      -9.018   5.224 -34.305  1.00  0.00     0.052 C 
HETATM   24  C   UNL     1     -11.149   6.540 -34.668  1.00  0.00     0.041 A 
HETATM   25 CL   UNL     1     -10.406   7.968 -34.031  1.00  0.00    -0.084 Cl
HETATM   26  C   UNL     1     -12.473   6.649 -35.100  1.00  0.00     0.024 A 
HETATM   27  C   UNL     1     -13.135   5.534 -35.603  1.00  0.00     0.003 A 
HETATM   28  C   UNL     1     -12.475   4.308 -35.663  1.00  0.00     0.024 A 
ENDBRANCH  19  21
ENDBRANCH  18  19
ENDBRANCH   1  18
TORSDOF 5
ENDMDL
MODEL 9
REMARK VINA RESULT:      -8.1      3.122      8.871
REMARK  5 active torsions:
REMARK  status: ('A' for Active; 'I' for Inactive)
REMARK    1  A    between atoms: C_8  and  N_9 
REMARK    2  A    between atoms: N_9  and  C_10 
REMARK    3  A    between atoms: C_10  and  C_11 
REMARK       I    between atoms: C_11  and  N_12 
REMARK    4  A    between atoms: N_12  and  N_13 
REMARK    5  A    between atoms: C_14  and  C_15 
ROOT
HETATM    1  C   UNL     1      -7.196   0.819 -32.101  1.00  0.00     0.250 C 
HETATM    2  N   UNL     1      -8.447   0.307 -32.450  1.00  0.00    -0.246 N 
HETATM    3  O   UNL     1      -6.915   2.014 -32.029  1.00  0.00    -0.270 OA
HETATM    4  H   UNL     1      -8.660  -0.655 -32.206  1.00  0.00     0.192 HD
ENDROOT
BRANCH   2   5
HETATM    5  N   UNL     1      -9.576   1.052 -32.698  1.00  0.00    -0.184 NA
HETATM    6  C   UNL     1     -10.054   1.077 -33.901  1.00  0.00     0.153 C 
BRANCH   6   7
HETATM    7  C   UNL     1     -11.230   1.879 -34.200  1.00  0.00     0.018 A 
HETATM    8  C   UNL     1     -11.314   3.242 -34.646  1.00  0.00     0.004 A 
HETATM    9  C   UNL     1     -12.668   3.553 -34.782  1.00  0.00     0.043 A 
HETATM   10  C   UNL     1     -10.371   4.249 -34.947  1.00  0.00     0.014 A 
HETATM   11  C   UNL     1     -13.124   4.811 -35.201  1.00  0.00     0.030 A 
HETATM   12  N   UNL     1     -13.379   2.429 -34.442  1.00  0.00    -0.358 N 
HETATM   13  C   UNL     1     -12.166   5.786 -35.490  1.00  0.00     0.002 A 
HETATM   14  C   UNL     1     -10.807   5.511 -35.366  1.00  0.00     0.001 A 
HETATM   15  H   UNL     1     -14.388   2.371 -34.457  1.00  0.00     0.166 HD
HETATM   16  C   UNL     1     -12.533   1.410 -34.087  1.00  0.00     0.018 A 
HETATM   17  C   UNL     1     -13.057   0.080 -33.679  1.00  0.00     0.069 C 
ENDBRANCH   6   7
ENDBRANCH   2   5
BRANCH   1  18
HETATM   18  C   UNL     1      -6.167  -0.283 -31.807  1.00  0.00     0.197 C 
BRANCH  18  19
HETATM   19  N   UNL     1      -5.128  -0.325 -32.853  1.00  0.00    -0.284 NA
HETATM   20  H   UNL     1      -4.290   0.174 -32.559  1.00  0.00     0.128 HD
BRANCH  19  21
HETATM   21  C   UNL     1      -4.826  -1.641 -33.268  1.00  0.00     0.016 A 
HETATM   22  C   UNL     1      -5.621  -2.316 -34.221  1.00  0.00    -0.019 A 
HETATM   23  C   UNL     1      -6.743  -1.608 -34.938  1.00  0.00     0.052 C 
HETATM   24  C   UNL     1      -5.341  -3.668 -34.495  1.00  0.00     0.041 A 
HETATM   25 CL   UNL     1      -6.291  -4.587 -35.613  1.00  0.00    -0.084 Cl
HETATM   26  C   UNL     1      -4.284  -4.329 -33.863  1.00  0.00     0.024 A 
HETATM   27  C   UNL     1      -3.495  -3.654 -32.939  1.00  0.00     0.003 A 
HETATM   28  C   UNL     1      -3.770  -2.322 -32.638  1.00  0.00     0.024 A 
ENDBRANCH  19  21
ENDBRANCH  18  19
ENDBRANCH   1  18
TORSDOF 5
ENDMDL
MODEL 10
REMARK VINA RESULT:      -7.8      6.177      9.429
REMARK  5 active torsions:
REMARK  status: ('A' for Active; 'I' for Inactive)
REMARK    1  A    between atoms: C_8  and  N_9 
REMARK    2  A    between atoms: N_9  and  C_10 
REMARK    3  A    between atoms: C_10  and  C_11 
REMARK       I    between atoms: C_11  and  N_12 
REMARK    4  A    between atoms: N_12  and  N_13 
REMARK    5  A    between atoms: C_14  and  C_15 
ROOT
HETATM    1  C   UNL     1      -4.973   5.079 -30.631  1.00  0.00     0.250 C 
HETATM    2  N   UNL     1      -4.294   3.861 -30.575  1.00  0.00    -0.246 N 
HETATM    3  O   UNL     1      -6.028   5.275 -31.232  1.00  0.00    -0.270 OA
HETATM    4  H   UNL     1      -3.609   3.724 -29.838  1.00  0.00     0.192 HD
ENDROOT
BRANCH   2   5
HETATM    5  N   UNL     1      -4.729   2.676 -31.120  1.00  0.00    -0.184 NA
HETATM    6  C   UNL     1      -3.986   2.085 -32.000  1.00  0.00     0.153 C 
BRANCH   6   7
HETATM    7  C   UNL     1      -4.434   0.845 -32.615  1.00  0.00     0.018 A 
HETATM    8  C   UNL     1      -5.558   0.611 -33.479  1.00  0.00     0.004 A 
HETATM    9  C   UNL     1      -5.564  -0.748 -33.796  1.00  0.00     0.043 A 
HETATM   10  C   UNL     1      -6.576   1.421 -34.026  1.00  0.00     0.014 A 
HETATM   11  C   UNL     1      -6.530  -1.335 -34.624  1.00  0.00     0.030 A 
HETATM   12  N   UNL     1      -4.489  -1.319 -33.160  1.00  0.00    -0.358 N 
HETATM   13  C   UNL     1      -7.525  -0.507 -35.148  1.00  0.00     0.002 A 
HETATM   14  C   UNL     1      -7.550   0.853 -34.855  1.00  0.00     0.001 A 
HETATM   15  H   UNL     1      -4.249  -2.298 -33.220  1.00  0.00     0.166 HD
HETATM   16  C   UNL     1      -3.796  -0.377 -32.443  1.00  0.00     0.018 A 
HETATM   17  C   UNL     1      -2.582  -0.740 -31.664  1.00  0.00     0.069 C 
ENDBRANCH   6   7
ENDBRANCH   2   5
BRANCH   1  18
HETATM   18  C   UNL     1      -4.258   6.192 -29.848  1.00  0.00     0.197 C 
BRANCH  18  19
HETATM   19  N   UNL     1      -3.209   6.822 -30.671  1.00  0.00    -0.284 NA
HETATM   20  H   UNL     1      -3.419   7.804 -30.845  1.00  0.00     0.128 HD
BRANCH  19  21
HETATM   21  C   UNL     1      -1.917   6.660 -30.124  1.00  0.00     0.016 A 
HETATM   22  C   UNL     1      -0.948   5.844 -30.749  1.00  0.00    -0.019 A 
HETATM   23  C   UNL     1      -1.207   5.225 -32.099  1.00  0.00     0.052 C 
HETATM   24  C   UNL     1       0.275   5.623 -30.087  1.00  0.00     0.041 A 
HETATM   25 CL   UNL     1       1.502   4.601 -30.756  1.00  0.00    -0.084 Cl
HETATM   26  C   UNL     1       0.544   6.216 -28.850  1.00  0.00     0.024 A 
HETATM   27  C   UNL     1      -0.407   7.033 -28.249  1.00  0.00     0.003 A 
HETATM   28  C   UNL     1      -1.633   7.245 -28.878  1.00  0.00     0.024 A 
ENDBRANCH  19  21
ENDBRANCH  18  19
ENDBRANCH   1  18
TORSDOF 5
ENDMDL
