MODEL 1
REMARK VINA RESULT:      -8.9      0.000      0.000
REMARK  8 active torsions:
REMARK  status: ('A' for Active; 'I' for Inactive)
REMARK    1  A    between atoms: O_2  and  C_3 
REMARK    2  A    between atoms: C_3  and  C_4 
REMARK    3  A    between atoms: C_7  and  C_8 
REMARK    4  A    between atoms: C_8  and  O_9 
REMARK    5  A    between atoms: O_9  and  C_10 
REMARK    6  A    between atoms: C_11  and  C_12 
REMARK    7  A    between atoms: C_13  and  C_14 
REMARK    8  A    between atoms: C_13  and  C_22 
REMARK       I    between atoms: C_14  and  N_15 
ROOT
HETATM    1  C   UNL     1      -7.299   2.424 -33.606  1.00  0.00     0.035 C 
HETATM    2  C   UNL     1      -8.490   3.041 -33.746  1.00  0.00     0.079 C 
ENDROOT
BRANCH   1   3
HETATM    3  C   UNL     1      -6.976   0.993 -33.744  1.00  0.00    -0.002 A 
HETATM    4  C   UNL     1      -6.694   0.210 -32.616  1.00  0.00     0.079 A 
HETATM    5  C   UNL     1      -6.288  -1.123 -32.756  1.00  0.00     0.037 A 
HETATM    6  C   UNL     1      -6.201  -1.694 -34.024  1.00  0.00     0.003 A 
HETATM    7  C   UNL     1      -6.493  -0.931 -35.151  1.00  0.00     0.001 A 
HETATM    8  C   UNL     1      -6.865   0.408 -35.013  1.00  0.00     0.014 A 
BRANCH   4   9
HETATM    9  O   UNL     1      -6.726   0.801 -31.379  1.00  0.00    -0.346 OA
BRANCH   9  10
HETATM   10  C   UNL     1      -5.438   0.848 -30.752  1.00  0.00     0.214 C 
BRANCH  10  11
HETATM   11  C   UNL     1      -4.681   2.092 -31.169  1.00  0.00    -0.034 A 
HETATM   12  C   UNL     1      -3.657   1.987 -32.122  1.00  0.00     0.010 A 
HETATM   13  C   UNL     1      -2.951   3.119 -32.538  1.00  0.00     0.018 A 
HETATM   14  C   UNL     1      -3.259   4.379 -32.011  1.00  0.00     0.039 A 
HETATM   15  C   UNL     1      -4.290   4.494 -31.071  1.00  0.00     0.018 A 
HETATM   16  C   UNL     1      -4.996   3.360 -30.658  1.00  0.00     0.010 A 
BRANCH  14  17
HETATM   17  C   UNL     1      -2.471   5.553 -32.476  1.00  0.00     0.292 C 
HETATM   18  O   UNL     1      -2.764   6.708 -32.216  1.00  0.00    -0.259 OA
BRANCH  17  19
HETATM   19  O   UNL     1      -1.412   5.153 -33.224  1.00  0.00    -0.323 OA
HETATM   20  C   UNL     1      -1.297   5.826 -34.478  1.00  0.00     0.213 C 
ENDBRANCH  17  19
ENDBRANCH  14  17
ENDBRANCH  10  11
ENDBRANCH   9  10
ENDBRANCH   4   9
ENDBRANCH   1   3
BRANCH   2  21
HETATM   21  C   UNL     1      -8.535   4.534 -33.545  1.00  0.00     0.257 C 
HETATM   22  N   UNL     1      -8.553   5.068 -32.270  1.00  0.00    -0.344 N 
HETATM   23  C   UNL     1      -8.658   6.522 -32.107  1.00  0.00     0.152 C 
HETATM   24  C   UNL     1      -8.615   4.362 -30.984  1.00  0.00     0.152 C 
HETATM   25  C   UNL     1      -9.944   6.863 -31.347  1.00  0.00     0.187 C 
HETATM   26  O   UNL     1      -9.997   6.174 -30.084  1.00  0.00    -0.388 OA
HETATM   27  C   UNL     1      -9.915   4.748 -30.263  1.00  0.00     0.187 C 
HETATM   28  O   UNL     1      -8.485   5.256 -34.547  1.00  0.00    -0.267 OA
ENDBRANCH   2  21
BRANCH   2  29
HETATM   29  C   UNL     1      -9.720   2.319 -33.862  1.00  0.00     0.144 A 
HETATM   30  N   UNL     1     -10.096   1.132 -33.415  1.00  0.00    -0.228 NA
HETATM   31  C   UNL     1     -11.429   1.007 -33.716  1.00  0.00     0.086 A 
HETATM   32  C   UNL     1     -11.888   2.122 -34.400  1.00  0.00     0.062 A 
HETATM   33  C   UNL     1     -12.324  -0.031 -33.423  1.00  0.00     0.034 A 
HETATM   34  N   UNL     1     -10.787   2.930 -34.494  1.00  0.00    -0.338 N 
HETATM   35  C   UNL     1     -13.208   2.277 -34.827  1.00  0.00     0.032 A 
HETATM   36  H   UNL     1     -10.761   3.863 -34.889  1.00  0.00     0.167 HD
HETATM   37  C   UNL     1     -14.088   1.232 -34.524  1.00  0.00     0.002 A 
HETATM   38  C   UNL     1     -13.658   0.098 -33.831  1.00  0.00     0.002 A 
ENDBRANCH   2  29
TORSDOF 8
ENDMDL
MODEL 2
REMARK VINA RESULT:      -8.7      2.416      6.041
REMARK  8 active torsions:
REMARK  status: ('A' for Active; 'I' for Inactive)
REMARK    1  A    between atoms: O_2  and  C_3 
REMARK    2  A    between atoms: C_3  and  C_4 
REMARK    3  A    between atoms: C_7  and  C_8 
REMARK    4  A    between atoms: C_8  and  O_9 
REMARK    5  A    between atoms: O_9  and  C_10 
REMARK    6  A    between atoms: C_11  and  C_12 
REMARK    7  A    between atoms: C_13  and  C_14 
REMARK    8  A    between atoms: C_13  and  C_22 
REMARK       I    between atoms: C_14  and  N_15 
ROOT
HETATM    1  C   UNL     1      -5.838   6.006 -32.466  1.00  0.00     0.035 C 
HETATM    2  C   UNL     1      -5.466   4.986 -33.267  1.00  0.00     0.079 C 
ENDROOT
BRANCH   1   3
HETATM    3  C   UNL     1      -6.997   6.096 -31.560  1.00  0.00    -0.002 A 
HETATM    4  C   UNL     1      -7.106   5.250 -30.448  1.00  0.00     0.079 A 
HETATM    5  C   UNL     1      -8.255   5.268 -29.648  1.00  0.00     0.037 A 
HETATM    6  C   UNL     1      -9.287   6.162 -29.931  1.00  0.00     0.003 A 
HETATM    7  C   UNL     1      -9.183   7.018 -31.024  1.00  0.00     0.001 A 
HETATM    8  C   UNL     1      -8.052   6.977 -31.842  1.00  0.00     0.014 A 
BRANCH   4   9
HETATM    9  O   UNL     1      -6.112   4.335 -30.216  1.00  0.00    -0.346 OA
BRANCH   9  10
HETATM   10  C   UNL     1      -6.616   3.065 -29.783  1.00  0.00     0.214 C 
BRANCH  10  11
HETATM   11  C   UNL     1      -5.865   1.931 -30.451  1.00  0.00    -0.034 A 
HETATM   12  C   UNL     1      -6.546   0.746 -30.766  1.00  0.00     0.010 A 
HETATM   13  C   UNL     1      -5.884  -0.311 -31.396  1.00  0.00     0.018 A 
HETATM   14  C   UNL     1      -4.528  -0.201 -31.727  1.00  0.00     0.039 A 
HETATM   15  C   UNL     1      -3.845   0.983 -31.429  1.00  0.00     0.018 A 
HETATM   16  C   UNL     1      -4.511   2.041 -30.801  1.00  0.00     0.010 A 
BRANCH  14  17
HETATM   17  C   UNL     1      -3.864  -1.359 -32.386  1.00  0.00     0.292 C 
HETATM   18  O   UNL     1      -3.186  -2.178 -31.788  1.00  0.00    -0.259 OA
BRANCH  17  19
HETATM   19  O   UNL     1      -4.115  -1.358 -33.720  1.00  0.00    -0.323 OA
HETATM   20  C   UNL     1      -4.536  -2.622 -34.233  1.00  0.00     0.213 C 
ENDBRANCH  17  19
ENDBRANCH  14  17
ENDBRANCH  10  11
ENDBRANCH   9  10
ENDBRANCH   4   9
ENDBRANCH   1   3
BRANCH   2  21
HETATM   21  C   UNL     1      -4.223   5.165 -34.099  1.00  0.00     0.257 C 
HETATM   22  N   UNL     1      -2.973   5.109 -33.511  1.00  0.00    -0.344 N 
HETATM   23  C   UNL     1      -1.785   5.347 -34.336  1.00  0.00     0.152 C 
HETATM   24  C   UNL     1      -2.638   4.966 -32.088  1.00  0.00     0.152 C 
HETATM   25  C   UNL     1      -1.034   6.577 -33.815  1.00  0.00     0.187 C 
HETATM   26  O   UNL     1      -0.702   6.429 -32.422  1.00  0.00    -0.388 OA
HETATM   27  C   UNL     1      -1.880   6.218 -31.623  1.00  0.00     0.187 C 
HETATM   28  O   UNL     1      -4.356   5.294 -35.322  1.00  0.00    -0.267 OA
ENDBRANCH   2  21
BRANCH   2  29
HETATM   29  C   UNL     1      -6.308   3.854 -33.510  1.00  0.00     0.144 A 
HETATM   30  N   UNL     1      -7.607   3.666 -33.349  1.00  0.00    -0.228 NA
HETATM   31  C   UNL     1      -7.887   2.426 -33.866  1.00  0.00     0.086 A 
HETATM   32  C   UNL     1      -6.734   1.810 -34.326  1.00  0.00     0.062 A 
HETATM   33  C   UNL     1      -9.115   1.760 -33.992  1.00  0.00     0.034 A 
HETATM   34  N   UNL     1      -5.747   2.725 -34.075  1.00  0.00    -0.338 N 
HETATM   35  C   UNL     1      -6.716   0.543 -34.911  1.00  0.00     0.032 A 
HETATM   36  H   UNL     1      -4.770   2.636 -34.332  1.00  0.00     0.167 HD
HETATM   37  C   UNL     1      -7.950  -0.106 -35.032  1.00  0.00     0.002 A 
HETATM   38  C   UNL     1      -9.131   0.490 -34.583  1.00  0.00     0.002 A 
ENDBRANCH   2  29
TORSDOF 8
ENDMDL
MODEL 3
REMARK VINA RESULT:      -8.7      2.485      7.538
REMARK  8 active torsions:
REMARK  status: ('A' for Active; 'I' for Inactive)
REMARK    1  A    between atoms: O_2  and  C_3 
REMARK    2  A    between atoms: C_3  and  C_4 
REMARK    3  A    between atoms: C_7  and  C_8 
REMARK    4  A    between atoms: C_8  and  O_9 
REMARK    5  A    between atoms: O_9  and  C_10 
REMARK    6  A    between atoms: C_11  and  C_12 
REMARK    7  A    between atoms: C_13  and  C_14 
REMARK    8  A    between atoms: C_13  and  C_22 
REMARK       I    between atoms: C_14  and  N_15 
ROOT
HETATM    1  C   UNL     1      -5.550   1.851 -30.408  1.00  0.00     0.035 C 
HETATM    2  C   UNL     1      -5.280   3.166 -30.540  1.00  0.00     0.079 C 
ENDROOT
BRANCH   1   3
HETATM    3  C   UNL     1      -4.938   0.705 -31.104  1.00  0.00    -0.002 A 
HETATM    4  C   UNL     1      -5.708  -0.129 -31.925  1.00  0.00     0.079 A 
HETATM    5  C   UNL     1      -5.149  -1.275 -32.503  1.00  0.00     0.037 A 
HETATM    6  C   UNL     1      -3.802  -1.571 -32.297  1.00  0.00     0.003 A 
HETATM    7  C   UNL     1      -3.023  -0.741 -31.496  1.00  0.00     0.001 A 
HETATM    8  C   UNL     1      -3.590   0.383 -30.891  1.00  0.00     0.014 A 
BRANCH   4   9
HETATM    9  O   UNL     1      -7.045   0.141 -32.071  1.00  0.00    -0.346 OA
BRANCH   9  10
HETATM   10  C   UNL     1      -7.326   0.948 -33.221  1.00  0.00     0.214 C 
BRANCH  10  11
HETATM   11  C   UNL     1      -8.820   1.045 -33.459  1.00  0.00    -0.034 A 
HETATM   12  C   UNL     1      -9.324   2.091 -34.246  1.00  0.00     0.010 A 
HETATM   13  C   UNL     1     -10.695   2.198 -34.495  1.00  0.00     0.018 A 
HETATM   14  C   UNL     1     -11.587   1.259 -33.964  1.00  0.00     0.039 A 
HETATM   15  C   UNL     1     -11.090   0.205 -33.190  1.00  0.00     0.018 A 
HETATM   16  C   UNL     1      -9.718   0.098 -32.945  1.00  0.00     0.010 A 
BRANCH  14  17
HETATM   17  C   UNL     1     -13.039   1.424 -34.247  1.00  0.00     0.292 C 
HETATM   18  O   UNL     1     -13.480   1.761 -35.333  1.00  0.00    -0.259 OA
BRANCH  17  19
HETATM   19  O   UNL     1     -13.777   1.158 -33.140  1.00  0.00    -0.323 OA
HETATM   20  C   UNL     1     -14.386   2.310 -32.556  1.00  0.00     0.213 C 
ENDBRANCH  17  19
ENDBRANCH  14  17
ENDBRANCH  10  11
ENDBRANCH   9  10
ENDBRANCH   4   9
ENDBRANCH   1   3
BRANCH   2  21
HETATM   21  C   UNL     1      -6.069   4.133 -29.695  1.00  0.00     0.257 C 
HETATM   22  N   UNL     1      -7.393   4.402 -29.990  1.00  0.00    -0.344 N 
HETATM   23  C   UNL     1      -8.116   5.393 -29.188  1.00  0.00     0.152 C 
HETATM   24  C   UNL     1      -8.192   3.918 -31.123  1.00  0.00     0.152 C 
HETATM   25  C   UNL     1      -8.568   6.551 -30.084  1.00  0.00     0.187 C 
HETATM   26  O   UNL     1      -9.358   6.073 -31.188  1.00  0.00    -0.388 OA
HETATM   27  C   UNL     1      -8.627   5.117 -31.979  1.00  0.00     0.187 C 
HETATM   28  O   UNL     1      -5.518   4.618 -28.700  1.00  0.00    -0.267 OA
ENDBRANCH   2  21
BRANCH   2  29
HETATM   29  C   UNL     1      -4.444   3.677 -31.583  1.00  0.00     0.144 A 
HETATM   30  N   UNL     1      -4.690   3.979 -32.847  1.00  0.00    -0.228 NA
HETATM   31  C   UNL     1      -3.543   4.549 -33.341  1.00  0.00     0.086 A 
HETATM   32  C   UNL     1      -2.547   4.570 -32.378  1.00  0.00     0.062 A 
HETATM   33  C   UNL     1      -3.281   5.090 -34.608  1.00  0.00     0.034 A 
HETATM   34  N   UNL     1      -3.134   3.999 -31.281  1.00  0.00    -0.338 N 
HETATM   35  C   UNL     1      -1.274   5.100 -32.595  1.00  0.00     0.032 A 
HETATM   36  H   UNL     1      -2.716   3.897 -30.363  1.00  0.00     0.167 HD
HETATM   37  C   UNL     1      -1.030   5.637 -33.863  1.00  0.00     0.002 A 
HETATM   38  C   UNL     1      -2.015   5.637 -34.854  1.00  0.00     0.002 A 
ENDBRANCH   2  29
TORSDOF 8
ENDMDL
MODEL 4
REMARK VINA RESULT:      -8.6      2.674      6.761
REMARK  8 active torsions:
REMARK  status: ('A' for Active; 'I' for Inactive)
REMARK    1  A    between atoms: O_2  and  C_3 
REMARK    2  A    between atoms: C_3  and  C_4 
REMARK    3  A    between atoms: C_7  and  C_8 
REMARK    4  A    between atoms: C_8  and  O_9 
REMARK    5  A    between atoms: O_9  and  C_10 
REMARK    6  A    between atoms: C_11  and  C_12 
REMARK    7  A    between atoms: C_13  and  C_14 
REMARK    8  A    between atoms: C_13  and  C_22 
REMARK       I    between atoms: C_14  and  N_15 
ROOT
HETATM    1  C   UNL     1      -6.062   4.187 -34.059  1.00  0.00     0.035 C 
HETATM    2  C   UNL     1      -7.090   4.723 -33.369  1.00  0.00     0.079 C 
ENDROOT
BRANCH   1   3
HETATM    3  C   UNL     1      -4.614   4.364 -33.851  1.00  0.00    -0.002 A 
HETATM    4  C   UNL     1      -3.956   3.712 -32.800  1.00  0.00     0.079 A 
HETATM    5  C   UNL     1      -2.603   3.961 -32.542  1.00  0.00     0.037 A 
HETATM    6  C   UNL     1      -1.887   4.833 -33.360  1.00  0.00     0.003 A 
HETATM    7  C   UNL     1      -2.526   5.475 -34.417  1.00  0.00     0.001 A 
HETATM    8  C   UNL     1      -3.885   5.253 -34.653  1.00  0.00     0.014 A 
BRANCH   4   9
HETATM    9  O   UNL     1      -4.685   2.902 -31.967  1.00  0.00    -0.346 OA
BRANCH   9  10
HETATM   10  C   UNL     1      -3.910   1.830 -31.416  1.00  0.00     0.214 C 
BRANCH  10  11
HETATM   11  C   UNL     1      -4.144   0.545 -32.184  1.00  0.00    -0.034 A 
HETATM   12  C   UNL     1      -3.355  -0.579 -31.900  1.00  0.00     0.010 A 
HETATM   13  C   UNL     1      -3.558  -1.783 -32.581  1.00  0.00     0.018 A 
HETATM   14  C   UNL     1      -4.556  -1.885 -33.557  1.00  0.00     0.039 A 
HETATM   15  C   UNL     1      -5.358  -0.772 -33.835  1.00  0.00     0.018 A 
HETATM   16  C   UNL     1      -5.155   0.430 -33.150  1.00  0.00     0.010 A 
BRANCH  14  17
HETATM   17  C   UNL     1      -4.725  -3.184 -34.263  1.00  0.00     0.292 C 
HETATM   18  O   UNL     1      -3.910  -4.090 -34.214  1.00  0.00    -0.259 OA
BRANCH  17  19
HETATM   19  O   UNL     1      -5.890  -3.203 -34.960  1.00  0.00    -0.323 OA
HETATM   20  C   UNL     1      -6.334  -4.512 -35.317  1.00  0.00     0.213 C 
ENDBRANCH  17  19
ENDBRANCH  14  17
ENDBRANCH  10  11
ENDBRANCH   9  10
ENDBRANCH   4   9
ENDBRANCH   1   3
BRANCH   2  21
HETATM   21  C   UNL     1      -8.488   4.370 -33.805  1.00  0.00     0.257 C 
HETATM   22  N   UNL     1      -9.182   3.354 -33.174  1.00  0.00    -0.344 N 
HETATM   23  C   UNL     1     -10.518   2.993 -33.660  1.00  0.00     0.152 C 
HETATM   24  C   UNL     1      -8.714   2.446 -32.119  1.00  0.00     0.152 C 
HETATM   25  C   UNL     1     -10.515   1.537 -34.139  1.00  0.00     0.187 C 
HETATM   26  O   UNL     1     -10.063   0.651 -33.099  1.00  0.00    -0.388 OA
HETATM   27  C   UNL     1      -8.742   1.005 -32.648  1.00  0.00     0.187 C 
HETATM   28  O   UNL     1      -9.012   5.058 -34.688  1.00  0.00    -0.267 OA
ENDBRANCH   2  21
BRANCH   2  29
HETATM   29  C   UNL     1      -6.905   5.759 -32.399  1.00  0.00     0.144 A 
HETATM   30  N   UNL     1      -6.457   5.738 -31.155  1.00  0.00    -0.228 NA
HETATM   31  C   UNL     1      -6.377   7.046 -30.748  1.00  0.00     0.086 A 
HETATM   32  C   UNL     1      -6.821   7.902 -31.744  1.00  0.00     0.062 A 
HETATM   33  C   UNL     1      -5.918   7.585 -29.538  1.00  0.00     0.034 A 
HETATM   34  N   UNL     1      -7.164   7.065 -32.771  1.00  0.00    -0.338 N 
HETATM   35  C   UNL     1      -6.845   9.291 -31.614  1.00  0.00     0.032 A 
HETATM   36  H   UNL     1      -7.482   7.347 -33.692  1.00  0.00     0.167 HD
HETATM   37  C   UNL     1      -6.382   9.813 -30.401  1.00  0.00     0.002 A 
HETATM   38  C   UNL     1      -5.923   8.977 -29.379  1.00  0.00     0.002 A 
ENDBRANCH   2  29
TORSDOF 8
ENDMDL
MODEL 5
REMARK VINA RESULT:      -8.5      2.601      8.586
REMARK  8 active torsions:
REMARK  status: ('A' for Active; 'I' for Inactive)
REMARK    1  A    between atoms: O_2  and  C_3 
REMARK    2  A    between atoms: C_3  and  C_4 
REMARK    3  A    between atoms: C_7  and  C_8 
REMARK    4  A    between atoms: C_8  and  O_9 
REMARK    5  A    between atoms: O_9  and  C_10 
REMARK    6  A    between atoms: C_11  and  C_12 
REMARK    7  A    between atoms: C_13  and  C_14 
REMARK    8  A    between atoms: C_13  and  C_22 
REMARK       I    between atoms: C_14  and  N_15 
ROOT
HETATM    1  C   UNL     1      -7.270   2.643 -31.845  1.00  0.00     0.035 C 
HETATM    2  C   UNL     1      -6.261   2.376 -32.698  1.00  0.00     0.079 C 
ENDROOT
BRANCH   1   3
HETATM    3  C   UNL     1      -7.503   3.851 -31.034  1.00  0.00    -0.002 A 
HETATM    4  C   UNL     1      -7.910   5.050 -31.635  1.00  0.00     0.079 A 
HETATM    5  C   UNL     1      -8.031   6.222 -30.879  1.00  0.00     0.037 A 
HETATM    6  C   UNL     1      -7.786   6.194 -29.507  1.00  0.00     0.003 A 
HETATM    7  C   UNL     1      -7.397   5.005 -28.896  1.00  0.00     0.001 A 
HETATM    8  C   UNL     1      -7.242   3.843 -29.657  1.00  0.00     0.014 A 
BRANCH   4   9
HETATM    9  O   UNL     1      -8.089   5.078 -32.994  1.00  0.00    -0.346 OA
BRANCH   9  10
HETATM   10  C   UNL     1      -9.413   5.480 -33.372  1.00  0.00     0.214 C 
BRANCH  10  11
HETATM   11  C   UNL     1     -10.322   4.276 -33.510  1.00  0.00    -0.034 A 
HETATM   12  C   UNL     1      -9.886   3.166 -34.247  1.00  0.00     0.010 A 
HETATM   13  C   UNL     1     -10.696   2.034 -34.380  1.00  0.00     0.018 A 
HETATM   14  C   UNL     1     -11.957   1.991 -33.773  1.00  0.00     0.039 A 
HETATM   15  C   UNL     1     -12.393   3.089 -33.023  1.00  0.00     0.018 A 
HETATM   16  C   UNL     1     -11.580   4.219 -32.890  1.00  0.00     0.010 A 
BRANCH  14  17
HETATM   17  C   UNL     1     -12.787   0.769 -33.953  1.00  0.00     0.292 C 
HETATM   18  O   UNL     1     -12.561  -0.289 -33.391  1.00  0.00    -0.259 OA
BRANCH  17  19
HETATM   19  O   UNL     1     -13.801   1.003 -34.825  1.00  0.00    -0.323 OA
HETATM   20  C   UNL     1     -15.100   0.756 -34.286  1.00  0.00     0.213 C 
ENDBRANCH  17  19
ENDBRANCH  14  17
ENDBRANCH  10  11
ENDBRANCH   9  10
ENDBRANCH   4   9
ENDBRANCH   1   3
BRANCH   2  21
HETATM   21  C   UNL     1      -6.269   1.043 -33.402  1.00  0.00     0.257 C 
HETATM   22  N   UNL     1      -5.806  -0.090 -32.759  1.00  0.00    -0.344 N 
HETATM   23  C   UNL     1      -5.770  -1.361 -33.491  1.00  0.00     0.152 C 
HETATM   24  C   UNL     1      -5.192  -0.200 -31.430  1.00  0.00     0.152 C 
HETATM   25  C   UNL     1      -4.325  -1.860 -33.585  1.00  0.00     0.187 C 
HETATM   26  O   UNL     1      -3.731  -1.974 -32.279  1.00  0.00    -0.388 OA
HETATM   27  C   UNL     1      -3.753  -0.714 -31.583  1.00  0.00     0.187 C 
HETATM   28  O   UNL     1      -6.763   0.988 -34.534  1.00  0.00    -0.267 OA
ENDBRANCH   2  21
BRANCH   2  29
HETATM   29  C   UNL     1      -5.096   3.204 -32.794  1.00  0.00     0.144 A 
HETATM   30  N   UNL     1      -3.974   3.238 -32.095  1.00  0.00    -0.228 NA
HETATM   31  C   UNL     1      -3.158   4.152 -32.713  1.00  0.00     0.086 A 
HETATM   32  C   UNL     1      -3.798   4.731 -33.798  1.00  0.00     0.062 A 
HETATM   33  C   UNL     1      -1.844   4.534 -32.410  1.00  0.00     0.034 A 
HETATM   34  N   UNL     1      -5.027   4.128 -33.820  1.00  0.00    -0.338 N 
HETATM   35  C   UNL     1      -3.207   5.691 -34.621  1.00  0.00     0.032 A 
HETATM   36  H   UNL     1      -5.749   4.266 -34.517  1.00  0.00     0.167 HD
HETATM   37  C   UNL     1      -1.893   6.058 -34.306  1.00  0.00     0.002 A 
HETATM   38  C   UNL     1      -1.220   5.490 -33.222  1.00  0.00     0.002 A 
ENDBRANCH   2  29
TORSDOF 8
ENDMDL
MODEL 6
REMARK VINA RESULT:      -8.4      1.290      2.076
REMARK  8 active torsions:
REMARK  status: ('A' for Active; 'I' for Inactive)
REMARK    1  A    between atoms: O_2  and  C_3 
REMARK    2  A    between atoms: C_3  and  C_4 
REMARK    3  A    between atoms: C_7  and  C_8 
REMARK    4  A    between atoms: C_8  and  O_9 
REMARK    5  A    between atoms: O_9  and  C_10 
REMARK    6  A    between atoms: C_11  and  C_12 
REMARK    7  A    between atoms: C_13  and  C_14 
REMARK    8  A    between atoms: C_13  and  C_22 
REMARK       I    between atoms: C_14  and  N_15 
ROOT
HETATM    1  C   UNL     1      -7.689   2.006 -32.643  1.00  0.00     0.035 C 
HETATM    2  C   UNL     1      -8.899   2.592 -32.532  1.00  0.00     0.079 C 
ENDROOT
BRANCH   1   3
HETATM    3  C   UNL     1      -7.317   0.781 -33.373  1.00  0.00    -0.002 A 
HETATM    4  C   UNL     1      -6.701  -0.289 -32.711  1.00  0.00     0.079 A 
HETATM    5  C   UNL     1      -6.256  -1.408 -33.424  1.00  0.00     0.037 A 
HETATM    6  C   UNL     1      -6.462  -1.484 -34.801  1.00  0.00     0.003 A 
HETATM    7  C   UNL     1      -7.088  -0.434 -35.468  1.00  0.00     0.001 A 
HETATM    8  C   UNL     1      -7.501   0.698 -34.761  1.00  0.00     0.014 A 
BRANCH   4   9
HETATM    9  O   UNL     1      -6.451  -0.177 -31.368  1.00  0.00    -0.346 OA
BRANCH   9  10
HETATM   10  C   UNL     1      -5.052  -0.077 -31.069  1.00  0.00     0.214 C 
BRANCH  10  11
HETATM   11  C   UNL     1      -4.571   1.352 -31.211  1.00  0.00    -0.034 A 
HETATM   12  C   UNL     1      -5.136   2.351 -30.403  1.00  0.00     0.010 A 
HETATM   13  C   UNL     1      -4.702   3.676 -30.500  1.00  0.00     0.018 A 
HETATM   14  C   UNL     1      -3.693   4.027 -31.405  1.00  0.00     0.039 A 
HETATM   15  C   UNL     1      -3.114   3.033 -32.203  1.00  0.00     0.018 A 
HETATM   16  C   UNL     1      -3.548   1.708 -32.102  1.00  0.00     0.010 A 
BRANCH  14  17
HETATM   17  C   UNL     1      -3.274   5.453 -31.480  1.00  0.00     0.292 C 
HETATM   18  O   UNL     1      -2.619   5.916 -32.399  1.00  0.00    -0.259 OA
BRANCH  17  19
HETATM   19  O   UNL     1      -3.711   6.138 -30.393  1.00  0.00    -0.323 OA
HETATM   20  C   UNL     1      -2.786   7.112 -29.909  1.00  0.00     0.213 C 
ENDBRANCH  17  19
ENDBRANCH  14  17
ENDBRANCH  10  11
ENDBRANCH   9  10
ENDBRANCH   4   9
ENDBRANCH   1   3
BRANCH   2  21
HETATM   21  C   UNL     1      -8.996   3.852 -31.712  1.00  0.00     0.257 C 
HETATM   22  N   UNL     1      -8.519   5.050 -32.210  1.00  0.00    -0.344 N 
HETATM   23  C   UNL     1      -8.571   6.247 -31.364  1.00  0.00     0.152 C 
HETATM   24  C   UNL     1      -7.812   5.297 -33.474  1.00  0.00     0.152 C 
HETATM   25  C   UNL     1      -7.151   6.765 -31.116  1.00  0.00     0.187 C 
HETATM   26  O   UNL     1      -6.466   7.013 -32.357  1.00  0.00    -0.388 OA
HETATM   27  C   UNL     1      -6.403   5.823 -33.165  1.00  0.00     0.187 C 
HETATM   28  O   UNL     1      -9.573   3.791 -30.620  1.00  0.00    -0.267 OA
ENDBRANCH   2  21
BRANCH   2  29
HETATM   29  C   UNL     1     -10.104   1.957 -32.975  1.00  0.00     0.144 A 
HETATM   30  N   UNL     1     -10.494   0.694 -32.964  1.00  0.00    -0.228 NA
HETATM   31  C   UNL     1     -11.796   0.686 -33.399  1.00  0.00     0.086 A 
HETATM   32  C   UNL     1     -12.216   1.966 -33.725  1.00  0.00     0.062 A 
HETATM   33  C   UNL     1     -12.694  -0.383 -33.529  1.00  0.00     0.034 A 
HETATM   34  N   UNL     1     -11.125   2.750 -33.464  1.00  0.00    -0.338 N 
HETATM   35  C   UNL     1     -13.499   2.263 -34.189  1.00  0.00     0.032 A 
HETATM   36  H   UNL     1     -11.083   3.760 -33.536  1.00  0.00     0.167 HD
HETATM   37  C   UNL     1     -14.383   1.185 -34.310  1.00  0.00     0.002 A 
HETATM   38  C   UNL     1     -13.992  -0.116 -33.984  1.00  0.00     0.002 A 
ENDBRANCH   2  29
TORSDOF 8
ENDMDL
MODEL 7
REMARK VINA RESULT:      -8.4      1.589      4.497
REMARK  8 active torsions:
REMARK  status: ('A' for Active; 'I' for Inactive)
REMARK    1  A    between atoms: O_2  and  C_3 
REMARK    2  A    between atoms: C_3  and  C_4 
REMARK    3  A    between atoms: C_7  and  C_8 
REMARK    4  A    between atoms: C_8  and  O_9 
REMARK    5  A    between atoms: O_9  and  C_10 
REMARK    6  A    between atoms: C_11  and  C_12 
REMARK    7  A    between atoms: C_13  and  C_14 
REMARK    8  A    between atoms: C_13  and  C_22 
REMARK       I    between atoms: C_14  and  N_15 
ROOT
HETATM    1  C   UNL     1      -7.325   2.625 -33.618  1.00  0.00     0.035 C 
HETATM    2  C   UNL     1      -7.862   1.437 -33.964  1.00  0.00     0.079 C 
ENDROOT
BRANCH   1   3
HETATM    3  C   UNL     1      -7.991   3.814 -33.058  1.00  0.00    -0.002 A 
HETATM    4  C   UNL     1      -8.139   3.967 -31.673  1.00  0.00     0.079 A 
HETATM    5  C   UNL     1      -8.861   5.045 -31.147  1.00  0.00     0.037 A 
HETATM    6  C   UNL     1      -9.406   6.002 -32.002  1.00  0.00     0.003 A 
HETATM    7  C   UNL     1      -9.252   5.869 -33.380  1.00  0.00     0.001 A 
HETATM    8  C   UNL     1      -8.561   4.774 -33.906  1.00  0.00     0.014 A 
BRANCH   4   9
HETATM    9  O   UNL     1      -7.650   2.989 -30.845  1.00  0.00    -0.346 OA
BRANCH   9  10
HETATM   10  C   UNL     1      -6.714   3.492 -29.883  1.00  0.00     0.214 C 
BRANCH  10  11
HETATM   11  C   UNL     1      -5.376   3.781 -30.532  1.00  0.00    -0.034 A 
HETATM   12  C   UNL     1      -4.930   5.108 -30.626  1.00  0.00     0.010 A 
HETATM   13  C   UNL     1      -3.694   5.405 -31.207  1.00  0.00     0.018 A 
HETATM   14  C   UNL     1      -2.878   4.380 -31.701  1.00  0.00     0.039 A 
HETATM   15  C   UNL     1      -3.310   3.053 -31.597  1.00  0.00     0.018 A 
HETATM   16  C   UNL     1      -4.546   2.758 -31.013  1.00  0.00     0.010 A 
BRANCH  14  17
HETATM   17  C   UNL     1      -1.576   4.748 -32.320  1.00  0.00     0.292 C 
HETATM   18  O   UNL     1      -0.527   4.807 -31.701  1.00  0.00    -0.259 OA
BRANCH  17  19
HETATM   19  O   UNL     1      -1.732   5.011 -33.643  1.00  0.00    -0.323 OA
HETATM   20  C   UNL     1      -1.292   6.312 -34.033  1.00  0.00     0.213 C 
ENDBRANCH  17  19
ENDBRANCH  14  17
ENDBRANCH  10  11
ENDBRANCH   9  10
ENDBRANCH   4   9
ENDBRANCH   1   3
BRANCH   2  21
HETATM   21  C   UNL     1      -6.938   0.385 -34.522  1.00  0.00     0.257 C 
HETATM   22  N   UNL     1      -6.379  -0.568 -33.690  1.00  0.00    -0.344 N 
HETATM   23  C   UNL     1      -5.437  -1.540 -34.251  1.00  0.00     0.152 C 
HETATM   24  C   UNL     1      -6.490  -0.684 -32.230  1.00  0.00     0.152 C 
HETATM   25  C   UNL     1      -4.071  -1.383 -33.576  1.00  0.00     0.187 C 
HETATM   26  O   UNL     1      -4.183  -1.506 -32.146  1.00  0.00    -0.388 OA
HETATM   27  C   UNL     1      -5.095  -0.530 -31.608  1.00  0.00     0.187 C 
HETATM   28  O   UNL     1      -6.755   0.363 -35.744  1.00  0.00    -0.267 OA
ENDBRANCH   2  21
BRANCH   2  29
HETATM   29  C   UNL     1      -9.276   1.221 -34.021  1.00  0.00     0.144 A 
HETATM   30  N   UNL     1     -10.077   0.416 -33.343  1.00  0.00    -0.228 NA
HETATM   31  C   UNL     1     -11.357   0.724 -33.730  1.00  0.00     0.086 A 
HETATM   32  C   UNL     1     -11.355   1.715 -34.699  1.00  0.00     0.062 A 
HETATM   33  C   UNL     1     -12.581   0.206 -33.284  1.00  0.00     0.034 A 
HETATM   34  N   UNL     1     -10.028   2.002 -34.878  1.00  0.00    -0.338 N 
HETATM   35  C   UNL     1     -12.515   2.236 -35.274  1.00  0.00     0.032 A 
HETATM   36  H   UNL     1      -9.648   2.724 -35.479  1.00  0.00     0.167 HD
HETATM   37  C   UNL     1     -13.728   1.709 -34.816  1.00  0.00     0.002 A 
HETATM   38  C   UNL     1     -13.764   0.713 -33.836  1.00  0.00     0.002 A 
ENDBRANCH   2  29
TORSDOF 8
ENDMDL
MODEL 8
REMARK VINA RESULT:      -8.3      3.844      6.685
REMARK  8 active torsions:
REMARK  status: ('A' for Active; 'I' for Inactive)
REMARK    1  A    between atoms: O_2  and  C_3 
REMARK    2  A    between atoms: C_3  and  C_4 
REMARK    3  A    between atoms: C_7  and  C_8 
REMARK    4  A    between atoms: C_8  and  O_9 
REMARK    5  A    between atoms: O_9  and  C_10 
REMARK    6  A    between atoms: C_11  and  C_12 
REMARK    7  A    between atoms: C_13  and  C_14 
REMARK    8  A    between atoms: C_13  and  C_22 
REMARK       I    between atoms: C_14  and  N_15 
ROOT
HETATM    1  C   UNL     1      -4.440   5.477 -31.434  1.00  0.00     0.035 C 
HETATM    2  C   UNL     1      -5.190   4.565 -30.782  1.00  0.00     0.079 C 
ENDROOT
BRANCH   1   3
HETATM    3  C   UNL     1      -3.601   5.301 -32.633  1.00  0.00    -0.002 A 
HETATM    4  C   UNL     1      -2.240   4.990 -32.516  1.00  0.00     0.079 A 
HETATM    5  C   UNL     1      -1.424   4.923 -33.652  1.00  0.00     0.037 A 
HETATM    6  C   UNL     1      -1.973   5.127 -34.917  1.00  0.00     0.003 A 
HETATM    7  C   UNL     1      -3.328   5.421 -35.047  1.00  0.00     0.001 A 
HETATM    8  C   UNL     1      -4.135   5.521 -33.911  1.00  0.00     0.014 A 
BRANCH   4   9
HETATM    9  O   UNL     1      -1.701   4.851 -31.264  1.00  0.00    -0.346 OA
BRANCH   9  10
HETATM   10  C   UNL     1      -0.342   5.301 -31.190  1.00  0.00     0.214 C 
BRANCH  10  11
HETATM   11  C   UNL     1      -0.129   6.176 -29.972  1.00  0.00    -0.034 A 
HETATM   12  C   UNL     1       0.619   5.681 -28.893  1.00  0.00     0.010 A 
HETATM   13  C   UNL     1       0.845   6.469 -27.761  1.00  0.00     0.018 A 
HETATM   14  C   UNL     1       0.330   7.769 -27.689  1.00  0.00     0.039 A 
HETATM   15  C   UNL     1      -0.404   8.275 -28.768  1.00  0.00     0.018 A 
HETATM   16  C   UNL     1      -0.626   7.485 -29.900  1.00  0.00     0.010 A 
BRANCH  14  17
HETATM   17  C   UNL     1       0.588   8.565 -26.458  1.00  0.00     0.292 C 
HETATM   18  O   UNL     1       0.070   9.646 -26.232  1.00  0.00    -0.259 OA
BRANCH  17  19
HETATM   19  O   UNL     1       1.472   7.925 -25.650  1.00  0.00    -0.323 OA
HETATM   20  C   UNL     1       2.532   8.755 -25.176  1.00  0.00     0.213 C 
ENDBRANCH  17  19
ENDBRANCH  14  17
ENDBRANCH  10  11
ENDBRANCH   9  10
ENDBRANCH   4   9
ENDBRANCH   1   3
BRANCH   2  21
HETATM   21  C   UNL     1      -5.954   5.023 -29.567  1.00  0.00     0.257 C 
HETATM   22  N   UNL     1      -7.316   5.249 -29.642  1.00  0.00    -0.344 N 
HETATM   23  C   UNL     1      -8.022   5.753 -28.460  1.00  0.00     0.152 C 
HETATM   24  C   UNL     1      -8.191   5.180 -30.820  1.00  0.00     0.152 C 
HETATM   25  C   UNL     1      -8.642   7.118 -28.773  1.00  0.00     0.187 C 
HETATM   26  O   UNL     1      -9.504   7.044 -29.923  1.00  0.00    -0.388 OA
HETATM   27  C   UNL     1      -8.791   6.569 -31.080  1.00  0.00     0.187 C 
HETATM   28  O   UNL     1      -5.341   5.123 -28.498  1.00  0.00    -0.267 OA
ENDBRANCH   2  21
BRANCH   2  29
HETATM   29  C   UNL     1      -5.116   3.164 -31.069  1.00  0.00     0.144 A 
HETATM   30  N   UNL     1      -5.953   2.339 -31.675  1.00  0.00    -0.228 NA
HETATM   31  C   UNL     1      -5.304   1.134 -31.779  1.00  0.00     0.086 A 
HETATM   32  C   UNL     1      -4.050   1.196 -31.192  1.00  0.00     0.062 A 
HETATM   33  C   UNL     1      -5.721  -0.063 -32.379  1.00  0.00     0.034 A 
HETATM   34  N   UNL     1      -3.960   2.483 -30.736  1.00  0.00    -0.338 N 
HETATM   35  C   UNL     1      -3.161   0.120 -31.156  1.00  0.00     0.032 A 
HETATM   36  H   UNL     1      -3.151   2.907 -30.297  1.00  0.00     0.167 HD
HETATM   37  C   UNL     1      -3.592  -1.066 -31.761  1.00  0.00     0.002 A 
HETATM   38  C   UNL     1      -4.848  -1.158 -32.366  1.00  0.00     0.002 A 
ENDBRANCH   2  29
TORSDOF 8
ENDMDL
MODEL 9
REMARK VINA RESULT:      -8.2      2.618      7.288
REMARK  8 active torsions:
REMARK  status: ('A' for Active; 'I' for Inactive)
REMARK    1  A    between atoms: O_2  and  C_3 
REMARK    2  A    between atoms: C_3  and  C_4 
REMARK    3  A    between atoms: C_7  and  C_8 
REMARK    4  A    between atoms: C_8  and  O_9 
REMARK    5  A    between atoms: O_9  and  C_10 
REMARK    6  A    between atoms: C_11  and  C_12 
REMARK    7  A    between atoms: C_13  and  C_14 
REMARK    8  A    between atoms: C_13  and  C_22 
REMARK       I    between atoms: C_14  and  N_15 
ROOT
HETATM    1  C   UNL     1      -7.421   3.584 -31.430  1.00  0.00     0.035 C 
HETATM    2  C   UNL     1      -6.921   4.808 -31.702  1.00  0.00     0.079 C 
ENDROOT
BRANCH   1   3
HETATM    3  C   UNL     1      -6.721   2.288 -31.382  1.00  0.00    -0.002 A 
HETATM    4  C   UNL     1      -6.433   1.585 -32.559  1.00  0.00     0.079 A 
HETATM    5  C   UNL     1      -5.861   0.309 -32.506  1.00  0.00     0.037 A 
HETATM    6  C   UNL     1      -5.534  -0.257 -31.275  1.00  0.00     0.003 A 
HETATM    7  C   UNL     1      -5.801   0.439 -30.098  1.00  0.00     0.001 A 
HETATM    8  C   UNL     1      -6.404   1.698 -30.151  1.00  0.00     0.014 A 
BRANCH   4   9
HETATM    9  O   UNL     1      -6.813   2.127 -33.760  1.00  0.00    -0.346 OA
BRANCH   9  10
HETATM   10  C   UNL     1      -7.754   1.307 -34.467  1.00  0.00     0.214 C 
BRANCH  10  11
HETATM   11  C   UNL     1      -9.175   1.738 -34.167  1.00  0.00    -0.034 A 
HETATM   12  C   UNL     1     -10.115   0.777 -33.769  1.00  0.00     0.010 A 
HETATM   13  C   UNL     1     -11.430   1.146 -33.471  1.00  0.00     0.018 A 
HETATM   14  C   UNL     1     -11.828   2.485 -33.562  1.00  0.00     0.039 A 
HETATM   15  C   UNL     1     -10.891   3.452 -33.944  1.00  0.00     0.018 A 
HETATM   16  C   UNL     1      -9.576   3.081 -34.239  1.00  0.00     0.010 A 
BRANCH  14  17
HETATM   17  C   UNL     1     -13.242   2.826 -33.246  1.00  0.00     0.292 C 
HETATM   18  O   UNL     1     -13.675   3.967 -33.238  1.00  0.00    -0.259 OA
BRANCH  17  19
HETATM   19  O   UNL     1     -13.954   1.706 -32.965  1.00  0.00    -0.323 OA
HETATM   20  C   UNL     1     -15.253   1.960 -32.430  1.00  0.00     0.213 C 
ENDBRANCH  17  19
ENDBRANCH  14  17
ENDBRANCH  10  11
ENDBRANCH   9  10
ENDBRANCH   4   9
ENDBRANCH   1   3
BRANCH   2  21
HETATM   21  C   UNL     1      -7.875   5.975 -31.684  1.00  0.00     0.257 C 
HETATM   22  N   UNL     1      -7.972   6.782 -30.566  1.00  0.00    -0.344 N 
HETATM   23  C   UNL     1      -8.952   7.873 -30.556  1.00  0.00     0.152 C 
HETATM   24  C   UNL     1      -7.300   6.630 -29.269  1.00  0.00     0.152 C 
HETATM   25  C   UNL     1      -9.964   7.645 -29.429  1.00  0.00     0.187 C 
HETATM   26  O   UNL     1      -9.302   7.505 -28.159  1.00  0.00    -0.388 OA
HETATM   27  C   UNL     1      -8.360   6.417 -28.178  1.00  0.00     0.187 C 
HETATM   28  O   UNL     1      -8.507   6.223 -32.717  1.00  0.00    -0.267 OA
ENDBRANCH   2  21
BRANCH   2  29
HETATM   29  C   UNL     1      -5.595   5.001 -32.205  1.00  0.00     0.144 A 
HETATM   30  N   UNL     1      -4.417   5.040 -31.605  1.00  0.00    -0.228 NA
HETATM   31  C   UNL     1      -3.476   5.127 -32.601  1.00  0.00     0.086 A 
HETATM   32  C   UNL     1      -4.080   5.183 -33.847  1.00  0.00     0.062 A 
HETATM   33  C   UNL     1      -2.077   5.148 -32.517  1.00  0.00     0.034 A 
HETATM   34  N   UNL     1      -5.419   5.118 -33.571  1.00  0.00    -0.338 N 
HETATM   35  C   UNL     1      -3.369   5.266 -35.046  1.00  0.00     0.032 A 
HETATM   36  H   UNL     1      -6.169   5.079 -34.252  1.00  0.00     0.167 HD
HETATM   37  C   UNL     1      -1.974   5.284 -34.944  1.00  0.00     0.002 A 
HETATM   38  C   UNL     1      -1.335   5.224 -33.703  1.00  0.00     0.002 A 
ENDBRANCH   2  29
TORSDOF 8
ENDMDL
MODEL 10
REMARK VINA RESULT:      -8.2      3.287      5.876
REMARK  8 active torsions:
REMARK  status: ('A' for Active; 'I' for Inactive)
REMARK    1  A    between atoms: O_2  and  C_3 
REMARK    2  A    between atoms: C_3  and  C_4 
REMARK    3  A    between atoms: C_7  and  C_8 
REMARK    4  A    between atoms: C_8  and  O_9 
REMARK    5  A    between atoms: O_9  and  C_10 
REMARK    6  A    between atoms: C_11  and  C_12 
REMARK    7  A    between atoms: C_13  and  C_14 
REMARK    8  A    between atoms: C_13  and  C_22 
REMARK       I    between atoms: C_14  and  N_15 
ROOT
HETATM    1  C   UNL     1      -5.229   4.530 -32.194  1.00  0.00     0.035 C 
HETATM    2  C   UNL     1      -5.987   3.435 -31.983  1.00  0.00     0.079 C 
ENDROOT
BRANCH   1   3
HETATM    3  C   UNL     1      -4.117   4.718 -33.142  1.00  0.00    -0.002 A 
HETATM    4  C   UNL     1      -2.790   4.751 -32.693  1.00  0.00     0.079 A 
HETATM    5  C   UNL     1      -1.743   5.032 -33.579  1.00  0.00     0.037 A 
HETATM    6  C   UNL     1      -2.013   5.240 -34.931  1.00  0.00     0.003 A 
HETATM    7  C   UNL     1      -3.326   5.193 -35.393  1.00  0.00     0.001 A 
HETATM    8  C   UNL     1      -4.373   4.948 -34.501  1.00  0.00     0.014 A 
BRANCH   4   9
HETATM    9  O   UNL     1      -2.544   4.604 -31.352  1.00  0.00    -0.346 OA
BRANCH   9  10
HETATM   10  C   UNL     1      -1.171   4.833 -31.010  1.00  0.00     0.214 C 
BRANCH  10  11
HETATM   11  C   UNL     1      -1.026   6.088 -30.174  1.00  0.00    -0.034 A 
HETATM   12  C   UNL     1      -2.175   6.792 -29.786  1.00  0.00     0.010 A 
HETATM   13  C   UNL     1      -2.075   7.945 -29.001  1.00  0.00     0.018 A 
HETATM   14  C   UNL     1      -0.822   8.412 -28.587  1.00  0.00     0.039 A 
HETATM   15  C   UNL     1       0.328   7.707 -28.957  1.00  0.00     0.018 A 
HETATM   16  C   UNL     1       0.225   6.553 -29.740  1.00  0.00     0.010 A 
BRANCH  14  17
HETATM   17  C   UNL     1      -0.766   9.651 -27.763  1.00  0.00     0.292 C 
HETATM   18  O   UNL     1      -1.434  10.645 -27.993  1.00  0.00    -0.259 OA
BRANCH  17  19
HETATM   19  O   UNL     1       0.127   9.512 -26.751  1.00  0.00    -0.323 OA
HETATM   20  C   UNL     1      -0.449   9.061 -25.524  1.00  0.00     0.213 C 
ENDBRANCH  17  19
ENDBRANCH  14  17
ENDBRANCH  10  11
ENDBRANCH   9  10
ENDBRANCH   4   9
ENDBRANCH   1   3
BRANCH   2  21
HETATM   21  C   UNL     1      -7.069   3.520 -30.938  1.00  0.00     0.257 C 
HETATM   22  N   UNL     1      -8.369   3.820 -31.299  1.00  0.00    -0.344 N 
HETATM   23  C   UNL     1      -9.387   3.956 -30.252  1.00  0.00     0.152 C 
HETATM   24  C   UNL     1      -8.892   4.168 -32.627  1.00  0.00     0.152 C 
HETATM   25  C   UNL     1      -9.958   5.378 -30.271  1.00  0.00     0.187 C 
HETATM   26  O   UNL     1     -10.475   5.712 -31.571  1.00  0.00    -0.388 OA
HETATM   27  C   UNL     1      -9.459   5.595 -32.584  1.00  0.00     0.187 C 
HETATM   28  O   UNL     1      -6.770   3.248 -29.769  1.00  0.00    -0.267 OA
ENDBRANCH   2  21
BRANCH   2  29
HETATM   29  C   UNL     1      -5.669   2.159 -32.551  1.00  0.00     0.144 A 
HETATM   30  N   UNL     1      -4.682   1.310 -32.320  1.00  0.00    -0.228 NA
HETATM   31  C   UNL     1      -4.952   0.189 -33.065  1.00  0.00     0.086 A 
HETATM   32  C   UNL     1      -6.111   0.356 -33.807  1.00  0.00     0.062 A 
HETATM   33  C   UNL     1      -4.255  -1.025 -33.149  1.00  0.00     0.034 A 
HETATM   34  N   UNL     1      -6.537   1.614 -33.477  1.00  0.00    -0.338 N 
HETATM   35  C   UNL     1      -6.635  -0.624 -34.651  1.00  0.00     0.032 A 
HETATM   36  H   UNL     1      -7.393   2.057 -33.791  1.00  0.00     0.167 HD
HETATM   37  C   UNL     1      -5.928  -1.830 -34.722  1.00  0.00     0.002 A 
HETATM   38  C   UNL     1      -4.760  -2.031 -33.983  1.00  0.00     0.002 A 
ENDBRANCH   2  29
TORSDOF 8
ENDMDL
