MODEL 1
REMARK VINA RESULT:      -8.4      0.000      0.000
REMARK  6 active torsions:
REMARK  status: ('A' for Active; 'I' for Inactive)
REMARK    1  A    between atoms: C_3  and  C_4 
REMARK    2  A    between atoms: C_9  and  N_10 
REMARK       I    between atoms: N_10  and  C_11 
REMARK       I    between atoms: C_11  and  N_12 
REMARK    3  A    between atoms: N_12  and  C_13 
REMARK    4  A    between atoms: C_13  and  C_14 
REMARK    5  A    between atoms: C_14  and  C_15 
REMARK    6  A    between atoms: N_17  and  C_18 
ROOT
HETATM    1  N   UNL     1      -7.491   2.935 -32.532  1.00  0.00    -0.309 N 
HETATM    2  C   UNL     1      -6.660   3.867 -33.082  1.00  0.00     0.320 C 
HETATM    3  N   UNL     1      -5.491   4.105 -32.426  1.00  0.00    -0.343 N 
HETATM    4  O   UNL     1      -6.853   4.499 -34.117  1.00  0.00    -0.247 OA
HETATM    5  H   UNL     1      -7.203   2.531 -31.660  1.00  0.00     0.170 HD
HETATM    6  H   UNL     1      -4.927   4.775 -32.936  1.00  0.00     0.164 HD
ENDROOT
BRANCH   3   7
HETATM    7  C   UNL     1      -4.912   3.544 -31.212  1.00  0.00     0.129 C 
BRANCH   7   8
HETATM    8  C   UNL     1      -3.581   2.834 -31.483  1.00  0.00     0.061 C 
BRANCH   8   9
HETATM    9  C   UNL     1      -3.736   1.385 -31.794  1.00  0.00    -0.020 A 
HETATM   10  C   UNL     1      -4.534   0.797 -32.754  1.00  0.00     0.127 A 
HETATM   11  N   UNL     1      -4.373  -0.569 -32.660  1.00  0.00    -0.245 N 
HETATM   12  N   UNL     1      -3.484  -0.881 -31.678  1.00  0.00    -0.180 NA
HETATM   13  C   UNL     1      -3.115   0.290 -31.164  1.00  0.00     0.148 A 
BRANCH  11  14
HETATM   14  C   UNL     1      -5.012  -1.586 -33.424  1.00  0.00     0.058 A 
HETATM   15  C   UNL     1      -6.352  -1.466 -33.816  1.00  0.00     0.031 A 
HETATM   16  C   UNL     1      -6.958  -2.487 -34.556  1.00  0.00     0.002 A 
HETATM   17  C   UNL     1      -6.236  -3.625 -34.907  1.00  0.00     0.000 A 
HETATM   18  C   UNL     1      -4.903  -3.749 -34.524  1.00  0.00     0.002 A 
HETATM   19  C   UNL     1      -4.290  -2.733 -33.786  1.00  0.00     0.031 A 
ENDBRANCH  11  14
ENDBRANCH   8   9
ENDBRANCH   7   8
ENDBRANCH   3   7
BRANCH   1  20
HETATM   20  C   UNL     1      -8.722   2.468 -33.038  1.00  0.00     0.036 A 
HETATM   21  C   UNL     1      -8.855   1.369 -33.883  1.00  0.00     0.030 A 
HETATM   22  C   UNL     1     -10.118   0.970 -34.337  1.00  0.00     0.018 A 
HETATM   23  C   UNL     1     -11.273   1.657 -33.940  1.00  0.00     0.015 A 
HETATM   24  C   UNL     1     -11.160   2.764 -33.077  1.00  0.00    -0.046 A 
HETATM   25  C   UNL     1     -12.354   3.548 -32.604  1.00  0.00     0.049 C 
HETATM   26  C   UNL     1      -9.877   3.162 -32.650  1.00  0.00     0.037 A 
BRANCH  23  27
HETATM   27  C   UNL     1     -12.598   1.204 -34.462  1.00  0.00     0.156 C 
HETATM   28  C   UNL     1     -13.324   0.112 -33.719  1.00  0.00     0.097 C 
HETATM   29  O   UNL     1     -13.069   1.695 -35.484  1.00  0.00    -0.293 OA
ENDBRANCH  23  27
ENDBRANCH   1  20
TORSDOF 6
ENDMDL
MODEL 2
REMARK VINA RESULT:      -8.4      1.383      1.439
REMARK  6 active torsions:
REMARK  status: ('A' for Active; 'I' for Inactive)
REMARK    1  A    between atoms: C_3  and  C_4 
REMARK    2  A    between atoms: C_9  and  N_10 
REMARK       I    between atoms: N_10  and  C_11 
REMARK       I    between atoms: C_11  and  N_12 
REMARK    3  A    between atoms: N_12  and  C_13 
REMARK    4  A    between atoms: C_13  and  C_14 
REMARK    5  A    between atoms: C_14  and  C_15 
REMARK    6  A    between atoms: N_17  and  C_18 
ROOT
HETATM    1  N   UNL     1      -7.375   2.193 -32.658  1.00  0.00    -0.309 N 
HETATM    2  C   UNL     1      -6.957   2.546 -31.408  1.00  0.00     0.320 C 
HETATM    3  N   UNL     1      -5.622   2.760 -31.249  1.00  0.00    -0.343 N 
HETATM    4  O   UNL     1      -7.665   2.706 -30.418  1.00  0.00    -0.247 OA
HETATM    5  H   UNL     1      -6.663   2.070 -33.355  1.00  0.00     0.170 HD
HETATM    6  H   UNL     1      -5.420   3.061 -30.302  1.00  0.00     0.164 HD
ENDROOT
BRANCH   3   7
HETATM    7  C   UNL     1      -4.498   2.698 -32.175  1.00  0.00     0.129 C 
BRANCH   7   8
HETATM    8  C   UNL     1      -3.361   1.819 -31.642  1.00  0.00     0.061 C 
BRANCH   8   9
HETATM    9  C   UNL     1      -3.482   0.388 -32.040  1.00  0.00    -0.020 A 
HETATM   10  C   UNL     1      -4.376  -0.181 -32.924  1.00  0.00     0.127 A 
HETATM   11  N   UNL     1      -4.132  -1.538 -32.958  1.00  0.00    -0.245 N 
HETATM   12  N   UNL     1      -3.099  -1.861 -32.134  1.00  0.00    -0.180 NA
HETATM   13  C   UNL     1      -2.722  -0.707 -31.586  1.00  0.00     0.148 A 
BRANCH  11  14
HETATM   14  C   UNL     1      -4.818  -2.537 -33.703  1.00  0.00     0.058 A 
HETATM   15  C   UNL     1      -6.081  -2.290 -34.259  1.00  0.00     0.031 A 
HETATM   16  C   UNL     1      -6.738  -3.295 -34.976  1.00  0.00     0.002 A 
HETATM   17  C   UNL     1      -6.144  -4.544 -35.143  1.00  0.00     0.000 A 
HETATM   18  C   UNL     1      -4.888  -4.795 -34.595  1.00  0.00     0.002 A 
HETATM   19  C   UNL     1      -4.224  -3.796 -33.879  1.00  0.00     0.031 A 
ENDBRANCH  11  14
ENDBRANCH   8   9
ENDBRANCH   7   8
ENDBRANCH   3   7
BRANCH   1  20
HETATM   20  C   UNL     1      -8.697   1.971 -33.097  1.00  0.00     0.036 A 
HETATM   21  C   UNL     1      -9.396   0.782 -32.905  1.00  0.00     0.030 A 
HETATM   22  C   UNL     1     -10.709   0.646 -33.371  1.00  0.00     0.018 A 
HETATM   23  C   UNL     1     -11.352   1.706 -34.025  1.00  0.00     0.015 A 
HETATM   24  C   UNL     1     -10.666   2.920 -34.218  1.00  0.00    -0.046 A 
HETATM   25  C   UNL     1     -11.291   4.103 -34.905  1.00  0.00     0.049 C 
HETATM   26  C   UNL     1      -9.337   3.028 -33.761  1.00  0.00     0.037 A 
BRANCH  23  27
HETATM   27  C   UNL     1     -12.749   1.509 -34.517  1.00  0.00     0.156 C 
HETATM   28  C   UNL     1     -13.848   1.333 -33.500  1.00  0.00     0.097 C 
HETATM   29  O   UNL     1     -12.989   1.470 -35.720  1.00  0.00    -0.293 OA
ENDBRANCH  23  27
ENDBRANCH   1  20
TORSDOF 6
ENDMDL
MODEL 3
REMARK VINA RESULT:      -8.1      2.846      6.662
REMARK  6 active torsions:
REMARK  status: ('A' for Active; 'I' for Inactive)
REMARK    1  A    between atoms: C_3  and  C_4 
REMARK    2  A    between atoms: C_9  and  N_10 
REMARK       I    between atoms: N_10  and  C_11 
REMARK       I    between atoms: C_11  and  N_12 
REMARK    3  A    between atoms: N_12  and  C_13 
REMARK    4  A    between atoms: C_13  and  C_14 
REMARK    5  A    between atoms: C_14  and  C_15 
REMARK    6  A    between atoms: N_17  and  C_18 
ROOT
HETATM    1  N   UNL     1      -6.399   3.225 -31.801  1.00  0.00    -0.309 N 
HETATM    2  C   UNL     1      -6.914   2.342 -30.897  1.00  0.00     0.320 C 
HETATM    3  N   UNL     1      -8.219   1.992 -31.062  1.00  0.00    -0.343 N 
HETATM    4  O   UNL     1      -6.314   1.820 -29.961  1.00  0.00    -0.247 OA
HETATM    5  H   UNL     1      -7.032   3.588 -32.490  1.00  0.00     0.170 HD
HETATM    6  H   UNL     1      -8.492   1.300 -30.372  1.00  0.00     0.164 HD
ENDROOT
BRANCH   3   7
HETATM    7  C   UNL     1      -9.222   2.371 -32.047  1.00  0.00     0.129 C 
BRANCH   7   8
HETATM    8  C   UNL     1      -9.783   1.156 -32.796  1.00  0.00     0.061 C 
BRANCH   8   9
HETATM    9  C   UNL     1      -8.750   0.404 -33.562  1.00  0.00    -0.020 A 
HETATM   10  C   UNL     1      -8.155  -0.800 -33.241  1.00  0.00     0.127 A 
HETATM   11  N   UNL     1      -7.241  -1.097 -34.230  1.00  0.00    -0.245 N 
HETATM   12  N   UNL     1      -7.236  -0.129 -35.186  1.00  0.00    -0.180 NA
HETATM   13  C   UNL     1      -8.133   0.764 -34.775  1.00  0.00     0.148 A 
BRANCH  11  14
HETATM   14  C   UNL     1      -6.371  -2.220 -34.316  1.00  0.00     0.058 A 
HETATM   15  C   UNL     1      -6.831  -3.462 -34.777  1.00  0.00     0.031 A 
HETATM   16  C   UNL     1      -5.958  -4.552 -34.838  1.00  0.00     0.002 A 
HETATM   17  C   UNL     1      -4.629  -4.412 -34.444  1.00  0.00     0.000 A 
HETATM   18  C   UNL     1      -4.165  -3.181 -33.987  1.00  0.00     0.002 A 
HETATM   19  C   UNL     1      -5.031  -2.086 -33.924  1.00  0.00     0.031 A 
ENDBRANCH  11  14
ENDBRANCH   8   9
ENDBRANCH   7   8
ENDBRANCH   3   7
BRANCH   1  20
HETATM   20  C   UNL     1      -5.074   3.702 -31.886  1.00  0.00     0.036 A 
HETATM   21  C   UNL     1      -4.102   3.166 -32.727  1.00  0.00     0.030 A 
HETATM   22  C   UNL     1      -2.809   3.703 -32.752  1.00  0.00     0.018 A 
HETATM   23  C   UNL     1      -2.471   4.797 -31.945  1.00  0.00     0.015 A 
HETATM   24  C   UNL     1      -3.443   5.360 -31.096  1.00  0.00    -0.046 A 
HETATM   25  C   UNL     1      -3.158   6.537 -30.204  1.00  0.00     0.049 C 
HETATM   26  C   UNL     1      -4.732   4.790 -31.070  1.00  0.00     0.037 A 
BRANCH  23  27
HETATM   27  C   UNL     1      -1.075   5.328 -31.994  1.00  0.00     0.156 C 
HETATM   28  C   UNL     1      -0.805   6.555 -32.827  1.00  0.00     0.097 C 
HETATM   29  O   UNL     1      -0.169   4.762 -31.389  1.00  0.00    -0.293 OA
ENDBRANCH  23  27
ENDBRANCH   1  20
TORSDOF 6
ENDMDL
MODEL 4
REMARK VINA RESULT:      -8.1      4.625      8.650
REMARK  6 active torsions:
REMARK  status: ('A' for Active; 'I' for Inactive)
REMARK    1  A    between atoms: C_3  and  C_4 
REMARK    2  A    between atoms: C_9  and  N_10 
REMARK       I    between atoms: N_10  and  C_11 
REMARK       I    between atoms: C_11  and  N_12 
REMARK    3  A    between atoms: N_12  and  C_13 
REMARK    4  A    between atoms: C_13  and  C_14 
REMARK    5  A    between atoms: C_14  and  C_15 
REMARK    6  A    between atoms: N_17  and  C_18 
ROOT
HETATM    1  N   UNL     1      -2.295   5.268 -31.393  1.00  0.00    -0.309 N 
HETATM    2  C   UNL     1      -2.075   4.953 -32.702  1.00  0.00     0.320 C 
HETATM    3  N   UNL     1      -3.120   4.407 -33.382  1.00  0.00    -0.343 N 
HETATM    4  O   UNL     1      -1.036   5.128 -33.331  1.00  0.00    -0.247 OA
HETATM    5  H   UNL     1      -3.194   5.028 -31.015  1.00  0.00     0.170 HD
HETATM    6  H   UNL     1      -2.872   4.253 -34.353  1.00  0.00     0.164 HD
ENDROOT
BRANCH   3   7
HETATM    7  C   UNL     1      -4.486   4.081 -32.992  1.00  0.00     0.129 C 
BRANCH   7   8
HETATM    8  C   UNL     1      -4.549   2.836 -32.099  1.00  0.00     0.061 C 
BRANCH   8   9
HETATM    9  C   UNL     1      -5.241   1.683 -32.739  1.00  0.00    -0.020 A 
HETATM   10  C   UNL     1      -4.772   0.398 -32.922  1.00  0.00     0.127 A 
HETATM   11  N   UNL     1      -5.748  -0.319 -33.583  1.00  0.00    -0.245 N 
HETATM   12  N   UNL     1      -6.838   0.460 -33.820  1.00  0.00    -0.180 NA
HETATM   13  C   UNL     1      -6.524   1.653 -33.320  1.00  0.00     0.148 A 
BRANCH  11  14
HETATM   14  C   UNL     1      -5.706  -1.676 -34.010  1.00  0.00     0.058 A 
HETATM   15  C   UNL     1      -6.852  -2.322 -34.493  1.00  0.00     0.031 A 
HETATM   16  C   UNL     1      -6.784  -3.660 -34.894  1.00  0.00     0.002 A 
HETATM   17  C   UNL     1      -5.580  -4.357 -34.817  1.00  0.00     0.000 A 
HETATM   18  C   UNL     1      -4.436  -3.720 -34.342  1.00  0.00     0.002 A 
HETATM   19  C   UNL     1      -4.496  -2.383 -33.940  1.00  0.00     0.031 A 
ENDBRANCH  11  14
ENDBRANCH   8   9
ENDBRANCH   7   8
ENDBRANCH   3   7
BRANCH   1  20
HETATM   20  C   UNL     1      -1.405   5.888 -30.491  1.00  0.00     0.036 A 
HETATM   21  C   UNL     1      -0.191   5.339 -30.087  1.00  0.00     0.030 A 
HETATM   22  C   UNL     1       0.636   6.024 -29.189  1.00  0.00     0.018 A 
HETATM   23  C   UNL     1       0.268   7.281 -28.691  1.00  0.00     0.015 A 
HETATM   24  C   UNL     1      -0.951   7.858 -29.097  1.00  0.00    -0.046 A 
HETATM   25  C   UNL     1      -1.411   9.205 -28.610  1.00  0.00     0.049 C 
HETATM   26  C   UNL     1      -1.779   7.141 -29.985  1.00  0.00     0.037 A 
BRANCH  23  27
HETATM   27  C   UNL     1       1.175   7.969 -27.724  1.00  0.00     0.156 C 
HETATM   28  C   UNL     1       1.110   7.567 -26.273  1.00  0.00     0.097 C 
HETATM   29  O   UNL     1       1.936   8.855 -28.101  1.00  0.00    -0.293 OA
ENDBRANCH  23  27
ENDBRANCH   1  20
TORSDOF 6
ENDMDL
MODEL 5
REMARK VINA RESULT:      -8.0      2.808      6.735
REMARK  6 active torsions:
REMARK  status: ('A' for Active; 'I' for Inactive)
REMARK    1  A    between atoms: C_3  and  C_4 
REMARK    2  A    between atoms: C_9  and  N_10 
REMARK       I    between atoms: N_10  and  C_11 
REMARK       I    between atoms: C_11  and  N_12 
REMARK    3  A    between atoms: N_12  and  C_13 
REMARK    4  A    between atoms: C_13  and  C_14 
REMARK    5  A    between atoms: C_14  and  C_15 
REMARK    6  A    between atoms: N_17  and  C_18 
ROOT
HETATM    1  N   UNL     1      -6.485   4.275 -32.517  1.00  0.00    -0.309 N 
HETATM    2  C   UNL     1      -7.559   4.411 -33.348  1.00  0.00     0.320 C 
HETATM    3  N   UNL     1      -8.602   3.562 -33.141  1.00  0.00    -0.343 N 
HETATM    4  O   UNL     1      -7.683   5.232 -34.252  1.00  0.00    -0.247 OA
HETATM    5  H   UNL     1      -6.523   3.528 -31.848  1.00  0.00     0.170 HD
HETATM    6  H   UNL     1      -9.364   3.773 -33.776  1.00  0.00     0.164 HD
ENDROOT
BRANCH   3   7
HETATM    7  C   UNL     1      -8.827   2.498 -32.171  1.00  0.00     0.129 C 
BRANCH   7   8
HETATM    8  C   UNL     1      -9.524   1.285 -32.797  1.00  0.00     0.061 C 
BRANCH   8   9
HETATM    9  C   UNL     1      -8.610   0.426 -33.602  1.00  0.00    -0.020 A 
HETATM   10  C   UNL     1      -7.959  -0.728 -33.215  1.00  0.00     0.127 A 
HETATM   11  N   UNL     1      -7.202  -1.164 -34.282  1.00  0.00    -0.245 N 
HETATM   12  N   UNL     1      -7.354  -0.335 -35.350  1.00  0.00    -0.180 NA
HETATM   13  C   UNL     1      -8.190   0.613 -34.933  1.00  0.00     0.148 A 
BRANCH  11  14
HETATM   14  C   UNL     1      -6.342  -2.296 -34.346  1.00  0.00     0.058 A 
HETATM   15  C   UNL     1      -6.813  -3.543 -34.782  1.00  0.00     0.031 A 
HETATM   16  C   UNL     1      -5.949  -4.641 -34.823  1.00  0.00     0.002 A 
HETATM   17  C   UNL     1      -4.618  -4.505 -34.432  1.00  0.00     0.000 A 
HETATM   18  C   UNL     1      -4.143  -3.269 -34.001  1.00  0.00     0.002 A 
HETATM   19  C   UNL     1      -5.000  -2.166 -33.959  1.00  0.00     0.031 A 
ENDBRANCH  11  14
ENDBRANCH   8   9
ENDBRANCH   7   8
ENDBRANCH   3   7
BRANCH   1  20
HETATM   20  C   UNL     1      -5.311   5.057 -32.485  1.00  0.00     0.036 A 
HETATM   21  C   UNL     1      -5.020   5.991 -31.493  1.00  0.00     0.030 A 
HETATM   22  C   UNL     1      -3.828   6.724 -31.536  1.00  0.00     0.018 A 
HETATM   23  C   UNL     1      -2.899   6.524 -32.565  1.00  0.00     0.015 A 
HETATM   24  C   UNL     1      -3.170   5.577 -33.570  1.00  0.00    -0.046 A 
HETATM   25  C   UNL     1      -2.220   5.303 -34.704  1.00  0.00     0.049 C 
HETATM   26  C   UNL     1      -4.386   4.865 -33.521  1.00  0.00     0.037 A 
BRANCH  23  27
HETATM   27  C   UNL     1      -1.647   7.340 -32.577  1.00  0.00     0.156 C 
HETATM   28  C   UNL     1      -0.391   6.731 -32.007  1.00  0.00     0.097 C 
HETATM   29  O   UNL     1      -1.651   8.486 -33.018  1.00  0.00    -0.293 OA
ENDBRANCH  23  27
ENDBRANCH   1  20
TORSDOF 6
ENDMDL
MODEL 6
REMARK VINA RESULT:      -8.0      2.192      6.095
REMARK  6 active torsions:
REMARK  status: ('A' for Active; 'I' for Inactive)
REMARK    1  A    between atoms: C_3  and  C_4 
REMARK    2  A    between atoms: C_9  and  N_10 
REMARK       I    between atoms: N_10  and  C_11 
REMARK       I    between atoms: C_11  and  N_12 
REMARK    3  A    between atoms: N_12  and  C_13 
REMARK    4  A    between atoms: C_13  and  C_14 
REMARK    5  A    between atoms: C_14  and  C_15 
REMARK    6  A    between atoms: N_17  and  C_18 
ROOT
HETATM    1  N   UNL     1      -7.884   3.891 -33.136  1.00  0.00    -0.309 N 
HETATM    2  C   UNL     1      -8.865   4.515 -33.851  1.00  0.00     0.320 C 
HETATM    3  N   UNL     1     -10.145   4.136 -33.590  1.00  0.00    -0.343 N 
HETATM    4  O   UNL     1      -8.708   5.394 -34.693  1.00  0.00    -0.247 OA
HETATM    5  H   UNL     1      -8.176   3.166 -32.507  1.00  0.00     0.170 HD
HETATM    6  H   UNL     1     -10.798   4.688 -34.136  1.00  0.00     0.164 HD
ENDROOT
BRANCH   3   7
HETATM    7  C   UNL     1     -10.715   3.169 -32.661  1.00  0.00     0.129 C 
BRANCH   7   8
HETATM    8  C   UNL     1     -10.720   1.749 -33.239  1.00  0.00     0.061 C 
BRANCH   8   9
HETATM    9  C   UNL     1      -9.475   0.986 -32.944  1.00  0.00    -0.020 A 
HETATM   10  C   UNL     1      -8.703   0.241 -33.812  1.00  0.00     0.127 A 
HETATM   11  N   UNL     1      -7.663  -0.306 -33.090  1.00  0.00    -0.245 N 
HETATM   12  N   UNL     1      -7.731   0.074 -31.786  1.00  0.00    -0.180 NA
HETATM   13  C   UNL     1      -8.818   0.838 -31.707  1.00  0.00     0.148 A 
BRANCH  11  14
HETATM   14  C   UNL     1      -6.628  -1.168 -33.552  1.00  0.00     0.058 A 
HETATM   15  C   UNL     1      -5.282  -0.911 -33.256  1.00  0.00     0.031 A 
HETATM   16  C   UNL     1      -4.286  -1.768 -33.735  1.00  0.00     0.002 A 
HETATM   17  C   UNL     1      -4.623  -2.879 -34.505  1.00  0.00     0.000 A 
HETATM   18  C   UNL     1      -5.959  -3.141 -34.800  1.00  0.00     0.002 A 
HETATM   19  C   UNL     1      -6.960  -2.291 -34.325  1.00  0.00     0.031 A 
ENDBRANCH  11  14
ENDBRANCH   8   9
ENDBRANCH   7   8
ENDBRANCH   3   7
BRANCH   1  20
HETATM   20  C   UNL     1      -6.495   4.137 -33.175  1.00  0.00     0.036 A 
HETATM   21  C   UNL     1      -5.925   5.342 -33.577  1.00  0.00     0.030 A 
HETATM   22  C   UNL     1      -4.534   5.502 -33.584  1.00  0.00     0.018 A 
HETATM   23  C   UNL     1      -3.690   4.462 -33.172  1.00  0.00     0.015 A 
HETATM   24  C   UNL     1      -4.248   3.240 -32.751  1.00  0.00    -0.046 A 
HETATM   25  C   UNL     1      -3.408   2.081 -32.291  1.00  0.00     0.049 C 
HETATM   26  C   UNL     1      -5.650   3.092 -32.774  1.00  0.00     0.037 A 
BRANCH  23  27
HETATM   27  C   UNL     1      -2.211   4.675 -33.209  1.00  0.00     0.156 C 
HETATM   28  C   UNL     1      -1.575   5.045 -34.525  1.00  0.00     0.097 C 
HETATM   29  O   UNL     1      -1.532   4.527 -32.198  1.00  0.00    -0.293 OA
ENDBRANCH  23  27
ENDBRANCH   1  20
TORSDOF 6
ENDMDL
MODEL 7
REMARK VINA RESULT:      -7.9      5.325      9.289
REMARK  6 active torsions:
REMARK  status: ('A' for Active; 'I' for Inactive)
REMARK    1  A    between atoms: C_3  and  C_4 
REMARK    2  A    between atoms: C_9  and  N_10 
REMARK       I    between atoms: N_10  and  C_11 
REMARK       I    between atoms: C_11  and  N_12 
REMARK    3  A    between atoms: N_12  and  C_13 
REMARK    4  A    between atoms: C_13  and  C_14 
REMARK    5  A    between atoms: C_14  and  C_15 
REMARK    6  A    between atoms: N_17  and  C_18 
ROOT
HETATM    1  N   UNL     1      -1.683   5.806 -30.137  1.00  0.00    -0.309 N 
HETATM    2  C   UNL     1      -2.456   6.170 -31.201  1.00  0.00     0.320 C 
HETATM    3  N   UNL     1      -3.148   5.175 -31.820  1.00  0.00    -0.343 N 
HETATM    4  O   UNL     1      -2.602   7.305 -31.644  1.00  0.00    -0.247 OA
HETATM    5  H   UNL     1      -1.643   4.827 -29.921  1.00  0.00     0.170 HD
HETATM    6  H   UNL     1      -3.725   5.552 -32.564  1.00  0.00     0.164 HD
ENDROOT
BRANCH   3   7
HETATM    7  C   UNL     1      -3.248   3.743 -31.571  1.00  0.00     0.129 C 
BRANCH   7   8
HETATM    8  C   UNL     1      -4.577   3.365 -30.906  1.00  0.00     0.061 C 
BRANCH   8   9
HETATM    9  C   UNL     1      -5.008   1.969 -31.197  1.00  0.00    -0.020 A 
HETATM   10  C   UNL     1      -4.824   1.240 -32.355  1.00  0.00     0.127 A 
HETATM   11  N   UNL     1      -5.412   0.006 -32.176  1.00  0.00    -0.245 N 
HETATM   12  N   UNL     1      -5.959  -0.090 -30.934  1.00  0.00    -0.180 NA
HETATM   13  C   UNL     1      -5.718   1.087 -30.360  1.00  0.00     0.148 A 
BRANCH  11  14
HETATM   14  C   UNL     1      -5.500  -1.070 -33.104  1.00  0.00     0.058 A 
HETATM   15  C   UNL     1      -4.369  -1.819 -33.458  1.00  0.00     0.031 A 
HETATM   16  C   UNL     1      -4.483  -2.862 -34.382  1.00  0.00     0.002 A 
HETATM   17  C   UNL     1      -5.716  -3.164 -34.954  1.00  0.00     0.000 A 
HETATM   18  C   UNL     1      -6.845  -2.426 -34.605  1.00  0.00     0.002 A 
HETATM   19  C   UNL     1      -6.740  -1.383 -33.681  1.00  0.00     0.031 A 
ENDBRANCH  11  14
ENDBRANCH   8   9
ENDBRANCH   7   8
ENDBRANCH   3   7
BRANCH   1  20
HETATM   20  C   UNL     1      -0.918   6.643 -29.297  1.00  0.00     0.036 A 
HETATM   21  C   UNL     1       0.355   7.113 -29.610  1.00  0.00     0.030 A 
HETATM   22  C   UNL     1       1.045   7.943 -28.719  1.00  0.00     0.018 A 
HETATM   23  C   UNL     1       0.465   8.331 -27.504  1.00  0.00     0.015 A 
HETATM   24  C   UNL     1      -0.826   7.876 -27.175  1.00  0.00    -0.046 A 
HETATM   25  C   UNL     1      -1.516   8.253 -25.893  1.00  0.00     0.049 C 
HETATM   26  C   UNL     1      -1.494   7.022 -28.076  1.00  0.00     0.037 A 
BRANCH  23  27
HETATM   27  C   UNL     1       1.245   9.208 -26.578  1.00  0.00     0.156 C 
HETATM   28  C   UNL     1       2.227   8.558 -25.637  1.00  0.00     0.097 C 
HETATM   29  O   UNL     1       1.070  10.423 -26.571  1.00  0.00    -0.293 OA
ENDBRANCH  23  27
ENDBRANCH   1  20
TORSDOF 6
ENDMDL
MODEL 8
REMARK VINA RESULT:      -7.8      2.550      6.018
REMARK  6 active torsions:
REMARK  status: ('A' for Active; 'I' for Inactive)
REMARK    1  A    between atoms: C_3  and  C_4 
REMARK    2  A    between atoms: C_9  and  N_10 
REMARK       I    between atoms: N_10  and  C_11 
REMARK       I    between atoms: C_11  and  N_12 
REMARK    3  A    between atoms: N_12  and  C_13 
REMARK    4  A    between atoms: C_13  and  C_14 
REMARK    5  A    between atoms: C_14  and  C_15 
REMARK    6  A    between atoms: N_17  and  C_18 
ROOT
HETATM    1  N   UNL     1      -5.084   2.224 -31.503  1.00  0.00    -0.309 N 
HETATM    2  C   UNL     1      -3.991   3.018 -31.304  1.00  0.00     0.320 C 
HETATM    3  N   UNL     1      -4.170   4.116 -30.521  1.00  0.00    -0.343 N 
HETATM    4  O   UNL     1      -2.862   2.830 -31.746  1.00  0.00    -0.247 OA
HETATM    5  H   UNL     1      -5.948   2.535 -31.099  1.00  0.00     0.170 HD
HETATM    6  H   UNL     1      -3.294   4.612 -30.397  1.00  0.00     0.164 HD
ENDROOT
BRANCH   3   7
HETATM    7  C   UNL     1      -5.330   4.643 -29.813  1.00  0.00     0.129 C 
BRANCH   7   8
HETATM    8  C   UNL     1      -6.149   5.604 -30.683  1.00  0.00     0.061 C 
BRANCH   8   9
HETATM    9  C   UNL     1      -6.982   4.913 -31.706  1.00  0.00    -0.020 A 
HETATM   10  C   UNL     1      -8.055   4.068 -31.506  1.00  0.00     0.127 A 
HETATM   11  N   UNL     1      -8.498   3.647 -32.743  1.00  0.00    -0.245 N 
HETATM   12  N   UNL     1      -7.753   4.205 -33.735  1.00  0.00    -0.180 NA
HETATM   13  C   UNL     1      -6.849   4.953 -33.107  1.00  0.00     0.148 A 
BRANCH  11  14
HETATM   14  C   UNL     1      -9.561   2.748 -33.038  1.00  0.00     0.058 A 
HETATM   15  C   UNL     1      -9.411   1.365 -32.871  1.00  0.00     0.031 A 
HETATM   16  C   UNL     1     -10.469   0.504 -33.181  1.00  0.00     0.002 A 
HETATM   17  C   UNL     1     -11.675   1.014 -33.656  1.00  0.00     0.000 A 
HETATM   18  C   UNL     1     -11.832   2.388 -33.821  1.00  0.00     0.002 A 
HETATM   19  C   UNL     1     -10.781   3.255 -33.512  1.00  0.00     0.031 A 
ENDBRANCH  11  14
ENDBRANCH   8   9
ENDBRANCH   7   8
ENDBRANCH   3   7
BRANCH   1  20
HETATM   20  C   UNL     1      -5.152   1.011 -32.219  1.00  0.00     0.036 A 
HETATM   21  C   UNL     1      -4.486  -0.155 -31.850  1.00  0.00     0.030 A 
HETATM   22  C   UNL     1      -4.612  -1.319 -32.617  1.00  0.00     0.018 A 
HETATM   23  C   UNL     1      -5.420  -1.341 -33.761  1.00  0.00     0.015 A 
HETATM   24  C   UNL     1      -6.111  -0.175 -34.144  1.00  0.00    -0.046 A 
HETATM   25  C   UNL     1      -7.001  -0.122 -35.356  1.00  0.00     0.049 C 
HETATM   26  C   UNL     1      -5.953   0.992 -33.370  1.00  0.00     0.037 A 
BRANCH  23  27
HETATM   27  C   UNL     1      -5.513  -2.602 -34.557  1.00  0.00     0.156 C 
HETATM   28  C   UNL     1      -6.817  -3.358 -34.551  1.00  0.00     0.097 C 
HETATM   29  O   UNL     1      -4.542  -3.022 -35.180  1.00  0.00    -0.293 OA
ENDBRANCH  23  27
ENDBRANCH   1  20
TORSDOF 6
ENDMDL
MODEL 9
REMARK VINA RESULT:      -7.8      3.354      7.338
REMARK  6 active torsions:
REMARK  status: ('A' for Active; 'I' for Inactive)
REMARK    1  A    between atoms: C_3  and  C_4 
REMARK    2  A    between atoms: C_9  and  N_10 
REMARK       I    between atoms: N_10  and  C_11 
REMARK       I    between atoms: C_11  and  N_12 
REMARK    3  A    between atoms: N_12  and  C_13 
REMARK    4  A    between atoms: C_13  and  C_14 
REMARK    5  A    between atoms: C_14  and  C_15 
REMARK    6  A    between atoms: N_17  and  C_18 
ROOT
HETATM    1  N   UNL     1      -4.450   4.568 -32.556  1.00  0.00    -0.309 N 
HETATM    2  C   UNL     1      -4.869   4.916 -33.808  1.00  0.00     0.320 C 
HETATM    3  N   UNL     1      -6.068   4.415 -34.211  1.00  0.00    -0.343 N 
HETATM    4  O   UNL     1      -4.280   5.648 -34.598  1.00  0.00    -0.247 OA
HETATM    5  H   UNL     1      -5.033   3.930 -32.046  1.00  0.00     0.170 HD
HETATM    6  H   UNL     1      -6.310   4.768 -35.130  1.00  0.00     0.164 HD
ENDROOT
BRANCH   3   7
HETATM    7  C   UNL     1      -7.046   3.555 -33.556  1.00  0.00     0.129 C 
BRANCH   7   8
HETATM    8  C   UNL     1      -7.351   2.299 -34.380  1.00  0.00     0.061 C 
BRANCH   8   9
HETATM    9  C   UNL     1      -6.483   1.138 -34.033  1.00  0.00    -0.020 A 
HETATM   10  C   UNL     1      -6.540  -0.150 -34.526  1.00  0.00     0.127 A 
HETATM   11  N   UNL     1      -5.557  -0.886 -33.898  1.00  0.00    -0.245 N 
HETATM   12  N   UNL     1      -4.858  -0.110 -33.026  1.00  0.00    -0.180 NA
HETATM   13  C   UNL     1      -5.422   1.093 -33.109  1.00  0.00     0.148 A 
BRANCH  11  14
HETATM   14  C   UNL     1      -5.252  -2.267 -34.063  1.00  0.00     0.058 A 
HETATM   15  C   UNL     1      -6.029  -3.089 -34.890  1.00  0.00     0.031 A 
HETATM   16  C   UNL     1      -5.714  -4.445 -35.023  1.00  0.00     0.002 A 
HETATM   17  C   UNL     1      -4.629  -4.986 -34.336  1.00  0.00     0.000 A 
HETATM   18  C   UNL     1      -3.851  -4.174 -33.514  1.00  0.00     0.002 A 
HETATM   19  C   UNL     1      -4.159  -2.818 -33.377  1.00  0.00     0.031 A 
ENDBRANCH  11  14
ENDBRANCH   8   9
ENDBRANCH   7   8
ENDBRANCH   3   7
BRANCH   1  20
HETATM   20  C   UNL     1      -3.283   4.992 -31.885  1.00  0.00     0.036 A 
HETATM   21  C   UNL     1      -2.015   4.465 -32.113  1.00  0.00     0.030 A 
HETATM   22  C   UNL     1      -0.907   4.946 -31.404  1.00  0.00     0.018 A 
HETATM   23  C   UNL     1      -1.049   5.976 -30.464  1.00  0.00     0.015 A 
HETATM   24  C   UNL     1      -2.322   6.529 -30.229  1.00  0.00    -0.046 A 
HETATM   25  C   UNL     1      -2.553   7.639 -29.240  1.00  0.00     0.049 C 
HETATM   26  C   UNL     1      -3.427   6.014 -30.937  1.00  0.00     0.037 A 
BRANCH  23  27
HETATM   27  C   UNL     1       0.158   6.448 -29.722  1.00  0.00     0.156 C 
HETATM   28  C   UNL     1       0.626   5.645 -28.534  1.00  0.00     0.097 C 
HETATM   29  O   UNL     1       0.739   7.476 -30.058  1.00  0.00    -0.293 OA
ENDBRANCH  23  27
ENDBRANCH   1  20
TORSDOF 6
ENDMDL
MODEL 10
REMARK VINA RESULT:      -7.7      2.558      6.668
REMARK  6 active torsions:
REMARK  status: ('A' for Active; 'I' for Inactive)
REMARK    1  A    between atoms: C_3  and  C_4 
REMARK    2  A    between atoms: C_9  and  N_10 
REMARK       I    between atoms: N_10  and  C_11 
REMARK       I    between atoms: C_11  and  N_12 
REMARK    3  A    between atoms: N_12  and  C_13 
REMARK    4  A    between atoms: C_13  and  C_14 
REMARK    5  A    between atoms: C_14  and  C_15 
REMARK    6  A    between atoms: N_17  and  C_18 
ROOT
HETATM    1  N   UNL     1      -6.899   2.604 -32.934  1.00  0.00    -0.309 N 
HETATM    2  C   UNL     1      -6.125   3.721 -33.068  1.00  0.00     0.320 C 
HETATM    3  N   UNL     1      -6.558   4.843 -32.432  1.00  0.00    -0.343 N 
HETATM    4  O   UNL     1      -5.071   3.808 -33.690  1.00  0.00    -0.247 OA
HETATM    5  H   UNL     1      -7.754   2.707 -32.419  1.00  0.00     0.170 HD
HETATM    6  H   UNL     1      -5.894   5.600 -32.553  1.00  0.00     0.164 HD
ENDROOT
BRANCH   3   7
HETATM    7  C   UNL     1      -7.720   5.114 -31.595  1.00  0.00     0.129 C 
BRANCH   7   8
HETATM    8  C   UNL     1      -8.839   5.818 -32.371  1.00  0.00     0.061 C 
BRANCH   8   9
HETATM    9  C   UNL     1      -9.667   4.888 -33.190  1.00  0.00    -0.020 A 
HETATM   10  C   UNL     1     -10.527   3.901 -32.755  1.00  0.00     0.127 A 
HETATM   11  N   UNL     1     -11.054   3.279 -33.867  1.00  0.00    -0.245 N 
HETATM   12  N   UNL     1     -10.571   3.843 -35.007  1.00  0.00    -0.180 NA
HETATM   13  C   UNL     1      -9.740   4.796 -34.593  1.00  0.00     0.148 A 
BRANCH  11  14
HETATM   14  C   UNL     1     -11.966   2.186 -33.916  1.00  0.00     0.058 A 
HETATM   15  C   UNL     1     -13.291   2.363 -34.337  1.00  0.00     0.031 A 
HETATM   16  C   UNL     1     -14.168   1.274 -34.362  1.00  0.00     0.002 A 
HETATM   17  C   UNL     1     -13.732   0.011 -33.971  1.00  0.00     0.000 A 
HETATM   18  C   UNL     1     -12.415  -0.173 -33.554  1.00  0.00     0.002 A 
HETATM   19  C   UNL     1     -11.533   0.910 -33.528  1.00  0.00     0.031 A 
ENDBRANCH  11  14
ENDBRANCH   8   9
ENDBRANCH   7   8
ENDBRANCH   3   7
BRANCH   1  20
HETATM   20  C   UNL     1      -6.649   1.312 -33.442  1.00  0.00     0.036 A 
HETATM   21  C   UNL     1      -7.261   0.784 -34.575  1.00  0.00     0.030 A 
HETATM   22  C   UNL     1      -6.952  -0.509 -35.013  1.00  0.00     0.018 A 
HETATM   23  C   UNL     1      -6.011  -1.292 -34.331  1.00  0.00     0.015 A 
HETATM   24  C   UNL     1      -5.373  -0.771 -33.190  1.00  0.00    -0.046 A 
HETATM   25  C   UNL     1      -4.349  -1.549 -32.408  1.00  0.00     0.049 C 
HETATM   26  C   UNL     1      -5.715   0.525 -32.753  1.00  0.00     0.037 A 
BRANCH  23  27
HETATM   27  C   UNL     1      -5.724  -2.672 -34.827  1.00  0.00     0.156 C 
HETATM   28  C   UNL     1      -6.824  -3.701 -34.754  1.00  0.00     0.097 C 
HETATM   29  O   UNL     1      -4.613  -2.963 -35.260  1.00  0.00    -0.293 OA
ENDBRANCH  23  27
ENDBRANCH   1  20
TORSDOF 6
ENDMDL
