MODEL 1
REMARK VINA RESULT:      -8.8      0.000      0.000
REMARK  5 active torsions:
REMARK  status: ('A' for Active; 'I' for Inactive)
REMARK    1  A    between atoms: C_8  and  N_9 
REMARK    2  A    between atoms: C_12  and  N_13 
REMARK    3  A    between atoms: N_13  and  C_15 
REMARK    4  A    between atoms: C_15  and  C_16 
REMARK    5  A    between atoms: C_20  and  C_21 
ROOT
HETATM    1  N   UNL     1      -7.336   3.168 -32.510  1.00  0.00    -0.065 N 
HETATM    2  H   UNL     1      -7.888   2.326 -32.327  1.00  0.00     0.280 HD
HETATM    3  C   UNL     1      -6.541   3.465 -31.253  1.00  0.00     0.270 C 
ENDROOT
BRANCH   1   4
HETATM    4  C   UNL     1      -8.295   4.320 -32.882  1.00  0.00     0.191 C 
HETATM    5  C   UNL     1      -9.038   4.085 -34.206  1.00  0.00     0.053 C 
HETATM    6  C   UNL     1     -10.125   3.019 -34.096  1.00  0.00     0.126 C 
HETATM    7  N   UNL     1     -11.047   3.394 -33.019  1.00  0.00    -0.366 N 
HETATM    8  C   UNL     1     -10.430   3.525 -31.696  1.00  0.00     0.126 C 
HETATM    9  C   UNL     1      -9.325   4.578 -31.763  1.00  0.00     0.053 C 
BRANCH   7  10
HETATM   10  C   UNL     1     -12.279   2.728 -33.042  1.00  0.00     0.129 A 
HETATM   11  N   UNL     1     -13.381   3.345 -32.579  1.00  0.00    -0.218 NA
HETATM   12  C   UNL     1     -14.539   2.639 -32.537  1.00  0.00     0.102 A 
HETATM   13  N   UNL     1     -14.633   1.360 -32.924  1.00  0.00    -0.348 N 
HETATM   14  C   UNL     1     -15.757   3.313 -31.990  1.00  0.00     0.091 C 
HETATM   15  C   UNL     1     -13.553   0.719 -33.396  1.00  0.00     0.010 A 
HETATM   16  H   UNL     1     -15.527   0.878 -32.846  1.00  0.00     0.167 HD
HETATM   17  C   UNL     1     -13.675  -0.716 -33.795  1.00  0.00     0.068 C 
HETATM   18  C   UNL     1     -12.340   1.404 -33.465  1.00  0.00     0.075 A 
ENDBRANCH   7  10
ENDBRANCH   1   4
BRANCH   1  19
HETATM   19  C   UNL     1      -6.345   2.755 -33.619  1.00  0.00     0.295 C 
BRANCH  19  20
HETATM   20  C   UNL     1      -6.423   1.351 -34.138  1.00  0.00     0.082 A 
HETATM   21  N   UNL     1      -7.265   1.024 -35.126  1.00  0.00    -0.177 NA
HETATM   22  N   UNL     1      -7.081  -0.303 -35.290  1.00  0.00    -0.277 N 
HETATM   23  H   UNL     1      -7.617  -0.790 -36.002  1.00  0.00     0.189 HD
HETATM   24  C   UNL     1      -6.142  -0.840 -34.448  1.00  0.00     0.062 A 
HETATM   25  C   UNL     1      -5.687   0.226 -33.696  1.00  0.00     0.062 A 
BRANCH  24  26
HETATM   26  C   UNL     1      -5.777  -2.254 -34.447  1.00  0.00    -0.008 A 
HETATM   27  C   UNL     1      -6.722  -3.231 -34.788  1.00  0.00     0.014 A 
HETATM   28  C   UNL     1      -6.379  -4.585 -34.783  1.00  0.00     0.001 A 
HETATM   29  C   UNL     1      -5.088  -4.978 -34.442  1.00  0.00     0.000 A 
HETATM   30  C   UNL     1      -4.136  -4.018 -34.109  1.00  0.00     0.001 A 
HETATM   31  C   UNL     1      -4.478  -2.663 -34.111  1.00  0.00     0.014 A 
ENDBRANCH  24  26
ENDBRANCH  19  20
ENDBRANCH   1  19
TORSDOF 5
ENDMDL
MODEL 2
REMARK VINA RESULT:      -8.6      3.418      7.460
REMARK  5 active torsions:
REMARK  status: ('A' for Active; 'I' for Inactive)
REMARK    1  A    between atoms: C_8  and  N_9 
REMARK    2  A    between atoms: C_12  and  N_13 
REMARK    3  A    between atoms: N_13  and  C_15 
REMARK    4  A    between atoms: C_15  and  C_16 
REMARK    5  A    between atoms: C_20  and  C_21 
ROOT
HETATM    1  N   UNL     1      -7.781   3.496 -31.606  1.00  0.00    -0.065 N 
HETATM    2  H   UNL     1      -7.182   3.621 -32.427  1.00  0.00     0.280 HD
HETATM    3  C   UNL     1      -8.947   4.454 -31.753  1.00  0.00     0.270 C 
ENDROOT
BRANCH   1   4
HETATM    4  C   UNL     1      -6.949   3.778 -30.336  1.00  0.00     0.191 C 
HETATM    5  C   UNL     1      -5.717   2.870 -30.206  1.00  0.00     0.053 C 
HETATM    6  C   UNL     1      -4.608   3.229 -31.191  1.00  0.00     0.126 C 
HETATM    7  N   UNL     1      -4.258   4.643 -31.014  1.00  0.00    -0.366 N 
HETATM    8  C   UNL     1      -5.359   5.584 -31.235  1.00  0.00     0.126 C 
HETATM    9  C   UNL     1      -6.500   5.253 -30.274  1.00  0.00     0.053 C 
BRANCH   7  10
HETATM   10  C   UNL     1      -3.028   5.018 -31.570  1.00  0.00     0.129 A 
HETATM   11  N   UNL     1      -2.099   5.611 -30.798  1.00  0.00    -0.218 NA
HETATM   12  C   UNL     1      -0.955   6.038 -31.390  1.00  0.00     0.102 A 
HETATM   13  N   UNL     1      -0.713   5.906 -32.701  1.00  0.00    -0.348 N 
HETATM   14  C   UNL     1       0.064   6.729 -30.540  1.00  0.00     0.091 C 
HETATM   15  C   UNL     1      -1.617   5.313 -33.496  1.00  0.00     0.010 A 
HETATM   16  H   UNL     1       0.156   6.269 -33.089  1.00  0.00     0.167 HD
HETATM   17  C   UNL     1      -1.339   5.203 -34.960  1.00  0.00     0.068 C 
HETATM   18  C   UNL     1      -2.807   4.851 -32.933  1.00  0.00     0.075 A 
ENDBRANCH   7  10
ENDBRANCH   1   4
BRANCH   1  19
HETATM   19  C   UNL     1      -8.324   2.056 -31.730  1.00  0.00     0.295 C 
BRANCH  19  20
HETATM   20  C   UNL     1      -7.630   1.128 -32.679  1.00  0.00     0.082 A 
HETATM   21  N   UNL     1      -7.290   1.525 -33.912  1.00  0.00    -0.177 NA
HETATM   22  N   UNL     1      -6.733   0.429 -34.469  1.00  0.00    -0.277 N 
HETATM   23  H   UNL     1      -6.384   0.484 -35.422  1.00  0.00     0.189 HD
HETATM   24  C   UNL     1      -6.694  -0.657 -33.634  1.00  0.00     0.062 A 
HETATM   25  C   UNL     1      -7.261  -0.219 -32.453  1.00  0.00     0.062 A 
BRANCH  24  26
HETATM   26  C   UNL     1      -6.134  -1.950 -34.021  1.00  0.00    -0.008 A 
HETATM   27  C   UNL     1      -6.952  -2.935 -34.590  1.00  0.00     0.014 A 
HETATM   28  C   UNL     1      -6.424  -4.175 -34.955  1.00  0.00     0.001 A 
HETATM   29  C   UNL     1      -5.071  -4.443 -34.762  1.00  0.00     0.000 A 
HETATM   30  C   UNL     1      -4.244  -3.471 -34.206  1.00  0.00     0.001 A 
HETATM   31  C   UNL     1      -4.772  -2.231 -33.836  1.00  0.00     0.014 A 
ENDBRANCH  24  26
ENDBRANCH  19  20
ENDBRANCH   1  19
TORSDOF 5
ENDMDL
MODEL 3
REMARK VINA RESULT:      -8.6      3.512      7.652
REMARK  5 active torsions:
REMARK  status: ('A' for Active; 'I' for Inactive)
REMARK    1  A    between atoms: C_8  and  N_9 
REMARK    2  A    between atoms: C_12  and  N_13 
REMARK    3  A    between atoms: N_13  and  C_15 
REMARK    4  A    between atoms: C_15  and  C_16 
REMARK    5  A    between atoms: C_20  and  C_21 
ROOT
HETATM    1  N   UNL     1      -7.681   3.441 -31.397  1.00  0.00    -0.065 N 
HETATM    2  H   UNL     1      -7.134   3.597 -32.248  1.00  0.00     0.280 HD
HETATM    3  C   UNL     1      -8.819   4.444 -31.406  1.00  0.00     0.270 C 
ENDROOT
BRANCH   1   4
HETATM    4  C   UNL     1      -6.756   3.617 -30.173  1.00  0.00     0.191 C 
HETATM    5  C   UNL     1      -5.472   2.778 -30.259  1.00  0.00     0.053 C 
HETATM    6  C   UNL     1      -4.474   3.322 -31.277  1.00  0.00     0.126 C 
HETATM    7  N   UNL     1      -4.182   4.722 -30.951  1.00  0.00    -0.366 N 
HETATM    8  C   UNL     1      -5.346   5.614 -30.962  1.00  0.00     0.126 C 
HETATM    9  C   UNL     1      -6.379   5.098 -29.961  1.00  0.00     0.053 C 
BRANCH   7  10
HETATM   10  C   UNL     1      -3.026   5.237 -31.553  1.00  0.00     0.129 A 
HETATM   11  N   UNL     1      -2.823   5.055 -32.870  1.00  0.00    -0.218 NA
HETATM   12  C   UNL     1      -1.653   5.492 -33.402  1.00  0.00     0.102 A 
HETATM   13  N   UNL     1      -0.694   6.083 -32.678  1.00  0.00    -0.348 N 
HETATM   14  C   UNL     1      -1.410   5.259 -34.860  1.00  0.00     0.091 C 
HETATM   15  C   UNL     1      -0.869   6.284 -31.363  1.00  0.00     0.010 A 
HETATM   16  H   UNL     1       0.173   6.367 -33.133  1.00  0.00     0.167 HD
HETATM   17  C   UNL     1       0.226   6.919 -30.570  1.00  0.00     0.068 C 
HETATM   18  C   UNL     1      -2.059   5.858 -30.771  1.00  0.00     0.075 A 
ENDBRANCH   7  10
ENDBRANCH   1   4
BRANCH   1  19
HETATM   19  C   UNL     1      -8.282   2.030 -31.568  1.00  0.00     0.295 C 
BRANCH  19  20
HETATM   20  C   UNL     1      -7.642   1.114 -32.566  1.00  0.00     0.082 A 
HETATM   21  N   UNL     1      -7.390   1.520 -33.817  1.00  0.00    -0.177 NA
HETATM   22  N   UNL     1      -6.857   0.433 -34.414  1.00  0.00    -0.277 N 
HETATM   23  H   UNL     1      -6.574   0.496 -35.388  1.00  0.00     0.189 HD
HETATM   24  C   UNL     1      -6.747  -0.655 -33.588  1.00  0.00     0.062 A 
HETATM   25  C   UNL     1      -7.239  -0.228 -32.370  1.00  0.00     0.062 A 
BRANCH  24  26
HETATM   26  C   UNL     1      -6.197  -1.939 -34.017  1.00  0.00    -0.008 A 
HETATM   27  C   UNL     1      -4.825  -2.198 -33.894  1.00  0.00     0.014 A 
HETATM   28  C   UNL     1      -4.293  -3.421 -34.308  1.00  0.00     0.001 A 
HETATM   29  C   UNL     1      -5.125  -4.401 -34.845  1.00  0.00     0.000 A 
HETATM   30  C   UNL     1      -6.491  -4.159 -34.966  1.00  0.00     0.001 A 
HETATM   31  C   UNL     1      -7.025  -2.935 -34.554  1.00  0.00     0.014 A 
ENDBRANCH  24  26
ENDBRANCH  19  20
ENDBRANCH   1  19
TORSDOF 5
ENDMDL
MODEL 4
REMARK VINA RESULT:      -8.4      2.058      2.862
REMARK  5 active torsions:
REMARK  status: ('A' for Active; 'I' for Inactive)
REMARK    1  A    between atoms: C_8  and  N_9 
REMARK    2  A    between atoms: C_12  and  N_13 
REMARK    3  A    between atoms: N_13  and  C_15 
REMARK    4  A    between atoms: C_15  and  C_16 
REMARK    5  A    between atoms: C_20  and  C_21 
ROOT
HETATM    1  N   UNL     1      -5.263   2.741 -31.661  1.00  0.00    -0.065 N 
HETATM    2  H   UNL     1      -5.953   1.989 -31.734  1.00  0.00     0.280 HD
HETATM    3  C   UNL     1      -5.297   3.242 -30.229  1.00  0.00     0.270 C 
ENDROOT
BRANCH   1   4
HETATM    4  C   UNL     1      -5.624   3.848 -32.676  1.00  0.00     0.191 C 
HETATM    5  C   UNL     1      -5.927   3.305 -34.081  1.00  0.00     0.053 C 
HETATM    6  C   UNL     1      -7.272   2.588 -34.161  1.00  0.00     0.126 C 
HETATM    7  N   UNL     1      -8.323   3.500 -33.696  1.00  0.00    -0.366 N 
HETATM    8  C   UNL     1      -8.164   3.974 -32.318  1.00  0.00     0.126 C 
HETATM    9  C   UNL     1      -6.821   4.690 -32.189  1.00  0.00     0.053 C 
BRANCH   7  10
HETATM   10  C   UNL     1      -9.625   3.128 -34.056  1.00  0.00     0.129 A 
HETATM   11  N   UNL     1     -10.423   4.012 -34.683  1.00  0.00    -0.218 NA
HETATM   12  C   UNL     1     -11.704   3.646 -34.939  1.00  0.00     0.102 A 
HETATM   13  N   UNL     1     -12.212   2.457 -34.588  1.00  0.00    -0.348 N 
HETATM   14  C   UNL     1     -12.602   4.640 -35.604  1.00  0.00     0.091 C 
HETATM   15  C   UNL     1     -11.440   1.552 -33.967  1.00  0.00     0.010 A 
HETATM   16  H   UNL     1     -13.190   2.252 -34.787  1.00  0.00     0.167 HD
HETATM   17  C   UNL     1     -12.035   0.244 -33.559  1.00  0.00     0.068 C 
HETATM   18  C   UNL     1     -10.113   1.879 -33.688  1.00  0.00     0.075 A 
ENDBRANCH   7  10
ENDBRANCH   1   4
BRANCH   1  19
HETATM   19  C   UNL     1      -3.903   2.051 -31.896  1.00  0.00     0.295 C 
BRANCH  19  20
HETATM   20  C   UNL     1      -3.909   0.591 -32.229  1.00  0.00     0.082 A 
HETATM   21  N   UNL     1      -2.972  -0.234 -31.745  1.00  0.00    -0.177 NA
HETATM   22  N   UNL     1      -3.280  -1.434 -32.282  1.00  0.00    -0.277 N 
HETATM   23  H   UNL     1      -2.703  -2.238 -32.053  1.00  0.00     0.189 HD
HETATM   24  C   UNL     1      -4.389  -1.412 -33.087  1.00  0.00     0.062 A 
HETATM   25  C   UNL     1      -4.826  -0.102 -33.055  1.00  0.00     0.062 A 
BRANCH  24  26
HETATM   26  C   UNL     1      -4.910  -2.592 -33.772  1.00  0.00    -0.008 A 
HETATM   27  C   UNL     1      -6.162  -2.552 -34.401  1.00  0.00     0.014 A 
HETATM   28  C   UNL     1      -6.668  -3.680 -35.051  1.00  0.00     0.001 A 
HETATM   29  C   UNL     1      -5.926  -4.858 -35.087  1.00  0.00     0.000 A 
HETATM   30  C   UNL     1      -4.677  -4.910 -34.474  1.00  0.00     0.001 A 
HETATM   31  C   UNL     1      -4.171  -3.783 -33.820  1.00  0.00     0.014 A 
ENDBRANCH  24  26
ENDBRANCH  19  20
ENDBRANCH   1  19
TORSDOF 5
ENDMDL
MODEL 5
REMARK VINA RESULT:      -8.3      2.904      7.452
REMARK  5 active torsions:
REMARK  status: ('A' for Active; 'I' for Inactive)
REMARK    1  A    between atoms: C_8  and  N_9 
REMARK    2  A    between atoms: C_12  and  N_13 
REMARK    3  A    between atoms: N_13  and  C_15 
REMARK    4  A    between atoms: C_15  and  C_16 
REMARK    5  A    between atoms: C_20  and  C_21 
ROOT
HETATM    1  N   UNL     1      -9.265   3.111 -32.617  1.00  0.00    -0.065 N 
HETATM    2  H   UNL     1      -8.378   2.843 -32.181  1.00  0.00     0.280 HD
HETATM    3  C   UNL     1     -10.112   3.767 -31.543  1.00  0.00     0.270 C 
ENDROOT
BRANCH   1   4
HETATM    4  C   UNL     1      -9.934   1.846 -33.198  1.00  0.00     0.191 C 
HETATM    5  C   UNL     1      -9.408   1.469 -34.591  1.00  0.00     0.053 C 
HETATM    6  C   UNL     1      -7.998   0.886 -34.555  1.00  0.00     0.126 C 
HETATM    7  N   UNL     1      -7.985  -0.264 -33.644  1.00  0.00    -0.366 N 
HETATM    8  C   UNL     1      -8.367   0.040 -32.262  1.00  0.00     0.126 C 
HETATM    9  C   UNL     1      -9.772   0.638 -32.252  1.00  0.00     0.053 C 
BRANCH   7  10
HETATM   10  C   UNL     1      -6.882  -1.116 -33.788  1.00  0.00     0.129 A 
HETATM   11  N   UNL     1      -5.666  -0.708 -33.381  1.00  0.00    -0.218 NA
HETATM   12  C   UNL     1      -4.608  -1.524 -33.614  1.00  0.00     0.102 A 
HETATM   13  N   UNL     1      -4.715  -2.705 -34.238  1.00  0.00    -0.348 N 
HETATM   14  C   UNL     1      -3.250  -1.057 -33.194  1.00  0.00     0.091 C 
HETATM   15  C   UNL     1      -5.914  -3.142 -34.650  1.00  0.00     0.010 A 
HETATM   16  H   UNL     1      -3.877  -3.261 -34.405  1.00  0.00     0.167 HD
HETATM   17  C   UNL     1      -6.006  -4.449 -35.369  1.00  0.00     0.068 C 
HETATM   18  C   UNL     1      -7.035  -2.341 -34.427  1.00  0.00     0.075 A 
ENDBRANCH   7  10
ENDBRANCH   1   4
BRANCH   1  19
HETATM   19  C   UNL     1      -8.885   4.188 -33.654  1.00  0.00     0.295 C 
BRANCH  19  20
HETATM   20  C   UNL     1      -7.562   4.875 -33.495  1.00  0.00     0.082 A 
HETATM   21  N   UNL     1      -7.484   6.130 -33.036  1.00  0.00    -0.177 NA
HETATM   22  N   UNL     1      -6.164   6.410 -33.067  1.00  0.00    -0.277 N 
HETATM   23  H   UNL     1      -5.847   7.323 -32.754  1.00  0.00     0.189 HD
HETATM   24  C   UNL     1      -5.389   5.375 -33.522  1.00  0.00     0.062 A 
HETATM   25  C   UNL     1      -6.280   4.355 -33.792  1.00  0.00     0.062 A 
BRANCH  24  26
HETATM   26  C   UNL     1      -3.934   5.450 -33.639  1.00  0.00    -0.008 A 
HETATM   27  C   UNL     1      -3.305   5.144 -34.853  1.00  0.00     0.014 A 
HETATM   28  C   UNL     1      -1.914   5.207 -34.969  1.00  0.00     0.001 A 
HETATM   29  C   UNL     1      -1.138   5.582 -33.875  1.00  0.00     0.000 A 
HETATM   30  C   UNL     1      -1.750   5.897 -32.665  1.00  0.00     0.001 A 
HETATM   31  C   UNL     1      -3.142   5.831 -32.547  1.00  0.00     0.014 A 
ENDBRANCH  24  26
ENDBRANCH  19  20
ENDBRANCH   1  19
TORSDOF 5
ENDMDL
MODEL 6
REMARK VINA RESULT:      -8.2      3.707      7.602
REMARK  5 active torsions:
REMARK  status: ('A' for Active; 'I' for Inactive)
REMARK    1  A    between atoms: C_8  and  N_9 
REMARK    2  A    between atoms: C_12  and  N_13 
REMARK    3  A    between atoms: N_13  and  C_15 
REMARK    4  A    between atoms: C_15  and  C_16 
REMARK    5  A    between atoms: C_20  and  C_21 
ROOT
HETATM    1  N   UNL     1      -6.977   3.316 -32.624  1.00  0.00    -0.065 N 
HETATM    2  H   UNL     1      -6.711   4.257 -32.925  1.00  0.00     0.280 HD
HETATM    3  C   UNL     1      -8.254   3.450 -31.816  1.00  0.00     0.270 C 
ENDROOT
BRANCH   1   4
HETATM    4  C   UNL     1      -5.821   2.713 -31.796  1.00  0.00     0.191 C 
HETATM    5  C   UNL     1      -4.459   2.808 -32.500  1.00  0.00     0.053 C 
HETATM    6  C   UNL     1      -3.900   4.228 -32.521  1.00  0.00     0.126 C 
HETATM    7  N   UNL     1      -3.832   4.729 -31.143  1.00  0.00    -0.366 N 
HETATM    8  C   UNL     1      -5.118   4.777 -30.440  1.00  0.00     0.126 C 
HETATM    9  C   UNL     1      -5.720   3.374 -30.406  1.00  0.00     0.053 C 
BRANCH   7  10
HETATM   10  C   UNL     1      -3.009   5.849 -30.966  1.00  0.00     0.129 A 
HETATM   11  N   UNL     1      -3.562   7.067 -30.823  1.00  0.00    -0.218 NA
HETATM   12  C   UNL     1      -2.734   8.139 -30.739  1.00  0.00     0.102 A 
HETATM   13  N   UNL     1      -1.399   8.041 -30.802  1.00  0.00    -0.348 N 
HETATM   14  C   UNL     1      -3.347   9.497 -30.615  1.00  0.00     0.091 C 
HETATM   15  C   UNL     1      -0.818   6.839 -30.939  1.00  0.00     0.010 A 
HETATM   16  H   UNL     1      -0.832   8.887 -30.758  1.00  0.00     0.167 HD
HETATM   17  C   UNL     1       0.671   6.757 -31.036  1.00  0.00     0.068 C 
HETATM   18  C   UNL     1      -1.627   5.706 -31.022  1.00  0.00     0.075 A 
ENDBRANCH   7  10
ENDBRANCH   1   4
BRANCH   1  19
HETATM   19  C   UNL     1      -7.312   2.565 -33.930  1.00  0.00     0.295 C 
BRANCH  19  20
HETATM   20  C   UNL     1      -7.304   1.067 -33.896  1.00  0.00     0.082 A 
HETATM   21  N   UNL     1      -8.341   0.380 -33.400  1.00  0.00    -0.177 NA
HETATM   22  N   UNL     1      -7.960  -0.911 -33.502  1.00  0.00    -0.277 N 
HETATM   23  H   UNL     1      -8.596  -1.638 -33.188  1.00  0.00     0.189 HD
HETATM   24  C   UNL     1      -6.717  -1.079 -34.056  1.00  0.00     0.062 A 
HETATM   25  C   UNL     1      -6.276   0.200 -34.336  1.00  0.00     0.062 A 
BRANCH  24  26
HETATM   26  C   UNL     1      -6.100  -2.386 -34.267  1.00  0.00    -0.008 A 
HETATM   27  C   UNL     1      -6.856  -3.454 -34.768  1.00  0.00     0.014 A 
HETATM   28  C   UNL     1      -6.273  -4.708 -34.965  1.00  0.00     0.001 A 
HETATM   29  C   UNL     1      -4.927  -4.908 -34.669  1.00  0.00     0.000 A 
HETATM   30  C   UNL     1      -4.162  -3.854 -34.177  1.00  0.00     0.001 A 
HETATM   31  C   UNL     1      -4.745  -2.599 -33.976  1.00  0.00     0.014 A 
ENDBRANCH  24  26
ENDBRANCH  19  20
ENDBRANCH   1  19
TORSDOF 5
ENDMDL
MODEL 7
REMARK VINA RESULT:      -8.2      3.292      7.856
REMARK  5 active torsions:
REMARK  status: ('A' for Active; 'I' for Inactive)
REMARK    1  A    between atoms: C_8  and  N_9 
REMARK    2  A    between atoms: C_12  and  N_13 
REMARK    3  A    between atoms: N_13  and  C_15 
REMARK    4  A    between atoms: C_15  and  C_16 
REMARK    5  A    between atoms: C_20  and  C_21 
ROOT
HETATM    1  N   UNL     1      -8.363   3.344 -31.883  1.00  0.00    -0.065 N 
HETATM    2  H   UNL     1      -7.436   2.966 -31.669  1.00  0.00     0.280 HD
HETATM    3  C   UNL     1      -9.040   3.646 -30.561  1.00  0.00     0.270 C 
ENDROOT
BRANCH   1   4
HETATM    4  C   UNL     1      -9.143   2.303 -32.716  1.00  0.00     0.191 C 
HETATM    5  C   UNL     1      -8.543   2.072 -34.111  1.00  0.00     0.053 C 
HETATM    6  C   UNL     1      -7.239   1.280 -34.073  1.00  0.00     0.126 C 
HETATM    7  N   UNL     1      -7.474   0.015 -33.370  1.00  0.00    -0.366 N 
HETATM    8  C   UNL     1      -7.940   0.154 -31.987  1.00  0.00     0.126 C 
HETATM    9  C   UNL     1      -9.243   0.952 -31.977  1.00  0.00     0.053 C 
BRANCH   7  10
HETATM   10  C   UNL     1      -6.492  -0.963 -33.575  1.00  0.00     0.129 A 
HETATM   11  N   UNL     1      -6.740  -1.995 -34.403  1.00  0.00    -0.218 NA
HETATM   12  C   UNL     1      -5.800  -2.967 -34.511  1.00  0.00     0.102 A 
HETATM   13  N   UNL     1      -4.647  -2.952 -33.829  1.00  0.00    -0.348 N 
HETATM   14  C   UNL     1      -6.089  -4.132 -35.404  1.00  0.00     0.091 C 
HETATM   15  C   UNL     1      -4.368  -1.934 -33.000  1.00  0.00     0.010 A 
HETATM   16  H   UNL     1      -3.992  -3.725 -33.936  1.00  0.00     0.167 HD
HETATM   17  C   UNL     1      -3.090  -1.953 -32.227  1.00  0.00     0.068 C 
HETATM   18  C   UNL     1      -5.301  -0.907 -32.860  1.00  0.00     0.075 A 
ENDBRANCH   7  10
ENDBRANCH   1   4
BRANCH   1  19
HETATM   19  C   UNL     1      -8.086   4.683 -32.599  1.00  0.00     0.295 C 
BRANCH  19  20
HETATM   20  C   UNL     1      -6.670   4.992 -32.980  1.00  0.00     0.082 A 
HETATM   21  N   UNL     1      -6.253   4.877 -34.247  1.00  0.00    -0.177 NA
HETATM   22  N   UNL     1      -4.942   5.196 -34.192  1.00  0.00    -0.277 N 
HETATM   23  H   UNL     1      -4.397   5.186 -35.050  1.00  0.00     0.189 HD
HETATM   24  C   UNL     1      -4.503   5.521 -32.935  1.00  0.00     0.062 A 
HETATM   25  C   UNL     1      -5.619   5.410 -32.129  1.00  0.00     0.062 A 
BRANCH  24  26
HETATM   26  C   UNL     1      -3.124   5.901 -32.638  1.00  0.00    -0.008 A 
HETATM   27  C   UNL     1      -2.754   7.252 -32.600  1.00  0.00     0.014 A 
HETATM   28  C   UNL     1      -1.436   7.621 -32.322  1.00  0.00     0.001 A 
HETATM   29  C   UNL     1      -0.474   6.645 -32.074  1.00  0.00     0.000 A 
HETATM   30  C   UNL     1      -0.830   5.299 -32.100  1.00  0.00     0.001 A 
HETATM   31  C   UNL     1      -2.148   4.928 -32.381  1.00  0.00     0.014 A 
ENDBRANCH  24  26
ENDBRANCH  19  20
ENDBRANCH   1  19
TORSDOF 5
ENDMDL
MODEL 8
REMARK VINA RESULT:      -8.1      3.447      8.025
REMARK  5 active torsions:
REMARK  status: ('A' for Active; 'I' for Inactive)
REMARK    1  A    between atoms: C_8  and  N_9 
REMARK    2  A    between atoms: C_12  and  N_13 
REMARK    3  A    between atoms: N_13  and  C_15 
REMARK    4  A    between atoms: C_15  and  C_16 
REMARK    5  A    between atoms: C_20  and  C_21 
ROOT
HETATM    1  N   UNL     1      -8.246   3.241 -31.436  1.00  0.00    -0.065 N 
HETATM    2  H   UNL     1      -7.598   2.590 -30.985  1.00  0.00     0.280 HD
HETATM    3  C   UNL     1      -9.455   3.370 -30.529  1.00  0.00     0.270 C 
ENDROOT
BRANCH   1   4
HETATM    4  C   UNL     1      -8.617   2.687 -32.830  1.00  0.00     0.191 C 
HETATM    5  C   UNL     1      -7.425   2.640 -33.798  1.00  0.00     0.053 C 
HETATM    6  C   UNL     1      -6.429   1.534 -33.460  1.00  0.00     0.126 C 
HETATM    7  N   UNL     1      -7.142   0.253 -33.419  1.00  0.00    -0.366 N 
HETATM    8  C   UNL     1      -8.225   0.180 -32.433  1.00  0.00     0.126 C 
HETATM    9  C   UNL     1      -9.242   1.281 -32.728  1.00  0.00     0.053 C 
BRANCH   7  10
HETATM   10  C   UNL     1      -6.320  -0.880 -33.491  1.00  0.00     0.129 A 
HETATM   11  N   UNL     1      -5.179  -0.922 -32.780  1.00  0.00    -0.218 NA
HETATM   12  C   UNL     1      -4.366  -1.997 -32.940  1.00  0.00     0.102 A 
HETATM   13  N   UNL     1      -4.641  -3.006 -33.777  1.00  0.00    -0.348 N 
HETATM   14  C   UNL     1      -3.080  -2.029 -32.177  1.00  0.00     0.091 C 
HETATM   15  C   UNL     1      -5.774  -2.996 -34.495  1.00  0.00     0.010 A 
HETATM   16  H   UNL     1      -3.977  -3.774 -33.870  1.00  0.00     0.167 HD
HETATM   17  C   UNL     1      -6.046  -4.119 -35.443  1.00  0.00     0.068 C 
HETATM   18  C   UNL     1      -6.646  -1.916 -34.360  1.00  0.00     0.075 A 
ENDBRANCH   7  10
ENDBRANCH   1   4
BRANCH   1  19
HETATM   19  C   UNL     1      -7.504   4.594 -31.443  1.00  0.00     0.295 C 
BRANCH  19  20
HETATM   20  C   UNL     1      -6.016   4.576 -31.266  1.00  0.00     0.082 A 
HETATM   21  N   UNL     1      -5.406   3.566 -30.633  1.00  0.00    -0.177 NA
HETATM   22  N   UNL     1      -4.102   3.914 -30.639  1.00  0.00    -0.277 N 
HETATM   23  H   UNL     1      -3.425   3.289 -30.211  1.00  0.00     0.189 HD
HETATM   24  C   UNL     1      -3.850   5.108 -31.263  1.00  0.00     0.062 A 
HETATM   25  C   UNL     1      -5.085   5.551 -31.695  1.00  0.00     0.062 A 
BRANCH  24  26
HETATM   26  C   UNL     1      -2.513   5.682 -31.392  1.00  0.00    -0.008 A 
HETATM   27  C   UNL     1      -2.350   7.019 -31.779  1.00  0.00     0.014 A 
HETATM   28  C   UNL     1      -1.074   7.571 -31.911  1.00  0.00     0.001 A 
HETATM   29  C   UNL     1       0.053   6.796 -31.651  1.00  0.00     0.000 A 
HETATM   30  C   UNL     1      -0.093   5.469 -31.257  1.00  0.00     0.001 A 
HETATM   31  C   UNL     1      -1.370   4.914 -31.128  1.00  0.00     0.014 A 
ENDBRANCH  24  26
ENDBRANCH  19  20
ENDBRANCH   1  19
TORSDOF 5
ENDMDL
MODEL 9
REMARK VINA RESULT:      -8.0      3.306      7.239
REMARK  5 active torsions:
REMARK  status: ('A' for Active; 'I' for Inactive)
REMARK    1  A    between atoms: C_8  and  N_9 
REMARK    2  A    between atoms: C_12  and  N_13 
REMARK    3  A    between atoms: N_13  and  C_15 
REMARK    4  A    between atoms: C_15  and  C_16 
REMARK    5  A    between atoms: C_20  and  C_21 
ROOT
HETATM    1  N   UNL     1      -8.248   3.417 -32.835  1.00  0.00    -0.065 N 
HETATM    2  H   UNL     1      -7.420   3.260 -33.415  1.00  0.00     0.280 HD
HETATM    3  C   UNL     1      -9.425   3.597 -33.774  1.00  0.00     0.270 C 
ENDROOT
BRANCH   1   4
HETATM    4  C   UNL     1      -8.009   4.662 -31.952  1.00  0.00     0.191 C 
HETATM    5  C   UNL     1      -7.041   4.401 -30.788  1.00  0.00     0.053 C 
HETATM    6  C   UNL     1      -5.590   4.261 -31.242  1.00  0.00     0.126 C 
HETATM    7  N   UNL     1      -5.214   5.460 -31.998  1.00  0.00    -0.366 N 
HETATM    8  C   UNL     1      -6.022   5.714 -33.194  1.00  0.00     0.126 C 
HETATM    9  C   UNL     1      -7.488   5.851 -32.786  1.00  0.00     0.053 C 
BRANCH   7  10
HETATM   10  C   UNL     1      -3.834   5.646 -32.156  1.00  0.00     0.129 A 
HETATM   11  N   UNL     1      -3.114   6.181 -31.153  1.00  0.00    -0.218 NA
HETATM   12  C   UNL     1      -1.797   6.425 -31.373  1.00  0.00     0.102 A 
HETATM   13  N   UNL     1      -1.188   6.170 -32.539  1.00  0.00    -0.348 N 
HETATM   14  C   UNL     1      -1.002   7.052 -30.272  1.00  0.00     0.091 C 
HETATM   15  C   UNL     1      -1.878   5.631 -33.555  1.00  0.00     0.010 A 
HETATM   16  H   UNL     1      -0.201   6.399 -32.648  1.00  0.00     0.167 HD
HETATM   17  C   UNL     1      -1.185   5.382 -34.855  1.00  0.00     0.068 C 
HETATM   18  C   UNL     1      -3.234   5.355 -33.376  1.00  0.00     0.075 A 
ENDBRANCH   7  10
ENDBRANCH   1   4
BRANCH   1  19
HETATM   19  C   UNL     1      -8.446   2.094 -32.065  1.00  0.00     0.295 C 
BRANCH  19  20
HETATM   20  C   UNL     1      -7.494   0.972 -32.349  1.00  0.00     0.082 A 
HETATM   21  N   UNL     1      -6.268   0.950 -31.809  1.00  0.00    -0.177 NA
HETATM   22  N   UNL     1      -5.706  -0.169 -32.314  1.00  0.00    -0.277 N 
HETATM   23  H   UNL     1      -4.758  -0.409 -32.042  1.00  0.00     0.189 HD
HETATM   24  C   UNL     1      -6.531  -0.873 -33.153  1.00  0.00     0.062 A 
HETATM   25  C   UNL     1      -7.710  -0.154 -33.178  1.00  0.00     0.062 A 
BRANCH  24  26
HETATM   26  C   UNL     1      -6.137  -2.115 -33.813  1.00  0.00    -0.008 A 
HETATM   27  C   UNL     1      -4.788  -2.488 -33.875  1.00  0.00     0.014 A 
HETATM   28  C   UNL     1      -4.405  -3.671 -34.510  1.00  0.00     0.001 A 
HETATM   29  C   UNL     1      -5.366  -4.498 -35.086  1.00  0.00     0.000 A 
HETATM   30  C   UNL     1      -6.711  -4.145 -35.025  1.00  0.00     0.001 A 
HETATM   31  C   UNL     1      -7.096  -2.959 -34.392  1.00  0.00     0.014 A 
ENDBRANCH  24  26
ENDBRANCH  19  20
ENDBRANCH   1  19
TORSDOF 5
ENDMDL
MODEL 10
REMARK VINA RESULT:      -7.9      3.658      6.242
REMARK  5 active torsions:
REMARK  status: ('A' for Active; 'I' for Inactive)
REMARK    1  A    between atoms: C_8  and  N_9 
REMARK    2  A    between atoms: C_12  and  N_13 
REMARK    3  A    between atoms: N_13  and  C_15 
REMARK    4  A    between atoms: C_15  and  C_16 
REMARK    5  A    between atoms: C_20  and  C_21 
ROOT
HETATM    1  N   UNL     1      -6.251   1.161 -32.748  1.00  0.00    -0.065 N 
HETATM    2  H   UNL     1      -6.558   1.665 -33.584  1.00  0.00     0.280 HD
HETATM    3  C   UNL     1      -4.921   0.511 -33.079  1.00  0.00     0.270 C 
ENDROOT
BRANCH   1   4
HETATM    4  C   UNL     1      -7.331   0.125 -32.367  1.00  0.00     0.191 C 
HETATM    5  C   UNL     1      -8.436   0.704 -31.471  1.00  0.00     0.053 C 
HETATM    6  C   UNL     1      -9.384   1.634 -32.224  1.00  0.00     0.126 C 
HETATM    7  N   UNL     1      -9.943   0.910 -33.371  1.00  0.00    -0.366 N 
HETATM    8  C   UNL     1      -8.952   0.424 -34.336  1.00  0.00     0.126 C 
HETATM    9  C   UNL     1      -7.973  -0.505 -33.620  1.00  0.00     0.053 C 
BRANCH   7  10
HETATM   10  C   UNL     1     -11.088   1.491 -33.931  1.00  0.00     0.129 A 
HETATM   11  N   UNL     1     -11.025   2.733 -34.443  1.00  0.00    -0.218 NA
HETATM   12  C   UNL     1     -12.173   3.296 -34.898  1.00  0.00     0.102 A 
HETATM   13  N   UNL     1     -13.361   2.680 -34.850  1.00  0.00    -0.348 N 
HETATM   14  C   UNL     1     -12.110   4.690 -35.437  1.00  0.00     0.091 C 
HETATM   15  C   UNL     1     -13.456   1.439 -34.350  1.00  0.00     0.010 A 
HETATM   16  H   UNL     1     -14.191   3.166 -35.186  1.00  0.00     0.167 HD
HETATM   17  C   UNL     1     -14.797   0.782 -34.280  1.00  0.00     0.068 C 
HETATM   18  C   UNL     1     -12.302   0.814 -33.876  1.00  0.00     0.075 A 
ENDBRANCH   7  10
ENDBRANCH   1   4
BRANCH   1  19
HETATM   19  C   UNL     1      -5.998   2.263 -31.696  1.00  0.00     0.295 C 
BRANCH  19  20
HETATM   20  C   UNL     1      -4.976   3.312 -32.016  1.00  0.00     0.082 A 
HETATM   21  N   UNL     1      -5.107   4.101 -33.090  1.00  0.00    -0.177 NA
HETATM   22  N   UNL     1      -4.001   4.875 -33.066  1.00  0.00    -0.277 N 
HETATM   23  H   UNL     1      -3.873   5.572 -33.794  1.00  0.00     0.189 HD
HETATM   24  C   UNL     1      -3.168   4.618 -32.009  1.00  0.00     0.062 A 
HETATM   25  C   UNL     1      -3.793   3.610 -31.300  1.00  0.00     0.062 A 
BRANCH  24  26
HETATM   26  C   UNL     1      -1.915   5.333 -31.779  1.00  0.00    -0.008 A 
HETATM   27  C   UNL     1      -1.669   6.555 -32.419  1.00  0.00     0.014 A 
HETATM   28  C   UNL     1      -0.471   7.240 -32.208  1.00  0.00     0.001 A 
HETATM   29  C   UNL     1       0.493   6.715 -31.351  1.00  0.00     0.000 A 
HETATM   30  C   UNL     1       0.259   5.506 -30.701  1.00  0.00     0.001 A 
HETATM   31  C   UNL     1      -0.939   4.818 -30.914  1.00  0.00     0.014 A 
ENDBRANCH  24  26
ENDBRANCH  19  20
ENDBRANCH   1  19
TORSDOF 5
ENDMDL
