MODEL 1
REMARK VINA RESULT:     -10.0      0.000      0.000
REMARK  8 active torsions:
REMARK  status: ('A' for Active; 'I' for Inactive)
REMARK    1  A    between atoms: O_2  and  C_3 
REMARK    2  A    between atoms: C_6  and  N_7 
REMARK       I    between atoms: N_7  and  C_8 
REMARK    3  A    between atoms: C_8  and  C_9 
REMARK    4  A    between atoms: C_9  and  N_10 
REMARK    5  A    between atoms: N_13  and  C_14 
REMARK    6  A    between atoms: C_14  and  C_15 
REMARK    7  A    between atoms: C_30  and  C_31 
REMARK       I    between atoms: C_31  and  N_32 
REMARK    8  A    between atoms: N_32  and  C_33 
ROOT
HETATM    1  N   UNL     1      -9.106   2.029 -32.341  1.00  0.00    -0.290 N 
HETATM    2  C   UNL     1     -10.047   1.568 -33.252  1.00  0.00     0.332 C 
HETATM    3  O   UNL     1     -10.478   0.413 -33.173  1.00  0.00    -0.246 OA
HETATM    4  N   UNL     1     -10.446   2.448 -34.243  1.00  0.00    -0.261 N 
HETATM    5  C   UNL     1      -9.822   3.657 -34.520  1.00  0.00     0.264 C 
HETATM    6  O   UNL     1     -10.135   4.396 -35.450  1.00  0.00    -0.267 OA
HETATM    7  C   UNL     1      -8.706   4.043 -33.641  1.00  0.00     0.059 A 
HETATM    8  C   UNL     1      -8.390   3.238 -32.547  1.00  0.00     0.056 A 
HETATM    9  C   UNL     1      -7.985   5.216 -33.907  1.00  0.00     0.020 A 
HETATM   10  C   UNL     1      -6.916   5.580 -33.089  1.00  0.00     0.018 A 
HETATM   11  C   UNL     1      -6.574   4.782 -31.995  1.00  0.00     0.034 A 
HETATM   12  C   UNL     1      -7.337   3.640 -31.708  1.00  0.00     0.048 A 
ENDROOT
BRANCH   1  13
HETATM   13  C   UNL     1      -8.789   1.152 -31.210  1.00  0.00     0.237 C 
BRANCH  13  14
HETATM   14  C   UNL     1      -7.514   0.348 -31.473  1.00  0.00     0.240 C 
HETATM   15  N   UNL     1      -7.517  -0.280 -32.707  1.00  0.00    -0.326 N 
HETATM   16  H   UNL     1      -8.321  -0.093 -33.306  1.00  0.00     0.169 HD
HETATM   17  O   UNL     1      -6.608   0.338 -30.642  1.00  0.00    -0.271 OA
BRANCH  15  18
HETATM   18  C   UNL     1      -6.532  -1.140 -33.231  1.00  0.00     0.034 A 
HETATM   19  C   UNL     1      -6.938  -2.071 -34.195  1.00  0.00     0.032 A 
HETATM   20  C   UNL     1      -6.029  -2.989 -34.739  1.00  0.00     0.039 A 
HETATM   21  C   UNL     1      -4.698  -2.984 -34.324  1.00  0.00     0.068 A 
HETATM   22  C   UNL     1      -4.287  -2.044 -33.381  1.00  0.00     0.039 A 
HETATM   23  C   UNL     1      -5.196  -1.129 -32.834  1.00  0.00     0.032 A 
BRANCH  21  24
HETATM   24  O   UNL     1      -3.715  -3.827 -34.761  1.00  0.00    -0.356 OA
HETATM   25  C   UNL     1      -3.318  -4.863 -33.872  1.00  0.00     0.210 C 
ENDBRANCH  21  24
ENDBRANCH  15  18
ENDBRANCH  13  14
ENDBRANCH   1  13
BRANCH   4  26
HETATM   26  C   UNL     1     -11.586   2.074 -35.071  1.00  0.00     0.175 C 
BRANCH  26  27
HETATM   27  C   UNL     1     -12.882   2.150 -34.285  1.00  0.00    -0.037 A 
HETATM   28  C   UNL     1     -13.227   3.328 -33.600  1.00  0.00     0.048 A 
HETATM   29  C   UNL     1     -14.396   3.336 -32.866  1.00  0.00     0.105 A 
HETATM   30  C   UNL     1     -15.209   2.231 -32.786  1.00  0.00     0.105 A 
HETATM   31  O   UNL     1     -14.877   4.386 -32.149  1.00  0.00    -0.323 OA
HETATM   32  O   UNL     1     -16.304   2.447 -32.008  1.00  0.00    -0.323 OA
HETATM   33  C   UNL     1     -14.904   1.057 -33.436  1.00  0.00     0.040 A 
HETATM   34  C   UNL     1     -16.089   3.817 -31.612  1.00  0.00     0.352 A 
HETATM   35  C   UNL     1     -13.727   1.018 -34.193  1.00  0.00     0.012 A 
ENDBRANCH  26  27
ENDBRANCH   4  26
BRANCH  11  36
HETATM   36  C   UNL     1      -5.402   5.174 -31.159  1.00  0.00     0.252 C 
HETATM   37  N   UNL     1      -4.179   5.226 -31.797  1.00  0.00    -0.352 N 
HETATM   38  H   UNL     1      -4.145   5.187 -32.808  1.00  0.00     0.163 HD
HETATM   39  O   UNL     1      -5.567   5.452 -29.976  1.00  0.00    -0.268 OA
BRANCH  37  40
HETATM   40  C   UNL     1      -2.969   5.693 -31.125  1.00  0.00     0.084 C 
HETATM   41  C   UNL     1      -1.751   4.884 -31.585  1.00  0.00     0.025 C 
HETATM   42  C   UNL     1      -1.324   5.210 -33.017  1.00  0.00     0.002 C 
HETATM   43  C   UNL     1      -1.113   6.706 -33.215  1.00  0.00     0.000 C 
HETATM   44  C   UNL     1      -2.341   7.511 -32.800  1.00  0.00     0.002 C 
HETATM   45  C   UNL     1      -2.767   7.195 -31.365  1.00  0.00     0.025 C 
ENDBRANCH  37  40
ENDBRANCH  11  36
TORSDOF 8
ENDMDL
MODEL 2
REMARK VINA RESULT:      -9.8      2.394      8.832
REMARK  8 active torsions:
REMARK  status: ('A' for Active; 'I' for Inactive)
REMARK    1  A    between atoms: O_2  and  C_3 
REMARK    2  A    between atoms: C_6  and  N_7 
REMARK       I    between atoms: N_7  and  C_8 
REMARK    3  A    between atoms: C_8  and  C_9 
REMARK    4  A    between atoms: C_9  and  N_10 
REMARK    5  A    between atoms: N_13  and  C_14 
REMARK    6  A    between atoms: C_14  and  C_15 
REMARK    7  A    between atoms: C_30  and  C_31 
REMARK       I    between atoms: C_31  and  N_32 
REMARK    8  A    between atoms: N_32  and  C_33 
ROOT
HETATM    1  N   UNL     1      -4.879   3.114 -31.561  1.00  0.00    -0.290 N 
HETATM    2  C   UNL     1      -3.548   3.493 -31.671  1.00  0.00     0.332 C 
HETATM    3  O   UNL     1      -2.700   3.021 -30.907  1.00  0.00    -0.246 OA
HETATM    4  N   UNL     1      -3.238   4.424 -32.648  1.00  0.00    -0.261 N 
HETATM    5  C   UNL     1      -4.176   5.158 -33.360  1.00  0.00     0.264 C 
HETATM    6  O   UNL     1      -3.892   6.038 -34.170  1.00  0.00    -0.267 OA
HETATM    7  C   UNL     1      -5.594   4.858 -33.095  1.00  0.00     0.059 A 
HETATM    8  C   UNL     1      -5.918   3.819 -32.225  1.00  0.00     0.056 A 
HETATM    9  C   UNL     1      -6.593   5.612 -33.727  1.00  0.00     0.020 A 
HETATM   10  C   UNL     1      -7.937   5.344 -33.469  1.00  0.00     0.018 A 
HETATM   11  C   UNL     1      -8.286   4.315 -32.591  1.00  0.00     0.034 A 
HETATM   12  C   UNL     1      -7.276   3.535 -32.007  1.00  0.00     0.048 A 
ENDROOT
BRANCH   1  13
HETATM   13  C   UNL     1      -5.186   2.027 -30.628  1.00  0.00     0.237 C 
BRANCH  13  14
HETATM   14  C   UNL     1      -4.910   0.660 -31.258  1.00  0.00     0.240 C 
HETATM   15  N   UNL     1      -5.641   0.443 -32.414  1.00  0.00    -0.326 N 
HETATM   16  H   UNL     1      -6.219   1.219 -32.735  1.00  0.00     0.169 HD
HETATM   17  O   UNL     1      -4.084  -0.098 -30.753  1.00  0.00    -0.271 OA
BRANCH  15  18
HETATM   18  C   UNL     1      -5.669  -0.726 -33.200  1.00  0.00     0.034 A 
HETATM   19  C   UNL     1      -6.922  -1.189 -33.619  1.00  0.00     0.032 A 
HETATM   20  C   UNL     1      -7.041  -2.366 -34.373  1.00  0.00     0.039 A 
HETATM   21  C   UNL     1      -5.904  -3.094 -34.716  1.00  0.00     0.068 A 
HETATM   22  C   UNL     1      -4.654  -2.622 -34.319  1.00  0.00     0.039 A 
HETATM   23  C   UNL     1      -4.534  -1.450 -33.563  1.00  0.00     0.032 A 
BRANCH  21  24
HETATM   24  O   UNL     1      -5.878  -4.257 -35.432  1.00  0.00    -0.356 OA
HETATM   25  C   UNL     1      -5.087  -5.315 -34.906  1.00  0.00     0.210 C 
ENDBRANCH  21  24
ENDBRANCH  15  18
ENDBRANCH  13  14
ENDBRANCH   1  13
BRANCH   4  26
HETATM   26  C   UNL     1      -1.831   4.672 -32.935  1.00  0.00     0.175 C 
BRANCH  26  27
HETATM   27  C   UNL     1      -1.182   5.486 -31.830  1.00  0.00    -0.037 A 
HETATM   28  C   UNL     1      -1.913   6.482 -31.161  1.00  0.00     0.048 A 
HETATM   29  C   UNL     1      -1.269   7.222 -30.192  1.00  0.00     0.105 A 
HETATM   30  C   UNL     1       0.054   7.015 -29.880  1.00  0.00     0.105 A 
HETATM   31  O   UNL     1      -1.825   8.218 -29.451  1.00  0.00    -0.323 OA
HETATM   32  O   UNL     1       0.496   7.854 -28.905  1.00  0.00    -0.323 OA
HETATM   33  C   UNL     1       0.806   6.054 -30.516  1.00  0.00     0.040 A 
HETATM   34  C   UNL     1      -0.703   8.610 -28.635  1.00  0.00     0.352 A 
HETATM   35  C   UNL     1       0.180   5.283 -31.501  1.00  0.00     0.012 A 
ENDBRANCH  26  27
ENDBRANCH   4  26
BRANCH  11  36
HETATM   36  C   UNL     1      -9.730   4.076 -32.303  1.00  0.00     0.252 C 
HETATM   37  N   UNL     1     -10.565   3.952 -33.396  1.00  0.00    -0.352 N 
HETATM   38  H   UNL     1     -10.162   3.840 -34.317  1.00  0.00     0.163 HD
HETATM   39  O   UNL     1     -10.108   3.977 -31.141  1.00  0.00    -0.268 OA
BRANCH  37  40
HETATM   40  C   UNL     1     -11.980   3.615 -33.260  1.00  0.00     0.084 C 
HETATM   41  C   UNL     1     -12.777   4.152 -34.454  1.00  0.00     0.025 C 
HETATM   42  C   UNL     1     -12.510   3.382 -35.747  1.00  0.00     0.002 C 
HETATM   43  C   UNL     1     -12.715   1.883 -35.562  1.00  0.00     0.000 C 
HETATM   44  C   UNL     1     -11.887   1.336 -34.403  1.00  0.00     0.002 C 
HETATM   45  C   UNL     1     -12.158   2.099 -33.104  1.00  0.00     0.025 C 
ENDBRANCH  37  40
ENDBRANCH  11  36
TORSDOF 8
ENDMDL
MODEL 3
REMARK VINA RESULT:      -9.7      2.540      3.715
REMARK  8 active torsions:
REMARK  status: ('A' for Active; 'I' for Inactive)
REMARK    1  A    between atoms: O_2  and  C_3 
REMARK    2  A    between atoms: C_6  and  N_7 
REMARK       I    between atoms: N_7  and  C_8 
REMARK    3  A    between atoms: C_8  and  C_9 
REMARK    4  A    between atoms: C_9  and  N_10 
REMARK    5  A    between atoms: N_13  and  C_14 
REMARK    6  A    between atoms: C_14  and  C_15 
REMARK    7  A    between atoms: C_30  and  C_31 
REMARK       I    between atoms: C_31  and  N_32 
REMARK    8  A    between atoms: N_32  and  C_33 
ROOT
HETATM    1  N   UNL     1      -6.045   3.649 -30.615  1.00  0.00    -0.290 N 
HETATM    2  C   UNL     1      -7.350   3.184 -30.697  1.00  0.00     0.332 C 
HETATM    3  O   UNL     1      -7.576   1.973 -30.788  1.00  0.00    -0.246 OA
HETATM    4  N   UNL     1      -8.357   4.134 -30.695  1.00  0.00    -0.261 N 
HETATM    5  C   UNL     1      -8.152   5.499 -30.839  1.00  0.00     0.264 C 
HETATM    6  O   UNL     1      -9.057   6.327 -30.913  1.00  0.00    -0.267 OA
HETATM    7  C   UNL     1      -6.754   5.953 -30.927  1.00  0.00     0.059 A 
HETATM    8  C   UNL     1      -5.725   5.024 -30.781  1.00  0.00     0.056 A 
HETATM    9  C   UNL     1      -6.477   7.311 -31.146  1.00  0.00     0.020 A 
HETATM   10  C   UNL     1      -5.156   7.745 -31.247  1.00  0.00     0.018 A 
HETATM   11  C   UNL     1      -4.109   6.830 -31.115  1.00  0.00     0.034 A 
HETATM   12  C   UNL     1      -4.400   5.484 -30.844  1.00  0.00     0.048 A 
ENDROOT
BRANCH   1  13
HETATM   13  C   UNL     1      -4.988   2.644 -30.474  1.00  0.00     0.237 C 
BRANCH  13  14
HETATM   14  C   UNL     1      -4.847   1.806 -31.746  1.00  0.00     0.240 C 
HETATM   15  N   UNL     1      -5.341   0.520 -31.601  1.00  0.00    -0.326 N 
HETATM   16  H   UNL     1      -5.781   0.304 -30.706  1.00  0.00     0.169 HD
HETATM   17  O   UNL     1      -4.368   2.302 -32.764  1.00  0.00    -0.271 OA
BRANCH  15  18
HETATM   18  C   UNL     1      -5.310  -0.520 -32.551  1.00  0.00     0.034 A 
HETATM   19  C   UNL     1      -6.465  -0.726 -33.316  1.00  0.00     0.032 A 
HETATM   20  C   UNL     1      -6.531  -1.763 -34.257  1.00  0.00     0.039 A 
HETATM   21  C   UNL     1      -5.439  -2.609 -34.443  1.00  0.00     0.068 A 
HETATM   22  C   UNL     1      -4.281  -2.392 -33.698  1.00  0.00     0.039 A 
HETATM   23  C   UNL     1      -4.215  -1.359 -32.755  1.00  0.00     0.032 A 
BRANCH  21  24
HETATM   24  O   UNL     1      -5.374  -3.661 -35.312  1.00  0.00    -0.356 OA
HETATM   25  C   UNL     1      -6.513  -4.508 -35.379  1.00  0.00     0.210 C 
ENDBRANCH  21  24
ENDBRANCH  15  18
ENDBRANCH  13  14
ENDBRANCH   1  13
BRANCH   4  26
HETATM   26  C   UNL     1      -9.733   3.671 -30.554  1.00  0.00     0.175 C 
BRANCH  26  27
HETATM   27  C   UNL     1     -10.324   3.294 -31.900  1.00  0.00    -0.037 A 
HETATM   28  C   UNL     1     -11.000   4.255 -32.671  1.00  0.00     0.048 A 
HETATM   29  C   UNL     1     -11.555   3.856 -33.869  1.00  0.00     0.105 A 
HETATM   30  C   UNL     1     -11.469   2.558 -34.311  1.00  0.00     0.105 A 
HETATM   31  O   UNL     1     -12.237   4.653 -34.734  1.00  0.00    -0.323 OA
HETATM   32  O   UNL     1     -12.087   2.374 -35.509  1.00  0.00    -0.323 OA
HETATM   33  C   UNL     1     -10.821   1.585 -33.583  1.00  0.00     0.040 A 
HETATM   34  C   UNL     1     -12.568   3.709 -35.773  1.00  0.00     0.352 A 
HETATM   35  C   UNL     1     -10.243   1.960 -32.366  1.00  0.00     0.012 A 
ENDBRANCH  26  27
ENDBRANCH   4  26
BRANCH  11  36
HETATM   36  C   UNL     1      -2.707   7.317 -31.266  1.00  0.00     0.252 C 
HETATM   37  N   UNL     1      -1.810   6.924 -30.292  1.00  0.00    -0.352 N 
HETATM   38  H   UNL     1      -2.072   6.195 -29.641  1.00  0.00     0.163 HD
HETATM   39  O   UNL     1      -2.406   8.006 -32.233  1.00  0.00    -0.268 OA
BRANCH  37  40
HETATM   40  C   UNL     1      -0.387   7.243 -30.371  1.00  0.00     0.084 C 
HETATM   41  C   UNL     1       0.218   7.354 -28.967  1.00  0.00     0.025 C 
HETATM   42  C   UNL     1       0.353   6.003 -28.265  1.00  0.00     0.002 C 
HETATM   43  C   UNL     1       1.107   4.995 -29.124  1.00  0.00     0.000 C 
HETATM   44  C   UNL     1       0.480   4.847 -30.507  1.00  0.00     0.002 C 
HETATM   45  C   UNL     1       0.351   6.196 -31.217  1.00  0.00     0.025 C 
ENDBRANCH  37  40
ENDBRANCH  11  36
TORSDOF 8
ENDMDL
MODEL 4
REMARK VINA RESULT:      -9.6      4.727     12.235
REMARK  8 active torsions:
REMARK  status: ('A' for Active; 'I' for Inactive)
REMARK    1  A    between atoms: O_2  and  C_3 
REMARK    2  A    between atoms: C_6  and  N_7 
REMARK       I    between atoms: N_7  and  C_8 
REMARK    3  A    between atoms: C_8  and  C_9 
REMARK    4  A    between atoms: C_9  and  N_10 
REMARK    5  A    between atoms: N_13  and  C_14 
REMARK    6  A    between atoms: C_14  and  C_15 
REMARK    7  A    between atoms: C_30  and  C_31 
REMARK       I    between atoms: C_31  and  N_32 
REMARK    8  A    between atoms: N_32  and  C_33 
ROOT
HETATM    1  N   UNL     1      -3.460   6.862 -30.662  1.00  0.00    -0.290 N 
HETATM    2  C   UNL     1      -2.197   7.436 -30.666  1.00  0.00     0.332 C 
HETATM    3  O   UNL     1      -2.070   8.664 -30.606  1.00  0.00    -0.246 OA
HETATM    4  N   UNL     1      -1.116   6.577 -30.760  1.00  0.00    -0.261 N 
HETATM    5  C   UNL     1      -1.208   5.227 -31.071  1.00  0.00     0.264 C 
HETATM    6  O   UNL     1      -0.238   4.489 -31.229  1.00  0.00    -0.267 OA
HETATM    7  C   UNL     1      -2.564   4.677 -31.237  1.00  0.00     0.059 A 
HETATM    8  C   UNL     1      -3.666   5.496 -30.997  1.00  0.00     0.056 A 
HETATM    9  C   UNL     1      -2.728   3.338 -31.621  1.00  0.00     0.020 A 
HETATM   10  C   UNL     1      -4.008   2.814 -31.796  1.00  0.00     0.018 A 
HETATM   11  C   UNL     1      -5.127   3.620 -31.572  1.00  0.00     0.034 A 
HETATM   12  C   UNL     1      -4.949   4.942 -31.136  1.00  0.00     0.048 A 
ENDROOT
BRANCH   1  13
HETATM   13  C   UNL     1      -4.597   7.754 -30.419  1.00  0.00     0.237 C 
BRANCH  13  14
HETATM   14  C   UNL     1      -4.500   8.414 -29.042  1.00  0.00     0.240 C 
HETATM   15  N   UNL     1      -3.420   7.960 -28.302  1.00  0.00    -0.326 N 
HETATM   16  H   UNL     1      -2.799   7.300 -28.769  1.00  0.00     0.169 HD
HETATM   17  O   UNL     1      -5.311   9.276 -28.711  1.00  0.00    -0.271 OA
BRANCH  15  18
HETATM   18  C   UNL     1      -3.079   8.314 -26.982  1.00  0.00     0.034 A 
HETATM   19  C   UNL     1      -2.110   9.310 -26.812  1.00  0.00     0.032 A 
HETATM   20  C   UNL     1      -1.686   9.694 -25.532  1.00  0.00     0.039 A 
HETATM   21  C   UNL     1      -2.230   9.084 -24.404  1.00  0.00     0.068 A 
HETATM   22  C   UNL     1      -3.211   8.108 -24.569  1.00  0.00     0.039 A 
HETATM   23  C   UNL     1      -3.632   7.721 -25.848  1.00  0.00     0.032 A 
BRANCH  21  24
HETATM   24  O   UNL     1      -1.901   9.353 -23.105  1.00  0.00    -0.356 OA
HETATM   25  C   UNL     1      -0.752  10.163 -22.890  1.00  0.00     0.210 C 
ENDBRANCH  21  24
ENDBRANCH  15  18
ENDBRANCH  13  14
ENDBRANCH   1  13
BRANCH   4  26
HETATM   26  C   UNL     1       0.217   7.128 -30.542  1.00  0.00     0.175 C 
BRANCH  26  27
HETATM   27  C   UNL     1       0.503   7.297 -29.062  1.00  0.00    -0.037 A 
HETATM   28  C   UNL     1       1.261   8.390 -28.608  1.00  0.00     0.048 A 
HETATM   29  C   UNL     1       1.530   8.481 -27.258  1.00  0.00     0.105 A 
HETATM   30  C   UNL     1       1.086   7.535 -26.365  1.00  0.00     0.105 A 
HETATM   31  O   UNL     1       2.243   9.468 -26.654  1.00  0.00    -0.323 OA
HETATM   32  O   UNL     1       1.465   7.807 -25.088  1.00  0.00    -0.323 OA
HETATM   33  C   UNL     1       0.347   6.446 -26.770  1.00  0.00     0.040 A 
HETATM   34  C   UNL     1       2.194   9.037 -25.278  1.00  0.00     0.352 A 
HETATM   35  C   UNL     1       0.054   6.329 -28.133  1.00  0.00     0.012 A 
ENDBRANCH  26  27
ENDBRANCH   4  26
BRANCH  11  36
HETATM   36  C   UNL     1      -6.484   3.045 -31.804  1.00  0.00     0.252 C 
HETATM   37  N   UNL     1      -6.596   2.118 -32.822  1.00  0.00    -0.352 N 
HETATM   38  H   UNL     1      -5.757   1.731 -33.234  1.00  0.00     0.163 HD
HETATM   39  O   UNL     1      -7.417   3.388 -31.087  1.00  0.00    -0.268 OA
BRANCH  37  40
HETATM   40  C   UNL     1      -7.840   1.402 -33.089  1.00  0.00     0.084 C 
HETATM   41  C   UNL     1      -8.122   1.356 -34.595  1.00  0.00     0.025 C 
HETATM   42  C   UNL     1      -7.182   0.416 -35.350  1.00  0.00     0.002 C 
HETATM   43  C   UNL     1      -7.170  -0.980 -34.737  1.00  0.00     0.000 C 
HETATM   44  C   UNL     1      -6.845  -0.941 -33.247  1.00  0.00     0.002 C 
HETATM   45  C   UNL     1      -7.788  -0.008 -32.485  1.00  0.00     0.025 C 
ENDBRANCH  37  40
ENDBRANCH  11  36
TORSDOF 8
ENDMDL
MODEL 5
REMARK VINA RESULT:      -9.6      2.261      8.539
REMARK  8 active torsions:
REMARK  status: ('A' for Active; 'I' for Inactive)
REMARK    1  A    between atoms: O_2  and  C_3 
REMARK    2  A    between atoms: C_6  and  N_7 
REMARK       I    between atoms: N_7  and  C_8 
REMARK    3  A    between atoms: C_8  and  C_9 
REMARK    4  A    between atoms: C_9  and  N_10 
REMARK    5  A    between atoms: N_13  and  C_14 
REMARK    6  A    between atoms: C_14  and  C_15 
REMARK    7  A    between atoms: C_30  and  C_31 
REMARK       I    between atoms: C_31  and  N_32 
REMARK    8  A    between atoms: N_32  and  C_33 
ROOT
HETATM    1  N   UNL     1      -7.126   4.388 -30.639  1.00  0.00    -0.290 N 
HETATM    2  C   UNL     1      -5.917   4.764 -30.070  1.00  0.00     0.332 C 
HETATM    3  O   UNL     1      -5.266   3.957 -29.399  1.00  0.00    -0.246 OA
HETATM    4  N   UNL     1      -5.506   6.070 -30.274  1.00  0.00    -0.261 N 
HETATM    5  C   UNL     1      -6.305   7.073 -30.805  1.00  0.00     0.264 C 
HETATM    6  O   UNL     1      -5.957   8.246 -30.911  1.00  0.00    -0.267 OA
HETATM    7  C   UNL     1      -7.656   6.682 -31.243  1.00  0.00     0.059 A 
HETATM    8  C   UNL     1      -8.030   5.340 -31.182  1.00  0.00     0.056 A 
HETATM    9  C   UNL     1      -8.540   7.658 -31.723  1.00  0.00     0.020 A 
HETATM   10  C   UNL     1      -9.827   7.298 -32.123  1.00  0.00     0.018 A 
HETATM   11  C   UNL     1     -10.228   5.962 -32.060  1.00  0.00     0.034 A 
HETATM   12  C   UNL     1      -9.314   4.988 -31.628  1.00  0.00     0.048 A 
ENDROOT
BRANCH   1  13
HETATM   13  C   UNL     1      -7.494   2.972 -30.545  1.00  0.00     0.237 C 
BRANCH  13  14
HETATM   14  C   UNL     1      -7.013   2.192 -31.770  1.00  0.00     0.240 C 
HETATM   15  N   UNL     1      -7.087   0.820 -31.598  1.00  0.00    -0.326 N 
HETATM   16  H   UNL     1      -7.496   0.496 -30.722  1.00  0.00     0.169 HD
HETATM   17  O   UNL     1      -6.648   2.791 -32.780  1.00  0.00    -0.271 OA
BRANCH  15  18
HETATM   18  C   UNL     1      -6.670  -0.178 -32.501  1.00  0.00     0.034 A 
HETATM   19  C   UNL     1      -5.356  -0.649 -32.377  1.00  0.00     0.032 A 
HETATM   20  C   UNL     1      -4.850  -1.614 -33.259  1.00  0.00     0.039 A 
HETATM   21  C   UNL     1      -5.654  -2.121 -34.277  1.00  0.00     0.068 A 
HETATM   22  C   UNL     1      -6.968  -1.670 -34.389  1.00  0.00     0.039 A 
HETATM   23  C   UNL     1      -7.474  -0.704 -33.511  1.00  0.00     0.032 A 
BRANCH  21  24
HETATM   24  O   UNL     1      -5.285  -3.050 -35.208  1.00  0.00    -0.356 OA
HETATM   25  C   UNL     1      -6.107  -4.205 -35.321  1.00  0.00     0.210 C 
ENDBRANCH  21  24
ENDBRANCH  15  18
ENDBRANCH  13  14
ENDBRANCH   1  13
BRANCH   4  26
HETATM   26  C   UNL     1      -4.148   6.428 -29.883  1.00  0.00     0.175 C 
BRANCH  26  27
HETATM   27  C   UNL     1      -3.252   6.583 -31.098  1.00  0.00    -0.037 A 
HETATM   28  C   UNL     1      -3.096   5.519 -32.003  1.00  0.00     0.048 A 
HETATM   29  C   UNL     1      -2.239   5.693 -33.071  1.00  0.00     0.105 A 
HETATM   30  C   UNL     1      -1.541   6.862 -33.258  1.00  0.00     0.105 A 
HETATM   31  O   UNL     1      -1.975   4.772 -34.036  1.00  0.00    -0.323 OA
HETATM   32  O   UNL     1      -0.750   6.824 -34.363  1.00  0.00    -0.323 OA
HETATM   33  C   UNL     1      -1.661   7.925 -32.391  1.00  0.00     0.040 A 
HETATM   34  C   UNL     1      -1.034   5.497 -34.854  1.00  0.00     0.352 A 
HETATM   35  C   UNL     1      -2.526   7.781 -31.300  1.00  0.00     0.012 A 
ENDBRANCH  26  27
ENDBRANCH   4  26
BRANCH  11  36
HETATM   36  C   UNL     1     -11.621   5.611 -32.458  1.00  0.00     0.252 C 
HETATM   37  N   UNL     1     -11.759   4.665 -33.456  1.00  0.00    -0.352 N 
HETATM   38  H   UNL     1     -10.952   4.123 -33.739  1.00  0.00     0.163 HD
HETATM   39  O   UNL     1     -12.567   6.141 -31.886  1.00  0.00    -0.268 OA
BRANCH  37  40
HETATM   40  C   UNL     1     -13.063   4.155 -33.870  1.00  0.00     0.084 C 
HETATM   41  C   UNL     1     -13.088   3.910 -35.383  1.00  0.00     0.025 C 
HETATM   42  C   UNL     1     -12.255   2.701 -35.807  1.00  0.00     0.002 C 
HETATM   43  C   UNL     1     -12.641   1.449 -35.028  1.00  0.00     0.000 C 
HETATM   44  C   UNL     1     -12.572   1.676 -33.521  1.00  0.00     0.002 C 
HETATM   45  C   UNL     1     -13.412   2.880 -33.090  1.00  0.00     0.025 C 
ENDBRANCH  37  40
ENDBRANCH  11  36
TORSDOF 8
ENDMDL
MODEL 6
REMARK VINA RESULT:      -9.5      3.421      7.322
REMARK  8 active torsions:
REMARK  status: ('A' for Active; 'I' for Inactive)
REMARK    1  A    between atoms: O_2  and  C_3 
REMARK    2  A    between atoms: C_6  and  N_7 
REMARK       I    between atoms: N_7  and  C_8 
REMARK    3  A    between atoms: C_8  and  C_9 
REMARK    4  A    between atoms: C_9  and  N_10 
REMARK    5  A    between atoms: N_13  and  C_14 
REMARK    6  A    between atoms: C_14  and  C_15 
REMARK    7  A    between atoms: C_30  and  C_31 
REMARK       I    between atoms: C_31  and  N_32 
REMARK    8  A    between atoms: N_32  and  C_33 
ROOT
HETATM    1  N   UNL     1      -6.668   5.082 -31.008  1.00  0.00    -0.290 N 
HETATM    2  C   UNL     1      -7.893   4.508 -30.700  1.00  0.00     0.332 C 
HETATM    3  O   UNL     1      -8.787   5.185 -30.182  1.00  0.00    -0.246 OA
HETATM    4  N   UNL     1      -8.044   3.160 -30.980  1.00  0.00    -0.261 N 
HETATM    5  C   UNL     1      -7.005   2.309 -31.330  1.00  0.00     0.264 C 
HETATM    6  O   UNL     1      -7.135   1.099 -31.501  1.00  0.00    -0.267 OA
HETATM    7  C   UNL     1      -5.672   2.916 -31.480  1.00  0.00     0.059 A 
HETATM    8  C   UNL     1      -5.534   4.297 -31.348  1.00  0.00     0.056 A 
HETATM    9  C   UNL     1      -4.566   2.102 -31.763  1.00  0.00     0.020 A 
HETATM   10  C   UNL     1      -3.298   2.668 -31.889  1.00  0.00     0.018 A 
HETATM   11  C   UNL     1      -3.133   4.048 -31.750  1.00  0.00     0.034 A 
HETATM   12  C   UNL     1      -4.257   4.856 -31.520  1.00  0.00     0.048 A 
ENDROOT
BRANCH   1  13
HETATM   13  C   UNL     1      -6.554   6.534 -30.846  1.00  0.00     0.237 C 
BRANCH  13  14
HETATM   14  C   UNL     1      -5.962   6.896 -29.483  1.00  0.00     0.240 C 
HETATM   15  N   UNL     1      -4.725   7.512 -29.579  1.00  0.00    -0.326 N 
HETATM   16  H   UNL     1      -4.387   7.699 -30.522  1.00  0.00     0.169 HD
HETATM   17  O   UNL     1      -6.595   6.667 -28.454  1.00  0.00    -0.271 OA
BRANCH  15  18
HETATM   18  C   UNL     1      -3.887   7.914 -28.521  1.00  0.00     0.034 A 
HETATM   19  C   UNL     1      -3.400   9.227 -28.549  1.00  0.00     0.032 A 
HETATM   20  C   UNL     1      -2.530   9.696 -27.555  1.00  0.00     0.039 A 
HETATM   21  C   UNL     1      -2.135   8.853 -26.518  1.00  0.00     0.068 A 
HETATM   22  C   UNL     1      -2.635   7.553 -26.476  1.00  0.00     0.039 A 
HETATM   23  C   UNL     1      -3.501   7.083 -27.471  1.00  0.00     0.032 A 
BRANCH  21  24
HETATM   24  O   UNL     1      -1.286   9.175 -25.497  1.00  0.00    -0.356 OA
HETATM   25  C   UNL     1      -1.865   9.324 -24.206  1.00  0.00     0.210 C 
ENDBRANCH  21  24
ENDBRANCH  15  18
ENDBRANCH  13  14
ENDBRANCH   1  13
BRANCH   4  26
HETATM   26  C   UNL     1      -9.380   2.586 -30.877  1.00  0.00     0.175 C 
BRANCH  26  27
HETATM   27  C   UNL     1     -10.095   2.621 -32.215  1.00  0.00    -0.037 A 
HETATM   28  C   UNL     1     -10.802   3.769 -32.611  1.00  0.00     0.048 A 
HETATM   29  C   UNL     1     -11.469   3.739 -33.818  1.00  0.00     0.105 A 
HETATM   30  C   UNL     1     -11.464   2.625 -34.622  1.00  0.00     0.105 A 
HETATM   31  O   UNL     1     -12.197   4.758 -34.349  1.00  0.00    -0.323 OA
HETATM   32  O   UNL     1     -12.187   2.802 -35.761  1.00  0.00    -0.323 OA
HETATM   33  C   UNL     1     -10.789   1.478 -34.269  1.00  0.00     0.040 A 
HETATM   34  C   UNL     1     -12.644   4.158 -35.582  1.00  0.00     0.352 A 
HETATM   35  C   UNL     1     -10.098   1.479 -33.052  1.00  0.00     0.012 A 
ENDBRANCH  26  27
ENDBRANCH   4  26
BRANCH  11  36
HETATM   36  C   UNL     1      -1.760   4.622 -31.852  1.00  0.00     0.252 C 
HETATM   37  N   UNL     1      -1.090   4.835 -30.664  1.00  0.00    -0.352 N 
HETATM   38  H   UNL     1      -1.457   4.436 -29.809  1.00  0.00     0.163 HD
HETATM   39  O   UNL     1      -1.281   4.853 -32.957  1.00  0.00    -0.268 OA
BRANCH  37  40
HETATM   40  C   UNL     1       0.295   5.295 -30.623  1.00  0.00     0.084 C 
HETATM   41  C   UNL     1       0.379   6.785 -30.973  1.00  0.00     0.025 C 
HETATM   42  C   UNL     1      -0.166   7.690 -29.870  1.00  0.00     0.002 C 
HETATM   43  C   UNL     1       0.485   7.392 -28.524  1.00  0.00     0.000 C 
HETATM   44  C   UNL     1       0.363   5.918 -28.150  1.00  0.00     0.002 C 
HETATM   45  C   UNL     1       0.915   5.008 -29.248  1.00  0.00     0.025 C 
ENDBRANCH  37  40
ENDBRANCH  11  36
TORSDOF 8
ENDMDL
MODEL 7
REMARK VINA RESULT:      -9.5      2.551      7.436
REMARK  8 active torsions:
REMARK  status: ('A' for Active; 'I' for Inactive)
REMARK    1  A    between atoms: O_2  and  C_3 
REMARK    2  A    between atoms: C_6  and  N_7 
REMARK       I    between atoms: N_7  and  C_8 
REMARK    3  A    between atoms: C_8  and  C_9 
REMARK    4  A    between atoms: C_9  and  N_10 
REMARK    5  A    between atoms: N_13  and  C_14 
REMARK    6  A    between atoms: C_14  and  C_15 
REMARK    7  A    between atoms: C_30  and  C_31 
REMARK       I    between atoms: C_31  and  N_32 
REMARK    8  A    between atoms: N_32  and  C_33 
ROOT
HETATM    1  N   UNL     1      -5.884   3.875 -30.712  1.00  0.00    -0.290 N 
HETATM    2  C   UNL     1      -6.005   2.547 -30.327  1.00  0.00     0.332 C 
HETATM    3  O   UNL     1      -7.024   2.154 -29.751  1.00  0.00    -0.246 OA
HETATM    4  N   UNL     1      -4.933   1.714 -30.600  1.00  0.00    -0.261 N 
HETATM    5  C   UNL     1      -3.684   2.150 -31.019  1.00  0.00     0.264 C 
HETATM    6  O   UNL     1      -2.716   1.411 -31.184  1.00  0.00    -0.267 OA
HETATM    7  C   UNL     1      -3.531   3.596 -31.253  1.00  0.00     0.059 A 
HETATM    8  C   UNL     1      -4.643   4.428 -31.127  1.00  0.00     0.056 A 
HETATM    9  C   UNL     1      -2.277   4.113 -31.608  1.00  0.00     0.020 A 
HETATM   10  C   UNL     1      -2.121   5.484 -31.815  1.00  0.00     0.018 A 
HETATM   11  C   UNL     1      -3.218   6.338 -31.682  1.00  0.00     0.034 A 
HETATM   12  C   UNL     1      -4.478   5.799 -31.379  1.00  0.00     0.048 A 
ENDROOT
BRANCH   1  13
HETATM   13  C   UNL     1      -7.068   4.724 -30.554  1.00  0.00     0.237 C 
BRANCH  13  14
HETATM   14  C   UNL     1      -8.056   4.517 -31.703  1.00  0.00     0.240 C 
HETATM   15  N   UNL     1      -8.929   3.464 -31.481  1.00  0.00    -0.326 N 
HETATM   16  H   UNL     1      -8.852   2.997 -30.578  1.00  0.00     0.169 HD
HETATM   17  O   UNL     1      -8.041   5.270 -32.675  1.00  0.00    -0.271 OA
BRANCH  15  18
HETATM   18  C   UNL     1      -9.914   2.971 -32.359  1.00  0.00     0.034 A 
HETATM   19  C   UNL     1     -11.187   3.550 -32.288  1.00  0.00     0.032 A 
HETATM   20  C   UNL     1     -12.235   3.092 -33.099  1.00  0.00     0.039 A 
HETATM   21  C   UNL     1     -12.019   2.046 -33.994  1.00  0.00     0.068 A 
HETATM   22  C   UNL     1     -10.748   1.482 -34.082  1.00  0.00     0.039 A 
HETATM   23  C   UNL     1      -9.702   1.937 -33.269  1.00  0.00     0.032 A 
BRANCH  21  24
HETATM   24  O   UNL     1     -12.950   1.497 -34.830  1.00  0.00    -0.356 OA
HETATM   25  C   UNL     1     -14.221   1.198 -34.266  1.00  0.00     0.210 C 
ENDBRANCH  21  24
ENDBRANCH  15  18
ENDBRANCH  13  14
ENDBRANCH   1  13
BRANCH   4  26
HETATM   26  C   UNL     1      -5.117   0.280 -30.413  1.00  0.00     0.175 C 
BRANCH  26  27
HETATM   27  C   UNL     1      -5.491  -0.399 -31.718  1.00  0.00    -0.037 A 
HETATM   28  C   UNL     1      -4.601  -1.299 -32.329  1.00  0.00     0.048 A 
HETATM   29  C   UNL     1      -4.968  -1.860 -33.535  1.00  0.00     0.105 A 
HETATM   30  C   UNL     1      -6.161  -1.555 -34.144  1.00  0.00     0.105 A 
HETATM   31  O   UNL     1      -4.230  -2.746 -34.256  1.00  0.00    -0.323 OA
HETATM   32  O   UNL     1      -6.324  -2.209 -35.325  1.00  0.00    -0.323 OA
HETATM   33  C   UNL     1      -7.057  -0.674 -33.582  1.00  0.00     0.040 A 
HETATM   34  C   UNL     1      -5.098  -2.966 -35.387  1.00  0.00     0.352 A 
HETATM   35  C   UNL     1      -6.716  -0.091 -32.356  1.00  0.00     0.012 A 
ENDBRANCH  26  27
ENDBRANCH   4  26
BRANCH  11  36
HETATM   36  C   UNL     1      -3.014   7.803 -31.872  1.00  0.00     0.252 C 
HETATM   37  N   UNL     1      -3.697   8.638 -31.009  1.00  0.00    -0.352 N 
HETATM   38  H   UNL     1      -4.144   8.246 -30.190  1.00  0.00     0.163 HD
HETATM   39  O   UNL     1      -2.251   8.201 -32.744  1.00  0.00    -0.268 OA
BRANCH  37  40
HETATM   40  C   UNL     1      -3.511  10.086 -31.016  1.00  0.00     0.084 C 
HETATM   41  C   UNL     1      -4.826  10.800 -30.682  1.00  0.00     0.025 C 
HETATM   42  C   UNL     1      -5.228  10.656 -29.215  1.00  0.00     0.002 C 
HETATM   43  C   UNL     1      -4.103  11.082 -28.278  1.00  0.00     0.000 C 
HETATM   44  C   UNL     1      -2.804  10.339 -28.578  1.00  0.00     0.002 C 
HETATM   45  C   UNL     1      -2.393  10.488 -30.044  1.00  0.00     0.025 C 
ENDBRANCH  37  40
ENDBRANCH  11  36
TORSDOF 8
ENDMDL
MODEL 8
REMARK VINA RESULT:      -9.3      3.274     10.307
REMARK  8 active torsions:
REMARK  status: ('A' for Active; 'I' for Inactive)
REMARK    1  A    between atoms: O_2  and  C_3 
REMARK    2  A    between atoms: C_6  and  N_7 
REMARK       I    between atoms: N_7  and  C_8 
REMARK    3  A    between atoms: C_8  and  C_9 
REMARK    4  A    between atoms: C_9  and  N_10 
REMARK    5  A    between atoms: N_13  and  C_14 
REMARK    6  A    between atoms: C_14  and  C_15 
REMARK    7  A    between atoms: C_30  and  C_31 
REMARK       I    between atoms: C_31  and  N_32 
REMARK    8  A    between atoms: N_32  and  C_33 
ROOT
HETATM    1  N   UNL     1      -4.373   5.907 -30.078  1.00  0.00    -0.290 N 
HETATM    2  C   UNL     1      -4.064   7.257 -29.980  1.00  0.00     0.332 C 
HETATM    3  O   UNL     1      -4.767   8.009 -29.298  1.00  0.00    -0.246 OA
HETATM    4  N   UNL     1      -2.963   7.703 -30.690  1.00  0.00    -0.261 N 
HETATM    5  C   UNL     1      -2.293   6.959 -31.652  1.00  0.00     0.264 C 
HETATM    6  O   UNL     1      -1.366   7.391 -32.333  1.00  0.00    -0.267 OA
HETATM    7  C   UNL     1      -2.757   5.578 -31.863  1.00  0.00     0.059 A 
HETATM    8  C   UNL     1      -3.766   5.066 -31.050  1.00  0.00     0.056 A 
HETATM    9  C   UNL     1      -2.171   4.794 -32.869  1.00  0.00     0.020 A 
HETATM   10  C   UNL     1      -2.617   3.491 -33.085  1.00  0.00     0.018 A 
HETATM   11  C   UNL     1      -3.635   2.961 -32.290  1.00  0.00     0.034 A 
HETATM   12  C   UNL     1      -4.175   3.738 -31.253  1.00  0.00     0.048 A 
ENDROOT
BRANCH   1  13
HETATM   13  C   UNL     1      -5.448   5.406 -29.217  1.00  0.00     0.237 C 
BRANCH  13  14
HETATM   14  C   UNL     1      -6.804   5.487 -29.919  1.00  0.00     0.240 C 
HETATM   15  N   UNL     1      -7.175   4.293 -30.515  1.00  0.00    -0.326 N 
HETATM   16  H   UNL     1      -6.546   3.503 -30.373  1.00  0.00     0.169 HD
HETATM   17  O   UNL     1      -7.457   6.528 -29.883  1.00  0.00    -0.271 OA
BRANCH  15  18
HETATM   18  C   UNL     1      -8.326   4.045 -31.288  1.00  0.00     0.034 A 
HETATM   19  C   UNL     1      -8.275   4.383 -32.646  1.00  0.00     0.032 A 
HETATM   20  C   UNL     1      -9.390   4.204 -33.477  1.00  0.00     0.039 A 
HETATM   21  C   UNL     1     -10.572   3.683 -32.957  1.00  0.00     0.068 A 
HETATM   22  C   UNL     1     -10.619   3.325 -31.610  1.00  0.00     0.039 A 
HETATM   23  C   UNL     1      -9.508   3.507 -30.779  1.00  0.00     0.032 A 
BRANCH  21  24
HETATM   24  O   UNL     1     -11.732   3.469 -33.648  1.00  0.00    -0.356 OA
HETATM   25  C   UNL     1     -11.630   2.720 -34.853  1.00  0.00     0.210 C 
ENDBRANCH  21  24
ENDBRANCH  15  18
ENDBRANCH  13  14
ENDBRANCH   1  13
BRANCH   4  26
HETATM   26  C   UNL     1      -2.485   9.056 -30.432  1.00  0.00     0.175 C 
BRANCH  26  27
HETATM   27  C   UNL     1      -1.599   9.097 -29.200  1.00  0.00    -0.037 A 
HETATM   28  C   UNL     1      -0.634   8.098 -28.988  1.00  0.00     0.048 A 
HETATM   29  C   UNL     1       0.121   8.156 -27.834  1.00  0.00     0.105 A 
HETATM   30  C   UNL     1      -0.057   9.148 -26.901  1.00  0.00     0.105 A 
HETATM   31  O   UNL     1       1.093   7.275 -27.476  1.00  0.00    -0.323 OA
HETATM   32  O   UNL     1       0.780   9.017 -25.837  1.00  0.00    -0.323 OA
HETATM   33  C   UNL     1      -0.996  10.141 -27.068  1.00  0.00     0.040 A 
HETATM   34  C   UNL     1       1.510   7.830 -26.211  1.00  0.00     0.352 A 
HETATM   35  C   UNL     1      -1.773  10.113 -28.230  1.00  0.00     0.012 A 
ENDBRANCH  26  27
ENDBRANCH   4  26
BRANCH  11  36
HETATM   36  C   UNL     1      -4.118   1.578 -32.569  1.00  0.00     0.252 C 
HETATM   37  N   UNL     1      -5.391   1.462 -33.091  1.00  0.00    -0.352 N 
HETATM   38  H   UNL     1      -5.864   2.289 -33.434  1.00  0.00     0.163 HD
HETATM   39  O   UNL     1      -3.380   0.623 -32.354  1.00  0.00    -0.268 OA
BRANCH  37  40
HETATM   40  C   UNL     1      -5.949   0.177 -33.505  1.00  0.00     0.084 C 
HETATM   41  C   UNL     1      -6.811  -0.421 -32.388  1.00  0.00     0.025 C 
HETATM   42  C   UNL     1      -8.134   0.319 -32.192  1.00  0.00     0.002 C 
HETATM   43  C   UNL     1      -8.911   0.439 -33.497  1.00  0.00     0.000 C 
HETATM   44  C   UNL     1      -8.071   1.077 -34.600  1.00  0.00     0.002 C 
HETATM   45  C   UNL     1      -6.749   0.334 -34.806  1.00  0.00     0.025 C 
ENDBRANCH  37  40
ENDBRANCH  11  36
TORSDOF 8
ENDMDL
MODEL 9
REMARK VINA RESULT:      -9.3      2.834      6.430
REMARK  8 active torsions:
REMARK  status: ('A' for Active; 'I' for Inactive)
REMARK    1  A    between atoms: O_2  and  C_3 
REMARK    2  A    between atoms: C_6  and  N_7 
REMARK       I    between atoms: N_7  and  C_8 
REMARK    3  A    between atoms: C_8  and  C_9 
REMARK    4  A    between atoms: C_9  and  N_10 
REMARK    5  A    between atoms: N_13  and  C_14 
REMARK    6  A    between atoms: C_14  and  C_15 
REMARK    7  A    between atoms: C_30  and  C_31 
REMARK       I    between atoms: C_31  and  N_32 
REMARK    8  A    between atoms: N_32  and  C_33 
ROOT
HETATM    1  N   UNL     1      -8.121   3.590 -31.271  1.00  0.00    -0.290 N 
HETATM    2  C   UNL     1      -8.696   2.351 -31.520  1.00  0.00     0.332 C 
HETATM    3  O   UNL     1      -9.611   1.933 -30.803  1.00  0.00    -0.246 OA
HETATM    4  N   UNL     1      -8.182   1.620 -32.577  1.00  0.00    -0.261 N 
HETATM    5  C   UNL     1      -7.009   1.931 -33.252  1.00  0.00     0.264 C 
HETATM    6  O   UNL     1      -6.519   1.235 -34.138  1.00  0.00    -0.267 OA
HETATM    7  C   UNL     1      -6.319   3.168 -32.847  1.00  0.00     0.059 A 
HETATM    8  C   UNL     1      -6.905   3.992 -31.887  1.00  0.00     0.056 A 
HETATM    9  C   UNL     1      -5.093   3.504 -33.438  1.00  0.00     0.020 A 
HETATM   10  C   UNL     1      -4.426   4.665 -33.048  1.00  0.00     0.018 A 
HETATM   11  C   UNL     1      -4.988   5.500 -32.079  1.00  0.00     0.034 A 
HETATM   12  C   UNL     1      -6.241   5.178 -31.535  1.00  0.00     0.048 A 
ENDROOT
BRANCH   1  13
HETATM   13  C   UNL     1      -8.755   4.425 -30.247  1.00  0.00     0.237 C 
BRANCH  13  14
HETATM   14  C   UNL     1     -10.078   5.008 -30.748  1.00  0.00     0.240 C 
HETATM   15  N   UNL     1     -11.180   4.282 -30.329  1.00  0.00    -0.326 N 
HETATM   16  H   UNL     1     -10.993   3.497 -29.705  1.00  0.00     0.169 HD
HETATM   17  O   UNL     1     -10.084   6.039 -31.418  1.00  0.00    -0.271 OA
BRANCH  15  18
HETATM   18  C   UNL     1     -12.530   4.510 -30.660  1.00  0.00     0.034 A 
HETATM   19  C   UNL     1     -13.068   3.766 -31.718  1.00  0.00     0.032 A 
HETATM   20  C   UNL     1     -14.392   3.959 -32.137  1.00  0.00     0.039 A 
HETATM   21  C   UNL     1     -15.196   4.902 -31.499  1.00  0.00     0.068 A 
HETATM   22  C   UNL     1     -14.670   5.627 -30.431  1.00  0.00     0.039 A 
HETATM   23  C   UNL     1     -13.347   5.438 -30.015  1.00  0.00     0.032 A 
BRANCH  21  24
HETATM   24  O   UNL     1     -16.493   5.198 -31.811  1.00  0.00    -0.356 OA
HETATM   25  C   UNL     1     -17.039   6.373 -31.227  1.00  0.00     0.210 C 
ENDBRANCH  21  24
ENDBRANCH  15  18
ENDBRANCH  13  14
ENDBRANCH   1  13
BRANCH   4  26
HETATM   26  C   UNL     1      -8.905   0.427 -32.999  1.00  0.00     0.175 C 
BRANCH  26  27
HETATM   27  C   UNL     1     -10.281   0.781 -33.532  1.00  0.00    -0.037 A 
HETATM   28  C   UNL     1     -11.403   0.023 -33.156  1.00  0.00     0.048 A 
HETATM   29  C   UNL     1     -12.627   0.358 -33.697  1.00  0.00     0.105 A 
HETATM   30  C   UNL     1     -12.766   1.395 -34.588  1.00  0.00     0.105 A 
HETATM   31  O   UNL     1     -13.807  -0.267 -33.441  1.00  0.00    -0.323 OA
HETATM   32  O   UNL     1     -14.051   1.553 -35.005  1.00  0.00    -0.323 OA
HETATM   33  C   UNL     1     -11.692   2.158 -34.987  1.00  0.00     0.040 A 
HETATM   34  C   UNL     1     -14.706   0.498 -34.270  1.00  0.00     0.352 A 
HETATM   35  C   UNL     1     -10.438   1.846 -34.452  1.00  0.00     0.012 A 
ENDBRANCH  26  27
ENDBRANCH   4  26
BRANCH  11  36
HETATM   36  C   UNL     1      -4.235   6.714 -31.653  1.00  0.00     0.252 C 
HETATM   37  N   UNL     1      -2.867   6.577 -31.517  1.00  0.00    -0.352 N 
HETATM   38  H   UNL     1      -2.414   5.748 -31.881  1.00  0.00     0.163 HD
HETATM   39  O   UNL     1      -4.836   7.766 -31.467  1.00  0.00    -0.268 OA
BRANCH  37  40
HETATM   40  C   UNL     1      -1.997   7.708 -31.207  1.00  0.00     0.084 C 
HETATM   41  C   UNL     1      -1.865   7.884 -29.690  1.00  0.00     0.025 C 
HETATM   42  C   UNL     1      -1.018   6.794 -29.034  1.00  0.00     0.002 C 
HETATM   43  C   UNL     1       0.343   6.657 -29.706  1.00  0.00     0.000 C 
HETATM   44  C   UNL     1       0.213   6.436 -31.209  1.00  0.00     0.002 C 
HETATM   45  C   UNL     1      -0.626   7.529 -31.872  1.00  0.00     0.025 C 
ENDBRANCH  37  40
ENDBRANCH  11  36
TORSDOF 8
ENDMDL
MODEL 10
REMARK VINA RESULT:      -9.2      4.842      8.989
REMARK  8 active torsions:
REMARK  status: ('A' for Active; 'I' for Inactive)
REMARK    1  A    between atoms: O_2  and  C_3 
REMARK    2  A    between atoms: C_6  and  N_7 
REMARK       I    between atoms: N_7  and  C_8 
REMARK    3  A    between atoms: C_8  and  C_9 
REMARK    4  A    between atoms: C_9  and  N_10 
REMARK    5  A    between atoms: N_13  and  C_14 
REMARK    6  A    between atoms: C_14  and  C_15 
REMARK    7  A    between atoms: C_30  and  C_31 
REMARK       I    between atoms: C_31  and  N_32 
REMARK    8  A    between atoms: N_32  and  C_33 
ROOT
HETATM    1  N   UNL     1      -3.801   3.970 -31.370  1.00  0.00    -0.290 N 
HETATM    2  C   UNL     1      -3.660   2.595 -31.489  1.00  0.00     0.332 C 
HETATM    3  O   UNL     1      -2.791   2.118 -32.227  1.00  0.00    -0.246 OA
HETATM    4  N   UNL     1      -4.543   1.807 -30.770  1.00  0.00    -0.261 N 
HETATM    5  C   UNL     1      -5.677   2.283 -30.127  1.00  0.00     0.264 C 
HETATM    6  O   UNL     1      -6.496   1.567 -29.556  1.00  0.00    -0.267 OA
HETATM    7  C   UNL     1      -5.899   3.739 -30.165  1.00  0.00     0.059 A 
HETATM    8  C   UNL     1      -4.940   4.559 -30.757  1.00  0.00     0.056 A 
HETATM    9  C   UNL     1      -7.062   4.279 -29.597  1.00  0.00     0.020 A 
HETATM   10  C   UNL     1      -7.287   5.655 -29.644  1.00  0.00     0.018 A 
HETATM   11  C   UNL     1      -6.345   6.495 -30.243  1.00  0.00     0.034 A 
HETATM   12  C   UNL     1      -5.161   5.946 -30.760  1.00  0.00     0.048 A 
ENDROOT
BRANCH   1  13
HETATM   13  C   UNL     1      -2.782   4.802 -32.016  1.00  0.00     0.237 C 
BRANCH  13  14
HETATM   14  C   UNL     1      -1.693   5.215 -31.024  1.00  0.00     0.240 C 
HETATM   15  N   UNL     1      -1.961   6.423 -30.402  1.00  0.00    -0.326 N 
HETATM   16  H   UNL     1      -2.856   6.858 -30.627  1.00  0.00     0.169 HD
HETATM   17  O   UNL     1      -0.727   4.481 -30.825  1.00  0.00    -0.271 OA
BRANCH  15  18
HETATM   18  C   UNL     1      -1.142   7.114 -29.487  1.00  0.00     0.034 A 
HETATM   19  C   UNL     1      -1.779   7.833 -28.468  1.00  0.00     0.032 A 
HETATM   20  C   UNL     1      -1.039   8.579 -27.540  1.00  0.00     0.039 A 
HETATM   21  C   UNL     1       0.352   8.613 -27.621  1.00  0.00     0.068 A 
HETATM   22  C   UNL     1       0.989   7.880 -28.621  1.00  0.00     0.039 A 
HETATM   23  C   UNL     1       0.251   7.138 -29.551  1.00  0.00     0.032 A 
BRANCH  21  24
HETATM   24  O   UNL     1       1.191   9.305 -26.793  1.00  0.00    -0.356 OA
HETATM   25  C   UNL     1       2.105   8.537 -26.020  1.00  0.00     0.210 C 
ENDBRANCH  21  24
ENDBRANCH  15  18
ENDBRANCH  13  14
ENDBRANCH   1  13
BRANCH   4  26
HETATM   26  C   UNL     1      -4.280   0.375 -30.698  1.00  0.00     0.175 C 
BRANCH  26  27
HETATM   27  C   UNL     1      -4.872  -0.350 -31.893  1.00  0.00    -0.037 A 
HETATM   28  C   UNL     1      -4.217  -1.467 -32.439  1.00  0.00     0.048 A 
HETATM   29  C   UNL     1      -4.773  -2.070 -33.549  1.00  0.00     0.105 A 
HETATM   30  C   UNL     1      -5.928  -1.601 -34.126  1.00  0.00     0.105 A 
HETATM   31  O   UNL     1      -4.273  -3.155 -34.198  1.00  0.00    -0.323 OA
HETATM   32  O   UNL     1      -6.300  -2.331 -35.212  1.00  0.00    -0.323 OA
HETATM   33  C   UNL     1      -6.596  -0.505 -33.626  1.00  0.00     0.040 A 
HETATM   34  C   UNL     1      -5.249  -3.317 -35.248  1.00  0.00     0.352 A 
HETATM   35  C   UNL     1      -6.060   0.125 -32.498  1.00  0.00     0.012 A 
ENDBRANCH  26  27
ENDBRANCH   4  26
BRANCH  11  36
HETATM   36  C   UNL     1      -6.630   7.957 -30.313  1.00  0.00     0.252 C 
HETATM   37  N   UNL     1      -5.866   8.774 -29.503  1.00  0.00    -0.352 N 
HETATM   38  H   UNL     1      -5.043   8.394 -29.050  1.00  0.00     0.163 HD
HETATM   39  O   UNL     1      -7.489   8.371 -31.083  1.00  0.00    -0.268 OA
BRANCH  37  40
HETATM   40  C   UNL     1      -5.968  10.230 -29.547  1.00  0.00     0.084 C 
HETATM   41  C   UNL     1      -5.697  10.831 -28.163  1.00  0.00     0.025 C 
HETATM   42  C   UNL     1      -4.228  10.745 -27.751  1.00  0.00     0.002 C 
HETATM   43  C   UNL     1      -3.310  11.340 -28.812  1.00  0.00     0.000 C 
HETATM   44  C   UNL     1      -3.545  10.712 -30.183  1.00  0.00     0.002 C 
HETATM   45  C   UNL     1      -5.013  10.803 -30.603  1.00  0.00     0.025 C 
ENDBRANCH  37  40
ENDBRANCH  11  36
TORSDOF 8
ENDMDL
