MODEL 1
REMARK VINA RESULT:      -7.9      0.000      0.000
REMARK  6 active torsions:
REMARK  status: ('A' for Active; 'I' for Inactive)
REMARK    1  A    between atoms: C_3  and  C_4 
REMARK    2  A    between atoms: C_4  and  C_5 
REMARK    3  A    between atoms: C_5  and  C_6 
REMARK    4  A    between atoms: C_6  and  C_7 
REMARK       I    between atoms: C_7  and  N_8 
REMARK    5  A    between atoms: N_8  and  C_9 
REMARK    6  A    between atoms: C_11  and  C_12 
ROOT
HETATM    1  C   UNL     1      -5.839   1.725 -31.109  1.00  0.00     0.222 C 
HETATM    2  N   UNL     1      -5.414   1.544 -32.413  1.00  0.00    -0.327 N 
HETATM    3  O   UNL     1      -6.771   1.149 -30.557  1.00  0.00    -0.273 OA
HETATM    4  H   UNL     1      -4.626   2.099 -32.722  1.00  0.00     0.169 HD
ENDROOT
BRANCH   2   5
HETATM    5  C   UNL     1      -5.945   0.655 -33.375  1.00  0.00     0.035 A 
HETATM    6  C   UNL     1      -5.578  -0.690 -33.485  1.00  0.00     0.042 A 
HETATM    7  C   UNL     1      -6.151  -1.525 -34.462  1.00  0.00    -0.021 A 
HETATM    8  C   UNL     1      -7.094  -0.980 -35.341  1.00  0.00     0.012 A 
HETATM    9  C   UNL     1      -7.462   0.362 -35.244  1.00  0.00     0.003 A 
HETATM   10  C   UNL     1      -6.893   1.174 -34.263  1.00  0.00     0.029 A 
BRANCH   7  11
HETATM   11  C   UNL     1      -5.778  -2.930 -34.569  1.00  0.00     0.010 A 
HETATM   12  C   UNL     1      -6.501  -4.048 -35.054  1.00  0.00     0.152 A 
HETATM   13  N   UNL     1      -5.811  -5.191 -34.973  1.00  0.00    -0.187 NA
HETATM   14  N   UNL     1      -4.641  -4.811 -34.438  1.00  0.00    -0.289 N 
HETATM   15  H   UNL     1      -3.933  -5.519 -34.275  1.00  0.00     0.188 HD
HETATM   16  C   UNL     1      -4.573  -3.475 -34.174  1.00  0.00     0.123 A 
ENDBRANCH   7  11
ENDBRANCH   2   5
BRANCH   1  17
HETATM   17  C   UNL     1      -5.009   2.755 -30.358  1.00  0.00     0.103 C 
BRANCH  17  18
HETATM   18  C   UNL     1      -3.747   3.125 -31.135  1.00  0.00     0.014 C 
BRANCH  18  19
HETATM   19  C   UNL     1      -3.670   4.631 -31.410  1.00  0.00     0.047 C 
BRANCH  19  20
HETATM   20  C   UNL     1      -3.146   4.916 -32.789  1.00  0.00    -0.012 A 
HETATM   21  C   UNL     1      -3.852   4.977 -33.982  1.00  0.00    -0.049 A 
HETATM   22  C   UNL     1      -5.325   4.766 -34.127  1.00  0.00     0.049 C 
HETATM   23  C   UNL     1      -2.980   5.285 -35.077  1.00  0.00     0.015 A 
HETATM   24  C   UNL     1      -1.670   5.439 -34.689  1.00  0.00     0.051 A 
HETATM   25  S   UNL     1      -1.474   5.222 -33.009  1.00  0.00    -0.106 SA
ENDBRANCH  19  20
ENDBRANCH  18  19
ENDBRANCH  17  18
ENDBRANCH   1  17
TORSDOF 6
ENDMDL
MODEL 2
REMARK VINA RESULT:      -7.9      1.304      1.837
REMARK  6 active torsions:
REMARK  status: ('A' for Active; 'I' for Inactive)
REMARK    1  A    between atoms: C_3  and  C_4 
REMARK    2  A    between atoms: C_4  and  C_5 
REMARK    3  A    between atoms: C_5  and  C_6 
REMARK    4  A    between atoms: C_6  and  C_7 
REMARK       I    between atoms: C_7  and  N_8 
REMARK    5  A    between atoms: N_8  and  C_9 
REMARK    6  A    between atoms: C_11  and  C_12 
ROOT
HETATM    1  C   UNL     1      -5.554   1.898 -31.276  1.00  0.00     0.222 C 
HETATM    2  N   UNL     1      -5.226   1.633 -32.594  1.00  0.00    -0.327 N 
HETATM    3  O   UNL     1      -6.457   1.380 -30.629  1.00  0.00    -0.273 OA
HETATM    4  H   UNL     1      -4.449   2.148 -32.987  1.00  0.00     0.169 HD
ENDROOT
BRANCH   2   5
HETATM    5  C   UNL     1      -5.844   0.707 -33.463  1.00  0.00     0.035 A 
HETATM    6  C   UNL     1      -5.470  -0.637 -33.572  1.00  0.00     0.042 A 
HETATM    7  C   UNL     1      -6.132  -1.510 -34.454  1.00  0.00    -0.021 A 
HETATM    8  C   UNL     1      -7.175  -1.006 -35.241  1.00  0.00     0.012 A 
HETATM    9  C   UNL     1      -7.552   0.335 -35.145  1.00  0.00     0.003 A 
HETATM   10  C   UNL     1      -6.892   1.184 -34.258  1.00  0.00     0.029 A 
BRANCH   7  11
HETATM   11  C   UNL     1      -5.750  -2.912 -34.558  1.00  0.00     0.010 A 
HETATM   12  C   UNL     1      -6.478  -4.042 -35.010  1.00  0.00     0.152 A 
HETATM   13  N   UNL     1      -5.777  -5.178 -34.939  1.00  0.00    -0.187 NA
HETATM   14  N   UNL     1      -4.595  -4.783 -34.442  1.00  0.00    -0.289 N 
HETATM   15  H   UNL     1      -3.875  -5.483 -34.294  1.00  0.00     0.188 HD
HETATM   16  C   UNL     1      -4.530  -3.443 -34.194  1.00  0.00     0.123 A 
ENDBRANCH   7  11
ENDBRANCH   2   5
BRANCH   1  17
HETATM   17  C   UNL     1      -4.649   2.945 -30.645  1.00  0.00     0.103 C 
BRANCH  17  18
HETATM   18  C   UNL     1      -4.134   3.936 -31.687  1.00  0.00     0.014 C 
BRANCH  18  19
HETATM   19  C   UNL     1      -2.603   3.954 -31.746  1.00  0.00     0.047 C 
BRANCH  19  20
HETATM   20  C   UNL     1      -2.087   5.223 -32.365  1.00  0.00    -0.012 A 
HETATM   21  C   UNL     1      -0.887   5.874 -32.118  1.00  0.00    -0.049 A 
HETATM   22  C   UNL     1       0.162   5.419 -31.156  1.00  0.00     0.049 C 
HETATM   23  C   UNL     1      -0.770   7.054 -32.924  1.00  0.00     0.015 A 
HETATM   24  C   UNL     1      -1.863   7.257 -33.734  1.00  0.00     0.051 A 
HETATM   25  S   UNL     1      -3.035   6.034 -33.541  1.00  0.00    -0.106 SA
ENDBRANCH  19  20
ENDBRANCH  18  19
ENDBRANCH  17  18
ENDBRANCH   1  17
TORSDOF 6
ENDMDL
MODEL 3
REMARK VINA RESULT:      -7.7      4.478      7.314
REMARK  6 active torsions:
REMARK  status: ('A' for Active; 'I' for Inactive)
REMARK    1  A    between atoms: C_3  and  C_4 
REMARK    2  A    between atoms: C_4  and  C_5 
REMARK    3  A    between atoms: C_5  and  C_6 
REMARK    4  A    between atoms: C_6  and  C_7 
REMARK       I    between atoms: C_7  and  N_8 
REMARK    5  A    between atoms: N_8  and  C_9 
REMARK    6  A    between atoms: C_11  and  C_12 
ROOT
HETATM    1  C   UNL     1      -7.009   0.411 -31.967  1.00  0.00     0.222 C 
HETATM    2  N   UNL     1      -7.674   0.494 -33.178  1.00  0.00    -0.327 N 
HETATM    3  O   UNL     1      -7.294   1.007 -30.934  1.00  0.00    -0.273 OA
HETATM    4  H   UNL     1      -7.312  -0.064 -33.941  1.00  0.00     0.169 HD
ENDROOT
BRANCH   2   5
HETATM    5  C   UNL     1      -8.820   1.262 -33.478  1.00  0.00     0.035 A 
HETATM    6  C   UNL     1     -10.106   0.730 -33.617  1.00  0.00     0.042 A 
HETATM    7  C   UNL     1     -11.209   1.553 -33.910  1.00  0.00    -0.021 A 
HETATM    8  C   UNL     1     -10.997   2.927 -34.075  1.00  0.00     0.012 A 
HETATM    9  C   UNL     1      -9.717   3.467 -33.945  1.00  0.00     0.003 A 
HETATM   10  C   UNL     1      -8.636   2.639 -33.644  1.00  0.00     0.029 A 
BRANCH   7  11
HETATM   11  C   UNL     1     -12.551   0.999 -34.044  1.00  0.00     0.010 A 
HETATM   12  C   UNL     1     -13.731   1.549 -34.604  1.00  0.00     0.152 A 
HETATM   13  N   UNL     1     -14.780   0.726 -34.525  1.00  0.00    -0.187 NA
HETATM   14  N   UNL     1     -14.280  -0.358 -33.914  1.00  0.00    -0.289 N 
HETATM   15  H   UNL     1     -14.899  -1.142 -33.736  1.00  0.00     0.188 HD
HETATM   16  C   UNL     1     -12.956  -0.244 -33.602  1.00  0.00     0.123 A 
ENDBRANCH   7  11
ENDBRANCH   2   5
BRANCH   1  17
HETATM   17  C   UNL     1      -5.823  -0.541 -32.012  1.00  0.00     0.103 C 
BRANCH  17  18
HETATM   18  C   UNL     1      -5.095  -0.460 -33.352  1.00  0.00     0.014 C 
BRANCH  18  19
HETATM   19  C   UNL     1      -4.195  -1.679 -33.584  1.00  0.00     0.047 C 
BRANCH  19  20
HETATM   20  C   UNL     1      -4.968  -2.838 -34.147  1.00  0.00    -0.012 A 
HETATM   21  C   UNL     1      -4.597  -4.174 -34.202  1.00  0.00    -0.049 A 
HETATM   22  C   UNL     1      -3.309  -4.736 -33.691  1.00  0.00     0.049 C 
HETATM   23  C   UNL     1      -5.624  -4.966 -34.811  1.00  0.00     0.015 A 
HETATM   24  C   UNL     1      -6.715  -4.221 -35.194  1.00  0.00     0.051 A 
HETATM   25  S   UNL     1      -6.521  -2.569 -34.822  1.00  0.00    -0.106 SA
ENDBRANCH  19  20
ENDBRANCH  18  19
ENDBRANCH  17  18
ENDBRANCH   1  17
TORSDOF 6
ENDMDL
MODEL 4
REMARK VINA RESULT:      -7.6      3.870      8.640
REMARK  6 active torsions:
REMARK  status: ('A' for Active; 'I' for Inactive)
REMARK    1  A    between atoms: C_3  and  C_4 
REMARK    2  A    between atoms: C_4  and  C_5 
REMARK    3  A    between atoms: C_5  and  C_6 
REMARK    4  A    between atoms: C_6  and  C_7 
REMARK       I    between atoms: C_7  and  N_8 
REMARK    5  A    between atoms: N_8  and  C_9 
REMARK    6  A    between atoms: C_11  and  C_12 
ROOT
HETATM    1  C   UNL     1      -3.727   1.775 -31.966  1.00  0.00     0.222 C 
HETATM    2  N   UNL     1      -3.734   2.957 -32.685  1.00  0.00    -0.327 N 
HETATM    3  O   UNL     1      -2.850   1.392 -31.199  1.00  0.00    -0.273 OA
HETATM    4  H   UNL     1      -4.536   3.129 -33.279  1.00  0.00     0.169 HD
ENDROOT
BRANCH   2   5
HETATM    5  C   UNL     1      -2.753   3.973 -32.680  1.00  0.00     0.035 A 
HETATM    6  C   UNL     1      -2.112   4.438 -31.527  1.00  0.00     0.042 A 
HETATM    7  C   UNL     1      -1.136   5.450 -31.592  1.00  0.00    -0.021 A 
HETATM    8  C   UNL     1      -0.821   5.999 -32.840  1.00  0.00     0.012 A 
HETATM    9  C   UNL     1      -1.459   5.547 -33.996  1.00  0.00     0.003 A 
HETATM   10  C   UNL     1      -2.417   4.537 -33.916  1.00  0.00     0.029 A 
BRANCH   7  11
HETATM   11  C   UNL     1      -0.460   5.926 -30.392  1.00  0.00     0.010 A 
HETATM   12  C   UNL     1      -0.411   7.214 -29.803  1.00  0.00     0.152 A 
HETATM   13  N   UNL     1       0.337   7.255 -28.696  1.00  0.00    -0.187 NA
HETATM   14  N   UNL     1       0.771   5.992 -28.567  1.00  0.00    -0.289 N 
HETATM   15  H   UNL     1       1.372   5.766 -27.782  1.00  0.00     0.188 HD
HETATM   16  C   UNL     1       0.328   5.162 -29.555  1.00  0.00     0.123 A 
ENDBRANCH   7  11
ENDBRANCH   2   5
BRANCH   1  17
HETATM   17  C   UNL     1      -4.970   0.933 -32.207  1.00  0.00     0.103 C 
BRANCH  17  18
HETATM   18  C   UNL     1      -4.638  -0.558 -32.213  1.00  0.00     0.014 C 
BRANCH  18  19
HETATM   19  C   UNL     1      -4.146  -1.025 -33.587  1.00  0.00     0.047 C 
BRANCH  19  20
HETATM   20  C   UNL     1      -4.914  -2.222 -34.073  1.00  0.00    -0.012 A 
HETATM   21  C   UNL     1      -6.211  -2.270 -34.563  1.00  0.00    -0.049 A 
HETATM   22  C   UNL     1      -7.126  -1.097 -34.709  1.00  0.00     0.049 C 
HETATM   23  C   UNL     1      -6.570  -3.609 -34.931  1.00  0.00     0.015 A 
HETATM   24  C   UNL     1      -5.557  -4.512 -34.707  1.00  0.00     0.051 A 
HETATM   25  S   UNL     1      -4.167  -3.765 -34.063  1.00  0.00    -0.106 SA
ENDBRANCH  19  20
ENDBRANCH  18  19
ENDBRANCH  17  18
ENDBRANCH   1  17
TORSDOF 6
ENDMDL
MODEL 5
REMARK VINA RESULT:      -7.5      1.650      2.051
REMARK  6 active torsions:
REMARK  status: ('A' for Active; 'I' for Inactive)
REMARK    1  A    between atoms: C_3  and  C_4 
REMARK    2  A    between atoms: C_4  and  C_5 
REMARK    3  A    between atoms: C_5  and  C_6 
REMARK    4  A    between atoms: C_6  and  C_7 
REMARK       I    between atoms: C_7  and  N_8 
REMARK    5  A    between atoms: N_8  and  C_9 
REMARK    6  A    between atoms: C_11  and  C_12 
ROOT
HETATM    1  C   UNL     1      -5.421   3.632 -33.362  1.00  0.00     0.222 C 
HETATM    2  N   UNL     1      -5.786   2.398 -32.852  1.00  0.00    -0.327 N 
HETATM    3  O   UNL     1      -5.419   3.963 -34.543  1.00  0.00    -0.273 OA
HETATM    4  H   UNL     1      -5.731   2.281 -31.848  1.00  0.00     0.169 HD
ENDROOT
BRANCH   2   5
HETATM    5  C   UNL     1      -6.245   1.272 -33.571  1.00  0.00     0.035 A 
HETATM    6  C   UNL     1      -5.604   0.029 -33.572  1.00  0.00     0.042 A 
HETATM    7  C   UNL     1      -6.118  -1.057 -34.304  1.00  0.00    -0.021 A 
HETATM    8  C   UNL     1      -7.288  -0.869 -35.051  1.00  0.00     0.012 A 
HETATM    9  C   UNL     1      -7.932   0.369 -35.061  1.00  0.00     0.003 A 
HETATM   10  C   UNL     1      -7.414   1.432 -34.322  1.00  0.00     0.029 A 
BRANCH   7  11
HETATM   11  C   UNL     1      -5.457  -2.355 -34.296  1.00  0.00     0.010 A 
HETATM   12  C   UNL     1      -5.875  -3.613 -34.798  1.00  0.00     0.152 A 
HETATM   13  N   UNL     1      -4.982  -4.584 -34.584  1.00  0.00    -0.187 NA
HETATM   14  N   UNL     1      -3.985  -3.954 -33.945  1.00  0.00    -0.289 N 
HETATM   15  H   UNL     1      -3.171  -4.493 -33.669  1.00  0.00     0.188 HD
HETATM   16  C   UNL     1      -4.221  -2.625 -33.745  1.00  0.00     0.123 A 
ENDBRANCH   7  11
ENDBRANCH   2   5
BRANCH   1  17
HETATM   17  C   UNL     1      -4.999   4.614 -32.280  1.00  0.00     0.103 C 
BRANCH  17  18
HETATM   18  C   UNL     1      -3.971   3.993 -31.336  1.00  0.00     0.014 C 
BRANCH  18  19
HETATM   19  C   UNL     1      -2.618   3.788 -32.028  1.00  0.00     0.047 C 
BRANCH  19  20
HETATM   20  C   UNL     1      -1.941   5.097 -32.320  1.00  0.00    -0.012 A 
HETATM   21  C   UNL     1      -1.646   5.656 -33.555  1.00  0.00    -0.049 A 
HETATM   22  C   UNL     1      -1.961   5.040 -34.881  1.00  0.00     0.049 C 
HETATM   23  C   UNL     1      -1.002   6.927 -33.402  1.00  0.00     0.015 A 
HETATM   24  C   UNL     1      -0.828   7.280 -32.084  1.00  0.00     0.051 A 
HETATM   25  S   UNL     1      -1.440   6.097 -31.021  1.00  0.00    -0.106 SA
ENDBRANCH  19  20
ENDBRANCH  18  19
ENDBRANCH  17  18
ENDBRANCH   1  17
TORSDOF 6
ENDMDL
MODEL 6
REMARK VINA RESULT:      -7.3     15.314     16.386
REMARK  6 active torsions:
REMARK  status: ('A' for Active; 'I' for Inactive)
REMARK    1  A    between atoms: C_3  and  C_4 
REMARK    2  A    between atoms: C_4  and  C_5 
REMARK    3  A    between atoms: C_5  and  C_6 
REMARK    4  A    between atoms: C_6  and  C_7 
REMARK       I    between atoms: C_7  and  N_8 
REMARK    5  A    between atoms: N_8  and  C_9 
REMARK    6  A    between atoms: C_11  and  C_12 
ROOT
HETATM    1  C   UNL     1      -4.486 -14.240 -37.050  1.00  0.00     0.222 C 
HETATM    2  N   UNL     1      -5.216 -13.092 -37.306  1.00  0.00    -0.327 N 
HETATM    3  O   UNL     1      -4.309 -15.179 -37.819  1.00  0.00    -0.273 OA
HETATM    4  H   UNL     1      -5.268 -12.405 -36.564  1.00  0.00     0.169 HD
ENDROOT
BRANCH   2   5
HETATM    5  C   UNL     1      -5.892 -12.751 -38.498  1.00  0.00     0.035 A 
HETATM    6  C   UNL     1      -7.263 -12.938 -38.702  1.00  0.00     0.042 A 
HETATM    7  C   UNL     1      -7.879 -12.569 -39.912  1.00  0.00    -0.021 A 
HETATM    8  C   UNL     1      -7.087 -12.017 -40.927  1.00  0.00     0.012 A 
HETATM    9  C   UNL     1      -5.717 -11.831 -40.736  1.00  0.00     0.003 A 
HETATM   10  C   UNL     1      -5.125 -12.193 -39.527  1.00  0.00     0.029 A 
BRANCH   7  11
HETATM   11  C   UNL     1      -9.309 -12.753 -40.120  1.00  0.00     0.010 A 
HETATM   12  C   UNL     1     -10.104 -13.927 -40.121  1.00  0.00     0.152 A 
HETATM   13  N   UNL     1     -11.395 -13.684 -40.368  1.00  0.00    -0.187 NA
HETATM   14  N   UNL     1     -11.436 -12.353 -40.525  1.00  0.00    -0.289 N 
HETATM   15  H   UNL     1     -12.331 -11.918 -40.725  1.00  0.00     0.188 HD
HETATM   16  C   UNL     1     -10.219 -11.752 -40.392  1.00  0.00     0.123 A 
ENDBRANCH   7  11
ENDBRANCH   2   5
BRANCH   1  17
HETATM   17  C   UNL     1      -3.876 -14.250 -35.658  1.00  0.00     0.103 C 
BRANCH  17  18
HETATM   18  C   UNL     1      -2.678 -15.195 -35.583  1.00  0.00     0.014 C 
BRANCH  18  19
HETATM   19  C   UNL     1      -1.359 -14.464 -35.855  1.00  0.00     0.047 C 
BRANCH  19  20
HETATM   20  C   UNL     1      -0.885 -14.682 -37.264  1.00  0.00    -0.012 A 
HETATM   21  C   UNL     1      -0.962 -13.812 -38.342  1.00  0.00    -0.049 A 
HETATM   22  C   UNL     1      -1.551 -12.439 -38.305  1.00  0.00     0.049 C 
HETATM   23  C   UNL     1      -0.386 -14.399 -39.516  1.00  0.00     0.015 A 
HETATM   24  C   UNL     1       0.094 -15.670 -39.296  1.00  0.00     0.051 A 
HETATM   25  S   UNL     1      -0.136 -16.166 -37.681  1.00  0.00    -0.106 SA
ENDBRANCH  19  20
ENDBRANCH  18  19
ENDBRANCH  17  18
ENDBRANCH   1  17
TORSDOF 6
ENDMDL
MODEL 7
REMARK VINA RESULT:      -7.2      1.540      2.293
REMARK  6 active torsions:
REMARK  status: ('A' for Active; 'I' for Inactive)
REMARK    1  A    between atoms: C_3  and  C_4 
REMARK    2  A    between atoms: C_4  and  C_5 
REMARK    3  A    between atoms: C_5  and  C_6 
REMARK    4  A    between atoms: C_6  and  C_7 
REMARK       I    between atoms: C_7  and  N_8 
REMARK    5  A    between atoms: N_8  and  C_9 
REMARK    6  A    between atoms: C_11  and  C_12 
ROOT
HETATM    1  C   UNL     1      -6.371   2.161 -32.156  1.00  0.00     0.222 C 
HETATM    2  N   UNL     1      -5.392   1.626 -32.975  1.00  0.00    -0.327 N 
HETATM    3  O   UNL     1      -6.978   1.576 -31.266  1.00  0.00    -0.273 OA
HETATM    4  H   UNL     1      -4.985   2.242 -33.668  1.00  0.00     0.169 HD
ENDROOT
BRANCH   2   5
HETATM    5  C   UNL     1      -4.875   0.312 -32.953  1.00  0.00     0.035 A 
HETATM    6  C   UNL     1      -5.467  -0.775 -33.605  1.00  0.00     0.042 A 
HETATM    7  C   UNL     1      -4.896  -2.059 -33.550  1.00  0.00    -0.021 A 
HETATM    8  C   UNL     1      -3.719  -2.239 -32.812  1.00  0.00     0.012 A 
HETATM    9  C   UNL     1      -3.124  -1.163 -32.152  1.00  0.00     0.003 A 
HETATM   10  C   UNL     1      -3.697   0.106 -32.226  1.00  0.00     0.029 A 
BRANCH   7  11
HETATM   11  C   UNL     1      -5.506  -3.188 -34.239  1.00  0.00     0.010 A 
HETATM   12  C   UNL     1      -4.985  -4.463 -34.576  1.00  0.00     0.152 A 
HETATM   13  N   UNL     1      -5.863  -5.230 -35.230  1.00  0.00    -0.187 NA
HETATM   14  N   UNL     1      -6.953  -4.453 -35.315  1.00  0.00    -0.289 N 
HETATM   15  H   UNL     1      -7.775  -4.823 -35.781  1.00  0.00     0.188 HD
HETATM   16  C   UNL     1      -6.790  -3.225 -34.744  1.00  0.00     0.123 A 
ENDBRANCH   7  11
ENDBRANCH   2   5
BRANCH   1  17
HETATM   17  C   UNL     1      -6.654   3.624 -32.457  1.00  0.00     0.103 C 
BRANCH  17  18
HETATM   18  C   UNL     1      -5.928   4.544 -31.477  1.00  0.00     0.014 C 
BRANCH  18  19
HETATM   19  C   UNL     1      -5.255   5.719 -32.195  1.00  0.00     0.047 C 
BRANCH  19  20
HETATM   20  C   UNL     1      -3.845   5.388 -32.598  1.00  0.00    -0.012 A 
HETATM   21  C   UNL     1      -3.360   5.089 -33.862  1.00  0.00    -0.049 A 
HETATM   22  C   UNL     1      -4.177   5.040 -35.114  1.00  0.00     0.049 C 
HETATM   23  C   UNL     1      -1.949   4.839 -33.824  1.00  0.00     0.015 A 
HETATM   24  C   UNL     1      -1.423   4.949 -32.558  1.00  0.00     0.051 A 
HETATM   25  S   UNL     1      -2.612   5.359 -31.407  1.00  0.00    -0.106 SA
ENDBRANCH  19  20
ENDBRANCH  18  19
ENDBRANCH  17  18
ENDBRANCH   1  17
TORSDOF 6
ENDMDL
MODEL 8
REMARK VINA RESULT:      -7.0      2.974      7.841
REMARK  6 active torsions:
REMARK  status: ('A' for Active; 'I' for Inactive)
REMARK    1  A    between atoms: C_3  and  C_4 
REMARK    2  A    between atoms: C_4  and  C_5 
REMARK    3  A    between atoms: C_5  and  C_6 
REMARK    4  A    between atoms: C_6  and  C_7 
REMARK       I    between atoms: C_7  and  N_8 
REMARK    5  A    between atoms: N_8  and  C_9 
REMARK    6  A    between atoms: C_11  and  C_12 
ROOT
HETATM    1  C   UNL     1      -7.506   2.226 -33.819  1.00  0.00     0.222 C 
HETATM    2  N   UNL     1      -6.274   2.053 -33.212  1.00  0.00    -0.327 N 
HETATM    3  O   UNL     1      -8.159   3.264 -33.863  1.00  0.00    -0.273 OA
HETATM    4  H   UNL     1      -5.863   1.129 -33.263  1.00  0.00     0.169 HD
ENDROOT
BRANCH   2   5
HETATM    5  C   UNL     1      -5.506   3.024 -32.533  1.00  0.00     0.035 A 
HETATM    6  C   UNL     1      -4.569   3.856 -33.154  1.00  0.00     0.042 A 
HETATM    7  C   UNL     1      -3.840   4.810 -32.420  1.00  0.00    -0.021 A 
HETATM    8  C   UNL     1      -4.059   4.907 -31.040  1.00  0.00     0.012 A 
HETATM    9  C   UNL     1      -4.987   4.077 -30.410  1.00  0.00     0.003 A 
HETATM   10  C   UNL     1      -5.709   3.144 -31.154  1.00  0.00     0.029 A 
BRANCH   7  11
HETATM   11  C   UNL     1      -2.872   5.685 -33.069  1.00  0.00     0.010 A 
HETATM   12  C   UNL     1      -2.026   5.468 -34.186  1.00  0.00     0.152 A 
HETATM   13  N   UNL     1      -1.259   6.524 -34.473  1.00  0.00    -0.187 NA
HETATM   14  N   UNL     1      -1.609   7.425 -33.544  1.00  0.00    -0.289 N 
HETATM   15  H   UNL     1      -1.153   8.331 -33.554  1.00  0.00     0.188 HD
HETATM   16  C   UNL     1      -2.563   6.972 -32.680  1.00  0.00     0.123 A 
ENDBRANCH   7  11
ENDBRANCH   2   5
BRANCH   1  17
HETATM   17  C   UNL     1      -8.021   0.956 -34.476  1.00  0.00     0.103 C 
BRANCH  17  18
HETATM   18  C   UNL     1      -6.885   0.160 -35.115  1.00  0.00     0.014 C 
BRANCH  18  19
HETATM   19  C   UNL     1      -7.143  -1.350 -35.050  1.00  0.00     0.047 C 
BRANCH  19  20
HETATM   20  C   UNL     1      -5.948  -2.093 -34.522  1.00  0.00    -0.012 A 
HETATM   21  C   UNL     1      -5.642  -3.439 -34.662  1.00  0.00    -0.049 A 
HETATM   22  C   UNL     1      -6.470  -4.443 -35.396  1.00  0.00     0.049 C 
HETATM   23  C   UNL     1      -4.401  -3.752 -34.015  1.00  0.00     0.015 A 
HETATM   24  C   UNL     1      -3.824  -2.658 -33.413  1.00  0.00     0.051 A 
HETATM   25  S   UNL     1      -4.757  -1.247 -33.624  1.00  0.00    -0.106 SA
ENDBRANCH  19  20
ENDBRANCH  18  19
ENDBRANCH  17  18
ENDBRANCH   1  17
TORSDOF 6
ENDMDL
MODEL 9
REMARK VINA RESULT:      -6.7      1.864      2.785
REMARK  6 active torsions:
REMARK  status: ('A' for Active; 'I' for Inactive)
REMARK    1  A    between atoms: C_3  and  C_4 
REMARK    2  A    between atoms: C_4  and  C_5 
REMARK    3  A    between atoms: C_5  and  C_6 
REMARK    4  A    between atoms: C_6  and  C_7 
REMARK       I    between atoms: C_7  and  N_8 
REMARK    5  A    between atoms: N_8  and  C_9 
REMARK    6  A    between atoms: C_11  and  C_12 
ROOT
HETATM    1  C   UNL     1      -6.316   3.510 -31.821  1.00  0.00     0.222 C 
HETATM    2  N   UNL     1      -5.405   2.906 -32.669  1.00  0.00    -0.327 N 
HETATM    3  O   UNL     1      -6.854   3.000 -30.844  1.00  0.00    -0.273 OA
HETATM    4  H   UNL     1      -5.051   3.463 -33.436  1.00  0.00     0.169 HD
ENDROOT
BRANCH   2   5
HETATM    5  C   UNL     1      -4.890   1.593 -32.585  1.00  0.00     0.035 A 
HETATM    6  C   UNL     1      -5.420   0.497 -33.274  1.00  0.00     0.042 A 
HETATM    7  C   UNL     1      -4.855  -0.785 -33.152  1.00  0.00    -0.021 A 
HETATM    8  C   UNL     1      -3.748  -0.954 -32.310  1.00  0.00     0.012 A 
HETATM    9  C   UNL     1      -3.216   0.132 -31.613  1.00  0.00     0.003 A 
HETATM   10  C   UNL     1      -3.782   1.398 -31.754  1.00  0.00     0.029 A 
BRANCH   7  11
HETATM   11  C   UNL     1      -5.401  -1.924 -33.879  1.00  0.00     0.010 A 
HETATM   12  C   UNL     1      -6.733  -2.242 -34.242  1.00  0.00     0.152 A 
HETATM   13  N   UNL     1      -6.833  -3.400 -34.902  1.00  0.00    -0.187 NA
HETATM   14  N   UNL     1      -5.564  -3.831 -34.968  1.00  0.00    -0.289 N 
HETATM   15  H   UNL     1      -5.377  -4.712 -35.435  1.00  0.00     0.188 HD
HETATM   16  C   UNL     1      -4.673  -2.989 -34.369  1.00  0.00     0.123 A 
ENDBRANCH   7  11
ENDBRANCH   2   5
BRANCH   1  17
HETATM   17  C   UNL     1      -6.619   4.948 -32.212  1.00  0.00     0.103 C 
BRANCH  17  18
HETATM   18  C   UNL     1      -5.567   5.495 -33.175  1.00  0.00     0.014 C 
BRANCH  18  19
HETATM   19  C   UNL     1      -4.575   6.423 -32.464  1.00  0.00     0.047 C 
BRANCH  19  20
HETATM   20  C   UNL     1      -3.224   6.397 -33.122  1.00  0.00    -0.012 A 
HETATM   21  C   UNL     1      -2.127   7.207 -32.866  1.00  0.00    -0.049 A 
HETATM   22  C   UNL     1      -2.077   8.298 -31.845  1.00  0.00     0.049 C 
HETATM   23  C   UNL     1      -1.022   6.853 -33.707  1.00  0.00     0.015 A 
HETATM   24  C   UNL     1      -1.312   5.813 -34.560  1.00  0.00     0.051 A 
HETATM   25  S   UNL     1      -2.908   5.248 -34.354  1.00  0.00    -0.106 SA
ENDBRANCH  19  20
ENDBRANCH  18  19
ENDBRANCH  17  18
ENDBRANCH   1  17
TORSDOF 6
ENDMDL
MODEL 10
REMARK VINA RESULT:      -6.6      1.916      2.434
REMARK  6 active torsions:
REMARK  status: ('A' for Active; 'I' for Inactive)
REMARK    1  A    between atoms: C_3  and  C_4 
REMARK    2  A    between atoms: C_4  and  C_5 
REMARK    3  A    between atoms: C_5  and  C_6 
REMARK    4  A    between atoms: C_6  and  C_7 
REMARK       I    between atoms: C_7  and  N_8 
REMARK    5  A    between atoms: N_8  and  C_9 
REMARK    6  A    between atoms: C_11  and  C_12 
ROOT
HETATM    1  C   UNL     1      -6.004   3.758 -31.490  1.00  0.00     0.222 C 
HETATM    2  N   UNL     1      -6.332   2.477 -31.080  1.00  0.00    -0.327 N 
HETATM    3  O   UNL     1      -6.165   4.230 -32.610  1.00  0.00    -0.273 OA
HETATM    4  H   UNL     1      -6.134   2.238 -30.117  1.00  0.00     0.169 HD
ENDROOT
BRANCH   2   5
HETATM    5  C   UNL     1      -6.930   1.455 -31.850  1.00  0.00     0.035 A 
HETATM    6  C   UNL     1      -6.217   0.431 -32.483  1.00  0.00     0.042 A 
HETATM    7  C   UNL     1      -6.875  -0.563 -33.230  1.00  0.00    -0.021 A 
HETATM    8  C   UNL     1      -8.270  -0.506 -33.341  1.00  0.00     0.012 A 
HETATM    9  C   UNL     1      -8.990   0.514 -32.718  1.00  0.00     0.003 A 
HETATM   10  C   UNL     1      -8.323   1.486 -31.974  1.00  0.00     0.029 A 
BRANCH   7  11
HETATM   11  C   UNL     1      -6.133  -1.635 -33.880  1.00  0.00     0.010 A 
HETATM   12  C   UNL     1      -4.745  -1.922 -33.904  1.00  0.00     0.152 A 
HETATM   13  N   UNL     1      -4.447  -3.002 -34.634  1.00  0.00    -0.187 NA
HETATM   14  N   UNL     1      -5.643  -3.415 -35.081  1.00  0.00    -0.289 N 
HETATM   15  H   UNL     1      -5.679  -4.239 -35.671  1.00  0.00     0.188 HD
HETATM   16  C   UNL     1      -6.679  -2.632 -34.664  1.00  0.00     0.123 A 
ENDBRANCH   7  11
ENDBRANCH   2   5
BRANCH   1  17
HETATM   17  C   UNL     1      -5.394   4.593 -30.375  1.00  0.00     0.103 C 
BRANCH  17  18
HETATM   18  C   UNL     1      -4.666   5.816 -30.932  1.00  0.00     0.014 C 
BRANCH  18  19
HETATM   19  C   UNL     1      -3.144   5.640 -30.884  1.00  0.00     0.047 C 
BRANCH  19  20
HETATM   20  C   UNL     1      -2.539   5.681 -32.260  1.00  0.00    -0.012 A 
HETATM   21  C   UNL     1      -1.926   6.749 -32.897  1.00  0.00    -0.049 A 
HETATM   22  C   UNL     1      -1.739   8.114 -32.316  1.00  0.00     0.049 C 
HETATM   23  C   UNL     1      -1.472   6.373 -34.204  1.00  0.00     0.015 A 
HETATM   24  C   UNL     1      -1.756   5.062 -34.510  1.00  0.00     0.051 A 
HETATM   25  S   UNL     1      -2.560   4.270 -33.233  1.00  0.00    -0.106 SA
ENDBRANCH  19  20
ENDBRANCH  18  19
ENDBRANCH  17  18
ENDBRANCH   1  17
TORSDOF 6
ENDMDL
