MODEL 1
REMARK VINA RESULT:     -10.1      0.000      0.000
REMARK  8 active torsions:
REMARK  status: ('A' for Active; 'I' for Inactive)
REMARK    1  A    between atoms: C_2  and  C_3 
REMARK    2  A    between atoms: C_6  and  N_7 
REMARK       I    between atoms: N_7  and  C_8 
REMARK    3  A    between atoms: C_8  and  C_9 
REMARK    4  A    between atoms: C_9  and  S_10 
REMARK    5  A    between atoms: S_10  and  C_11 
REMARK    6  A    between atoms: C_23  and  C_24 
REMARK    7  A    between atoms: C_24  and  C_25 
REMARK       I    between atoms: C_25  and  N_26 
REMARK    8  A    between atoms: N_26  and  C_27 
ROOT
HETATM    1  C   UNL     1      -4.474   5.465 -30.640  1.00  0.00     0.178 C 
HETATM    2  N   UNL     1      -3.206   5.670 -31.158  1.00  0.00    -0.241 N 
HETATM    3  C   UNL     1      -2.711   6.920 -31.342  1.00  0.00     0.147 C 
HETATM    4  N   UNL     1      -1.580   7.036 -31.970  1.00  0.00    -0.256 NA
HETATM    5  C   UNL     1      -3.484   8.039 -30.800  1.00  0.00     0.039 A 
HETATM    6  C   UNL     1      -4.705   7.725 -30.192  1.00  0.00     0.073 A 
HETATM    7  C   UNL     1      -2.994   9.347 -30.830  1.00  0.00     0.018 A 
HETATM    8  C   UNL     1      -3.738  10.366 -30.237  1.00  0.00     0.001 A 
HETATM    9  C   UNL     1      -4.954  10.071 -29.619  1.00  0.00     0.002 A 
HETATM   10  C   UNL     1      -5.433   8.758 -29.598  1.00  0.00     0.032 A 
HETATM   11  C   UNL     1      -2.244   4.779 -31.574  1.00  0.00     0.257 C 
HETATM   12  O   UNL     1      -2.184   3.573 -31.397  1.00  0.00    -0.270 OA
HETATM   13  C   UNL     1      -1.167   5.625 -32.228  1.00  0.00     0.211 C 
HETATM   14  N   UNL     1      -5.222   6.415 -30.171  1.00  0.00    -0.223 NA
ENDROOT
BRANCH   1  15
HETATM   15  S   UNL     1      -5.169   3.867 -30.706  1.00  0.00    -0.082 SA
BRANCH  15  16
HETATM   16  C   UNL     1      -6.256   4.072 -32.138  1.00  0.00     0.185 C 
BRANCH  16  17
HETATM   17  C   UNL     1      -6.300   2.867 -33.069  1.00  0.00     0.231 C 
HETATM   18  N   UNL     1      -6.559   1.660 -32.450  1.00  0.00    -0.327 N 
HETATM   19  H   UNL     1      -6.852   1.706 -31.475  1.00  0.00     0.169 HD
HETATM   20  O   UNL     1      -6.021   3.014 -34.258  1.00  0.00    -0.272 OA
BRANCH  18  21
HETATM   21  C   UNL     1      -6.394   0.364 -32.975  1.00  0.00     0.034 A 
HETATM   22  C   UNL     1      -7.356  -0.298 -33.735  1.00  0.00     0.030 A 
HETATM   23  C   UNL     1      -7.059  -1.524 -34.342  1.00  0.00     0.010 A 
HETATM   24  C   UNL     1      -5.798  -2.116 -34.193  1.00  0.00    -0.055 A 
HETATM   25  C   UNL     1      -4.855  -1.474 -33.384  1.00  0.00     0.010 A 
HETATM   26  C   UNL     1      -5.154  -0.250 -32.778  1.00  0.00     0.030 A 
BRANCH  24  27
HETATM   27  C   UNL     1      -5.417  -3.384 -34.936  1.00  0.00     0.010 C 
HETATM   28  C   UNL     1      -6.648  -4.276 -35.125  1.00  0.00     0.015 C 
HETATM   29  C   UNL     1      -4.285  -4.158 -34.256  1.00  0.00     0.015 C 
ENDBRANCH  24  27
ENDBRANCH  18  21
ENDBRANCH  16  17
ENDBRANCH  15  16
ENDBRANCH   1  15
BRANCH  13  30
HETATM   30  C   UNL     1       0.216   5.398 -31.634  1.00  0.00     0.140 C 
BRANCH  30  31
HETATM   31  C   UNL     1       0.265   5.254 -30.121  1.00  0.00     0.220 C 
HETATM   32  N   UNL     1      -0.140   6.347 -29.393  1.00  0.00    -0.356 N 
HETATM   33  H   UNL     1      -0.889   6.880 -29.823  1.00  0.00     0.162 HD
HETATM   34  O   UNL     1       0.668   4.210 -29.612  1.00  0.00    -0.274 OA
BRANCH  32  35
HETATM   35  C   UNL     1      -0.083   6.436 -27.932  1.00  0.00     0.084 C 
HETATM   36  C   UNL     1       1.214   7.066 -27.391  1.00  0.00     0.025 C 
HETATM   37  C   UNL     1       1.362   8.531 -27.796  1.00  0.00     0.002 C 
HETATM   38  C   UNL     1       0.156   9.355 -27.358  1.00  0.00     0.000 C 
HETATM   39  C   UNL     1      -1.160   8.744 -27.832  1.00  0.00     0.002 C 
HETATM   40  C   UNL     1      -1.281   7.267 -27.438  1.00  0.00     0.025 C 
ENDBRANCH  32  35
ENDBRANCH  30  31
ENDBRANCH  13  30
TORSDOF 8
ENDMDL
MODEL 2
REMARK VINA RESULT:     -10.1      3.449     11.209
REMARK  8 active torsions:
REMARK  status: ('A' for Active; 'I' for Inactive)
REMARK    1  A    between atoms: C_2  and  C_3 
REMARK    2  A    between atoms: C_6  and  N_7 
REMARK       I    between atoms: N_7  and  C_8 
REMARK    3  A    between atoms: C_8  and  C_9 
REMARK    4  A    between atoms: C_9  and  S_10 
REMARK    5  A    between atoms: S_10  and  C_11 
REMARK    6  A    between atoms: C_23  and  C_24 
REMARK    7  A    between atoms: C_24  and  C_25 
REMARK       I    between atoms: C_25  and  N_26 
REMARK    8  A    between atoms: N_26  and  C_27 
ROOT
HETATM    1  C   UNL     1      -4.583   1.270 -32.326  1.00  0.00     0.178 C 
HETATM    2  N   UNL     1      -5.857   1.590 -32.767  1.00  0.00    -0.241 N 
HETATM    3  C   UNL     1      -6.522   0.794 -33.643  1.00  0.00     0.147 C 
HETATM    4  N   UNL     1      -7.645   1.234 -34.125  1.00  0.00    -0.256 NA
HETATM    5  C   UNL     1      -5.929  -0.506 -33.958  1.00  0.00     0.039 A 
HETATM    6  C   UNL     1      -4.689  -0.792 -33.375  1.00  0.00     0.073 A 
HETATM    7  C   UNL     1      -6.602  -1.443 -34.747  1.00  0.00     0.018 A 
HETATM    8  C   UNL     1      -6.025  -2.694 -34.959  1.00  0.00     0.001 A 
HETATM    9  C   UNL     1      -4.792  -2.998 -34.381  1.00  0.00     0.002 A 
HETATM   10  C   UNL     1      -4.129  -2.052 -33.594  1.00  0.00     0.032 A 
HETATM   11  C   UNL     1      -6.672   2.660 -32.479  1.00  0.00     0.257 C 
HETATM   12  O   UNL     1      -6.562   3.495 -31.596  1.00  0.00    -0.270 OA
HETATM   13  C   UNL     1      -7.845   2.541 -33.433  1.00  0.00     0.211 C 
HETATM   14  N   UNL     1      -3.989   0.148 -32.594  1.00  0.00    -0.223 NA
ENDROOT
BRANCH   1  15
HETATM   15  S   UNL     1      -3.664   2.465 -31.449  1.00  0.00    -0.082 SA
BRANCH  15  16
HETATM   16  C   UNL     1      -3.066   3.459 -32.836  1.00  0.00     0.185 C 
BRANCH  16  17
HETATM   17  C   UNL     1      -2.009   4.490 -32.458  1.00  0.00     0.231 C 
HETATM   18  N   UNL     1      -1.732   4.575 -31.108  1.00  0.00    -0.327 N 
HETATM   19  H   UNL     1      -2.130   3.846 -30.519  1.00  0.00     0.169 HD
HETATM   20  O   UNL     1      -1.547   5.226 -33.329  1.00  0.00    -0.272 OA
BRANCH  18  21
HETATM   21  C   UNL     1      -1.030   5.590 -30.430  1.00  0.00     0.034 A 
HETATM   22  C   UNL     1      -1.458   6.914 -30.350  1.00  0.00     0.030 A 
HETATM   23  C   UNL     1      -0.779   7.829 -29.536  1.00  0.00     0.010 A 
HETATM   24  C   UNL     1       0.345   7.441 -28.795  1.00  0.00    -0.055 A 
HETATM   25  C   UNL     1       0.801   6.125 -28.923  1.00  0.00     0.010 A 
HETATM   26  C   UNL     1       0.123   5.213 -29.737  1.00  0.00     0.030 A 
BRANCH  24  27
HETATM   27  C   UNL     1       1.024   8.384 -27.819  1.00  0.00     0.010 C 
HETATM   28  C   UNL     1       1.603   7.596 -26.639  1.00  0.00     0.015 C 
HETATM   29  C   UNL     1       0.103   9.502 -27.326  1.00  0.00     0.015 C 
ENDBRANCH  24  27
ENDBRANCH  18  21
ENDBRANCH  16  17
ENDBRANCH  15  16
ENDBRANCH   1  15
BRANCH  13  30
HETATM   30  C   UNL     1      -9.193   2.525 -32.727  1.00  0.00     0.140 C 
BRANCH  30  31
HETATM   31  C   UNL     1     -10.348   3.145 -33.499  1.00  0.00     0.220 C 
HETATM   32  N   UNL     1     -11.567   2.525 -33.369  1.00  0.00    -0.356 N 
HETATM   33  H   UNL     1     -11.735   2.121 -32.453  1.00  0.00     0.162 HD
HETATM   34  O   UNL     1     -10.160   4.133 -34.204  1.00  0.00    -0.274 OA
BRANCH  32  35
HETATM   35  C   UNL     1     -12.776   2.916 -34.099  1.00  0.00     0.084 C 
HETATM   36  C   UNL     1     -13.652   1.731 -34.545  1.00  0.00     0.025 C 
HETATM   37  C   UNL     1     -14.239   0.964 -33.363  1.00  0.00     0.002 C 
HETATM   38  C   UNL     1     -15.032   1.883 -32.440  1.00  0.00     0.000 C 
HETATM   39  C   UNL     1     -14.220   3.101 -32.006  1.00  0.00     0.002 C 
HETATM   40  C   UNL     1     -13.618   3.844 -33.204  1.00  0.00     0.025 C 
ENDBRANCH  32  35
ENDBRANCH  30  31
ENDBRANCH  13  30
TORSDOF 8
ENDMDL
MODEL 3
REMARK VINA RESULT:      -9.9      2.316      4.507
REMARK  8 active torsions:
REMARK  status: ('A' for Active; 'I' for Inactive)
REMARK    1  A    between atoms: C_2  and  C_3 
REMARK    2  A    between atoms: C_6  and  N_7 
REMARK       I    between atoms: N_7  and  C_8 
REMARK    3  A    between atoms: C_8  and  C_9 
REMARK    4  A    between atoms: C_9  and  S_10 
REMARK    5  A    between atoms: S_10  and  C_11 
REMARK    6  A    between atoms: C_23  and  C_24 
REMARK    7  A    between atoms: C_24  and  C_25 
REMARK       I    between atoms: C_25  and  N_26 
REMARK    8  A    between atoms: N_26  and  C_27 
ROOT
HETATM    1  C   UNL     1      -7.047   3.450 -30.743  1.00  0.00     0.178 C 
HETATM    2  N   UNL     1      -5.967   4.302 -30.906  1.00  0.00    -0.241 N 
HETATM    3  C   UNL     1      -4.696   3.830 -30.961  1.00  0.00     0.147 C 
HETATM    4  N   UNL     1      -3.729   4.697 -30.963  1.00  0.00    -0.256 NA
HETATM    5  C   UNL     1      -4.518   2.379 -31.035  1.00  0.00     0.039 A 
HETATM    6  C   UNL     1      -5.677   1.597 -30.976  1.00  0.00     0.073 A 
HETATM    7  C   UNL     1      -3.256   1.807 -31.222  1.00  0.00     0.018 A 
HETATM    8  C   UNL     1      -3.149   0.424 -31.356  1.00  0.00     0.001 A 
HETATM    9  C   UNL     1      -4.296  -0.370 -31.307  1.00  0.00     0.002 A 
HETATM   10  C   UNL     1      -5.551   0.215 -31.119  1.00  0.00     0.032 A 
HETATM   11  C   UNL     1      -5.905   5.671 -31.030  1.00  0.00     0.257 C 
HETATM   12  O   UNL     1      -6.807   6.467 -31.239  1.00  0.00    -0.270 OA
HETATM   13  C   UNL     1      -4.429   6.015 -30.968  1.00  0.00     0.211 C 
HETATM   14  N   UNL     1      -6.953   2.157 -30.769  1.00  0.00    -0.223 NA
ENDROOT
BRANCH   1  15
HETATM   15  S   UNL     1      -8.613   4.126 -30.379  1.00  0.00    -0.082 SA
BRANCH  15  16
HETATM   16  C   UNL     1      -9.259   4.306 -32.060  1.00  0.00     0.185 C 
BRANCH  16  17
HETATM   17  C   UNL     1      -8.583   3.408 -33.089  1.00  0.00     0.231 C 
HETATM   18  N   UNL     1      -8.969   2.083 -33.051  1.00  0.00    -0.327 N 
HETATM   19  H   UNL     1      -9.769   1.862 -32.462  1.00  0.00     0.169 HD
HETATM   20  O   UNL     1      -7.699   3.874 -33.806  1.00  0.00    -0.272 OA
BRANCH  18  21
HETATM   21  C   UNL     1      -8.343   0.981 -33.666  1.00  0.00     0.034 A 
HETATM   22  C   UNL     1      -7.564   1.069 -34.818  1.00  0.00     0.030 A 
HETATM   23  C   UNL     1      -6.859  -0.047 -35.283  1.00  0.00     0.010 A 
HETATM   24  C   UNL     1      -6.927  -1.275 -34.612  1.00  0.00    -0.055 A 
HETATM   25  C   UNL     1      -7.754  -1.371 -33.488  1.00  0.00     0.010 A 
HETATM   26  C   UNL     1      -8.459  -0.256 -33.026  1.00  0.00     0.030 A 
BRANCH  24  27
HETATM   27  C   UNL     1      -6.081  -2.464 -35.031  1.00  0.00     0.010 C 
HETATM   28  C   UNL     1      -6.852  -3.768 -34.800  1.00  0.00     0.015 C 
HETATM   29  C   UNL     1      -4.720  -2.506 -34.333  1.00  0.00     0.015 C 
ENDBRANCH  24  27
ENDBRANCH  18  21
ENDBRANCH  16  17
ENDBRANCH  15  16
ENDBRANCH   1  15
BRANCH  13  30
HETATM   30  C   UNL     1      -3.951   6.824 -32.165  1.00  0.00     0.140 C 
BRANCH  30  31
HETATM   31  C   UNL     1      -2.531   7.361 -32.071  1.00  0.00     0.220 C 
HETATM   32  N   UNL     1      -1.845   7.064 -30.919  1.00  0.00    -0.356 N 
HETATM   33  H   UNL     1      -2.066   6.156 -30.523  1.00  0.00     0.162 HD
HETATM   34  O   UNL     1      -2.063   8.034 -32.987  1.00  0.00    -0.274 OA
BRANCH  32  35
HETATM   35  C   UNL     1      -0.504   7.562 -30.603  1.00  0.00     0.084 C 
HETATM   36  C   UNL     1      -0.203   7.647 -29.095  1.00  0.00     0.025 C 
HETATM   37  C   UNL     1      -0.189   6.274 -28.427  1.00  0.00     0.002 C 
HETATM   38  C   UNL     1       0.801   5.333 -29.106  1.00  0.00     0.000 C 
HETATM   39  C   UNL     1       0.573   5.252 -30.614  1.00  0.00     0.002 C 
HETATM   40  C   UNL     1       0.537   6.640 -31.264  1.00  0.00     0.025 C 
ENDBRANCH  32  35
ENDBRANCH  30  31
ENDBRANCH  13  30
TORSDOF 8
ENDMDL
MODEL 4
REMARK VINA RESULT:      -9.8      2.110     10.024
REMARK  8 active torsions:
REMARK  status: ('A' for Active; 'I' for Inactive)
REMARK    1  A    between atoms: C_2  and  C_3 
REMARK    2  A    between atoms: C_6  and  N_7 
REMARK       I    between atoms: N_7  and  C_8 
REMARK    3  A    between atoms: C_8  and  C_9 
REMARK    4  A    between atoms: C_9  and  S_10 
REMARK    5  A    between atoms: S_10  and  C_11 
REMARK    6  A    between atoms: C_23  and  C_24 
REMARK    7  A    between atoms: C_24  and  C_25 
REMARK       I    between atoms: C_25  and  N_26 
REMARK    8  A    between atoms: N_26  and  C_27 
ROOT
HETATM    1  C   UNL     1      -6.367   3.541 -31.943  1.00  0.00     0.178 C 
HETATM    2  N   UNL     1      -5.929   2.297 -31.518  1.00  0.00    -0.241 N 
HETATM    3  C   UNL     1      -6.703   1.191 -31.653  1.00  0.00     0.147 C 
HETATM    4  N   UNL     1      -6.289   0.093 -31.097  1.00  0.00    -0.256 NA
HETATM    5  C   UNL     1      -7.935   1.321 -32.433  1.00  0.00     0.039 A 
HETATM    6  C   UNL     1      -8.242   2.596 -32.921  1.00  0.00     0.073 A 
HETATM    7  C   UNL     1      -8.729   0.210 -32.732  1.00  0.00     0.018 A 
HETATM    8  C   UNL     1      -9.855   0.376 -33.538  1.00  0.00     0.001 A 
HETATM    9  C   UNL     1     -10.171   1.639 -34.039  1.00  0.00     0.002 A 
HETATM   10  C   UNL     1      -9.369   2.741 -33.731  1.00  0.00     0.032 A 
HETATM   11  C   UNL     1      -4.753   1.909 -30.919  1.00  0.00     0.257 C 
HETATM   12  O   UNL     1      -3.708   2.528 -30.800  1.00  0.00    -0.270 OA
HETATM   13  C   UNL     1      -4.966   0.463 -30.514  1.00  0.00     0.211 C 
HETATM   14  N   UNL     1      -7.462   3.728 -32.612  1.00  0.00    -0.223 NA
ENDROOT
BRANCH   1  15
HETATM   15  S   UNL     1      -5.469   4.962 -31.477  1.00  0.00    -0.082 SA
BRANCH  15  16
HETATM   16  C   UNL     1      -4.193   4.942 -32.760  1.00  0.00     0.185 C 
BRANCH  16  17
HETATM   17  C   UNL     1      -2.908   5.666 -32.376  1.00  0.00     0.231 C 
HETATM   18  N   UNL     1      -2.558   5.568 -31.044  1.00  0.00    -0.327 N 
HETATM   19  H   UNL     1      -3.088   4.902 -30.485  1.00  0.00     0.169 HD
HETATM   20  O   UNL     1      -2.327   6.348 -33.218  1.00  0.00    -0.272 OA
BRANCH  18  21
HETATM   21  C   UNL     1      -1.607   6.332 -30.339  1.00  0.00     0.034 A 
HETATM   22  C   UNL     1      -1.880   7.565 -29.751  1.00  0.00     0.030 A 
HETATM   23  C   UNL     1      -0.921   8.192 -28.946  1.00  0.00     0.010 A 
HETATM   24  C   UNL     1       0.330   7.604 -28.722  1.00  0.00    -0.055 A 
HETATM   25  C   UNL     1       0.618   6.394 -29.361  1.00  0.00     0.010 A 
HETATM   26  C   UNL     1      -0.340   5.769 -30.165  1.00  0.00     0.030 A 
BRANCH  24  27
HETATM   27  C   UNL     1       1.339   8.209 -27.762  1.00  0.00     0.010 C 
HETATM   28  C   UNL     1       1.426   7.365 -26.487  1.00  0.00     0.015 C 
HETATM   29  C   UNL     1       1.043   9.672 -27.426  1.00  0.00     0.015 C 
ENDBRANCH  24  27
ENDBRANCH  18  21
ENDBRANCH  16  17
ENDBRANCH  15  16
ENDBRANCH   1  15
BRANCH  13  30
HETATM   30  C   UNL     1      -3.903  -0.477 -31.065  1.00  0.00     0.140 C 
BRANCH  30  31
HETATM   31  C   UNL     1      -3.881  -0.629 -32.578  1.00  0.00     0.220 C 
HETATM   32  N   UNL     1      -4.822  -1.472 -33.118  1.00  0.00    -0.356 N 
HETATM   33  H   UNL     1      -5.709  -1.478 -32.625  1.00  0.00     0.162 HD
HETATM   34  O   UNL     1      -3.043  -0.029 -33.247  1.00  0.00    -0.274 OA
BRANCH  32  35
HETATM   35  C   UNL     1      -4.906  -1.817 -34.539  1.00  0.00     0.084 C 
HETATM   36  C   UNL     1      -4.365  -3.218 -34.880  1.00  0.00     0.025 C 
HETATM   37  C   UNL     1      -5.193  -4.331 -34.242  1.00  0.00     0.002 C 
HETATM   38  C   UNL     1      -6.664  -4.227 -34.634  1.00  0.00     0.000 C 
HETATM   39  C   UNL     1      -7.234  -2.838 -34.358  1.00  0.00     0.002 C 
HETATM   40  C   UNL     1      -6.377  -1.732 -34.984  1.00  0.00     0.025 C 
ENDBRANCH  32  35
ENDBRANCH  30  31
ENDBRANCH  13  30
TORSDOF 8
ENDMDL
MODEL 5
REMARK VINA RESULT:      -9.7      2.070      3.540
REMARK  8 active torsions:
REMARK  status: ('A' for Active; 'I' for Inactive)
REMARK    1  A    between atoms: C_2  and  C_3 
REMARK    2  A    between atoms: C_6  and  N_7 
REMARK       I    between atoms: N_7  and  C_8 
REMARK    3  A    between atoms: C_8  and  C_9 
REMARK    4  A    between atoms: C_9  and  S_10 
REMARK    5  A    between atoms: S_10  and  C_11 
REMARK    6  A    between atoms: C_23  and  C_24 
REMARK    7  A    between atoms: C_24  and  C_25 
REMARK       I    between atoms: C_25  and  N_26 
REMARK    8  A    between atoms: N_26  and  C_27 
ROOT
HETATM    1  C   UNL     1      -5.733   5.602 -32.542  1.00  0.00     0.178 C 
HETATM    2  N   UNL     1      -5.087   6.021 -31.390  1.00  0.00    -0.241 N 
HETATM    3  C   UNL     1      -3.733   6.031 -31.303  1.00  0.00     0.147 C 
HETATM    4  N   UNL     1      -3.205   6.292 -30.146  1.00  0.00    -0.256 NA
HETATM    5  C   UNL     1      -2.976   5.767 -32.527  1.00  0.00     0.039 A 
HETATM    6  C   UNL     1      -3.718   5.461 -33.675  1.00  0.00     0.073 A 
HETATM    7  C   UNL     1      -1.583   5.880 -32.563  1.00  0.00     0.018 A 
HETATM    8  C   UNL     1      -0.916   5.687 -33.772  1.00  0.00     0.001 A 
HETATM    9  C   UNL     1      -1.640   5.389 -34.926  1.00  0.00     0.002 A 
HETATM   10  C   UNL     1      -3.032   5.277 -34.876  1.00  0.00     0.032 A 
HETATM   11  C   UNL     1      -5.583   6.470 -30.189  1.00  0.00     0.257 C 
HETATM   12  O   UNL     1      -6.719   6.813 -29.904  1.00  0.00    -0.270 OA
HETATM   13  C   UNL     1      -4.380   6.572 -29.269  1.00  0.00     0.211 C 
HETATM   14  N   UNL     1      -5.120   5.324 -33.651  1.00  0.00    -0.223 NA
ENDROOT
BRANCH   1  15
HETATM   15  S   UNL     1      -7.454   5.324 -32.496  1.00  0.00    -0.082 SA
BRANCH  15  16
HETATM   16  C   UNL     1      -7.468   3.639 -31.838  1.00  0.00     0.185 C 
BRANCH  16  17
HETATM   17  C   UNL     1      -7.292   2.554 -32.893  1.00  0.00     0.231 C 
HETATM   18  N   UNL     1      -6.972   1.305 -32.398  1.00  0.00    -0.327 N 
HETATM   19  H   UNL     1      -7.040   1.188 -31.389  1.00  0.00     0.169 HD
HETATM   20  O   UNL     1      -7.351   2.856 -34.084  1.00  0.00    -0.272 OA
BRANCH  18  21
HETATM   21  C   UNL     1      -6.485   0.191 -33.109  1.00  0.00     0.034 A 
HETATM   22  C   UNL     1      -5.143  -0.179 -33.155  1.00  0.00     0.030 A 
HETATM   23  C   UNL     1      -4.760  -1.381 -33.763  1.00  0.00     0.010 A 
HETATM   24  C   UNL     1      -5.710  -2.230 -34.346  1.00  0.00    -0.055 A 
HETATM   25  C   UNL     1      -7.049  -1.826 -34.345  1.00  0.00     0.010 A 
HETATM   26  C   UNL     1      -7.430  -0.625 -33.738  1.00  0.00     0.030 A 
BRANCH  24  27
HETATM   27  C   UNL     1      -5.332  -3.589 -34.906  1.00  0.00     0.010 C 
HETATM   28  C   UNL     1      -6.575  -4.477 -35.022  1.00  0.00     0.015 C 
HETATM   29  C   UNL     1      -4.239  -4.289 -34.095  1.00  0.00     0.015 C 
ENDBRANCH  24  27
ENDBRANCH  18  21
ENDBRANCH  16  17
ENDBRANCH  15  16
ENDBRANCH   1  15
BRANCH  13  30
HETATM   30  C   UNL     1      -4.215   7.952 -28.648  1.00  0.00     0.140 C 
BRANCH  30  31
HETATM   31  C   UNL     1      -2.919   8.673 -28.983  1.00  0.00     0.220 C 
HETATM   32  N   UNL     1      -1.785   8.202 -28.366  1.00  0.00    -0.356 N 
HETATM   33  H   UNL     1      -1.777   7.198 -28.215  1.00  0.00     0.162 HD
HETATM   34  O   UNL     1      -2.925   9.630 -29.754  1.00  0.00    -0.274 OA
BRANCH  32  35
HETATM   35  C   UNL     1      -0.460   8.815 -28.490  1.00  0.00     0.084 C 
HETATM   36  C   UNL     1       0.051   9.476 -27.197  1.00  0.00     0.025 C 
HETATM   37  C   UNL     1       0.282   8.463 -26.078  1.00  0.00     0.002 C 
HETATM   38  C   UNL     1       1.238   7.358 -26.514  1.00  0.00     0.000 C 
HETATM   39  C   UNL     1       0.798   6.701 -27.820  1.00  0.00     0.002 C 
HETATM   40  C   UNL     1       0.547   7.734 -28.925  1.00  0.00     0.025 C 
ENDBRANCH  32  35
ENDBRANCH  30  31
ENDBRANCH  13  30
TORSDOF 8
ENDMDL
MODEL 6
REMARK VINA RESULT:      -9.4      6.515     10.569
REMARK  8 active torsions:
REMARK  status: ('A' for Active; 'I' for Inactive)
REMARK    1  A    between atoms: C_2  and  C_3 
REMARK    2  A    between atoms: C_6  and  N_7 
REMARK       I    between atoms: N_7  and  C_8 
REMARK    3  A    between atoms: C_8  and  C_9 
REMARK    4  A    between atoms: C_9  and  S_10 
REMARK    5  A    between atoms: S_10  and  C_11 
REMARK    6  A    between atoms: C_23  and  C_24 
REMARK    7  A    between atoms: C_24  and  C_25 
REMARK       I    between atoms: C_25  and  N_26 
REMARK    8  A    between atoms: N_26  and  C_27 
ROOT
HETATM    1  C   UNL     1      -9.890   3.073 -33.629  1.00  0.00     0.178 C 
HETATM    2  N   UNL     1     -10.837   3.870 -34.250  1.00  0.00    -0.241 N 
HETATM    3  C   UNL     1     -12.002   3.352 -34.715  1.00  0.00     0.147 C 
HETATM    4  N   UNL     1     -12.770   4.129 -35.417  1.00  0.00    -0.256 NA
HETATM    5  C   UNL     1     -12.308   1.963 -34.370  1.00  0.00     0.039 A 
HETATM    6  C   UNL     1     -11.338   1.266 -33.640  1.00  0.00     0.073 A 
HETATM    7  C   UNL     1     -13.538   1.385 -34.695  1.00  0.00     0.018 A 
HETATM    8  C   UNL     1     -13.808   0.081 -34.281  1.00  0.00     0.001 A 
HETATM    9  C   UNL     1     -12.855  -0.626 -33.547  1.00  0.00     0.002 A 
HETATM   10  C   UNL     1     -11.628  -0.036 -33.229  1.00  0.00     0.032 A 
HETATM   11  C   UNL     1     -10.842   5.217 -34.530  1.00  0.00     0.257 C 
HETATM   12  O   UNL     1     -10.101   6.093 -34.114  1.00  0.00    -0.270 OA
HETATM   13  C   UNL     1     -12.061   5.442 -35.404  1.00  0.00     0.211 C 
HETATM   14  N   UNL     1     -10.087   1.828 -33.321  1.00  0.00    -0.223 NA
ENDROOT
BRANCH   1  15
HETATM   15  S   UNL     1      -8.300   3.724 -33.325  1.00  0.00    -0.082 SA
BRANCH  15  16
HETATM   16  C   UNL     1      -7.934   2.899 -31.757  1.00  0.00     0.185 C 
BRANCH  16  17
HETATM   17  C   UNL     1      -7.061   1.658 -31.891  1.00  0.00     0.231 C 
HETATM   18  N   UNL     1      -6.716   1.323 -33.186  1.00  0.00    -0.327 N 
HETATM   19  H   UNL     1      -6.934   2.011 -33.903  1.00  0.00     0.169 HD
HETATM   20  O   UNL     1      -6.800   0.994 -30.888  1.00  0.00    -0.272 OA
BRANCH  18  21
HETATM   21  C   UNL     1      -6.168   0.111 -33.650  1.00  0.00     0.034 A 
HETATM   22  C   UNL     1      -4.867  -0.309 -33.383  1.00  0.00     0.030 A 
HETATM   23  C   UNL     1      -4.446  -1.591 -33.758  1.00  0.00     0.010 A 
HETATM   24  C   UNL     1      -5.314  -2.472 -34.416  1.00  0.00    -0.055 A 
HETATM   25  C   UNL     1      -6.601  -2.023 -34.730  1.00  0.00     0.010 A 
HETATM   26  C   UNL     1      -7.020  -0.743 -34.356  1.00  0.00     0.030 A 
BRANCH  24  27
HETATM   27  C   UNL     1      -4.917  -3.903 -34.727  1.00  0.00     0.010 C 
HETATM   28  C   UNL     1      -6.160  -4.738 -35.051  1.00  0.00     0.015 C 
HETATM   29  C   UNL     1      -4.101  -4.555 -33.609  1.00  0.00     0.015 C 
ENDBRANCH  24  27
ENDBRANCH  18  21
ENDBRANCH  16  17
ENDBRANCH  15  16
ENDBRANCH   1  15
BRANCH  13  30
HETATM   30  C   UNL     1     -13.003   6.506 -34.858  1.00  0.00     0.140 C 
BRANCH  30  31
HETATM   31  C   UNL     1     -13.331   6.395 -33.377  1.00  0.00     0.220 C 
HETATM   32  N   UNL     1     -14.230   5.418 -33.026  1.00  0.00    -0.356 N 
HETATM   33  H   UNL     1     -14.177   4.577 -33.593  1.00  0.00     0.162 HD
HETATM   34  O   UNL     1     -12.815   7.165 -32.570  1.00  0.00    -0.274 OA
BRANCH  32  35
HETATM   35  C   UNL     1     -14.740   5.210 -31.668  1.00  0.00     0.084 C 
HETATM   36  C   UNL     1     -16.274   5.266 -31.556  1.00  0.00     0.025 C 
HETATM   37  C   UNL     1     -16.954   4.131 -32.318  1.00  0.00     0.002 C 
HETATM   38  C   UNL     1     -16.445   2.768 -31.861  1.00  0.00     0.000 C 
HETATM   39  C   UNL     1     -14.922   2.679 -31.909  1.00  0.00     0.002 C 
HETATM   40  C   UNL     1     -14.256   3.839 -31.161  1.00  0.00     0.025 C 
ENDBRANCH  32  35
ENDBRANCH  30  31
ENDBRANCH  13  30
TORSDOF 8
ENDMDL
MODEL 7
REMARK VINA RESULT:      -9.1      5.005      8.760
REMARK  8 active torsions:
REMARK  status: ('A' for Active; 'I' for Inactive)
REMARK    1  A    between atoms: C_2  and  C_3 
REMARK    2  A    between atoms: C_6  and  N_7 
REMARK       I    between atoms: N_7  and  C_8 
REMARK    3  A    between atoms: C_8  and  C_9 
REMARK    4  A    between atoms: C_9  and  S_10 
REMARK    5  A    between atoms: S_10  and  C_11 
REMARK    6  A    between atoms: C_23  and  C_24 
REMARK    7  A    between atoms: C_24  and  C_25 
REMARK       I    between atoms: C_25  and  N_26 
REMARK    8  A    between atoms: N_26  and  C_27 
ROOT
HETATM    1  C   UNL     1      -8.002   0.042 -33.077  1.00  0.00     0.178 C 
HETATM    2  N   UNL     1      -6.823   0.716 -32.805  1.00  0.00    -0.241 N 
HETATM    3  C   UNL     1      -5.615   0.121 -32.971  1.00  0.00     0.147 C 
HETATM    4  N   UNL     1      -4.564   0.761 -32.553  1.00  0.00    -0.256 NA
HETATM    5  C   UNL     1      -5.591  -1.187 -33.625  1.00  0.00     0.039 A 
HETATM    6  C   UNL     1      -6.828  -1.744 -33.969  1.00  0.00     0.073 A 
HETATM    7  C   UNL     1      -4.387  -1.817 -33.952  1.00  0.00     0.018 A 
HETATM    8  C   UNL     1      -4.419  -3.030 -34.640  1.00  0.00     0.001 A 
HETATM    9  C   UNL     1      -5.643  -3.596 -34.996  1.00  0.00     0.002 A 
HETATM   10  C   UNL     1      -6.840  -2.955 -34.662  1.00  0.00     0.032 A 
HETATM   11  C   UNL     1      -6.596   1.994 -32.348  1.00  0.00     0.257 C 
HETATM   12  O   UNL     1      -7.373   2.931 -32.265  1.00  0.00    -0.270 OA
HETATM   13  C   UNL     1      -5.109   2.059 -32.056  1.00  0.00     0.211 C 
HETATM   14  N   UNL     1      -8.050  -1.130 -33.629  1.00  0.00    -0.223 NA
ENDROOT
BRANCH   1  15
HETATM   15  S   UNL     1      -9.516   0.741 -32.566  1.00  0.00    -0.082 SA
BRANCH  15  16
HETATM   16  C   UNL     1     -10.149   1.290 -34.169  1.00  0.00     0.185 C 
BRANCH  16  17
HETATM   17  C   UNL     1     -11.344   2.231 -34.082  1.00  0.00     0.231 C 
HETATM   18  N   UNL     1     -11.904   2.349 -32.826  1.00  0.00    -0.327 N 
HETATM   19  H   UNL     1     -11.381   1.934 -32.057  1.00  0.00     0.169 HD
HETATM   20  O   UNL     1     -11.786   2.739 -35.111  1.00  0.00    -0.272 OA
BRANCH  18  21
HETATM   21  C   UNL     1     -13.152   2.905 -32.482  1.00  0.00     0.034 A 
HETATM   22  C   UNL     1     -13.344   4.245 -32.152  1.00  0.00     0.030 A 
HETATM   23  C   UNL     1     -14.637   4.749 -31.965  1.00  0.00     0.010 A 
HETATM   24  C   UNL     1     -15.760   3.922 -32.094  1.00  0.00    -0.055 A 
HETATM   25  C   UNL     1     -15.557   2.566 -32.371  1.00  0.00     0.010 A 
HETATM   26  C   UNL     1     -14.266   2.064 -32.557  1.00  0.00     0.030 A 
BRANCH  24  27
HETATM   27  C   UNL     1     -17.173   4.472 -32.010  1.00  0.00     0.010 C 
HETATM   28  C   UNL     1     -17.245   5.584 -30.958  1.00  0.00     0.015 C 
HETATM   29  C   UNL     1     -18.220   3.392 -31.732  1.00  0.00     0.015 C 
ENDBRANCH  24  27
ENDBRANCH  18  21
ENDBRANCH  16  17
ENDBRANCH  15  16
ENDBRANCH   1  15
BRANCH  13  30
HETATM   30  C   UNL     1      -4.406   3.199 -32.780  1.00  0.00     0.140 C 
BRANCH  30  31
HETATM   31  C   UNL     1      -3.090   3.655 -32.167  1.00  0.00     0.220 C 
HETATM   32  N   UNL     1      -2.571   4.832 -32.649  1.00  0.00    -0.356 N 
HETATM   33  H   UNL     1      -3.269   5.521 -32.910  1.00  0.00     0.162 HD
HETATM   34  O   UNL     1      -2.542   2.974 -31.303  1.00  0.00    -0.274 OA
BRANCH  32  35
HETATM   35  C   UNL     1      -1.276   5.390 -32.251  1.00  0.00     0.084 C 
HETATM   36  C   UNL     1      -0.804   6.568 -33.122  1.00  0.00     0.025 C 
HETATM   37  C   UNL     1      -1.717   7.786 -32.996  1.00  0.00     0.002 C 
HETATM   38  C   UNL     1      -1.857   8.231 -31.544  1.00  0.00     0.000 C 
HETATM   39  C   UNL     1      -2.279   7.083 -30.631  1.00  0.00     0.002 C 
HETATM   40  C   UNL     1      -1.367   5.861 -30.788  1.00  0.00     0.025 C 
ENDBRANCH  32  35
ENDBRANCH  30  31
ENDBRANCH  13  30
TORSDOF 8
ENDMDL
MODEL 8
REMARK VINA RESULT:      -8.9      3.306     10.792
REMARK  8 active torsions:
REMARK  status: ('A' for Active; 'I' for Inactive)
REMARK    1  A    between atoms: C_2  and  C_3 
REMARK    2  A    between atoms: C_6  and  N_7 
REMARK       I    between atoms: N_7  and  C_8 
REMARK    3  A    between atoms: C_8  and  C_9 
REMARK    4  A    between atoms: C_9  and  S_10 
REMARK    5  A    between atoms: S_10  and  C_11 
REMARK    6  A    between atoms: C_23  and  C_24 
REMARK    7  A    between atoms: C_24  and  C_25 
REMARK       I    between atoms: C_25  and  N_26 
REMARK    8  A    between atoms: N_26  and  C_27 
ROOT
HETATM    1  C   UNL     1      -5.731   1.226 -32.516  1.00  0.00     0.178 C 
HETATM    2  N   UNL     1      -6.996   1.008 -33.038  1.00  0.00    -0.241 N 
HETATM    3  C   UNL     1      -7.263  -0.072 -33.815  1.00  0.00     0.147 C 
HETATM    4  N   UNL     1      -8.426  -0.129 -34.390  1.00  0.00    -0.256 NA
HETATM    5  C   UNL     1      -6.223  -1.096 -33.928  1.00  0.00     0.039 A 
HETATM    6  C   UNL     1      -5.013  -0.841 -33.272  1.00  0.00     0.073 A 
HETATM    7  C   UNL     1      -6.454  -2.298 -34.602  1.00  0.00     0.018 A 
HETATM    8  C   UNL     1      -5.455  -3.271 -34.619  1.00  0.00     0.001 A 
HETATM    9  C   UNL     1      -4.245  -3.037 -33.965  1.00  0.00     0.002 A 
HETATM   10  C   UNL     1      -4.027  -1.829 -33.296  1.00  0.00     0.032 A 
HETATM   11  C   UNL     1      -8.158   1.735 -32.926  1.00  0.00     0.257 C 
HETATM   12  O   UNL     1      -8.424   2.651 -32.164  1.00  0.00    -0.270 OA
HETATM   13  C   UNL     1      -9.133   1.088 -33.893  1.00  0.00     0.211 C 
HETATM   14  N   UNL     1      -4.758   0.373 -32.606  1.00  0.00    -0.223 NA
ENDROOT
BRANCH   1  15
HETATM   15  S   UNL     1      -5.371   2.767 -31.783  1.00  0.00    -0.082 SA
BRANCH  15  16
HETATM   16  C   UNL     1      -4.759   3.654 -33.237  1.00  0.00     0.185 C 
BRANCH  16  17
HETATM   17  C   UNL     1      -3.769   4.768 -32.921  1.00  0.00     0.231 C 
HETATM   18  N   UNL     1      -2.969   4.543 -31.818  1.00  0.00    -0.327 N 
HETATM   19  H   UNL     1      -2.999   3.605 -31.422  1.00  0.00     0.169 HD
HETATM   20  O   UNL     1      -3.799   5.805 -33.581  1.00  0.00    -0.272 OA
BRANCH  18  21
HETATM   21  C   UNL     1      -2.173   5.473 -31.121  1.00  0.00     0.034 A 
HETATM   22  C   UNL     1      -2.682   6.564 -30.421  1.00  0.00     0.030 A 
HETATM   23  C   UNL     1      -1.836   7.358 -29.635  1.00  0.00     0.010 A 
HETATM   24  C   UNL     1      -0.466   7.081 -29.543  1.00  0.00    -0.055 A 
HETATM   25  C   UNL     1       0.047   6.017 -30.294  1.00  0.00     0.010 A 
HETATM   26  C   UNL     1      -0.798   5.227 -31.078  1.00  0.00     0.030 A 
BRANCH  24  27
HETATM   27  C   UNL     1       0.446   7.855 -28.609  1.00  0.00     0.010 C 
HETATM   28  C   UNL     1       1.071   6.910 -27.578  1.00  0.00     0.015 C 
HETATM   29  C   UNL     1      -0.258   9.024 -27.918  1.00  0.00     0.015 C 
ENDBRANCH  24  27
ENDBRANCH  18  21
ENDBRANCH  16  17
ENDBRANCH  15  16
ENDBRANCH   1  15
BRANCH  13  30
HETATM   30  C   UNL     1     -10.439   0.667 -33.234  1.00  0.00     0.140 C 
BRANCH  30  31
HETATM   31  C   UNL     1     -11.654   1.510 -33.587  1.00  0.00     0.220 C 
HETATM   32  N   UNL     1     -11.519   2.868 -33.426  1.00  0.00    -0.356 N 
HETATM   33  H   UNL     1     -10.588   3.222 -33.622  1.00  0.00     0.162 HD
HETATM   34  O   UNL     1     -12.688   0.972 -33.976  1.00  0.00    -0.274 OA
BRANCH  32  35
HETATM   35  C   UNL     1     -12.599   3.837 -33.628  1.00  0.00     0.084 C 
HETATM   36  C   UNL     1     -12.523   5.066 -32.703  1.00  0.00     0.025 C 
HETATM   37  C   UNL     1     -11.286   5.920 -32.973  1.00  0.00     0.002 C 
HETATM   38  C   UNL     1     -11.218   6.358 -34.433  1.00  0.00     0.000 C 
HETATM   39  C   UNL     1     -11.337   5.176 -35.392  1.00  0.00     0.002 C 
HETATM   40  C   UNL     1     -12.570   4.316 -35.091  1.00  0.00     0.025 C 
ENDBRANCH  32  35
ENDBRANCH  30  31
ENDBRANCH  13  30
TORSDOF 8
ENDMDL
MODEL 9
REMARK VINA RESULT:      -8.8      6.349     10.704
REMARK  8 active torsions:
REMARK  status: ('A' for Active; 'I' for Inactive)
REMARK    1  A    between atoms: C_2  and  C_3 
REMARK    2  A    between atoms: C_6  and  N_7 
REMARK       I    between atoms: N_7  and  C_8 
REMARK    3  A    between atoms: C_8  and  C_9 
REMARK    4  A    between atoms: C_9  and  S_10 
REMARK    5  A    between atoms: S_10  and  C_11 
REMARK    6  A    between atoms: C_23  and  C_24 
REMARK    7  A    between atoms: C_24  and  C_25 
REMARK       I    between atoms: C_25  and  N_26 
REMARK    8  A    between atoms: N_26  and  C_27 
ROOT
HETATM    1  C   UNL     1      -9.676   3.386 -33.964  1.00  0.00     0.178 C 
HETATM    2  N   UNL     1     -10.663   4.231 -34.445  1.00  0.00    -0.241 N 
HETATM    3  C   UNL     1     -11.894   3.764 -34.772  1.00  0.00     0.147 C 
HETATM    4  N   UNL     1     -12.715   4.584 -35.356  1.00  0.00    -0.256 NA
HETATM    5  C   UNL     1     -12.206   2.377 -34.423  1.00  0.00     0.039 A 
HETATM    6  C   UNL     1     -11.179   1.629 -33.835  1.00  0.00     0.073 A 
HETATM    7  C   UNL     1     -13.487   1.849 -34.605  1.00  0.00     0.018 A 
HETATM    8  C   UNL     1     -13.750   0.544 -34.190  1.00  0.00     0.001 A 
HETATM    9  C   UNL     1     -12.740  -0.214 -33.596  1.00  0.00     0.002 A 
HETATM   10  C   UNL     1     -11.463   0.327 -33.421  1.00  0.00     0.032 A 
HETATM   11  C   UNL     1     -10.654   5.584 -34.692  1.00  0.00     0.257 C 
HETATM   12  O   UNL     1      -9.836   6.423 -34.351  1.00  0.00    -0.270 OA
HETATM   13  C   UNL     1     -11.963   5.873 -35.402  1.00  0.00     0.211 C 
HETATM   14  N   UNL     1      -9.878   2.141 -33.663  1.00  0.00    -0.223 NA
ENDROOT
BRANCH   1  15
HETATM   15  S   UNL     1      -8.039   3.976 -33.846  1.00  0.00    -0.082 SA
BRANCH  15  16
HETATM   16  C   UNL     1      -7.625   3.381 -32.188  1.00  0.00     0.185 C 
BRANCH  16  17
HETATM   17  C   UNL     1      -7.011   1.987 -32.158  1.00  0.00     0.231 C 
HETATM   18  N   UNL     1      -6.598   1.504 -33.384  1.00  0.00    -0.327 N 
HETATM   19  H   UNL     1      -6.591   2.171 -34.153  1.00  0.00     0.169 HD
HETATM   20  O   UNL     1      -7.004   1.355 -31.103  1.00  0.00    -0.272 OA
BRANCH  18  21
HETATM   21  C   UNL     1      -6.257   0.180 -33.723  1.00  0.00     0.034 A 
HETATM   22  C   UNL     1      -5.039  -0.418 -33.405  1.00  0.00     0.030 A 
HETATM   23  C   UNL     1      -4.835  -1.781 -33.650  1.00  0.00     0.010 A 
HETATM   24  C   UNL     1      -5.839  -2.570 -34.224  1.00  0.00    -0.055 A 
HETATM   25  C   UNL     1      -7.039  -1.952 -34.592  1.00  0.00     0.010 A 
HETATM   26  C   UNL     1      -7.242  -0.590 -34.348  1.00  0.00     0.030 A 
BRANCH  24  27
HETATM   27  C   UNL     1      -5.681  -4.071 -34.391  1.00  0.00     0.010 C 
HETATM   28  C   UNL     1      -4.211  -4.469 -34.222  1.00  0.00     0.015 C 
HETATM   29  C   UNL     1      -6.234  -4.587 -35.721  1.00  0.00     0.015 C 
ENDBRANCH  24  27
ENDBRANCH  18  21
ENDBRANCH  16  17
ENDBRANCH  15  16
ENDBRANCH   1  15
BRANCH  13  30
HETATM   30  C   UNL     1     -12.791   6.952 -34.719  1.00  0.00     0.140 C 
BRANCH  30  31
HETATM   31  C   UNL     1     -13.728   7.734 -35.626  1.00  0.00     0.220 C 
HETATM   32  N   UNL     1     -13.131   8.545 -36.561  1.00  0.00    -0.356 N 
HETATM   33  H   UNL     1     -12.258   8.184 -36.932  1.00  0.00     0.162 HD
HETATM   34  O   UNL     1     -14.945   7.636 -35.490  1.00  0.00    -0.274 OA
BRANCH  32  35
HETATM   35  C   UNL     1     -13.858   9.441 -37.464  1.00  0.00     0.084 C 
HETATM   36  C   UNL     1     -13.329  10.887 -37.476  1.00  0.00     0.025 C 
HETATM   37  C   UNL     1     -11.907  10.982 -38.025  1.00  0.00     0.002 C 
HETATM   38  C   UNL     1     -11.807  10.376 -39.421  1.00  0.00     0.000 C 
HETATM   39  C   UNL     1     -12.364   8.955 -39.471  1.00  0.00     0.002 C 
HETATM   40  C   UNL     1     -13.781   8.874 -38.894  1.00  0.00     0.025 C 
ENDBRANCH  32  35
ENDBRANCH  30  31
ENDBRANCH  13  30
TORSDOF 8
ENDMDL
MODEL 10
REMARK VINA RESULT:      -8.7      6.133      9.222
REMARK  8 active torsions:
REMARK  status: ('A' for Active; 'I' for Inactive)
REMARK    1  A    between atoms: C_2  and  C_3 
REMARK    2  A    between atoms: C_6  and  N_7 
REMARK       I    between atoms: N_7  and  C_8 
REMARK    3  A    between atoms: C_8  and  C_9 
REMARK    4  A    between atoms: C_9  and  S_10 
REMARK    5  A    between atoms: S_10  and  C_11 
REMARK    6  A    between atoms: C_23  and  C_24 
REMARK    7  A    between atoms: C_24  and  C_25 
REMARK       I    between atoms: C_25  and  N_26 
REMARK    8  A    between atoms: N_26  and  C_27 
ROOT
HETATM    1  C   UNL     1      -9.172   3.262 -33.956  1.00  0.00     0.178 C 
HETATM    2  N   UNL     1     -10.097   4.103 -34.552  1.00  0.00    -0.241 N 
HETATM    3  C   UNL     1     -11.326   3.658 -34.915  1.00  0.00     0.147 C 
HETATM    4  N   UNL     1     -12.081   4.462 -35.602  1.00  0.00    -0.256 NA
HETATM    5  C   UNL     1     -11.711   2.313 -34.484  1.00  0.00     0.039 A 
HETATM    6  C   UNL     1     -10.749   1.574 -33.787  1.00  0.00     0.073 A 
HETATM    7  C   UNL     1     -13.001   1.819 -34.701  1.00  0.00     0.018 A 
HETATM    8  C   UNL     1     -13.338   0.559 -34.209  1.00  0.00     0.001 A 
HETATM    9  C   UNL     1     -12.393  -0.188 -33.505  1.00  0.00     0.002 A 
HETATM   10  C   UNL     1     -11.107   0.318 -33.297  1.00  0.00     0.032 A 
HETATM   11  C   UNL     1     -10.020   5.433 -34.895  1.00  0.00     0.257 C 
HETATM   12  O   UNL     1      -9.189   6.266 -34.569  1.00  0.00    -0.270 OA
HETATM   13  C   UNL     1     -11.277   5.716 -35.698  1.00  0.00     0.211 C 
HETATM   14  N   UNL     1      -9.440   2.051 -33.577  1.00  0.00    -0.223 NA
ENDROOT
BRANCH   1  15
HETATM   15  S   UNL     1      -7.521   3.799 -33.788  1.00  0.00    -0.082 SA
BRANCH  15  16
HETATM   16  C   UNL     1      -7.169   3.169 -32.129  1.00  0.00     0.185 C 
BRANCH  16  17
HETATM   17  C   UNL     1      -6.646   1.738 -32.101  1.00  0.00     0.231 C 
HETATM   18  N   UNL     1      -6.201   1.255 -33.315  1.00  0.00    -0.327 N 
HETATM   19  H   UNL     1      -6.112   1.936 -34.067  1.00  0.00     0.169 HD
HETATM   20  O   UNL     1      -6.733   1.085 -31.062  1.00  0.00    -0.272 OA
BRANCH  18  21
HETATM   21  C   UNL     1      -5.926  -0.081 -33.668  1.00  0.00     0.034 A 
HETATM   22  C   UNL     1      -4.790  -0.777 -33.262  1.00  0.00     0.030 A 
HETATM   23  C   UNL     1      -4.663  -2.145 -33.534  1.00  0.00     0.010 A 
HETATM   24  C   UNL     1      -5.664  -2.839 -34.226  1.00  0.00    -0.055 A 
HETATM   25  C   UNL     1      -6.776  -2.122 -34.680  1.00  0.00     0.010 A 
HETATM   26  C   UNL     1      -6.901  -0.757 -34.408  1.00  0.00     0.030 A 
BRANCH  24  27
HETATM   27  C   UNL     1      -5.600  -4.342 -34.430  1.00  0.00     0.010 C 
HETATM   28  C   UNL     1      -4.148  -4.825 -34.351  1.00  0.00     0.015 C 
HETATM   29  C   UNL     1      -6.253  -4.797 -35.737  1.00  0.00     0.015 C 
ENDBRANCH  24  27
ENDBRANCH  18  21
ENDBRANCH  16  17
ENDBRANCH  15  16
ENDBRANCH   1  15
BRANCH  13  30
HETATM   30  C   UNL     1     -12.096   6.872 -35.143  1.00  0.00     0.140 C 
BRANCH  30  31
HETATM   31  C   UNL     1     -12.684   6.655 -33.757  1.00  0.00     0.220 C 
HETATM   32  N   UNL     1     -11.812   6.770 -32.702  1.00  0.00    -0.356 N 
HETATM   33  H   UNL     1     -11.084   7.465 -32.835  1.00  0.00     0.162 HD
HETATM   34  O   UNL     1     -13.874   6.376 -33.628  1.00  0.00    -0.274 OA
BRANCH  32  35
HETATM   35  C   UNL     1     -12.166   6.512 -31.304  1.00  0.00     0.084 C 
HETATM   36  C   UNL     1     -12.806   5.133 -31.061  1.00  0.00     0.025 C 
HETATM   37  C   UNL     1     -11.843   3.985 -31.354  1.00  0.00     0.002 C 
HETATM   38  C   UNL     1     -10.557   4.115 -30.544  1.00  0.00     0.000 C 
HETATM   39  C   UNL     1      -9.908   5.486 -30.715  1.00  0.00     0.002 C 
HETATM   40  C   UNL     1     -10.895   6.626 -30.441  1.00  0.00     0.025 C 
ENDBRANCH  32  35
ENDBRANCH  30  31
ENDBRANCH  13  30
TORSDOF 8
ENDMDL
