MODEL 1
REMARK VINA RESULT:      -8.8      0.000      0.000
REMARK  7 active torsions:
REMARK  status: ('A' for Active; 'I' for Inactive)
REMARK    1  A    between atoms: O_2  and  C_3 
REMARK    2  A    between atoms: C_5  and  C_6 
REMARK    3  A    between atoms: C_6  and  O_7 
REMARK    4  A    between atoms: C_6  and  C_8 
REMARK    5  A    between atoms: C_8  and  N_9 
REMARK       I    between atoms: N_9  and  C_10 
REMARK    6  A    between atoms: C_10  and  C_11 
REMARK    7  A    between atoms: C_12  and  C_13 
ROOT
HETATM    1  C   UNL     1      -6.757   2.562 -32.116  1.00  0.00     0.089 C 
HETATM    2  C   UNL     1      -6.718   4.042 -32.551  1.00  0.00     0.068 C 
HETATM    3  C   UNL     1      -7.491   4.355 -33.845  1.00  0.00     0.013 C 
HETATM    4  C   UNL     1      -8.884   3.741 -33.851  1.00  0.00     0.001 C 
HETATM    5  C   UNL     1      -8.825   2.242 -33.596  1.00  0.00     0.001 C 
HETATM    6  C   UNL     1      -8.153   1.938 -32.262  1.00  0.00     0.015 C 
ENDROOT
BRANCH   1   7
HETATM    7  C   UNL     1      -5.698   1.613 -32.693  1.00  0.00     0.222 C 
HETATM    8  N   UNL     1      -4.549   1.444 -31.965  1.00  0.00    -0.358 N 
HETATM    9  H   UNL     1      -4.694   1.414 -30.961  1.00  0.00     0.162 HD
HETATM   10  O   UNL     1      -5.856   1.124 -33.813  1.00  0.00    -0.273 OA
BRANCH   8  11
HETATM   11  C   UNL     1      -3.476   0.568 -32.413  1.00  0.00     0.159 C 
BRANCH  11  12
HETATM   12  C   UNL     1      -3.249  -0.737 -31.618  1.00  0.00     0.169 C 
BRANCH  12  13
HETATM   13  C   UNL     1      -3.551  -2.006 -32.392  1.00  0.00    -0.025 A 
HETATM   14  C   UNL     1      -4.389  -1.992 -33.522  1.00  0.00     0.046 A 
HETATM   15  C   UNL     1      -4.638  -3.165 -34.239  1.00  0.00     0.068 A 
HETATM   16  C   UNL     1      -4.059  -4.363 -33.813  1.00  0.00     0.037 A 
HETATM   17  C   UNL     1      -3.233  -4.394 -32.691  1.00  0.00     0.003 A 
HETATM   18  C   UNL     1      -2.979  -3.220 -31.985  1.00  0.00     0.010 A 
BRANCH  15  19
HETATM   19  O   UNL     1      -5.417  -3.276 -35.357  1.00  0.00    -0.356 OA
HETATM   20  C   UNL     1      -6.290  -4.397 -35.421  1.00  0.00     0.210 C 
ENDBRANCH  15  19
ENDBRANCH  12  13
BRANCH  12  21
HETATM   21  O   UNL     1      -1.879  -0.780 -31.190  1.00  0.00    -0.389 OA
HETATM   22  H   UNL     1      -1.660   0.121 -30.894  1.00  0.00     0.210 HD
ENDBRANCH  12  21
ENDBRANCH  11  12
ENDBRANCH   8  11
ENDBRANCH   1   7
BRANCH   2  23
HETATM   23  C   UNL     1      -5.314   4.562 -32.625  1.00  0.00     0.110 A 
HETATM   24  N   UNL     1      -4.497   4.747 -31.607  1.00  0.00    -0.233 NA
HETATM   25  C   UNL     1      -3.353   5.286 -32.143  1.00  0.00     0.087 A 
HETATM   26  C   UNL     1      -3.472   5.429 -33.521  1.00  0.00     0.062 A 
HETATM   27  C   UNL     1      -2.169   5.684 -31.508  1.00  0.00     0.057 A 
HETATM   28  N   UNL     1      -4.729   4.960 -33.802  1.00  0.00    -0.342 N 
HETATM   29  C   UNL     1      -2.465   5.958 -34.330  1.00  0.00     0.034 A 
HETATM   30  H   UNL     1      -5.159   4.932 -34.717  1.00  0.00     0.167 HD
HETATM   31  C   UNL     1      -1.288   6.351 -33.683  1.00  0.00     0.026 A 
HETATM   32  C   UNL     1      -1.146   6.216 -32.299  1.00  0.00     0.036 A 
HETATM   33 CL   UNL     1       0.323   6.717 -31.550  1.00  0.00    -0.084 Cl
ENDBRANCH   2  23
TORSDOF 7
ENDMDL
MODEL 2
REMARK VINA RESULT:      -8.8      3.342      7.644
REMARK  7 active torsions:
REMARK  status: ('A' for Active; 'I' for Inactive)
REMARK    1  A    between atoms: O_2  and  C_3 
REMARK    2  A    between atoms: C_5  and  C_6 
REMARK    3  A    between atoms: C_6  and  O_7 
REMARK    4  A    between atoms: C_6  and  C_8 
REMARK    5  A    between atoms: C_8  and  N_9 
REMARK       I    between atoms: N_9  and  C_10 
REMARK    6  A    between atoms: C_10  and  C_11 
REMARK    7  A    between atoms: C_12  and  C_13 
ROOT
HETATM    1  C   UNL     1      -6.243   4.820 -32.559  1.00  0.00     0.089 C 
HETATM    2  C   UNL     1      -6.174   3.673 -31.528  1.00  0.00     0.068 C 
HETATM    3  C   UNL     1      -5.044   3.806 -30.491  1.00  0.00     0.013 C 
HETATM    4  C   UNL     1      -4.981   5.199 -29.878  1.00  0.00     0.001 C 
HETATM    5  C   UNL     1      -4.866   6.269 -30.954  1.00  0.00     0.001 C 
HETATM    6  C   UNL     1      -6.043   6.204 -31.921  1.00  0.00     0.015 C 
ENDROOT
BRANCH   1   7
HETATM    7  C   UNL     1      -5.388   4.703 -33.828  1.00  0.00     0.222 C 
HETATM    8  N   UNL     1      -4.199   5.385 -33.844  1.00  0.00    -0.358 N 
HETATM    9  H   UNL     1      -3.707   5.381 -32.956  1.00  0.00     0.162 HD
HETATM   10  O   UNL     1      -5.828   4.106 -34.811  1.00  0.00    -0.273 OA
BRANCH   8  11
HETATM   11  C   UNL     1      -3.306   5.348 -34.993  1.00  0.00     0.159 C 
BRANCH  11  12
HETATM   12  C   UNL     1      -1.904   5.972 -34.819  1.00  0.00     0.169 C 
BRANCH  12  13
HETATM   13  C   UNL     1      -1.494   6.206 -33.378  1.00  0.00    -0.025 A 
HETATM   14  C   UNL     1      -0.995   5.161 -32.580  1.00  0.00     0.046 A 
HETATM   15  C   UNL     1      -0.598   5.398 -31.261  1.00  0.00     0.068 A 
HETATM   16  C   UNL     1      -0.718   6.685 -30.731  1.00  0.00     0.037 A 
HETATM   17  C   UNL     1      -1.218   7.729 -31.507  1.00  0.00     0.003 A 
HETATM   18  C   UNL     1      -1.603   7.491 -32.824  1.00  0.00     0.010 A 
BRANCH  15  19
HETATM   19  O   UNL     1      -0.086   4.472 -30.394  1.00  0.00    -0.356 OA
HETATM   20  C   UNL     1       0.806   4.953 -29.397  1.00  0.00     0.210 C 
ENDBRANCH  15  19
ENDBRANCH  12  13
BRANCH  12  21
HETATM   21  O   UNL     1      -0.937   5.103 -35.431  1.00  0.00    -0.389 OA
HETATM   22  H   UNL     1      -1.353   4.224 -35.473  1.00  0.00     0.210 HD
ENDBRANCH  12  21
ENDBRANCH  11  12
ENDBRANCH   8  11
ENDBRANCH   1   7
BRANCH   2  23
HETATM   23  C   UNL     1      -6.136   2.331 -32.195  1.00  0.00     0.110 A 
HETATM   24  N   UNL     1      -5.111   1.502 -32.218  1.00  0.00    -0.233 NA
HETATM   25  C   UNL     1      -5.515   0.436 -32.985  1.00  0.00     0.087 A 
HETATM   26  C   UNL     1      -6.817   0.617 -33.437  1.00  0.00     0.062 A 
HETATM   27  C   UNL     1      -4.815  -0.724 -33.343  1.00  0.00     0.057 A 
HETATM   28  N   UNL     1      -7.190   1.830 -32.919  1.00  0.00    -0.342 N 
HETATM   29  C   UNL     1      -7.487  -0.304 -34.244  1.00  0.00     0.034 A 
HETATM   30  H   UNL     1      -8.081   2.286 -33.063  1.00  0.00     0.167 HD
HETATM   31  C   UNL     1      -6.776  -1.458 -34.594  1.00  0.00     0.026 A 
HETATM   32  C   UNL     1      -5.467  -1.661 -34.151  1.00  0.00     0.036 A 
HETATM   33 CL   UNL     1      -4.634  -3.099 -34.611  1.00  0.00    -0.084 Cl
ENDBRANCH   2  23
TORSDOF 7
ENDMDL
MODEL 3
REMARK VINA RESULT:      -8.7      3.663      7.839
REMARK  7 active torsions:
REMARK  status: ('A' for Active; 'I' for Inactive)
REMARK    1  A    between atoms: O_2  and  C_3 
REMARK    2  A    between atoms: C_5  and  C_6 
REMARK    3  A    between atoms: C_6  and  O_7 
REMARK    4  A    between atoms: C_6  and  C_8 
REMARK    5  A    between atoms: C_8  and  N_9 
REMARK       I    between atoms: N_9  and  C_10 
REMARK    6  A    between atoms: C_10  and  C_11 
REMARK    7  A    between atoms: C_12  and  C_13 
ROOT
HETATM    1  C   UNL     1      -5.225   1.788 -30.690  1.00  0.00     0.089 C 
HETATM    2  C   UNL     1      -3.863   1.466 -31.340  1.00  0.00     0.068 C 
HETATM    3  C   UNL     1      -3.386   2.495 -32.381  1.00  0.00     0.013 C 
HETATM    4  C   UNL     1      -3.513   3.928 -31.880  1.00  0.00     0.001 C 
HETATM    5  C   UNL     1      -4.934   4.227 -31.424  1.00  0.00     0.001 C 
HETATM    6  C   UNL     1      -5.368   3.273 -30.318  1.00  0.00     0.015 C 
ENDROOT
BRANCH   1   7
HETATM    7  C   UNL     1      -6.497   1.304 -31.399  1.00  0.00     0.222 C 
HETATM    8  N   UNL     1      -6.851   1.951 -32.554  1.00  0.00    -0.358 N 
HETATM    9  H   UNL     1      -6.066   2.209 -33.144  1.00  0.00     0.162 HD
HETATM   10  O   UNL     1      -7.204   0.444 -30.873  1.00  0.00    -0.273 OA
BRANCH   8  11
HETATM   11  C   UNL     1      -8.037   1.579 -33.312  1.00  0.00     0.159 C 
BRANCH  11  12
HETATM   12  C   UNL     1      -9.407   1.995 -32.731  1.00  0.00     0.169 C 
BRANCH  12  13
HETATM   13  C   UNL     1     -10.437   2.390 -33.771  1.00  0.00    -0.025 A 
HETATM   14  C   UNL     1     -11.612   1.639 -33.960  1.00  0.00     0.046 A 
HETATM   15  C   UNL     1     -12.563   2.030 -34.906  1.00  0.00     0.068 A 
HETATM   16  C   UNL     1     -12.332   3.170 -35.679  1.00  0.00     0.037 A 
HETATM   17  C   UNL     1     -11.170   3.921 -35.508  1.00  0.00     0.003 A 
HETATM   18  C   UNL     1     -10.228   3.533 -34.558  1.00  0.00     0.010 A 
BRANCH  15  19
HETATM   19  O   UNL     1     -13.745   1.394 -35.170  1.00  0.00    -0.356 OA
HETATM   20  C   UNL     1     -14.381   0.743 -34.078  1.00  0.00     0.210 C 
ENDBRANCH  15  19
ENDBRANCH  12  13
BRANCH  12  21
HETATM   21  O   UNL     1      -9.931   0.898 -31.966  1.00  0.00    -0.389 OA
HETATM   22  H   UNL     1      -9.870   1.167 -31.032  1.00  0.00     0.210 HD
ENDBRANCH  12  21
ENDBRANCH  11  12
ENDBRANCH   8  11
ENDBRANCH   1   7
BRANCH   2  23
HETATM   23  C   UNL     1      -3.833   0.078 -31.905  1.00  0.00     0.110 A 
HETATM   24  N   UNL     1      -4.477  -0.341 -32.976  1.00  0.00    -0.233 NA
HETATM   25  C   UNL     1      -4.199  -1.683 -33.075  1.00  0.00     0.087 A 
HETATM   26  C   UNL     1      -3.363  -2.092 -32.041  1.00  0.00     0.062 A 
HETATM   27  C   UNL     1      -4.633  -2.619 -34.022  1.00  0.00     0.057 A 
HETATM   28  N   UNL     1      -3.144  -0.952 -31.312  1.00  0.00    -0.342 N 
HETATM   29  C   UNL     1      -2.920  -3.406 -31.884  1.00  0.00     0.034 A 
HETATM   30  H   UNL     1      -2.588  -0.886 -30.471  1.00  0.00     0.167 HD
HETATM   31  C   UNL     1      -3.361  -4.331 -32.837  1.00  0.00     0.026 A 
HETATM   32  C   UNL     1      -4.201  -3.942 -33.885  1.00  0.00     0.036 A 
HETATM   33 CL   UNL     1      -4.717  -5.120 -35.032  1.00  0.00    -0.084 Cl
ENDBRANCH   2  23
TORSDOF 7
ENDMDL
MODEL 4
REMARK VINA RESULT:      -8.7      3.737      7.932
REMARK  7 active torsions:
REMARK  status: ('A' for Active; 'I' for Inactive)
REMARK    1  A    between atoms: O_2  and  C_3 
REMARK    2  A    between atoms: C_5  and  C_6 
REMARK    3  A    between atoms: C_6  and  O_7 
REMARK    4  A    between atoms: C_6  and  C_8 
REMARK    5  A    between atoms: C_8  and  N_9 
REMARK       I    between atoms: N_9  and  C_10 
REMARK    6  A    between atoms: C_10  and  C_11 
REMARK    7  A    between atoms: C_12  and  C_13 
ROOT
HETATM    1  C   UNL     1      -7.424   0.292 -31.829  1.00  0.00     0.089 C 
HETATM    2  C   UNL     1      -8.049  -0.120 -33.178  1.00  0.00     0.068 C 
HETATM    3  C   UNL     1      -7.048  -0.250 -34.340  1.00  0.00     0.013 C 
HETATM    4  C   UNL     1      -5.814  -1.054 -33.955  1.00  0.00     0.001 C 
HETATM    5  C   UNL     1      -5.145  -0.475 -32.716  1.00  0.00     0.001 C 
HETATM    6  C   UNL     1      -6.108  -0.446 -31.535  1.00  0.00     0.015 C 
ENDROOT
BRANCH   1   7
HETATM    7  C   UNL     1      -7.259   1.789 -31.537  1.00  0.00     0.222 C 
HETATM    8  N   UNL     1      -6.433   2.499 -32.371  1.00  0.00    -0.358 N 
HETATM    9  H   UNL     1      -6.493   2.225 -33.346  1.00  0.00     0.162 HD
HETATM   10  O   UNL     1      -7.770   2.279 -30.530  1.00  0.00    -0.273 OA
BRANCH   8  11
HETATM   11  C   UNL     1      -6.200   3.925 -32.191  1.00  0.00     0.159 C 
BRANCH  11  12
HETATM   12  C   UNL     1      -5.700   4.720 -33.418  1.00  0.00     0.169 C 
BRANCH  12  13
HETATM   13  C   UNL     1      -4.193   4.865 -33.502  1.00  0.00    -0.025 A 
HETATM   14  C   UNL     1      -3.367   4.575 -32.400  1.00  0.00     0.046 A 
HETATM   15  C   UNL     1      -1.978   4.690 -32.501  1.00  0.00     0.068 A 
HETATM   16  C   UNL     1      -1.412   5.113 -33.706  1.00  0.00     0.037 A 
HETATM   17  C   UNL     1      -2.217   5.411 -34.803  1.00  0.00     0.003 A 
HETATM   18  C   UNL     1      -3.601   5.286 -34.702  1.00  0.00     0.010 A 
BRANCH  15  19
HETATM   19  O   UNL     1      -1.074   4.423 -31.511  1.00  0.00    -0.356 OA
HETATM   20  C   UNL     1      -0.086   5.415 -31.261  1.00  0.00     0.210 C 
ENDBRANCH  15  19
ENDBRANCH  12  13
BRANCH  12  21
HETATM   21  O   UNL     1      -6.161   4.061 -34.608  1.00  0.00    -0.389 OA
HETATM   22  H   UNL     1      -6.939   3.538 -34.343  1.00  0.00     0.210 HD
ENDBRANCH  12  21
ENDBRANCH  11  12
ENDBRANCH   8  11
ENDBRANCH   1   7
BRANCH   2  23
HETATM   23  C   UNL     1      -9.195   0.771 -33.554  1.00  0.00     0.110 A 
HETATM   24  N   UNL     1      -9.131   1.841 -34.321  1.00  0.00    -0.233 NA
HETATM   25  C   UNL     1     -10.401   2.363 -34.336  1.00  0.00     0.087 A 
HETATM   26  C   UNL     1     -11.262   1.592 -33.563  1.00  0.00     0.062 A 
HETATM   27  C   UNL     1     -10.892   3.502 -34.987  1.00  0.00     0.057 A 
HETATM   28  N   UNL     1     -10.470   0.584 -33.077  1.00  0.00    -0.342 N 
HETATM   29  C   UNL     1     -12.615   1.888 -33.389  1.00  0.00     0.034 A 
HETATM   30  H   UNL     1     -10.769  -0.157 -32.458  1.00  0.00     0.167 HD
HETATM   31  C   UNL     1     -13.092   3.029 -34.045  1.00  0.00     0.026 A 
HETATM   32  C   UNL     1     -12.245   3.818 -34.828  1.00  0.00     0.036 A 
HETATM   33 CL   UNL     1     -12.882   5.213 -35.614  1.00  0.00    -0.084 Cl
ENDBRANCH   2  23
TORSDOF 7
ENDMDL
MODEL 5
REMARK VINA RESULT:      -8.6      3.818      8.153
REMARK  7 active torsions:
REMARK  status: ('A' for Active; 'I' for Inactive)
REMARK    1  A    between atoms: O_2  and  C_3 
REMARK    2  A    between atoms: C_5  and  C_6 
REMARK    3  A    between atoms: C_6  and  O_7 
REMARK    4  A    between atoms: C_6  and  C_8 
REMARK    5  A    between atoms: C_8  and  N_9 
REMARK       I    between atoms: N_9  and  C_10 
REMARK    6  A    between atoms: C_10  and  C_11 
REMARK    7  A    between atoms: C_12  and  C_13 
ROOT
HETATM    1  C   UNL     1      -6.866   0.164 -32.212  1.00  0.00     0.089 C 
HETATM    2  C   UNL     1      -7.757  -0.344 -33.365  1.00  0.00     0.068 C 
HETATM    3  C   UNL     1      -6.995  -0.740 -34.642  1.00  0.00     0.013 C 
HETATM    4  C   UNL     1      -5.792  -1.626 -34.349  1.00  0.00     0.001 C 
HETATM    5  C   UNL     1      -4.863  -0.973 -33.336  1.00  0.00     0.001 C 
HETATM    6  C   UNL     1      -5.593  -0.678 -32.031  1.00  0.00     0.015 C 
ENDROOT
BRANCH   1   7
HETATM    7  C   UNL     1      -6.513   1.657 -32.177  1.00  0.00     0.222 C 
HETATM    8  N   UNL     1      -5.655   2.118 -33.142  1.00  0.00    -0.358 N 
HETATM    9  H   UNL     1      -5.796   1.701 -34.056  1.00  0.00     0.162 HD
HETATM   10  O   UNL     1      -6.911   2.361 -31.248  1.00  0.00    -0.273 OA
BRANCH   8  11
HETATM   11  C   UNL     1      -5.249   3.515 -33.208  1.00  0.00     0.159 C 
BRANCH  11  12
HETATM   12  C   UNL     1      -4.092   3.958 -32.285  1.00  0.00     0.169 C 
BRANCH  12  13
HETATM   13  C   UNL     1      -3.121   4.936 -32.919  1.00  0.00    -0.025 A 
HETATM   14  C   UNL     1      -3.020   6.264 -32.466  1.00  0.00     0.046 A 
HETATM   15  C   UNL     1      -2.103   7.146 -33.044  1.00  0.00     0.068 A 
HETATM   16  C   UNL     1      -1.294   6.702 -34.093  1.00  0.00     0.037 A 
HETATM   17  C   UNL     1      -1.388   5.392 -34.558  1.00  0.00     0.003 A 
HETATM   18  C   UNL     1      -2.297   4.512 -33.972  1.00  0.00     0.010 A 
BRANCH  15  19
HETATM   19  O   UNL     1      -1.901   8.450 -32.684  1.00  0.00    -0.356 OA
HETATM   20  C   UNL     1      -2.309   8.822 -31.373  1.00  0.00     0.210 C 
ENDBRANCH  15  19
ENDBRANCH  12  13
BRANCH  12  21
HETATM   21  O   UNL     1      -4.651   4.569 -31.111  1.00  0.00    -0.389 OA
HETATM   22  H   UNL     1      -4.919   5.467 -31.377  1.00  0.00     0.210 HD
ENDBRANCH  12  21
ENDBRANCH  11  12
ENDBRANCH   8  11
ENDBRANCH   1   7
BRANCH   2  23
HETATM   23  C   UNL     1      -8.864   0.619 -33.676  1.00  0.00     0.110 A 
HETATM   24  N   UNL     1      -8.747   1.752 -34.338  1.00  0.00    -0.233 NA
HETATM   25  C   UNL     1      -9.998   2.319 -34.327  1.00  0.00     0.087 A 
HETATM   26  C   UNL     1     -10.901   1.510 -33.646  1.00  0.00     0.062 A 
HETATM   27  C   UNL     1     -10.436   3.530 -34.878  1.00  0.00     0.057 A 
HETATM   28  N   UNL     1     -10.154   0.434 -33.242  1.00  0.00    -0.342 N 
HETATM   29  C   UNL     1     -12.247   1.837 -33.470  1.00  0.00     0.034 A 
HETATM   30  H   UNL     1     -10.491  -0.350 -32.701  1.00  0.00     0.167 HD
HETATM   31  C   UNL     1     -12.671   3.050 -34.025  1.00  0.00     0.026 A 
HETATM   32  C   UNL     1     -11.781   3.878 -34.715  1.00  0.00     0.036 A 
HETATM   33 CL   UNL     1     -12.353   5.362 -35.378  1.00  0.00    -0.084 Cl
ENDBRANCH   2  23
TORSDOF 7
ENDMDL
MODEL 6
REMARK VINA RESULT:      -8.5      3.791      6.937
REMARK  7 active torsions:
REMARK  status: ('A' for Active; 'I' for Inactive)
REMARK    1  A    between atoms: O_2  and  C_3 
REMARK    2  A    between atoms: C_5  and  C_6 
REMARK    3  A    between atoms: C_6  and  O_7 
REMARK    4  A    between atoms: C_6  and  C_8 
REMARK    5  A    between atoms: C_8  and  N_9 
REMARK       I    between atoms: N_9  and  C_10 
REMARK    6  A    between atoms: C_10  and  C_11 
REMARK    7  A    between atoms: C_12  and  C_13 
ROOT
HETATM    1  C   UNL     1      -3.041   5.772 -31.219  1.00  0.00     0.089 C 
HETATM    2  C   UNL     1      -2.441   4.605 -32.031  1.00  0.00     0.068 C 
HETATM    3  C   UNL     1      -1.995   4.974 -33.457  1.00  0.00     0.013 C 
HETATM    4  C   UNL     1      -1.163   6.249 -33.493  1.00  0.00     0.001 C 
HETATM    5  C   UNL     1      -1.900   7.405 -32.832  1.00  0.00     0.001 C 
HETATM    6  C   UNL     1      -2.248   7.078 -31.384  1.00  0.00     0.015 C 
ENDROOT
BRANCH   1   7
HETATM    7  C   UNL     1      -4.543   6.053 -31.358  1.00  0.00     0.222 C 
HETATM    8  N   UNL     1      -5.098   5.871 -32.599  1.00  0.00    -0.358 N 
HETATM    9  H   UNL     1      -4.731   5.072 -33.105  1.00  0.00     0.162 HD
HETATM   10  O   UNL     1      -5.171   6.522 -30.409  1.00  0.00    -0.273 OA
BRANCH   8  11
HETATM   11  C   UNL     1      -6.513   6.107 -32.851  1.00  0.00     0.159 C 
BRANCH  11  12
HETATM   12  C   UNL     1      -7.276   5.032 -33.655  1.00  0.00     0.169 C 
BRANCH  12  13
HETATM   13  C   UNL     1      -7.932   3.958 -32.808  1.00  0.00    -0.025 A 
HETATM   14  C   UNL     1      -8.816   3.020 -33.371  1.00  0.00     0.046 A 
HETATM   15  C   UNL     1      -9.393   2.022 -32.581  1.00  0.00     0.068 A 
HETATM   16  C   UNL     1      -9.097   1.972 -31.217  1.00  0.00     0.037 A 
HETATM   17  C   UNL     1      -8.229   2.899 -30.643  1.00  0.00     0.003 A 
HETATM   18  C   UNL     1      -7.648   3.887 -31.436  1.00  0.00     0.010 A 
BRANCH  15  19
HETATM   19  O   UNL     1     -10.251   1.049 -33.012  1.00  0.00    -0.356 OA
HETATM   20  C   UNL     1     -11.431   1.483 -33.679  1.00  0.00     0.210 C 
ENDBRANCH  15  19
ENDBRANCH  12  13
BRANCH  12  21
HETATM   21  O   UNL     1      -8.294   5.680 -34.435  1.00  0.00    -0.389 OA
HETATM   22  H   UNL     1      -8.951   6.014 -33.797  1.00  0.00     0.210 HD
ENDBRANCH  12  21
ENDBRANCH  11  12
ENDBRANCH   8  11
ENDBRANCH   1   7
BRANCH   2  23
HETATM   23  C   UNL     1      -3.352   3.414 -32.045  1.00  0.00     0.110 A 
HETATM   24  N   UNL     1      -4.035   2.968 -33.080  1.00  0.00    -0.233 NA
HETATM   25  C   UNL     1      -4.766   1.903 -32.610  1.00  0.00     0.087 A 
HETATM   26  C   UNL     1      -4.520   1.692 -31.258  1.00  0.00     0.062 A 
HETATM   27  C   UNL     1      -5.668   1.070 -33.285  1.00  0.00     0.057 A 
HETATM   28  N   UNL     1      -3.615   2.666 -30.923  1.00  0.00    -0.342 N 
HETATM   29  C   UNL     1      -5.129   0.681 -30.513  1.00  0.00     0.034 A 
HETATM   30  H   UNL     1      -3.226   2.820 -30.003  1.00  0.00     0.167 HD
HETATM   31  C   UNL     1      -6.028  -0.143 -31.200  1.00  0.00     0.026 A 
HETATM   32  C   UNL     1      -6.290   0.050 -32.559  1.00  0.00     0.036 A 
HETATM   33 CL   UNL     1      -7.407  -0.991 -33.359  1.00  0.00    -0.084 Cl
ENDBRANCH   2  23
TORSDOF 7
ENDMDL
MODEL 7
REMARK VINA RESULT:      -8.4      2.811      5.177
REMARK  7 active torsions:
REMARK  status: ('A' for Active; 'I' for Inactive)
REMARK    1  A    between atoms: O_2  and  C_3 
REMARK    2  A    between atoms: C_5  and  C_6 
REMARK    3  A    between atoms: C_6  and  O_7 
REMARK    4  A    between atoms: C_6  and  C_8 
REMARK    5  A    between atoms: C_8  and  N_9 
REMARK       I    between atoms: N_9  and  C_10 
REMARK    6  A    between atoms: C_10  and  C_11 
REMARK    7  A    between atoms: C_12  and  C_13 
ROOT
HETATM    1  C   UNL     1      -3.012   4.121 -33.373  1.00  0.00     0.089 C 
HETATM    2  C   UNL     1      -4.197   5.100 -33.505  1.00  0.00     0.068 C 
HETATM    3  C   UNL     1      -4.050   6.403 -32.699  1.00  0.00     0.013 C 
HETATM    4  C   UNL     1      -2.684   7.050 -32.887  1.00  0.00     0.001 C 
HETATM    5  C   UNL     1      -1.564   6.073 -32.560  1.00  0.00     0.001 C 
HETATM    6  C   UNL     1      -1.649   4.827 -33.435  1.00  0.00     0.015 C 
ENDROOT
BRANCH   1   7
HETATM    7  C   UNL     1      -3.029   3.121 -32.209  1.00  0.00     0.222 C 
HETATM    8  N   UNL     1      -3.860   2.037 -32.330  1.00  0.00    -0.358 N 
HETATM    9  H   UNL     1      -3.906   1.652 -33.268  1.00  0.00     0.162 HD
HETATM   10  O   UNL     1      -2.395   3.363 -31.181  1.00  0.00    -0.273 OA
BRANCH   8  11
HETATM   11  C   UNL     1      -3.959   1.023 -31.290  1.00  0.00     0.159 C 
BRANCH  11  12
HETATM   12  C   UNL     1      -3.813  -0.452 -31.725  1.00  0.00     0.169 C 
BRANCH  12  13
HETATM   13  C   UNL     1      -4.910  -0.947 -32.648  1.00  0.00    -0.025 A 
HETATM   14  C   UNL     1      -4.661  -1.944 -33.610  1.00  0.00     0.046 A 
HETATM   15  C   UNL     1      -5.688  -2.407 -34.437  1.00  0.00     0.068 A 
HETATM   16  C   UNL     1      -6.967  -1.858 -34.314  1.00  0.00     0.037 A 
HETATM   17  C   UNL     1      -7.226  -0.865 -33.372  1.00  0.00     0.003 A 
HETATM   18  C   UNL     1      -6.202  -0.413 -32.542  1.00  0.00     0.010 A 
BRANCH  15  19
HETATM   19  O   UNL     1      -5.576  -3.378 -35.394  1.00  0.00    -0.356 OA
HETATM   20  C   UNL     1      -5.736  -4.724 -34.963  1.00  0.00     0.210 C 
ENDBRANCH  15  19
ENDBRANCH  12  13
BRANCH  12  21
HETATM   21  O   UNL     1      -2.551  -0.610 -32.392  1.00  0.00    -0.389 OA
HETATM   22  H   UNL     1      -2.140   0.273 -32.403  1.00  0.00     0.210 HD
ENDBRANCH  12  21
ENDBRANCH  11  12
ENDBRANCH   8  11
ENDBRANCH   1   7
BRANCH   2  23
HETATM   23  C   UNL     1      -5.506   4.431 -33.210  1.00  0.00     0.110 A 
HETATM   24  N   UNL     1      -6.143   3.586 -33.995  1.00  0.00    -0.233 NA
HETATM   25  C   UNL     1      -7.313   3.282 -33.341  1.00  0.00     0.087 A 
HETATM   26  C   UNL     1      -7.388   3.954 -32.126  1.00  0.00     0.062 A 
HETATM   27  C   UNL     1      -8.362   2.440 -33.730  1.00  0.00     0.057 A 
HETATM   28  N   UNL     1      -6.225   4.678 -32.066  1.00  0.00    -0.342 N 
HETATM   29  C   UNL     1      -8.469   3.842 -31.250  1.00  0.00     0.034 A 
HETATM   30  H   UNL     1      -5.955   5.301 -31.318  1.00  0.00     0.167 HD
HETATM   31  C   UNL     1      -9.511   2.998 -31.652  1.00  0.00     0.026 A 
HETATM   32  C   UNL     1      -9.456   2.312 -32.868  1.00  0.00     0.036 A 
HETATM   33 CL   UNL     1     -10.765   1.285 -33.317  1.00  0.00    -0.084 Cl
ENDBRANCH   2  23
TORSDOF 7
ENDMDL
MODEL 8
REMARK VINA RESULT:      -8.3      6.474      9.897
REMARK  7 active torsions:
REMARK  status: ('A' for Active; 'I' for Inactive)
REMARK    1  A    between atoms: O_2  and  C_3 
REMARK    2  A    between atoms: C_5  and  C_6 
REMARK    3  A    between atoms: C_6  and  O_7 
REMARK    4  A    between atoms: C_6  and  C_8 
REMARK    5  A    between atoms: C_8  and  N_9 
REMARK       I    between atoms: N_9  and  C_10 
REMARK    6  A    between atoms: C_10  and  C_11 
REMARK    7  A    between atoms: C_12  and  C_13 
ROOT
HETATM    1  C   UNL     1      -1.271   7.318 -32.655  1.00  0.00     0.089 C 
HETATM    2  C   UNL     1      -0.677   6.135 -31.862  1.00  0.00     0.068 C 
HETATM    3  C   UNL     1      -1.547   4.866 -31.849  1.00  0.00     0.013 C 
HETATM    4  C   UNL     1      -2.051   4.494 -33.236  1.00  0.00     0.001 C 
HETATM    5  C   UNL     1      -2.788   5.657 -33.884  1.00  0.00     0.001 C 
HETATM    6  C   UNL     1      -1.890   6.884 -33.993  1.00  0.00     0.015 C 
ENDROOT
BRANCH   1   7
HETATM    7  C   UNL     1      -2.227   8.270 -31.924  1.00  0.00     0.222 C 
HETATM    8  N   UNL     1      -3.349   7.717 -31.361  1.00  0.00    -0.358 N 
HETATM    9  H   UNL     1      -3.195   6.806 -30.940  1.00  0.00     0.162 HD
HETATM   10  O   UNL     1      -2.026   9.484 -31.952  1.00  0.00    -0.273 OA
BRANCH   8  11
HETATM   11  C   UNL     1      -4.327   8.522 -30.643  1.00  0.00     0.159 C 
BRANCH  11  12
HETATM   12  C   UNL     1      -4.668   8.096 -29.198  1.00  0.00     0.169 C 
BRANCH  12  13
HETATM   13  C   UNL     1      -3.733   8.651 -28.141  1.00  0.00    -0.025 A 
HETATM   14  C   UNL     1      -3.874   8.304 -26.784  1.00  0.00     0.046 A 
HETATM   15  C   UNL     1      -2.989   8.804 -25.826  1.00  0.00     0.068 A 
HETATM   16  C   UNL     1      -1.968   9.671 -26.223  1.00  0.00     0.037 A 
HETATM   17  C   UNL     1      -1.821  10.030 -27.561  1.00  0.00     0.003 A 
HETATM   18  C   UNL     1      -2.699   9.521 -28.515  1.00  0.00     0.010 A 
BRANCH  15  19
HETATM   19  O   UNL     1      -3.013   8.529 -24.486  1.00  0.00    -0.356 OA
HETATM   20  C   UNL     1      -2.078   9.227 -23.672  1.00  0.00     0.210 C 
ENDBRANCH  15  19
ENDBRANCH  12  13
BRANCH  12  21
HETATM   21  O   UNL     1      -6.004   8.531 -28.896  1.00  0.00    -0.389 OA
HETATM   22  H   UNL     1      -5.947   9.013 -28.052  1.00  0.00     0.210 HD
ENDBRANCH  12  21
ENDBRANCH  11  12
ENDBRANCH   8  11
ENDBRANCH   1   7
BRANCH   2  23
HETATM   23  C   UNL     1      -0.294   6.538 -30.469  1.00  0.00     0.110 A 
HETATM   24  N   UNL     1       0.611   7.439 -30.140  1.00  0.00    -0.233 NA
HETATM   25  C   UNL     1       0.661   7.429 -28.767  1.00  0.00     0.087 A 
HETATM   26  C   UNL     1      -0.238   6.504 -28.246  1.00  0.00     0.062 A 
HETATM   27  C   UNL     1       1.457   8.184 -27.896  1.00  0.00     0.057 A 
HETATM   28  N   UNL     1      -0.833   5.952 -29.351  1.00  0.00    -0.342 N 
HETATM   29  C   UNL     1      -0.398   6.273 -26.879  1.00  0.00     0.034 A 
HETATM   30  H   UNL     1      -1.534   5.223 -29.342  1.00  0.00     0.167 HD
HETATM   31  C   UNL     1       0.403   7.034 -26.020  1.00  0.00     0.026 A 
HETATM   32  C   UNL     1       1.312   7.969 -26.522  1.00  0.00     0.036 A 
HETATM   33 CL   UNL     1       2.278   8.880 -25.422  1.00  0.00    -0.084 Cl
ENDBRANCH   2  23
TORSDOF 7
ENDMDL
MODEL 9
REMARK VINA RESULT:      -8.3      4.599      8.253
REMARK  7 active torsions:
REMARK  status: ('A' for Active; 'I' for Inactive)
REMARK    1  A    between atoms: O_2  and  C_3 
REMARK    2  A    between atoms: C_5  and  C_6 
REMARK    3  A    between atoms: C_6  and  O_7 
REMARK    4  A    between atoms: C_6  and  C_8 
REMARK    5  A    between atoms: C_8  and  N_9 
REMARK       I    between atoms: N_9  and  C_10 
REMARK    6  A    between atoms: C_10  and  C_11 
REMARK    7  A    between atoms: C_12  and  C_13 
ROOT
HETATM    1  C   UNL     1      -0.398   6.910 -27.059  1.00  0.00     0.089 C 
HETATM    2  C   UNL     1       0.618   7.078 -28.208  1.00  0.00     0.068 C 
HETATM    3  C   UNL     1       1.428   8.386 -28.166  1.00  0.00     0.013 C 
HETATM    4  C   UNL     1       2.000   8.670 -26.784  1.00  0.00     0.001 C 
HETATM    5  C   UNL     1       0.906   8.669 -25.725  1.00  0.00     0.001 C 
HETATM    6  C   UNL     1       0.173   7.333 -25.696  1.00  0.00     0.015 C 
ENDROOT
BRANCH   1   7
HETATM    7  C   UNL     1      -1.801   7.504 -27.243  1.00  0.00     0.222 C 
HETATM    8  N   UNL     1      -2.861   6.640 -27.146  1.00  0.00    -0.358 N 
HETATM    9  H   UNL     1      -2.753   5.930 -26.430  1.00  0.00     0.162 HD
HETATM   10  O   UNL     1      -1.930   8.685 -27.569  1.00  0.00    -0.273 OA
BRANCH   8  11
HETATM   11  C   UNL     1      -4.237   7.090 -27.303  1.00  0.00     0.159 C 
BRANCH  11  12
HETATM   12  C   UNL     1      -5.309   6.008 -27.559  1.00  0.00     0.169 C 
BRANCH  12  13
HETATM   13  C   UNL     1      -5.402   5.542 -28.999  1.00  0.00    -0.025 A 
HETATM   14  C   UNL     1      -6.353   4.584 -29.399  1.00  0.00     0.046 A 
HETATM   15  C   UNL     1      -6.442   4.183 -30.734  1.00  0.00     0.068 A 
HETATM   16  C   UNL     1      -5.564   4.731 -31.673  1.00  0.00     0.037 A 
HETATM   17  C   UNL     1      -4.613   5.675 -31.292  1.00  0.00     0.003 A 
HETATM   18  C   UNL     1      -4.534   6.079 -29.961  1.00  0.00     0.010 A 
BRANCH  15  19
HETATM   19  O   UNL     1      -7.329   3.277 -31.246  1.00  0.00    -0.356 OA
HETATM   20  C   UNL     1      -6.899   1.922 -31.304  1.00  0.00     0.210 C 
ENDBRANCH  15  19
ENDBRANCH  12  13
BRANCH  12  21
HETATM   21  O   UNL     1      -5.018   4.870 -26.731  1.00  0.00    -0.389 OA
HETATM   22  H   UNL     1      -5.675   4.885 -26.013  1.00  0.00     0.210 HD
ENDBRANCH  12  21
ENDBRANCH  11  12
ENDBRANCH   8  11
ENDBRANCH   1   7
BRANCH   2  23
HETATM   23  C   UNL     1      -0.025   6.887 -29.549  1.00  0.00     0.110 A 
HETATM   24  N   UNL     1      -0.040   5.774 -30.254  1.00  0.00    -0.233 NA
HETATM   25  C   UNL     1      -0.685   6.086 -31.426  1.00  0.00     0.087 A 
HETATM   26  C   UNL     1      -1.077   7.421 -31.434  1.00  0.00     0.062 A 
HETATM   27  C   UNL     1      -0.969   5.277 -32.534  1.00  0.00     0.057 A 
HETATM   28  N   UNL     1      -0.645   7.908 -30.227  1.00  0.00    -0.342 N 
HETATM   29  C   UNL     1      -1.748   8.019 -32.502  1.00  0.00     0.034 A 
HETATM   30  H   UNL     1      -0.749   8.859 -29.903  1.00  0.00     0.167 HD
HETATM   31  C   UNL     1      -2.025   7.199 -33.602  1.00  0.00     0.026 A 
HETATM   32  C   UNL     1      -1.641   5.855 -33.615  1.00  0.00     0.036 A 
HETATM   33 CL   UNL     1      -2.004   4.888 -34.995  1.00  0.00    -0.084 Cl
ENDBRANCH   2  23
TORSDOF 7
ENDMDL
MODEL 10
REMARK VINA RESULT:      -8.2      3.446      7.555
REMARK  7 active torsions:
REMARK  status: ('A' for Active; 'I' for Inactive)
REMARK    1  A    between atoms: O_2  and  C_3 
REMARK    2  A    between atoms: C_5  and  C_6 
REMARK    3  A    between atoms: C_6  and  O_7 
REMARK    4  A    between atoms: C_6  and  C_8 
REMARK    5  A    between atoms: C_8  and  N_9 
REMARK       I    between atoms: N_9  and  C_10 
REMARK    6  A    between atoms: C_10  and  C_11 
REMARK    7  A    between atoms: C_12  and  C_13 
ROOT
HETATM    1  C   UNL     1      -6.755   0.107 -32.123  1.00  0.00     0.089 C 
HETATM    2  C   UNL     1      -7.825   0.093 -33.235  1.00  0.00     0.068 C 
HETATM    3  C   UNL     1      -7.284  -0.203 -34.646  1.00  0.00     0.013 C 
HETATM    4  C   UNL     1      -6.348  -1.404 -34.668  1.00  0.00     0.001 C 
HETATM    5  C   UNL     1      -5.212  -1.233 -33.669  1.00  0.00     0.001 C 
HETATM    6  C   UNL     1      -5.747  -1.045 -32.255  1.00  0.00     0.015 C 
ENDROOT
BRANCH   1   7
HETATM    7  C   UNL     1      -6.012   1.422 -31.854  1.00  0.00     0.222 C 
HETATM    8  N   UNL     1      -5.378   2.009 -32.919  1.00  0.00    -0.358 N 
HETATM    9  H   UNL     1      -5.887   1.940 -33.794  1.00  0.00     0.162 HD
HETATM   10  O   UNL     1      -5.914   1.848 -30.703  1.00  0.00    -0.273 OA
BRANCH   8  11
HETATM   11  C   UNL     1      -4.641   3.258 -32.782  1.00  0.00     0.159 C 
BRANCH  11  12
HETATM   12  C   UNL     1      -3.123   3.157 -32.517  1.00  0.00     0.169 C 
BRANCH  12  13
HETATM   13  C   UNL     1      -2.339   4.408 -32.865  1.00  0.00    -0.025 A 
HETATM   14  C   UNL     1      -1.783   5.225 -31.864  1.00  0.00     0.046 A 
HETATM   15  C   UNL     1      -1.042   6.361 -32.201  1.00  0.00     0.068 A 
HETATM   16  C   UNL     1      -0.871   6.691 -33.547  1.00  0.00     0.037 A 
HETATM   17  C   UNL     1      -1.422   5.896 -34.550  1.00  0.00     0.003 A 
HETATM   18  C   UNL     1      -2.151   4.759 -34.210  1.00  0.00     0.010 A 
BRANCH  15  19
HETATM   19  O   UNL     1      -0.442   7.221 -31.324  1.00  0.00    -0.356 OA
HETATM   20  C   UNL     1       0.250   6.638 -30.226  1.00  0.00     0.210 C 
ENDBRANCH  15  19
ENDBRANCH  12  13
BRANCH  12  21
HETATM   21  O   UNL     1      -2.919   2.865 -31.125  1.00  0.00    -0.389 OA
HETATM   22  H   UNL     1      -1.956   2.787 -31.004  1.00  0.00     0.210 HD
ENDBRANCH  12  21
ENDBRANCH  11  12
ENDBRANCH   8  11
ENDBRANCH   1   7
BRANCH   2  23
HETATM   23  C   UNL     1      -8.649   1.345 -33.228  1.00  0.00     0.110 A 
HETATM   24  N   UNL     1      -8.531   2.360 -34.061  1.00  0.00    -0.233 NA
HETATM   25  C   UNL     1      -9.447   3.294 -33.639  1.00  0.00     0.087 A 
HETATM   26  C   UNL     1     -10.142   2.836 -32.526  1.00  0.00     0.062 A 
HETATM   27  C   UNL     1      -9.735   4.562 -34.160  1.00  0.00     0.057 A 
HETATM   28  N   UNL     1      -9.617   1.593 -32.285  1.00  0.00    -0.342 N 
HETATM   29  C   UNL     1     -11.131   3.578 -31.878  1.00  0.00     0.034 A 
HETATM   30  H   UNL     1      -9.882   0.975 -31.531  1.00  0.00     0.167 HD
HETATM   31  C   UNL     1     -11.409   4.843 -32.408  1.00  0.00     0.026 A 
HETATM   32  C   UNL     1     -10.723   5.323 -33.527  1.00  0.00     0.036 A 
HETATM   33 CL   UNL     1     -11.101   6.889 -34.141  1.00  0.00    -0.084 Cl
ENDBRANCH   2  23
TORSDOF 7
ENDMDL
