MODEL 1
REMARK VINA RESULT:      -7.6      0.000      0.000
REMARK  6 active torsions:
REMARK  status: ('A' for Active; 'I' for Inactive)
REMARK    1  A    between atoms: C_2  and  O_3 
REMARK    2  A    between atoms: O_3  and  C_4 
REMARK    3  A    between atoms: C_13  and  C_14 
REMARK    4  A    between atoms: C_14  and  N_15 
REMARK    5  A    between atoms: N_15  and  C_16 
REMARK    6  A    between atoms: C_19  and  O_20 
ROOT
HETATM    1  C   UNL     1      -1.214   5.429 -32.222  1.00  0.00     0.070 A 
HETATM    2  C   UNL     1      -2.042   4.931 -31.212  1.00  0.00     0.067 A 
HETATM    3  C   UNL     1      -3.199   4.228 -31.542  1.00  0.00     0.048 A 
HETATM    4  C   UNL     1      -3.543   4.008 -32.879  1.00  0.00    -0.009 A 
HETATM    5  C   UNL     1      -2.710   4.495 -33.888  1.00  0.00     0.016 A 
HETATM    6  C   UNL     1      -1.548   5.203 -33.559  1.00  0.00     0.038 A 
HETATM    7  N   UNL     1      -4.034   3.735 -30.533  1.00  0.00    -0.322 N 
HETATM    8  C   UNL     1      -5.188   3.037 -30.774  1.00  0.00     0.253 A 
HETATM    9  O   UNL     1      -5.876   2.610 -29.851  1.00  0.00    -0.268 OA
HETATM   10  C   UNL     1      -5.566   2.819 -32.200  1.00  0.00     0.024 A 
HETATM   11  C   UNL     1      -4.776   3.286 -33.184  1.00  0.00     0.027 A 
HETATM   12  H   UNL     1      -3.795   3.875 -29.560  1.00  0.00     0.169 HD
ENDROOT
BRANCH  10  13
HETATM   13  C   UNL     1      -6.874   2.127 -32.458  1.00  0.00     0.136 C 
BRANCH  13  14
HETATM   14  N   UNL     1      -6.817   0.787 -31.884  1.00  0.00    -0.289 NA
HETATM   15  H   UNL     1      -7.656   0.589 -31.340  1.00  0.00     0.128 HD
BRANCH  14  16
HETATM   16  C   UNL     1      -6.504  -0.302 -32.710  1.00  0.00     0.008 A 
HETATM   17  C   UNL     1      -7.380  -0.846 -33.653  1.00  0.00     0.026 A 
HETATM   18  C   UNL     1      -6.970  -1.875 -34.510  1.00  0.00     0.038 A 
HETATM   19  C   UNL     1      -5.665  -2.365 -34.469  1.00  0.00     0.068 A 
HETATM   20  C   UNL     1      -4.770  -1.811 -33.560  1.00  0.00     0.038 A 
HETATM   21  C   UNL     1      -5.187  -0.782 -32.703  1.00  0.00     0.026 A 
BRANCH  19  22
HETATM   22  O   UNL     1      -5.396  -3.362 -35.364  1.00  0.00    -0.356 OA
HETATM   23  C   UNL     1      -6.268  -4.484 -35.354  1.00  0.00     0.210 C 
ENDBRANCH  19  22
ENDBRANCH  14  16
ENDBRANCH  13  14
ENDBRANCH  10  13
BRANCH   1  24
HETATM   24  O   UNL     1      -0.117   6.113 -31.774  1.00  0.00    -0.351 OA
BRANCH  24  25
HETATM   25  C   UNL     1       0.349   5.806 -30.460  1.00  0.00     0.171 C 
HETATM   26  C   UNL     1       0.431   7.104 -29.676  1.00  0.00     0.034 C 
ENDBRANCH  24  25
ENDBRANCH   1  24
TORSDOF 6
ENDMDL
MODEL 2
REMARK VINA RESULT:      -7.4      1.697      8.674
REMARK  6 active torsions:
REMARK  status: ('A' for Active; 'I' for Inactive)
REMARK    1  A    between atoms: C_2  and  O_3 
REMARK    2  A    between atoms: O_3  and  C_4 
REMARK    3  A    between atoms: C_13  and  C_14 
REMARK    4  A    between atoms: C_14  and  N_15 
REMARK    5  A    between atoms: N_15  and  C_16 
REMARK    6  A    between atoms: C_19  and  O_20 
ROOT
HETATM    1  C   UNL     1      -6.658  -1.130 -34.570  1.00  0.00     0.070 A 
HETATM    2  C   UNL     1      -5.590  -0.925 -33.692  1.00  0.00     0.067 A 
HETATM    3  C   UNL     1      -5.280   0.363 -33.259  1.00  0.00     0.048 A 
HETATM    4  C   UNL     1      -6.031   1.460 -33.691  1.00  0.00    -0.009 A 
HETATM    5  C   UNL     1      -7.106   1.254 -34.558  1.00  0.00     0.016 A 
HETATM    6  C   UNL     1      -7.418  -0.038 -34.996  1.00  0.00     0.038 A 
HETATM    7  N   UNL     1      -4.206   0.572 -32.386  1.00  0.00    -0.322 N 
HETATM    8  C   UNL     1      -3.836   1.805 -31.917  1.00  0.00     0.253 A 
HETATM    9  O   UNL     1      -2.896   1.932 -31.137  1.00  0.00    -0.268 OA
HETATM   10  C   UNL     1      -4.625   2.979 -32.393  1.00  0.00     0.024 A 
HETATM   11  C   UNL     1      -5.661   2.798 -33.232  1.00  0.00     0.027 A 
HETATM   12  H   UNL     1      -3.659  -0.211 -32.055  1.00  0.00     0.169 HD
ENDROOT
BRANCH  10  13
HETATM   13  C   UNL     1      -4.163   4.335 -31.942  1.00  0.00     0.136 C 
BRANCH  13  14
HETATM   14  N   UNL     1      -2.787   4.533 -32.386  1.00  0.00    -0.289 NA
HETATM   15  H   UNL     1      -2.758   4.790 -33.372  1.00  0.00     0.128 HD
BRANCH  14  16
HETATM   16  C   UNL     1      -1.936   5.361 -31.641  1.00  0.00     0.008 A 
HETATM   17  C   UNL     1      -2.371   6.229 -30.636  1.00  0.00     0.026 A 
HETATM   18  C   UNL     1      -1.456   6.960 -29.868  1.00  0.00     0.038 A 
HETATM   19  C   UNL     1      -0.083   6.818 -30.061  1.00  0.00     0.068 A 
HETATM   20  C   UNL     1       0.369   5.931 -31.033  1.00  0.00     0.038 A 
HETATM   21  C   UNL     1      -0.551   5.204 -31.801  1.00  0.00     0.026 A 
BRANCH  19  22
HETATM   22  O   UNL     1       0.696   7.583 -29.238  1.00  0.00    -0.356 OA
HETATM   23  C   UNL     1       0.829   7.146 -27.892  1.00  0.00     0.210 C 
ENDBRANCH  19  22
ENDBRANCH  14  16
ENDBRANCH  13  14
ENDBRANCH  10  13
BRANCH   1  24
HETATM   24  O   UNL     1      -6.854  -2.435 -34.933  1.00  0.00    -0.351 OA
BRANCH  24  25
HETATM   25  C   UNL     1      -5.704  -3.278 -34.977  1.00  0.00     0.171 C 
HETATM   26  C   UNL     1      -6.180  -4.717 -35.075  1.00  0.00     0.034 C 
ENDBRANCH  24  25
ENDBRANCH   1  24
TORSDOF 6
ENDMDL
MODEL 3
REMARK VINA RESULT:      -7.4      1.926      8.017
REMARK  6 active torsions:
REMARK  status: ('A' for Active; 'I' for Inactive)
REMARK    1  A    between atoms: C_2  and  O_3 
REMARK    2  A    between atoms: O_3  and  C_4 
REMARK    3  A    between atoms: C_13  and  C_14 
REMARK    4  A    between atoms: C_14  and  N_15 
REMARK    5  A    between atoms: N_15  and  C_16 
REMARK    6  A    between atoms: C_19  and  O_20 
ROOT
HETATM    1  C   UNL     1      -5.748  -2.281 -34.261  1.00  0.00     0.070 A 
HETATM    2  C   UNL     1      -5.015  -1.380 -33.483  1.00  0.00     0.067 A 
HETATM    3  C   UNL     1      -5.361  -0.030 -33.469  1.00  0.00     0.048 A 
HETATM    4  C   UNL     1      -6.440   0.438 -34.223  1.00  0.00    -0.009 A 
HETATM    5  C   UNL     1      -7.180  -0.464 -34.991  1.00  0.00     0.016 A 
HETATM    6  C   UNL     1      -6.834  -1.820 -35.009  1.00  0.00     0.038 A 
HETATM    7  N   UNL     1      -4.624   0.876 -32.697  1.00  0.00    -0.322 N 
HETATM    8  C   UNL     1      -4.898   2.217 -32.630  1.00  0.00     0.253 A 
HETATM    9  O   UNL     1      -4.231   2.966 -31.922  1.00  0.00    -0.268 OA
HETATM   10  C   UNL     1      -6.038   2.720 -33.450  1.00  0.00     0.024 A 
HETATM   11  C   UNL     1      -6.757   1.865 -34.199  1.00  0.00     0.027 A 
HETATM   12  H   UNL     1      -3.847   0.553 -32.136  1.00  0.00     0.169 HD
ENDROOT
BRANCH  10  13
HETATM   13  C   UNL     1      -6.279   4.202 -33.439  1.00  0.00     0.136 C 
BRANCH  13  14
HETATM   14  N   UNL     1      -5.431   4.824 -34.450  1.00  0.00    -0.289 NA
HETATM   15  H   UNL     1      -5.986   5.388 -35.092  1.00  0.00     0.128 HD
BRANCH  14  16
HETATM   16  C   UNL     1      -4.286   5.528 -34.050  1.00  0.00     0.008 A 
HETATM   17  C   UNL     1      -4.217   6.323 -32.902  1.00  0.00     0.026 A 
HETATM   18  C   UNL     1      -3.014   6.925 -32.512  1.00  0.00     0.038 A 
HETATM   19  C   UNL     1      -1.842   6.720 -33.238  1.00  0.00     0.068 A 
HETATM   20  C   UNL     1      -1.884   5.903 -34.362  1.00  0.00     0.038 A 
HETATM   21  C   UNL     1      -3.092   5.305 -34.750  1.00  0.00     0.026 A 
BRANCH  19  22
HETATM   22  O   UNL     1      -0.739   7.358 -32.742  1.00  0.00    -0.356 OA
HETATM   23  C   UNL     1      -0.082   6.742 -31.643  1.00  0.00     0.210 C 
ENDBRANCH  19  22
ENDBRANCH  14  16
ENDBRANCH  13  14
ENDBRANCH  10  13
BRANCH   1  24
HETATM   24  O   UNL     1      -5.305  -3.574 -34.204  1.00  0.00    -0.351 OA
BRANCH  24  25
HETATM   25  C   UNL     1      -3.910  -3.775 -33.975  1.00  0.00     0.171 C 
HETATM   26  C   UNL     1      -3.715  -5.199 -33.486  1.00  0.00     0.034 C 
ENDBRANCH  24  25
ENDBRANCH   1  24
TORSDOF 6
ENDMDL
MODEL 4
REMARK VINA RESULT:      -7.3      2.054      7.428
REMARK  6 active torsions:
REMARK  status: ('A' for Active; 'I' for Inactive)
REMARK    1  A    between atoms: C_2  and  O_3 
REMARK    2  A    between atoms: O_3  and  C_4 
REMARK    3  A    between atoms: C_13  and  C_14 
REMARK    4  A    between atoms: C_14  and  N_15 
REMARK    5  A    between atoms: N_15  and  C_16 
REMARK    6  A    between atoms: C_19  and  O_20 
ROOT
HETATM    1  C   UNL     1      -6.655  -1.319 -34.739  1.00  0.00     0.070 A 
HETATM    2  C   UNL     1      -6.276  -1.380 -33.395  1.00  0.00     0.067 A 
HETATM    3  C   UNL     1      -6.353  -0.241 -32.596  1.00  0.00     0.048 A 
HETATM    4  C   UNL     1      -6.810   0.970 -33.124  1.00  0.00    -0.009 A 
HETATM    5  C   UNL     1      -7.199   1.029 -34.464  1.00  0.00     0.016 A 
HETATM    6  C   UNL     1      -7.122  -0.114 -35.268  1.00  0.00     0.038 A 
HETATM    7  N   UNL     1      -5.967  -0.297 -31.252  1.00  0.00    -0.322 N 
HETATM    8  C   UNL     1      -6.010   0.777 -30.403  1.00  0.00     0.253 A 
HETATM    9  O   UNL     1      -5.678   0.669 -29.226  1.00  0.00    -0.268 OA
HETATM   10  C   UNL     1      -6.480   2.075 -30.970  1.00  0.00     0.024 A 
HETATM   11  C   UNL     1      -6.854   2.149 -32.260  1.00  0.00     0.027 A 
HETATM   12  H   UNL     1      -5.644  -1.168 -30.851  1.00  0.00     0.169 HD
ENDROOT
BRANCH  10  13
HETATM   13  C   UNL     1      -6.444   3.267 -30.057  1.00  0.00     0.136 C 
BRANCH  13  14
HETATM   14  N   UNL     1      -5.062   3.715 -29.924  1.00  0.00    -0.289 NA
HETATM   15  H   UNL     1      -4.517   3.051 -29.376  1.00  0.00     0.128 HD
BRANCH  14  16
HETATM   16  C   UNL     1      -4.351   4.103 -31.068  1.00  0.00     0.008 A 
HETATM   17  C   UNL     1      -3.297   3.370 -31.620  1.00  0.00     0.026 A 
HETATM   18  C   UNL     1      -2.691   3.767 -32.819  1.00  0.00     0.038 A 
HETATM   19  C   UNL     1      -3.144   4.887 -33.514  1.00  0.00     0.068 A 
HETATM   20  C   UNL     1      -4.215   5.608 -32.997  1.00  0.00     0.038 A 
HETATM   21  C   UNL     1      -4.817   5.207 -31.796  1.00  0.00     0.026 A 
BRANCH  19  22
HETATM   22  O   UNL     1      -2.469   5.157 -34.672  1.00  0.00    -0.356 OA
HETATM   23  C   UNL     1      -1.232   5.847 -34.547  1.00  0.00     0.210 C 
ENDBRANCH  19  22
ENDBRANCH  14  16
ENDBRANCH  13  14
ENDBRANCH  10  13
BRANCH   1  24
HETATM   24  O   UNL     1      -6.522  -2.497 -35.422  1.00  0.00    -0.351 OA
BRANCH  24  25
HETATM   25  C   UNL     1      -5.633  -3.470 -34.875  1.00  0.00     0.171 C 
HETATM   26  C   UNL     1      -6.206  -4.846 -35.165  1.00  0.00     0.034 C 
ENDBRANCH  24  25
ENDBRANCH   1  24
TORSDOF 6
ENDMDL
MODEL 5
REMARK VINA RESULT:      -7.3      2.213      8.730
REMARK  6 active torsions:
REMARK  status: ('A' for Active; 'I' for Inactive)
REMARK    1  A    between atoms: C_2  and  O_3 
REMARK    2  A    between atoms: O_3  and  C_4 
REMARK    3  A    between atoms: C_13  and  C_14 
REMARK    4  A    between atoms: C_14  and  N_15 
REMARK    5  A    between atoms: N_15  and  C_16 
REMARK    6  A    between atoms: C_19  and  O_20 
ROOT
HETATM    1  C   UNL     1      -6.739  -1.542 -34.526  1.00  0.00     0.070 A 
HETATM    2  C   UNL     1      -5.657  -1.627 -33.646  1.00  0.00     0.067 A 
HETATM    3  C   UNL     1      -5.094  -0.466 -33.118  1.00  0.00     0.048 A 
HETATM    4  C   UNL     1      -5.603   0.791 -33.456  1.00  0.00    -0.009 A 
HETATM    5  C   UNL     1      -6.692   0.875 -34.327  1.00  0.00     0.016 A 
HETATM    6  C   UNL     1      -7.258  -0.288 -34.859  1.00  0.00     0.038 A 
HETATM    7  N   UNL     1      -4.005  -0.548 -32.242  1.00  0.00    -0.322 N 
HETATM    8  C   UNL     1      -3.395   0.544 -31.683  1.00  0.00     0.253 A 
HETATM    9  O   UNL     1      -2.454   0.416 -30.905  1.00  0.00    -0.268 OA
HETATM   10  C   UNL     1      -3.926   1.887 -32.059  1.00  0.00     0.024 A 
HETATM   11  C   UNL     1      -4.971   1.985 -32.900  1.00  0.00     0.027 A 
HETATM   12  H   UNL     1      -3.631  -1.450 -31.978  1.00  0.00     0.169 HD
ENDROOT
BRANCH  10  13
HETATM   13  C   UNL     1      -3.199   3.081 -31.510  1.00  0.00     0.136 C 
BRANCH  13  14
HETATM   14  N   UNL     1      -2.666   3.859 -32.623  1.00  0.00    -0.289 NA
HETATM   15  H   UNL     1      -3.134   3.613 -33.494  1.00  0.00     0.128 HD
BRANCH  14  16
HETATM   16  C   UNL     1      -2.563   5.252 -32.502  1.00  0.00     0.008 A 
HETATM   17  C   UNL     1      -3.375   6.028 -31.672  1.00  0.00     0.026 A 
HETATM   18  C   UNL     1      -3.157   7.404 -31.529  1.00  0.00     0.038 A 
HETATM   19  C   UNL     1      -2.101   8.034 -32.186  1.00  0.00     0.068 A 
HETATM   20  C   UNL     1      -1.261   7.270 -32.989  1.00  0.00     0.038 A 
HETATM   21  C   UNL     1      -1.485   5.894 -33.130  1.00  0.00     0.026 A 
BRANCH  19  22
HETATM   22  O   UNL     1      -1.997   9.377 -31.953  1.00  0.00    -0.356 OA
HETATM   23  C   UNL     1      -2.555   9.861 -30.739  1.00  0.00     0.210 C 
ENDBRANCH  19  22
ENDBRANCH  14  16
ENDBRANCH  13  14
ENDBRANCH  10  13
BRANCH   1  24
HETATM   24  O   UNL     1      -7.194  -2.747 -34.987  1.00  0.00    -0.351 OA
BRANCH  24  25
HETATM   25  C   UNL     1      -6.572  -3.920 -34.465  1.00  0.00     0.171 C 
HETATM   26  C   UNL     1      -6.230  -4.829 -35.632  1.00  0.00     0.034 C 
ENDBRANCH  24  25
ENDBRANCH   1  24
TORSDOF 6
ENDMDL
MODEL 6
REMARK VINA RESULT:      -7.2      2.193      7.446
REMARK  6 active torsions:
REMARK  status: ('A' for Active; 'I' for Inactive)
REMARK    1  A    between atoms: C_2  and  O_3 
REMARK    2  A    between atoms: O_3  and  C_4 
REMARK    3  A    between atoms: C_13  and  C_14 
REMARK    4  A    between atoms: C_14  and  N_15 
REMARK    5  A    between atoms: N_15  and  C_16 
REMARK    6  A    between atoms: C_19  and  O_20 
ROOT
HETATM    1  C   UNL     1      -5.447  -2.307 -34.438  1.00  0.00     0.070 A 
HETATM    2  C   UNL     1      -6.563  -1.606 -33.972  1.00  0.00     0.067 A 
HETATM    3  C   UNL     1      -6.404  -0.580 -33.042  1.00  0.00     0.048 A 
HETATM    4  C   UNL     1      -5.135  -0.238 -32.568  1.00  0.00    -0.009 A 
HETATM    5  C   UNL     1      -4.018  -0.930 -33.042  1.00  0.00     0.016 A 
HETATM    6  C   UNL     1      -4.175  -1.961 -33.975  1.00  0.00     0.038 A 
HETATM    7  N   UNL     1      -7.521   0.118 -32.567  1.00  0.00    -0.322 N 
HETATM    8  C   UNL     1      -7.450   1.135 -31.653  1.00  0.00     0.253 A 
HETATM    9  O   UNL     1      -8.459   1.728 -31.283  1.00  0.00    -0.268 OA
HETATM   10  C   UNL     1      -6.097   1.489 -31.132  1.00  0.00     0.024 A 
HETATM   11  C   UNL     1      -5.012   0.829 -31.576  1.00  0.00     0.027 A 
HETATM   12  H   UNL     1      -8.446  -0.110 -32.908  1.00  0.00     0.169 HD
ENDROOT
BRANCH  10  13
HETATM   13  C   UNL     1      -6.035   2.547 -30.068  1.00  0.00     0.136 C 
BRANCH  13  14
HETATM   14  N   UNL     1      -6.325   3.841 -30.676  1.00  0.00    -0.289 NA
HETATM   15  H   UNL     1      -6.407   4.566 -29.964  1.00  0.00     0.128 HD
BRANCH  14  16
HETATM   16  C   UNL     1      -5.535   4.293 -31.742  1.00  0.00     0.008 A 
HETATM   17  C   UNL     1      -4.145   4.428 -31.685  1.00  0.00     0.026 A 
HETATM   18  C   UNL     1      -3.408   4.798 -32.817  1.00  0.00     0.038 A 
HETATM   19  C   UNL     1      -4.036   5.010 -34.043  1.00  0.00     0.068 A 
HETATM   20  C   UNL     1      -5.415   4.846 -34.127  1.00  0.00     0.038 A 
HETATM   21  C   UNL     1      -6.148   4.478 -32.990  1.00  0.00     0.026 A 
BRANCH  19  22
HETATM   22  O   UNL     1      -3.198   5.357 -35.066  1.00  0.00    -0.356 OA
HETATM   23  C   UNL     1      -1.809   5.147 -34.856  1.00  0.00     0.210 C 
ENDBRANCH  19  22
ENDBRANCH  14  16
ENDBRANCH  13  14
ENDBRANCH  10  13
BRANCH   1  24
HETATM   24  O   UNL     1      -5.731  -3.298 -35.337  1.00  0.00    -0.351 OA
BRANCH  24  25
HETATM   25  C   UNL     1      -6.093  -4.573 -34.806  1.00  0.00     0.171 C 
HETATM   26  C   UNL     1      -4.826  -5.252 -34.314  1.00  0.00     0.034 C 
ENDBRANCH  24  25
ENDBRANCH   1  24
TORSDOF 6
ENDMDL
MODEL 7
REMARK VINA RESULT:      -7.1     16.130     18.308
REMARK  6 active torsions:
REMARK  status: ('A' for Active; 'I' for Inactive)
REMARK    1  A    between atoms: C_2  and  O_3 
REMARK    2  A    between atoms: O_3  and  C_4 
REMARK    3  A    between atoms: C_13  and  C_14 
REMARK    4  A    between atoms: C_14  and  N_15 
REMARK    5  A    between atoms: N_15  and  C_16 
REMARK    6  A    between atoms: C_19  and  O_20 
ROOT
HETATM    1  C   UNL     1      -8.632 -12.882 -39.251  1.00  0.00     0.070 A 
HETATM    2  C   UNL     1      -7.872 -13.134 -38.105  1.00  0.00     0.067 A 
HETATM    3  C   UNL     1      -6.495 -12.920 -38.120  1.00  0.00     0.048 A 
HETATM    4  C   UNL     1      -5.859 -12.450 -39.273  1.00  0.00    -0.009 A 
HETATM    5  C   UNL     1      -6.619 -12.187 -40.414  1.00  0.00     0.016 A 
HETATM    6  C   UNL     1      -8.002 -12.402 -40.402  1.00  0.00     0.038 A 
HETATM    7  N   UNL     1      -5.730 -13.180 -36.977  1.00  0.00    -0.322 N 
HETATM    8  C   UNL     1      -4.374 -12.998 -36.911  1.00  0.00     0.253 A 
HETATM    9  O   UNL     1      -3.752 -13.223 -35.876  1.00  0.00    -0.268 OA
HETATM   10  C   UNL     1      -3.691 -12.515 -38.147  1.00  0.00     0.024 A 
HETATM   11  C   UNL     1      -4.409 -12.261 -39.256  1.00  0.00     0.027 A 
HETATM   12  H   UNL     1      -6.175 -13.510 -36.130  1.00  0.00     0.169 HD
ENDROOT
BRANCH  10  13
HETATM   13  C   UNL     1      -2.195 -12.399 -38.094  1.00  0.00     0.136 C 
BRANCH  13  14
HETATM   14  N   UNL     1      -1.614 -13.430 -38.948  1.00  0.00    -0.289 NA
HETATM   15  H   UNL     1      -1.303 -13.034 -39.834  1.00  0.00     0.128 HD
BRANCH  14  16
HETATM   16  C   UNL     1      -0.633 -14.283 -38.425  1.00  0.00     0.008 A 
HETATM   17  C   UNL     1       0.694 -14.312 -38.864  1.00  0.00     0.026 A 
HETATM   18  C   UNL     1       1.645 -15.125 -38.235  1.00  0.00     0.038 A 
HETATM   19  C   UNL     1       1.303 -15.905 -37.130  1.00  0.00     0.068 A 
HETATM   20  C   UNL     1      -0.004 -15.861 -36.658  1.00  0.00     0.038 A 
HETATM   21  C   UNL     1      -0.953 -15.047 -37.294  1.00  0.00     0.026 A 
BRANCH  19  22
HETATM   22  O   UNL     1       2.328 -16.643 -36.608  1.00  0.00    -0.356 OA
HETATM   23  C   UNL     1       2.504 -16.588 -35.199  1.00  0.00     0.210 C 
ENDBRANCH  19  22
ENDBRANCH  14  16
ENDBRANCH  13  14
ENDBRANCH  10  13
BRANCH   1  24
HETATM   24  O   UNL     1      -9.968 -13.142 -39.117  1.00  0.00    -0.351 OA
BRANCH  24  25
HETATM   25  C   UNL     1     -10.785 -12.963 -40.273  1.00  0.00     0.171 C 
HETATM   26  C   UNL     1     -11.023 -14.328 -40.895  1.00  0.00     0.034 C 
ENDBRANCH  24  25
ENDBRANCH   1  24
TORSDOF 6
ENDMDL
MODEL 8
REMARK VINA RESULT:      -7.0      2.293      7.852
REMARK  6 active torsions:
REMARK  status: ('A' for Active; 'I' for Inactive)
REMARK    1  A    between atoms: C_2  and  O_3 
REMARK    2  A    between atoms: O_3  and  C_4 
REMARK    3  A    between atoms: C_13  and  C_14 
REMARK    4  A    between atoms: C_14  and  N_15 
REMARK    5  A    between atoms: N_15  and  C_16 
REMARK    6  A    between atoms: C_19  and  O_20 
ROOT
HETATM    1  C   UNL     1      -4.766  -1.959 -33.816  1.00  0.00     0.070 A 
HETATM    2  C   UNL     1      -5.917  -1.279 -34.225  1.00  0.00     0.067 A 
HETATM    3  C   UNL     1      -6.144   0.028 -33.796  1.00  0.00     0.048 A 
HETATM    4  C   UNL     1      -5.229   0.673 -32.960  1.00  0.00    -0.009 A 
HETATM    5  C   UNL     1      -4.073  -0.002 -32.561  1.00  0.00     0.016 A 
HETATM    6  C   UNL     1      -3.843  -1.314 -32.989  1.00  0.00     0.038 A 
HETATM    7  N   UNL     1      -7.300   0.709 -34.197  1.00  0.00    -0.322 N 
HETATM    8  C   UNL     1      -7.597   1.991 -33.818  1.00  0.00     0.253 A 
HETATM    9  O   UNL     1      -8.616   2.550 -34.214  1.00  0.00    -0.268 OA
HETATM   10  C   UNL     1      -6.630   2.674 -32.910  1.00  0.00     0.024 A 
HETATM   11  C   UNL     1      -5.514   2.035 -32.513  1.00  0.00     0.027 A 
HETATM   12  H   UNL     1      -7.967   0.260 -34.811  1.00  0.00     0.169 HD
ENDROOT
BRANCH  10  13
HETATM   13  C   UNL     1      -7.003   4.047 -32.430  1.00  0.00     0.136 C 
BRANCH  13  14
HETATM   14  N   UNL     1      -6.642   5.017 -33.459  1.00  0.00    -0.289 NA
HETATM   15  H   UNL     1      -7.234   5.845 -33.400  1.00  0.00     0.128 HD
BRANCH  14  16
HETATM   16  C   UNL     1      -5.299   5.389 -33.613  1.00  0.00     0.008 A 
HETATM   17  C   UNL     1      -4.510   5.035 -34.710  1.00  0.00     0.026 A 
HETATM   18  C   UNL     1      -3.202   5.517 -34.845  1.00  0.00     0.038 A 
HETATM   19  C   UNL     1      -2.661   6.393 -33.905  1.00  0.00     0.068 A 
HETATM   20  C   UNL     1      -3.445   6.785 -32.825  1.00  0.00     0.038 A 
HETATM   21  C   UNL     1      -4.752   6.296 -32.694  1.00  0.00     0.026 A 
BRANCH  19  22
HETATM   22  O   UNL     1      -1.379   6.793 -34.163  1.00  0.00    -0.356 OA
HETATM   23  C   UNL     1      -0.527   6.976 -33.040  1.00  0.00     0.210 C 
ENDBRANCH  19  22
ENDBRANCH  14  16
ENDBRANCH  13  14
ENDBRANCH  10  13
BRANCH   1  24
HETATM   24  O   UNL     1      -4.662  -3.238 -34.291  1.00  0.00    -0.351 OA
BRANCH  24  25
HETATM   25  C   UNL     1      -5.456  -3.577 -35.427  1.00  0.00     0.171 C 
HETATM   26  C   UNL     1      -6.407  -4.689 -35.020  1.00  0.00     0.034 C 
ENDBRANCH  24  25
ENDBRANCH   1  24
TORSDOF 6
ENDMDL
MODEL 9
REMARK VINA RESULT:      -7.0     16.006     17.819
REMARK  6 active torsions:
REMARK  status: ('A' for Active; 'I' for Inactive)
REMARK    1  A    between atoms: C_2  and  O_3 
REMARK    2  A    between atoms: O_3  and  C_4 
REMARK    3  A    between atoms: C_13  and  C_14 
REMARK    4  A    between atoms: C_14  and  N_15 
REMARK    5  A    between atoms: N_15  and  C_16 
REMARK    6  A    between atoms: C_19  and  O_20 
ROOT
HETATM    1  C   UNL     1       1.623 -15.965 -37.368  1.00  0.00     0.070 A 
HETATM    2  C   UNL     1       0.411 -15.809 -36.689  1.00  0.00     0.067 A 
HETATM    3  C   UNL     1      -0.526 -14.880 -37.139  1.00  0.00     0.048 A 
HETATM    4  C   UNL     1      -0.270 -14.099 -38.269  1.00  0.00    -0.009 A 
HETATM    5  C   UNL     1       0.936 -14.262 -38.954  1.00  0.00     0.016 A 
HETATM    6  C   UNL     1       1.879 -15.193 -38.504  1.00  0.00     0.038 A 
HETATM    7  N   UNL     1      -1.737 -14.717 -36.456  1.00  0.00    -0.322 N 
HETATM    8  C   UNL     1      -2.708 -13.826 -36.832  1.00  0.00     0.253 A 
HETATM    9  O   UNL     1      -3.762 -13.736 -36.209  1.00  0.00    -0.268 OA
HETATM   10  C   UNL     1      -2.427 -12.978 -38.027  1.00  0.00     0.024 A 
HETATM   11  C   UNL     1      -1.268 -13.120 -38.695  1.00  0.00     0.027 A 
HETATM   12  H   UNL     1      -1.944 -15.282 -35.643  1.00  0.00     0.169 HD
ENDROOT
BRANCH  10  13
HETATM   13  C   UNL     1      -3.458 -11.945 -38.383  1.00  0.00     0.136 C 
BRANCH  13  14
HETATM   14  N   UNL     1      -4.153 -12.373 -39.592  1.00  0.00    -0.289 NA
HETATM   15  H   UNL     1      -3.796 -13.271 -39.916  1.00  0.00     0.128 HD
BRANCH  14  16
HETATM   16  C   UNL     1      -5.554 -12.366 -39.619  1.00  0.00     0.008 A 
HETATM   17  C   UNL     1      -6.315 -12.496 -40.784  1.00  0.00     0.026 A 
HETATM   18  C   UNL     1      -7.712 -12.574 -40.730  1.00  0.00     0.038 A 
HETATM   19  C   UNL     1      -8.383 -12.559 -39.508  1.00  0.00     0.068 A 
HETATM   20  C   UNL     1      -7.640 -12.467 -38.336  1.00  0.00     0.038 A 
HETATM   21  C   UNL     1      -6.241 -12.386 -38.397  1.00  0.00     0.026 A 
BRANCH  19  22
HETATM   22  O   UNL     1      -9.744 -12.650 -39.598  1.00  0.00    -0.356 OA
HETATM   23  C   UNL     1     -10.406 -11.644 -40.352  1.00  0.00     0.210 C 
ENDBRANCH  19  22
ENDBRANCH  14  16
ENDBRANCH  13  14
ENDBRANCH  10  13
BRANCH   1  24
HETATM   24  O   UNL     1       2.465 -16.896 -36.824  1.00  0.00    -0.351 OA
BRANCH  24  25
HETATM   25  C   UNL     1       2.145 -17.379 -35.520  1.00  0.00     0.171 C 
HETATM   26  C   UNL     1       3.231 -16.912 -34.567  1.00  0.00     0.034 C 
ENDBRANCH  24  25
ENDBRANCH   1  24
TORSDOF 6
ENDMDL
MODEL 10
REMARK VINA RESULT:      -7.0      1.759      2.796
REMARK  6 active torsions:
REMARK  status: ('A' for Active; 'I' for Inactive)
REMARK    1  A    between atoms: C_2  and  O_3 
REMARK    2  A    between atoms: O_3  and  C_4 
REMARK    3  A    between atoms: C_13  and  C_14 
REMARK    4  A    between atoms: C_14  and  N_15 
REMARK    5  A    between atoms: N_15  and  C_16 
REMARK    6  A    between atoms: C_19  and  O_20 
ROOT
HETATM    1  C   UNL     1       0.147   7.003 -29.859  1.00  0.00     0.070 A 
HETATM    2  C   UNL     1      -1.222   6.896 -29.601  1.00  0.00     0.067 A 
HETATM    3  C   UNL     1      -2.020   6.072 -30.393  1.00  0.00     0.048 A 
HETATM    4  C   UNL     1      -1.464   5.342 -31.447  1.00  0.00    -0.009 A 
HETATM    5  C   UNL     1      -0.094   5.439 -31.698  1.00  0.00     0.016 A 
HETATM    6  C   UNL     1       0.709   6.267 -30.905  1.00  0.00     0.038 A 
HETATM    7  N   UNL     1      -3.393   5.970 -30.141  1.00  0.00    -0.322 N 
HETATM    8  C   UNL     1      -4.244   5.186 -30.874  1.00  0.00     0.253 A 
HETATM    9  O   UNL     1      -5.439   5.117 -30.599  1.00  0.00    -0.268 OA
HETATM   10  C   UNL     1      -3.655   4.421 -32.012  1.00  0.00     0.024 A 
HETATM   11  C   UNL     1      -2.338   4.507 -32.269  1.00  0.00     0.027 A 
HETATM   12  H   UNL     1      -3.810   6.483 -29.375  1.00  0.00     0.169 HD
ENDROOT
BRANCH  10  13
HETATM   13  C   UNL     1      -4.607   3.630 -32.862  1.00  0.00     0.136 C 
BRANCH  13  14
HETATM   14  N   UNL     1      -5.068   2.474 -32.100  1.00  0.00    -0.289 NA
HETATM   15  H   UNL     1      -6.040   2.591 -31.817  1.00  0.00     0.128 HD
BRANCH  14  16
HETATM   16  C   UNL     1      -4.861   1.186 -32.612  1.00  0.00     0.008 A 
HETATM   17  C   UNL     1      -3.667   0.471 -32.475  1.00  0.00     0.026 A 
HETATM   18  C   UNL     1      -3.559  -0.849 -32.930  1.00  0.00     0.038 A 
HETATM   19  C   UNL     1      -4.650  -1.501 -33.503  1.00  0.00     0.068 A 
HETATM   20  C   UNL     1      -5.856  -0.817 -33.615  1.00  0.00     0.038 A 
HETATM   21  C   UNL     1      -5.957   0.505 -33.160  1.00  0.00     0.026 A 
BRANCH  19  22
HETATM   22  O   UNL     1      -4.409  -2.788 -33.896  1.00  0.00    -0.356 OA
HETATM   23  C   UNL     1      -5.181  -3.281 -34.982  1.00  0.00     0.210 C 
ENDBRANCH  19  22
ENDBRANCH  14  16
ENDBRANCH  13  14
ENDBRANCH  10  13
BRANCH   1  24
HETATM   24  O   UNL     1       0.820   7.851 -29.023  1.00  0.00    -0.351 OA
BRANCH  24  25
HETATM   25  C   UNL     1       0.851   7.511 -27.638  1.00  0.00     0.171 C 
HETATM   26  C   UNL     1       1.785   8.482 -26.937  1.00  0.00     0.034 C 
ENDBRANCH  24  25
ENDBRANCH   1  24
TORSDOF 6
ENDMDL
