MODEL 1
REMARK VINA RESULT:      -9.4      0.000      0.000
REMARK  3 active torsions:
REMARK  status: ('A' for Active; 'I' for Inactive)
REMARK    1  A    between atoms: O_2  and  C_3 
REMARK    2  A    between atoms: C_5  and  N_15 
REMARK    3  A    between atoms: C_8  and  C_9 
ROOT
HETATM    1  C   UNL     1      -2.741   4.543 -32.298  1.00  0.00     0.177 A 
HETATM    2  N   UNL     1      -3.244   3.289 -32.368  1.00  0.00    -0.206 NA
HETATM    3  C   UNL     1      -4.338   2.965 -31.660  1.00  0.00     0.135 A 
HETATM    4  C   UNL     1      -4.953   3.909 -30.844  1.00  0.00     0.052 A 
HETATM    5  C   UNL     1      -4.437   5.208 -30.781  1.00  0.00     0.020 A 
HETATM    6  C   UNL     1      -3.306   5.557 -31.524  1.00  0.00     0.030 A 
ENDROOT
BRANCH   3   7
HETATM    7  N   UNL     1      -4.834   1.647 -31.762  1.00  0.00    -0.302 N 
HETATM    8  C   UNL     1      -4.747   0.670 -30.709  1.00  0.00     0.135 C 
HETATM    9  C   UNL     1      -5.709  -0.423 -31.145  1.00  0.00     0.040 C 
HETATM   10  C   UNL     1      -5.635  -0.374 -32.676  1.00  0.00     0.051 C 
HETATM   11  C   UNL     1      -4.422  -1.162 -33.237  1.00  0.00     0.058 C 
HETATM   12  C   UNL     1      -6.908  -0.904 -33.364  1.00  0.00     0.058 C 
HETATM   13  C   UNL     1      -5.408   1.111 -32.925  1.00  0.00     0.234 C 
HETATM   14  C   UNL     1      -5.067  -2.334 -33.904  1.00  0.00    -0.051 A 
HETATM   15  C   UNL     1      -4.436  -3.436 -34.460  1.00  0.00     0.007 A 
HETATM   16  C   UNL     1      -6.451  -2.190 -33.975  1.00  0.00    -0.051 A 
HETATM   17  C   UNL     1      -5.220  -4.404 -35.093  1.00  0.00     0.001 A 
HETATM   18  C   UNL     1      -6.613  -4.259 -35.164  1.00  0.00     0.001 A 
HETATM   19  C   UNL     1      -7.237  -3.144 -34.604  1.00  0.00     0.007 A 
HETATM   20  O   UNL     1      -5.648   1.657 -33.991  1.00  0.00    -0.272 OA
ENDBRANCH   3   7
BRANCH   1  21
HETATM   21  O   UNL     1      -1.620   4.828 -33.053  1.00  0.00    -0.339 OA
HETATM   22  C   UNL     1      -1.876   4.861 -34.456  1.00  0.00     0.211 C 
ENDBRANCH   1  21
BRANCH   6  23
HETATM   23  C   UNL     1      -2.763   6.907 -31.460  1.00  0.00     0.015 A 
HETATM   24  C   UNL     1      -2.465   7.843 -32.479  1.00  0.00     0.152 A 
HETATM   25  N   UNL     1      -1.973   8.990 -32.004  1.00  0.00    -0.187 NA
HETATM   26  N   UNL     1      -1.973   8.805 -30.676  1.00  0.00    -0.289 N 
HETATM   27  H   UNL     1      -1.651   9.564 -30.085  1.00  0.00     0.188 HD
HETATM   28  C   UNL     1      -2.427   7.574 -30.298  1.00  0.00     0.123 A 
ENDBRANCH   6  23
TORSDOF 3
ENDMDL
MODEL 2
REMARK VINA RESULT:      -8.8      5.066      6.771
REMARK  3 active torsions:
REMARK  status: ('A' for Active; 'I' for Inactive)
REMARK    1  A    between atoms: O_2  and  C_3 
REMARK    2  A    between atoms: C_5  and  N_15 
REMARK    3  A    between atoms: C_8  and  C_9 
ROOT
HETATM    1  C   UNL     1     -11.229   3.170 -32.670  1.00  0.00     0.177 A 
HETATM    2  N   UNL     1     -10.308   2.390 -33.283  1.00  0.00    -0.206 NA
HETATM    3  C   UNL     1      -9.102   2.212 -32.722  1.00  0.00     0.135 A 
HETATM    4  C   UNL     1      -8.786   2.833 -31.518  1.00  0.00     0.052 A 
HETATM    5  C   UNL     1      -9.743   3.630 -30.882  1.00  0.00     0.020 A 
HETATM    6  C   UNL     1     -11.006   3.813 -31.452  1.00  0.00     0.030 A 
ENDROOT
BRANCH   3   7
HETATM    7  N   UNL     1      -8.170   1.388 -33.390  1.00  0.00    -0.302 N 
HETATM    8  C   UNL     1      -7.917   1.442 -34.806  1.00  0.00     0.135 C 
HETATM    9  C   UNL     1      -6.626   0.660 -34.976  1.00  0.00     0.040 C 
HETATM   10  C   UNL     1      -6.693  -0.389 -33.861  1.00  0.00     0.051 C 
HETATM   11  C   UNL     1      -7.541  -1.626 -34.259  1.00  0.00     0.058 C 
HETATM   12  C   UNL     1      -5.306  -0.887 -33.408  1.00  0.00     0.058 C 
HETATM   13  C   UNL     1      -7.428   0.373 -32.766  1.00  0.00     0.234 C 
HETATM   14  C   UNL     1      -6.514  -2.704 -34.390  1.00  0.00    -0.051 A 
HETATM   15  C   UNL     1      -6.706  -3.995 -34.858  1.00  0.00     0.007 A 
HETATM   16  C   UNL     1      -5.269  -2.293 -33.916  1.00  0.00    -0.051 A 
HETATM   17  C   UNL     1      -5.622  -4.876 -34.849  1.00  0.00     0.001 A 
HETATM   18  C   UNL     1      -4.370  -4.462 -34.372  1.00  0.00     0.001 A 
HETATM   19  C   UNL     1      -4.188  -3.161 -33.899  1.00  0.00     0.007 A 
HETATM   20  O   UNL     1      -7.384   0.062 -31.586  1.00  0.00    -0.272 OA
ENDBRANCH   3   7
BRANCH   1  21
HETATM   21  O   UNL     1     -12.459   3.314 -33.284  1.00  0.00    -0.339 OA
HETATM   22  C   UNL     1     -13.228   2.113 -33.298  1.00  0.00     0.211 C 
ENDBRANCH   1  21
BRANCH   6  23
HETATM   23  C   UNL     1     -12.005   4.644 -30.796  1.00  0.00     0.015 A 
HETATM   24  C   UNL     1     -12.202   6.046 -30.800  1.00  0.00     0.152 A 
HETATM   25  N   UNL     1     -13.248   6.426 -30.060  1.00  0.00    -0.187 NA
HETATM   26  N   UNL     1     -13.741   5.269 -29.596  1.00  0.00    -0.289 N 
HETATM   27  H   UNL     1     -14.568   5.300 -29.009  1.00  0.00     0.188 HD
HETATM   28  C   UNL     1     -13.030   4.174 -29.998  1.00  0.00     0.123 A 
ENDBRANCH   6  23
TORSDOF 3
ENDMDL
MODEL 3
REMARK VINA RESULT:      -8.5      2.633      8.976
REMARK  3 active torsions:
REMARK  status: ('A' for Active; 'I' for Inactive)
REMARK    1  A    between atoms: O_2  and  C_3 
REMARK    2  A    between atoms: C_5  and  N_15 
REMARK    3  A    between atoms: C_8  and  C_9 
ROOT
HETATM    1  C   UNL     1      -4.876  -1.116 -33.258  1.00  0.00     0.177 A 
HETATM    2  N   UNL     1      -4.787   0.192 -32.923  1.00  0.00    -0.206 NA
HETATM    3  C   UNL     1      -5.596   1.090 -33.506  1.00  0.00     0.135 A 
HETATM    4  C   UNL     1      -6.521   0.687 -34.464  1.00  0.00     0.052 A 
HETATM    5  C   UNL     1      -6.618  -0.667 -34.802  1.00  0.00     0.020 A 
HETATM    6  C   UNL     1      -5.788  -1.611 -34.191  1.00  0.00     0.030 A 
ENDROOT
BRANCH   3   7
HETATM    7  N   UNL     1      -5.474   2.444 -33.127  1.00  0.00    -0.302 N 
HETATM    8  C   UNL     1      -6.343   3.493 -33.592  1.00  0.00     0.135 C 
HETATM    9  C   UNL     1      -6.051   4.652 -32.655  1.00  0.00     0.040 C 
HETATM   10  C   UNL     1      -4.573   4.460 -32.298  1.00  0.00     0.051 C 
HETATM   11  C   UNL     1      -3.621   5.041 -33.377  1.00  0.00     0.058 C 
HETATM   12  C   UNL     1      -4.188   5.079 -30.939  1.00  0.00     0.058 C 
HETATM   13  C   UNL     1      -4.450   2.942 -32.307  1.00  0.00     0.234 C 
HETATM   14  C   UNL     1      -3.015   6.220 -32.685  1.00  0.00    -0.051 A 
HETATM   15  C   UNL     1      -2.185   7.182 -33.238  1.00  0.00     0.007 A 
HETATM   16  C   UNL     1      -3.331   6.240 -31.328  1.00  0.00    -0.051 A 
HETATM   17  C   UNL     1      -1.673   8.180 -32.405  1.00  0.00     0.001 A 
HETATM   18  C   UNL     1      -1.991   8.200 -31.039  1.00  0.00     0.001 A 
HETATM   19  C   UNL     1      -2.824   7.224 -30.492  1.00  0.00     0.007 A 
HETATM   20  O   UNL     1      -3.558   2.338 -31.732  1.00  0.00    -0.272 OA
ENDBRANCH   3   7
BRANCH   1  21
HETATM   21  O   UNL     1      -4.028  -2.002 -32.622  1.00  0.00    -0.339 OA
HETATM   22  C   UNL     1      -2.960  -1.360 -31.926  1.00  0.00     0.211 C 
ENDBRANCH   1  21
BRANCH   6  23
HETATM   23  C   UNL     1      -5.883  -3.021 -34.541  1.00  0.00     0.015 A 
HETATM   24  C   UNL     1      -4.910  -4.049 -34.547  1.00  0.00     0.152 A 
HETATM   25  N   UNL     1      -5.402  -5.228 -34.938  1.00  0.00    -0.187 NA
HETATM   26  N   UNL     1      -6.699  -4.968 -35.163  1.00  0.00    -0.289 N 
HETATM   27  H   UNL     1      -7.297  -5.732 -35.459  1.00  0.00     0.188 HD
HETATM   28  C   UNL     1      -7.036  -3.663 -34.949  1.00  0.00     0.123 A 
ENDBRANCH   6  23
TORSDOF 3
ENDMDL
MODEL 4
REMARK VINA RESULT:      -8.5      3.525      4.737
REMARK  3 active torsions:
REMARK  status: ('A' for Active; 'I' for Inactive)
REMARK    1  A    between atoms: O_2  and  C_3 
REMARK    2  A    between atoms: C_5  and  N_15 
REMARK    3  A    between atoms: C_8  and  C_9 
ROOT
HETATM    1  C   UNL     1      -4.456   4.594 -32.751  1.00  0.00     0.177 A 
HETATM    2  N   UNL     1      -5.510   3.866 -33.185  1.00  0.00    -0.206 NA
HETATM    3  C   UNL     1      -5.551   2.544 -32.956  1.00  0.00     0.135 A 
HETATM    4  C   UNL     1      -4.511   1.914 -32.282  1.00  0.00     0.052 A 
HETATM    5  C   UNL     1      -3.426   2.670 -31.825  1.00  0.00     0.020 A 
HETATM    6  C   UNL     1      -3.380   4.049 -32.049  1.00  0.00     0.030 A 
ENDROOT
BRANCH   3   7
HETATM    7  N   UNL     1      -6.669   1.820 -33.422  1.00  0.00    -0.302 N 
HETATM    8  C   UNL     1      -6.720   1.145 -34.693  1.00  0.00     0.135 C 
HETATM    9  C   UNL     1      -7.936   0.241 -34.578  1.00  0.00     0.040 C 
HETATM   10  C   UNL     1      -8.878   1.025 -33.656  1.00  0.00     0.051 C 
HETATM   11  C   UNL     1      -9.698   2.099 -34.418  1.00  0.00     0.058 C 
HETATM   12  C   UNL     1      -9.867   0.124 -32.889  1.00  0.00     0.058 C 
HETATM   13  C   UNL     1      -7.890   1.728 -32.735  1.00  0.00     0.234 C 
HETATM   14  C   UNL     1     -11.087   1.548 -34.376  1.00  0.00    -0.051 A 
HETATM   15  C   UNL     1     -12.207   2.044 -35.024  1.00  0.00     0.007 A 
HETATM   16  C   UNL     1     -11.181   0.449 -33.524  1.00  0.00    -0.051 A 
HETATM   17  C   UNL     1     -13.436   1.415 -34.809  1.00  0.00     0.001 A 
HETATM   18  C   UNL     1     -13.530   0.309 -33.952  1.00  0.00     0.001 A 
HETATM   19  C   UNL     1     -12.397  -0.180 -33.301  1.00  0.00     0.007 A 
HETATM   20  O   UNL     1      -8.192   2.164 -31.635  1.00  0.00    -0.272 OA
ENDBRANCH   3   7
BRANCH   1  21
HETATM   21  O   UNL     1      -4.465   5.953 -33.004  1.00  0.00    -0.339 OA
HETATM   22  C   UNL     1      -5.385   6.673 -32.186  1.00  0.00     0.211 C 
ENDBRANCH   1  21
BRANCH   6  23
HETATM   23  C   UNL     1      -2.253   4.841 -31.578  1.00  0.00     0.015 A 
HETATM   24  C   UNL     1      -0.971   5.066 -32.136  1.00  0.00     0.152 A 
HETATM   25  N   UNL     1      -0.211   5.868 -31.385  1.00  0.00    -0.187 NA
HETATM   26  N   UNL     1      -1.009   6.180 -30.353  1.00  0.00    -0.289 N 
HETATM   27  H   UNL     1      -0.649   6.808 -29.642  1.00  0.00     0.188 HD
HETATM   28  C   UNL     1      -2.236   5.587 -30.415  1.00  0.00     0.123 A 
ENDBRANCH   6  23
TORSDOF 3
ENDMDL
MODEL 5
REMARK VINA RESULT:      -8.4      2.866      9.130
REMARK  3 active torsions:
REMARK  status: ('A' for Active; 'I' for Inactive)
REMARK    1  A    between atoms: O_2  and  C_3 
REMARK    2  A    between atoms: C_5  and  N_15 
REMARK    3  A    between atoms: C_8  and  C_9 
ROOT
HETATM    1  C   UNL     1      -4.925   2.460 -32.756  1.00  0.00     0.177 A 
HETATM    2  N   UNL     1      -3.961   3.291 -32.297  1.00  0.00    -0.206 NA
HETATM    3  C   UNL     1      -3.856   4.535 -32.792  1.00  0.00     0.135 A 
HETATM    4  C   UNL     1      -4.726   4.972 -33.784  1.00  0.00     0.052 A 
HETATM    5  C   UNL     1      -5.728   4.115 -34.251  1.00  0.00     0.020 A 
HETATM    6  C   UNL     1      -5.853   2.823 -33.733  1.00  0.00     0.030 A 
ENDROOT
BRANCH   3   7
HETATM    7  N   UNL     1      -2.839   5.372 -32.285  1.00  0.00    -0.302 N 
HETATM    8  C   UNL     1      -1.565   5.571 -32.924  1.00  0.00     0.135 C 
HETATM    9  C   UNL     1      -0.991   6.790 -32.222  1.00  0.00     0.040 C 
HETATM   10  C   UNL     1      -1.560   6.686 -30.802  1.00  0.00     0.051 C 
HETATM   11  C   UNL     1      -0.736   5.730 -29.900  1.00  0.00     0.058 C 
HETATM   12  C   UNL     1      -1.661   8.048 -30.086  1.00  0.00     0.058 C 
HETATM   13  C   UNL     1      -2.922   6.058 -31.062  1.00  0.00     0.234 C 
HETATM   14  C   UNL     1      -0.089   6.664 -28.929  1.00  0.00    -0.051 A 
HETATM   15  C   UNL     1       0.866   6.354 -27.973  1.00  0.00     0.007 A 
HETATM   16  C   UNL     1      -0.605   7.955 -29.032  1.00  0.00    -0.051 A 
HETATM   17  C   UNL     1       1.306   7.365 -27.116  1.00  0.00     0.001 A 
HETATM   18  C   UNL     1       0.786   8.664 -27.220  1.00  0.00     0.001 A 
HETATM   19  C   UNL     1      -0.179   8.965 -28.183  1.00  0.00     0.007 A 
HETATM   20  O   UNL     1      -3.853   6.125 -30.275  1.00  0.00    -0.272 OA
ENDBRANCH   3   7
BRANCH   1  21
HETATM   21  O   UNL     1      -4.996   1.194 -32.207  1.00  0.00    -0.339 OA
HETATM   22  C   UNL     1      -3.881   0.369 -32.543  1.00  0.00     0.211 C 
ENDBRANCH   1  21
BRANCH   6  23
HETATM   23  C   UNL     1      -6.892   1.925 -34.216  1.00  0.00     0.015 A 
HETATM   24  C   UNL     1      -6.817   0.739 -34.986  1.00  0.00     0.152 A 
HETATM   25  N   UNL     1      -8.016   0.199 -35.225  1.00  0.00    -0.187 NA
HETATM   26  N   UNL     1      -8.863   1.022 -34.590  1.00  0.00    -0.289 N 
HETATM   27  H   UNL     1      -9.854   0.803 -34.615  1.00  0.00     0.188 HD
HETATM   28  C   UNL     1      -8.245   2.074 -33.979  1.00  0.00     0.123 A 
ENDBRANCH   6  23
TORSDOF 3
ENDMDL
MODEL 6
REMARK VINA RESULT:      -8.4     16.357     18.437
REMARK  3 active torsions:
REMARK  status: ('A' for Active; 'I' for Inactive)
REMARK    1  A    between atoms: O_2  and  C_3 
REMARK    2  A    between atoms: C_5  and  N_15 
REMARK    3  A    between atoms: C_8  and  C_9 
ROOT
HETATM    1  C   UNL     1      -7.614 -13.183 -38.518  1.00  0.00     0.177 A 
HETATM    2  N   UNL     1      -6.300 -13.231 -38.197  1.00  0.00    -0.206 NA
HETATM    3  C   UNL     1      -5.372 -12.945 -39.123  1.00  0.00     0.135 A 
HETATM    4  C   UNL     1      -5.751 -12.609 -40.418  1.00  0.00     0.052 A 
HETATM    5  C   UNL     1      -7.110 -12.550 -40.747  1.00  0.00     0.020 A 
HETATM    6  C   UNL     1      -8.084 -12.835 -39.785  1.00  0.00     0.030 A 
ENDROOT
BRANCH   3   7
HETATM    7  N   UNL     1      -4.013 -13.003 -38.747  1.00  0.00    -0.302 N 
HETATM    8  C   UNL     1      -3.119 -11.876 -38.777  1.00  0.00     0.135 C 
HETATM    9  C   UNL     1      -1.921 -12.338 -37.965  1.00  0.00     0.040 C 
HETATM   10  C   UNL     1      -1.874 -13.848 -38.225  1.00  0.00     0.051 C 
HETATM   11  C   UNL     1      -1.157 -14.200 -39.555  1.00  0.00     0.058 C 
HETATM   12  C   UNL     1      -1.191 -14.640 -37.092  1.00  0.00     0.058 C 
HETATM   13  C   UNL     1      -3.353 -14.182 -38.365  1.00  0.00     0.234 C 
HETATM   14  C   UNL     1       0.108 -14.846 -39.091  1.00  0.00    -0.051 A 
HETATM   15  C   UNL     1       1.186 -15.238 -39.869  1.00  0.00     0.007 A 
HETATM   16  C   UNL     1       0.089 -15.092 -37.719  1.00  0.00    -0.051 A 
HETATM   17  C   UNL     1       2.259 -15.882 -39.248  1.00  0.00     0.001 A 
HETATM   18  C   UNL     1       2.239 -16.129 -37.867  1.00  0.00     0.001 A 
HETATM   19  C   UNL     1       1.146 -15.735 -37.094  1.00  0.00     0.007 A 
HETATM   20  O   UNL     1      -3.803 -15.307 -38.219  1.00  0.00    -0.272 OA
ENDBRANCH   3   7
BRANCH   1  21
HETATM   21  O   UNL     1      -8.529 -13.478 -37.527  1.00  0.00    -0.339 OA
HETATM   22  C   UNL     1      -7.930 -13.688 -36.249  1.00  0.00     0.211 C 
ENDBRANCH   1  21
BRANCH   6  23
HETATM   23  C   UNL     1      -9.499 -12.778 -40.122  1.00  0.00     0.015 A 
HETATM   24  C   UNL     1     -10.469 -13.801 -40.253  1.00  0.00     0.152 A 
HETATM   25  N   UNL     1     -11.677 -13.332 -40.579  1.00  0.00    -0.187 NA
HETATM   26  N   UNL     1     -11.493 -12.005 -40.637  1.00  0.00    -0.289 N 
HETATM   27  H   UNL     1     -12.292 -11.419 -40.856  1.00  0.00     0.188 HD
HETATM   28  C   UNL     1     -10.209 -11.622 -40.381  1.00  0.00     0.123 A 
ENDBRANCH   6  23
TORSDOF 3
ENDMDL
MODEL 7
REMARK VINA RESULT:      -8.4      3.910      8.730
REMARK  3 active torsions:
REMARK  status: ('A' for Active; 'I' for Inactive)
REMARK    1  A    between atoms: O_2  and  C_3 
REMARK    2  A    between atoms: C_5  and  N_15 
REMARK    3  A    between atoms: C_8  and  C_9 
ROOT
HETATM    1  C   UNL     1      -9.399   2.748 -32.997  1.00  0.00     0.177 A 
HETATM    2  N   UNL     1      -8.107   3.014 -32.694  1.00  0.00    -0.206 NA
HETATM    3  C   UNL     1      -7.124   2.297 -33.262  1.00  0.00     0.135 A 
HETATM    4  C   UNL     1      -7.425   1.273 -34.153  1.00  0.00     0.052 A 
HETATM    5  C   UNL     1      -8.761   1.006 -34.472  1.00  0.00     0.020 A 
HETATM    6  C   UNL     1      -9.790   1.754 -33.895  1.00  0.00     0.030 A 
ENDROOT
BRANCH   3   7
HETATM    7  N   UNL     1      -5.790   2.608 -32.923  1.00  0.00    -0.302 N 
HETATM    8  C   UNL     1      -4.986   1.830 -32.017  1.00  0.00     0.135 C 
HETATM    9  C   UNL     1      -3.573   2.334 -32.258  1.00  0.00     0.040 C 
HETATM   10  C   UNL     1      -3.778   3.805 -32.637  1.00  0.00     0.051 C 
HETATM   11  C   UNL     1      -3.937   4.722 -31.395  1.00  0.00     0.058 C 
HETATM   12  C   UNL     1      -2.640   4.374 -33.507  1.00  0.00     0.058 C 
HETATM   13  C   UNL     1      -5.109   3.750 -33.375  1.00  0.00     0.234 C 
HETATM   14  C   UNL     1      -2.671   5.518 -31.406  1.00  0.00    -0.051 A 
HETATM   15  C   UNL     1      -2.227   6.404 -30.436  1.00  0.00     0.007 A 
HETATM   16  C   UNL     1      -1.949   5.324 -32.582  1.00  0.00    -0.051 A 
HETATM   17  C   UNL     1      -1.036   7.097 -30.661  1.00  0.00     0.001 A 
HETATM   18  C   UNL     1      -0.310   6.902 -31.845  1.00  0.00     0.001 A 
HETATM   19  C   UNL     1      -0.768   6.011 -32.817  1.00  0.00     0.007 A 
HETATM   20  O   UNL     1      -5.479   4.612 -34.156  1.00  0.00    -0.272 OA
ENDBRANCH   3   7
BRANCH   1  21
HETATM   21  O   UNL     1     -10.372   3.520 -32.392  1.00  0.00    -0.339 OA
HETATM   22  C   UNL     1     -10.237   3.591 -30.974  1.00  0.00     0.211 C 
ENDBRANCH   1  21
BRANCH   6  23
HETATM   23  C   UNL     1     -11.182   1.479 -34.221  1.00  0.00     0.015 A 
HETATM   24  C   UNL     1     -12.048   2.054 -35.182  1.00  0.00     0.152 A 
HETATM   25  N   UNL     1     -13.270   1.515 -35.168  1.00  0.00    -0.187 NA
HETATM   26  N   UNL     1     -13.189   0.577 -34.214  1.00  0.00    -0.289 N 
HETATM   27  H   UNL     1     -14.010   0.009 -34.028  1.00  0.00     0.188 HD
HETATM   28  C   UNL     1     -11.966   0.519 -33.610  1.00  0.00     0.123 A 
ENDBRANCH   6  23
TORSDOF 3
ENDMDL
MODEL 8
REMARK VINA RESULT:      -8.3      1.593      1.884
REMARK  3 active torsions:
REMARK  status: ('A' for Active; 'I' for Inactive)
REMARK    1  A    between atoms: O_2  and  C_3 
REMARK    2  A    between atoms: C_5  and  N_15 
REMARK    3  A    between atoms: C_8  and  C_9 
ROOT
HETATM    1  C   UNL     1      -4.101   5.439 -31.106  1.00  0.00     0.177 A 
HETATM    2  N   UNL     1      -4.442   4.149 -31.332  1.00  0.00    -0.206 NA
HETATM    3  C   UNL     1      -5.544   3.637 -30.760  1.00  0.00     0.135 A 
HETATM    4  C   UNL     1      -6.333   4.421 -29.926  1.00  0.00     0.052 A 
HETATM    5  C   UNL     1      -5.984   5.758 -29.701  1.00  0.00     0.020 A 
HETATM    6  C   UNL     1      -4.845   6.303 -30.302  1.00  0.00     0.030 A 
ENDROOT
BRANCH   3   7
HETATM    7  N   UNL     1      -5.867   2.288 -31.023  1.00  0.00    -0.302 N 
HETATM    8  C   UNL     1      -5.912   1.259 -30.018  1.00  0.00     0.135 C 
HETATM    9  C   UNL     1      -6.638   0.113 -30.701  1.00  0.00     0.040 C 
HETATM   10  C   UNL     1      -6.238   0.264 -32.174  1.00  0.00     0.051 C 
HETATM   11  C   UNL     1      -4.858  -0.374 -32.483  1.00  0.00     0.058 C 
HETATM   12  C   UNL     1      -7.270  -0.337 -33.149  1.00  0.00     0.058 C 
HETATM   13  C   UNL     1      -6.117   1.776 -32.306  1.00  0.00     0.234 C 
HETATM   14  C   UNL     1      -5.219  -1.557 -33.323  1.00  0.00    -0.051 A 
HETATM   15  C   UNL     1      -4.372  -2.559 -33.769  1.00  0.00     0.007 A 
HETATM   16  C   UNL     1      -6.562  -1.536 -33.695  1.00  0.00    -0.051 A 
HETATM   17  C   UNL     1      -4.896  -3.554 -34.599  1.00  0.00     0.001 A 
HETATM   18  C   UNL     1      -6.247  -3.532 -34.972  1.00  0.00     0.001 A 
HETATM   19  C   UNL     1      -7.090  -2.516 -34.521  1.00  0.00     0.007 A 
HETATM   20  O   UNL     1      -6.174   2.362 -33.375  1.00  0.00    -0.272 OA
ENDBRANCH   3   7
BRANCH   1  21
HETATM   21  O   UNL     1      -2.963   5.920 -31.725  1.00  0.00    -0.339 OA
HETATM   22  C   UNL     1      -1.767   5.277 -31.288  1.00  0.00     0.211 C 
ENDBRANCH   1  21
BRANCH   6  23
HETATM   23  C   UNL     1      -4.476   7.691 -30.069  1.00  0.00     0.015 A 
HETATM   24  C   UNL     1      -3.626   8.282 -29.104  1.00  0.00     0.152 A 
HETATM   25  N   UNL     1      -3.546   9.611 -29.225  1.00  0.00    -0.187 NA
HETATM   26  N   UNL     1      -4.326   9.876 -30.283  1.00  0.00    -0.289 N 
HETATM   27  H   UNL     1      -4.412  10.841 -30.585  1.00  0.00     0.188 HD
HETATM   28  C   UNL     1      -4.912   8.766 -30.819  1.00  0.00     0.123 A 
ENDBRANCH   6  23
TORSDOF 3
ENDMDL
MODEL 9
REMARK VINA RESULT:      -8.0      3.012      8.973
REMARK  3 active torsions:
REMARK  status: ('A' for Active; 'I' for Inactive)
REMARK    1  A    between atoms: O_2  and  C_3 
REMARK    2  A    between atoms: C_5  and  N_15 
REMARK    3  A    between atoms: C_8  and  C_9 
ROOT
HETATM    1  C   UNL     1      -5.248  -0.822 -33.211  1.00  0.00     0.177 A 
HETATM    2  N   UNL     1      -5.291   0.502 -32.934  1.00  0.00    -0.206 NA
HETATM    3  C   UNL     1      -6.076   1.314 -33.659  1.00  0.00     0.135 A 
HETATM    4  C   UNL     1      -6.840   0.805 -34.704  1.00  0.00     0.052 A 
HETATM    5  C   UNL     1      -6.802  -0.566 -34.982  1.00  0.00     0.020 A 
HETATM    6  C   UNL     1      -5.996  -1.420 -34.225  1.00  0.00     0.030 A 
ENDROOT
BRANCH   3   7
HETATM    7  N   UNL     1      -6.095   2.688 -33.337  1.00  0.00    -0.302 N 
HETATM    8  C   UNL     1      -5.705   3.735 -34.244  1.00  0.00     0.135 C 
HETATM    9  C   UNL     1      -6.232   5.001 -33.590  1.00  0.00     0.040 C 
HETATM   10  C   UNL     1      -6.147   4.690 -32.091  1.00  0.00     0.051 C 
HETATM   11  C   UNL     1      -4.728   4.934 -31.513  1.00  0.00     0.058 C 
HETATM   12  C   UNL     1      -7.152   5.496 -31.244  1.00  0.00     0.058 C 
HETATM   13  C   UNL     1      -6.431   3.194 -32.071  1.00  0.00     0.234 C 
HETATM   14  C   UNL     1      -4.926   6.133 -30.643  1.00  0.00    -0.051 A 
HETATM   15  C   UNL     1      -3.948   6.862 -29.983  1.00  0.00     0.007 A 
HETATM   16  C   UNL     1      -6.275   6.446 -30.493  1.00  0.00    -0.051 A 
HETATM   17  C   UNL     1      -4.346   7.923 -29.165  1.00  0.00     0.001 A 
HETATM   18  C   UNL     1      -5.704   8.238 -29.015  1.00  0.00     0.001 A 
HETATM   19  C   UNL     1      -6.680   7.494 -29.680  1.00  0.00     0.007 A 
HETATM   20  O   UNL     1      -6.819   2.598 -31.078  1.00  0.00    -0.272 OA
ENDBRANCH   3   7
BRANCH   1  21
HETATM   21  O   UNL     1      -4.431  -1.616 -32.429  1.00  0.00    -0.339 OA
HETATM   22  C   UNL     1      -3.171  -1.013 -32.134  1.00  0.00     0.211 C 
ENDBRANCH   1  21
BRANCH   6  23
HETATM   23  C   UNL     1      -5.950  -2.847 -34.512  1.00  0.00     0.015 A 
HETATM   24  C   UNL     1      -4.863  -3.751 -34.583  1.00  0.00     0.152 A 
HETATM   25  N   UNL     1      -5.242  -4.998 -34.878  1.00  0.00    -0.187 NA
HETATM   26  N   UNL     1      -6.576  -4.905 -34.976  1.00  0.00    -0.289 N 
HETATM   27  H   UNL     1      -7.102  -5.748 -35.181  1.00  0.00     0.188 HD
HETATM   28  C   UNL     1      -7.050  -3.640 -34.775  1.00  0.00     0.123 A 
ENDBRANCH   6  23
TORSDOF 3
ENDMDL
MODEL 10
REMARK VINA RESULT:      -7.9     16.660     18.600
REMARK  3 active torsions:
REMARK  status: ('A' for Active; 'I' for Inactive)
REMARK    1  A    between atoms: O_2  and  C_3 
REMARK    2  A    between atoms: C_5  and  N_15 
REMARK    3  A    between atoms: C_8  and  C_9 
ROOT
HETATM    1  C   UNL     1      -7.234 -13.226 -39.894  1.00  0.00     0.177 A 
HETATM    2  N   UNL     1      -6.016 -13.421 -39.338  1.00  0.00    -0.206 NA
HETATM    3  C   UNL     1      -5.914 -13.714 -38.033  1.00  0.00     0.135 A 
HETATM    4  C   UNL     1      -7.054 -13.807 -37.241  1.00  0.00     0.052 A 
HETATM    5  C   UNL     1      -8.313 -13.615 -37.820  1.00  0.00     0.020 A 
HETATM    6  C   UNL     1      -8.430 -13.322 -39.181  1.00  0.00     0.030 A 
ENDROOT
BRANCH   3   7
HETATM    7  N   UNL     1      -4.625 -13.913 -37.491  1.00  0.00    -0.302 N 
HETATM    8  C   UNL     1      -3.990 -13.009 -36.569  1.00  0.00     0.135 C 
HETATM    9  C   UNL     1      -2.824 -13.811 -36.016  1.00  0.00     0.040 C 
HETATM   10  C   UNL     1      -2.432 -14.724 -37.183  1.00  0.00     0.051 C 
HETATM   11  C   UNL     1      -1.509 -14.014 -38.208  1.00  0.00     0.058 C 
HETATM   12  C   UNL     1      -1.736 -16.023 -36.733  1.00  0.00     0.058 C 
HETATM   13  C   UNL     1      -3.782 -14.980 -37.840  1.00  0.00     0.234 C 
HETATM   14  C   UNL     1      -0.199 -14.707 -38.011  1.00  0.00    -0.051 A 
HETATM   15  C   UNL     1       1.020 -14.378 -38.582  1.00  0.00     0.007 A 
HETATM   16  C   UNL     1      -0.326 -15.826 -37.189  1.00  0.00    -0.051 A 
HETATM   17  C   UNL     1       2.124 -15.191 -38.314  1.00  0.00     0.001 A 
HETATM   18  C   UNL     1       1.996 -16.317 -37.488  1.00  0.00     0.001 A 
HETATM   19  C   UNL     1       0.763 -16.642 -36.921  1.00  0.00     0.007 A 
HETATM   20  O   UNL     1      -4.002 -15.929 -38.575  1.00  0.00    -0.272 OA
ENDBRANCH   3   7
BRANCH   1  21
HETATM   21  O   UNL     1      -7.286 -12.937 -41.244  1.00  0.00    -0.339 OA
HETATM   22  C   UNL     1      -6.168 -13.440 -41.973  1.00  0.00     0.211 C 
ENDBRANCH   1  21
BRANCH   6  23
HETATM   23  C   UNL     1      -9.737 -13.118 -39.788  1.00  0.00     0.015 A 
HETATM   24  C   UNL     1     -10.743 -14.038 -40.170  1.00  0.00     0.152 A 
HETATM   25  N   UNL     1     -11.816 -13.445 -40.700  1.00  0.00    -0.187 NA
HETATM   26  N   UNL     1     -11.514 -12.139 -40.641  1.00  0.00    -0.289 N 
HETATM   27  H   UNL     1     -12.200 -11.472 -40.978  1.00  0.00     0.188 HD
HETATM   28  C   UNL     1     -10.280 -11.890 -40.112  1.00  0.00     0.123 A 
ENDBRANCH   6  23
TORSDOF 3
ENDMDL
