MODEL 1
REMARK VINA RESULT:     -10.0      0.000      0.000
REMARK  8 active torsions:
REMARK  status: ('A' for Active; 'I' for Inactive)
REMARK    1  A    between atoms: C_6  and  N_7 
REMARK    2  A    between atoms: C_6  and  C_26 
REMARK       I    between atoms: N_7  and  C_8 
REMARK    3  A    between atoms: N_7  and  C_23 
REMARK    4  A    between atoms: C_8  and  C_9 
REMARK    5  A    between atoms: C_9  and  N_10 
REMARK    6  A    between atoms: C_14  and  C_15 
REMARK       I    between atoms: C_26  and  N_27 
REMARK    7  A    between atoms: N_27  and  C_28 
REMARK    8  A    between atoms: C_31  and  N_32 
ROOT
HETATM    1  C   UNL     1     -11.836   8.011 -33.974  1.00  0.00     0.269 C 
HETATM    2  N   UNL     1     -11.694   6.542 -33.659  1.00  0.00    -0.075 N 
HETATM    3  H   UNL     1     -12.608   6.235 -33.298  1.00  0.00     0.279 HD
HETATM    4  C   UNL     1     -11.402   5.759 -34.908  1.00  0.00     0.237 C 
HETATM    5  C   UNL     1     -11.242   4.277 -34.591  1.00  0.00     0.069 C 
HETATM    6  C   UNL     1     -10.223   3.933 -33.463  1.00  0.00     0.120 C 
HETATM    7  C   UNL     1     -10.573   4.842 -32.249  1.00  0.00     0.069 C 
HETATM    8  C   UNL     1     -10.663   6.322 -32.592  1.00  0.00     0.237 C 
ENDROOT
BRANCH   6   9
HETATM    9  N   UNL     1     -10.287   2.455 -33.122  1.00  0.00    -0.328 N 
HETATM   10  C   UNL     1      -9.667   2.028 -31.932  1.00  0.00     0.239 C 
HETATM   11  O   UNL     1      -9.427   2.833 -31.028  1.00  0.00    -0.271 OA
BRANCH  10  12
HETATM   12  C   UNL     1      -9.275   0.544 -31.787  1.00  0.00     0.228 C 
BRANCH  12  13
HETATM   13  N   UNL     1      -8.007   0.197 -32.423  1.00  0.00    -0.347 N 
HETATM   14  C   UNL     1      -6.739   0.348 -31.850  1.00  0.00     0.171 C 
HETATM   15  S   UNL     1      -6.291   1.169 -30.486  1.00  0.00    -0.041 SA
HETATM   16  N   UNL     1      -5.829  -0.340 -32.631  1.00  0.00    -0.357 N 
HETATM   17  C   UNL     1      -6.448  -0.893 -33.810  1.00  0.00     0.135 C 
HETATM   18  H   UNL     1      -4.830  -0.304 -32.468  1.00  0.00     0.162 HD
HETATM   19  C   UNL     1      -7.942  -0.827 -33.465  1.00  0.00     0.155 C 
BRANCH  17  20
HETATM   20  C   UNL     1      -5.939  -2.264 -34.167  1.00  0.00    -0.034 A 
HETATM   21  C   UNL     1      -4.597  -2.628 -33.981  1.00  0.00     0.009 A 
HETATM   22  C   UNL     1      -4.149  -3.903 -34.329  1.00  0.00     0.001 A 
HETATM   23  C   UNL     1      -5.038  -4.836 -34.856  1.00  0.00     0.000 A 
HETATM   24  C   UNL     1      -6.378  -4.496 -35.033  1.00  0.00     0.001 A 
HETATM   25  C   UNL     1      -6.826  -3.219 -34.688  1.00  0.00     0.009 A 
ENDBRANCH  17  20
ENDBRANCH  12  13
ENDBRANCH  10  12
BRANCH   9  26
HETATM   26  C   UNL     1     -10.839   1.505 -34.072  1.00  0.00     0.088 A 
HETATM   27  C   UNL     1     -12.117   0.759 -33.749  1.00  0.00     0.027 A 
HETATM   28  C   UNL     1     -12.103   1.734 -34.873  1.00  0.00     0.027 A 
ENDBRANCH   9  26
ENDBRANCH   6   9
BRANCH   6  29
HETATM   29  C   UNL     1      -8.769   4.327 -33.878  1.00  0.00     0.251 C 
HETATM   30  N   UNL     1      -7.791   3.667 -33.162  1.00  0.00    -0.325 N 
HETATM   31  H   UNL     1      -8.045   2.749 -32.810  1.00  0.00     0.169 HD
HETATM   32  O   UNL     1      -8.582   5.324 -34.574  1.00  0.00    -0.270 OA
BRANCH  30  33
HETATM   33  C   UNL     1      -6.487   4.116 -32.870  1.00  0.00     0.034 A 
HETATM   34  C   UNL     1      -5.378   3.844 -33.661  1.00  0.00     0.032 A 
HETATM   35  C   UNL     1      -4.131   4.415 -33.359  1.00  0.00     0.031 A 
HETATM   36  C   UNL     1      -3.943   5.282 -32.273  1.00  0.00     0.030 A 
HETATM   37  C   UNL     1      -5.064   5.507 -31.466  1.00  0.00     0.031 A 
HETATM   38  C   UNL     1      -6.318   4.941 -31.758  1.00  0.00     0.032 A 
BRANCH  36  39
HETATM   39  N   UNL     1      -2.685   5.820 -32.017  1.00  0.00    -0.377 N 
HETATM   40  C   UNL     1      -1.719   5.909 -33.141  1.00  0.00     0.149 C 
HETATM   41  C   UNL     1      -1.811   7.292 -33.811  1.00  0.00     0.187 C 
HETATM   42  O   UNL     1      -1.593   8.353 -32.867  1.00  0.00    -0.388 OA
HETATM   43  C   UNL     1      -2.555   8.290 -31.800  1.00  0.00     0.187 C 
HETATM   44  C   UNL     1      -2.496   6.938 -31.068  1.00  0.00     0.149 C 
ENDBRANCH  36  39
ENDBRANCH  30  33
ENDBRANCH   6  29
TORSDOF 8
ENDMDL
MODEL 2
REMARK VINA RESULT:      -9.8      1.591      2.093
REMARK  8 active torsions:
REMARK  status: ('A' for Active; 'I' for Inactive)
REMARK    1  A    between atoms: C_6  and  N_7 
REMARK    2  A    between atoms: C_6  and  C_26 
REMARK       I    between atoms: N_7  and  C_8 
REMARK    3  A    between atoms: N_7  and  C_23 
REMARK    4  A    between atoms: C_8  and  C_9 
REMARK    5  A    between atoms: C_9  and  N_10 
REMARK    6  A    between atoms: C_14  and  C_15 
REMARK       I    between atoms: C_26  and  N_27 
REMARK    7  A    between atoms: N_27  and  C_28 
REMARK    8  A    between atoms: C_31  and  N_32 
ROOT
HETATM    1  C   UNL     1      -9.681   8.753 -32.199  1.00  0.00     0.269 C 
HETATM    2  N   UNL     1      -9.845   7.252 -32.215  1.00  0.00    -0.075 N 
HETATM    3  H   UNL     1     -10.787   7.061 -31.847  1.00  0.00     0.279 HD
HETATM    4  C   UNL     1      -9.780   6.726 -33.621  1.00  0.00     0.237 C 
HETATM    5  C   UNL     1      -9.929   5.210 -33.638  1.00  0.00     0.069 C 
HETATM    6  C   UNL     1      -8.961   4.425 -32.703  1.00  0.00     0.120 C 
HETATM    7  C   UNL     1      -9.056   5.090 -31.298  1.00  0.00     0.069 C 
HETATM    8  C   UNL     1      -8.841   6.597 -31.313  1.00  0.00     0.237 C 
ENDROOT
BRANCH   6   9
HETATM    9  N   UNL     1      -9.326   2.953 -32.676  1.00  0.00    -0.328 N 
HETATM   10  C   UNL     1      -8.995   2.215 -31.523  1.00  0.00     0.239 C 
HETATM   11  O   UNL     1      -8.780   2.789 -30.453  1.00  0.00    -0.271 OA
BRANCH  10  12
HETATM   12  C   UNL     1      -8.885   0.680 -31.627  1.00  0.00     0.228 C 
BRANCH  12  13
HETATM   13  N   UNL     1      -7.634   0.210 -32.216  1.00  0.00    -0.347 N 
HETATM   14  C   UNL     1      -6.404   0.118 -31.554  1.00  0.00     0.171 C 
HETATM   15  S   UNL     1      -5.950   0.733 -30.089  1.00  0.00    -0.041 SA
HETATM   16  N   UNL     1      -5.544  -0.622 -32.345  1.00  0.00    -0.357 N 
HETATM   17  C   UNL     1      -6.145  -0.965 -33.611  1.00  0.00     0.135 C 
HETATM   18  H   UNL     1      -4.565  -0.749 -32.118  1.00  0.00     0.162 HD
HETATM   19  C   UNL     1      -7.636  -0.711 -33.352  1.00  0.00     0.155 C 
BRANCH  17  20
HETATM   20  C   UNL     1      -5.809  -2.357 -34.075  1.00  0.00    -0.034 A 
HETATM   21  C   UNL     1      -4.530  -2.908 -33.900  1.00  0.00     0.009 A 
HETATM   22  C   UNL     1      -4.243  -4.198 -34.349  1.00  0.00     0.001 A 
HETATM   23  C   UNL     1      -5.232  -4.960 -34.966  1.00  0.00     0.000 A 
HETATM   24  C   UNL     1      -6.511  -4.433 -35.133  1.00  0.00     0.001 A 
HETATM   25  C   UNL     1      -6.799  -3.142 -34.687  1.00  0.00     0.009 A 
ENDBRANCH  17  20
ENDBRANCH  12  13
ENDBRANCH  10  12
BRANCH   9  26
HETATM   26  C   UNL     1      -9.860   2.306 -33.861  1.00  0.00     0.088 A 
HETATM   27  C   UNL     1     -11.130   1.484 -33.775  1.00  0.00     0.027 A 
HETATM   28  C   UNL     1     -11.123   2.739 -34.574  1.00  0.00     0.027 A 
ENDBRANCH   9  26
ENDBRANCH   6   9
BRANCH   6  29
HETATM   29  C   UNL     1      -7.475   4.604 -33.151  1.00  0.00     0.251 C 
HETATM   30  N   UNL     1      -6.561   4.371 -32.143  1.00  0.00    -0.325 N 
HETATM   31  H   UNL     1      -6.855   3.721 -31.422  1.00  0.00     0.169 HD
HETATM   32  O   UNL     1      -7.222   5.162 -34.219  1.00  0.00    -0.270 OA
BRANCH  30  33
HETATM   33  C   UNL     1      -5.272   4.926 -32.006  1.00  0.00     0.034 A 
HETATM   34  C   UNL     1      -5.029   6.230 -31.594  1.00  0.00     0.032 A 
HETATM   35  C   UNL     1      -3.715   6.676 -31.382  1.00  0.00     0.031 A 
HETATM   36  C   UNL     1      -2.599   5.845 -31.559  1.00  0.00     0.030 A 
HETATM   37  C   UNL     1      -2.866   4.549 -32.017  1.00  0.00     0.031 A 
HETATM   38  C   UNL     1      -4.178   4.091 -32.233  1.00  0.00     0.032 A 
BRANCH  36  39
HETATM   39  N   UNL     1      -1.316   6.338 -31.337  1.00  0.00    -0.377 N 
HETATM   40  C   UNL     1      -1.146   7.421 -30.337  1.00  0.00     0.149 C 
HETATM   41  C   UNL     1      -0.799   6.823 -28.961  1.00  0.00     0.187 C 
HETATM   42  O   UNL     1       0.376   5.998 -29.024  1.00  0.00    -0.388 OA
HETATM   43  C   UNL     1       0.195   4.925 -29.964  1.00  0.00     0.187 C 
HETATM   44  C   UNL     1      -0.129   5.458 -31.371  1.00  0.00     0.149 C 
ENDBRANCH  36  39
ENDBRANCH  30  33
ENDBRANCH   6  29
TORSDOF 8
ENDMDL
MODEL 3
REMARK VINA RESULT:      -9.7      3.491      6.251
REMARK  8 active torsions:
REMARK  status: ('A' for Active; 'I' for Inactive)
REMARK    1  A    between atoms: C_6  and  N_7 
REMARK    2  A    between atoms: C_6  and  C_26 
REMARK       I    between atoms: N_7  and  C_8 
REMARK    3  A    between atoms: N_7  and  C_23 
REMARK    4  A    between atoms: C_8  and  C_9 
REMARK    5  A    between atoms: C_9  and  N_10 
REMARK    6  A    between atoms: C_14  and  C_15 
REMARK       I    between atoms: C_26  and  N_27 
REMARK    7  A    between atoms: N_27  and  C_28 
REMARK    8  A    between atoms: C_31  and  N_32 
ROOT
HETATM    1  C   UNL     1     -15.295   1.092 -33.843  1.00  0.00     0.269 C 
HETATM    2  N   UNL     1     -13.928   1.339 -33.252  1.00  0.00    -0.075 N 
HETATM    3  H   UNL     1     -13.918   0.862 -32.340  1.00  0.00     0.279 HD
HETATM    4  C   UNL     1     -12.860   0.724 -34.111  1.00  0.00     0.237 C 
HETATM    5  C   UNL     1     -11.478   0.985 -33.524  1.00  0.00     0.069 C 
HETATM    6  C   UNL     1     -11.150   2.475 -33.206  1.00  0.00     0.120 C 
HETATM    7  C   UNL     1     -12.344   3.031 -32.376  1.00  0.00     0.069 C 
HETATM    8  C   UNL     1     -13.704   2.805 -33.023  1.00  0.00     0.237 C 
ENDROOT
BRANCH   6   9
HETATM    9  N   UNL     1      -9.829   2.582 -32.468  1.00  0.00    -0.328 N 
HETATM   10  C   UNL     1      -8.697   1.988 -33.058  1.00  0.00     0.239 C 
HETATM   11  O   UNL     1      -8.680   1.737 -34.266  1.00  0.00    -0.271 OA
BRANCH  10  12
HETATM   12  C   UNL     1      -7.489   1.636 -32.166  1.00  0.00     0.228 C 
BRANCH  12  13
HETATM   13  N   UNL     1      -6.449   0.868 -32.844  1.00  0.00    -0.347 N 
HETATM   14  C   UNL     1      -5.110   0.777 -32.447  1.00  0.00     0.171 C 
HETATM   15  S   UNL     1      -4.282   1.671 -31.330  1.00  0.00    -0.041 SA
HETATM   16  N   UNL     1      -4.517  -0.247 -33.162  1.00  0.00    -0.357 N 
HETATM   17  C   UNL     1      -5.419  -0.811 -34.135  1.00  0.00     0.135 C 
HETATM   18  H   UNL     1      -3.525  -0.447 -33.111  1.00  0.00     0.162 HD
HETATM   19  C   UNL     1      -6.785  -0.299 -33.659  1.00  0.00     0.155 C 
BRANCH  17  20
HETATM   20  C   UNL     1      -5.310  -2.308 -34.258  1.00  0.00    -0.034 A 
HETATM   21  C   UNL     1      -4.145  -2.997 -33.889  1.00  0.00     0.009 A 
HETATM   22  C   UNL     1      -4.066  -4.385 -34.021  1.00  0.00     0.001 A 
HETATM   23  C   UNL     1      -5.154  -5.102 -34.513  1.00  0.00     0.000 A 
HETATM   24  C   UNL     1      -6.323  -4.434 -34.869  1.00  0.00     0.001 A 
HETATM   25  C   UNL     1      -6.402  -3.046 -34.739  1.00  0.00     0.009 A 
ENDBRANCH  17  20
ENDBRANCH  12  13
ENDBRANCH  10  12
BRANCH   9  26
HETATM   26  C   UNL     1      -9.777   3.147 -31.131  1.00  0.00     0.088 A 
HETATM   27  C   UNL     1      -8.989   4.414 -30.869  1.00  0.00     0.027 A 
HETATM   28  C   UNL     1     -10.469   4.428 -30.718  1.00  0.00     0.027 A 
ENDBRANCH   9  26
ENDBRANCH   6   9
BRANCH   6  29
HETATM   29  C   UNL     1     -11.110   3.335 -34.510  1.00  0.00     0.251 C 
HETATM   30  N   UNL     1     -10.944   4.686 -34.278  1.00  0.00    -0.325 N 
HETATM   31  H   UNL     1     -10.443   4.929 -33.429  1.00  0.00     0.169 HD
HETATM   32  O   UNL     1     -11.472   2.842 -35.578  1.00  0.00    -0.270 OA
BRANCH  30  33
HETATM   33  C   UNL     1     -11.383   5.757 -35.082  1.00  0.00     0.034 A 
HETATM   34  C   UNL     1     -12.705   5.951 -35.462  1.00  0.00     0.032 A 
HETATM   35  C   UNL     1     -13.078   7.099 -36.178  1.00  0.00     0.031 A 
HETATM   36  C   UNL     1     -12.160   8.099 -36.531  1.00  0.00     0.030 A 
HETATM   37  C   UNL     1     -10.827   7.861 -36.175  1.00  0.00     0.031 A 
HETATM   38  C   UNL     1     -10.441   6.715 -35.459  1.00  0.00     0.032 A 
BRANCH  36  39
HETATM   39  N   UNL     1     -12.582   9.218 -37.242  1.00  0.00    -0.377 N 
HETATM   40  C   UNL     1     -11.552  10.172 -37.723  1.00  0.00     0.149 C 
HETATM   41  C   UNL     1     -11.135   9.822 -39.163  1.00  0.00     0.187 C 
HETATM   42  O   UNL     1     -12.265   9.803 -40.051  1.00  0.00    -0.388 OA
HETATM   43  C   UNL     1     -13.246   8.849 -39.606  1.00  0.00     0.187 C 
HETATM   44  C   UNL     1     -13.726   9.159 -38.178  1.00  0.00     0.149 C 
ENDBRANCH  36  39
ENDBRANCH  30  33
ENDBRANCH   6  29
TORSDOF 8
ENDMDL
MODEL 4
REMARK VINA RESULT:      -9.5      2.901      9.711
REMARK  8 active torsions:
REMARK  status: ('A' for Active; 'I' for Inactive)
REMARK    1  A    between atoms: C_6  and  N_7 
REMARK    2  A    between atoms: C_6  and  C_26 
REMARK       I    between atoms: N_7  and  C_8 
REMARK    3  A    between atoms: N_7  and  C_23 
REMARK    4  A    between atoms: C_8  and  C_9 
REMARK    5  A    between atoms: C_9  and  N_10 
REMARK    6  A    between atoms: C_14  and  C_15 
REMARK       I    between atoms: C_26  and  N_27 
REMARK    7  A    between atoms: N_27  and  C_28 
REMARK    8  A    between atoms: C_31  and  N_32 
ROOT
HETATM    1  C   UNL     1      -3.469  -1.813 -31.937  1.00  0.00     0.269 C 
HETATM    2  N   UNL     1      -3.748  -0.347 -31.708  1.00  0.00    -0.075 N 
HETATM    3  H   UNL     1      -2.871   0.062 -31.358  1.00  0.00     0.279 HD
HETATM    4  C   UNL     1      -4.095   0.335 -33.002  1.00  0.00     0.237 C 
HETATM    5  C   UNL     1      -4.392   1.811 -32.771  1.00  0.00     0.069 C 
HETATM    6  C   UNL     1      -5.452   2.124 -31.673  1.00  0.00     0.120 C 
HETATM    7  C   UNL     1      -5.037   1.320 -30.405  1.00  0.00     0.069 C 
HETATM    8  C   UNL     1      -4.808  -0.163 -30.663  1.00  0.00     0.237 C 
ENDROOT
BRANCH   6   9
HETATM    9  N   UNL     1      -5.527   3.617 -31.416  1.00  0.00    -0.328 N 
HETATM   10  C   UNL     1      -5.014   4.480 -32.404  1.00  0.00     0.239 C 
HETATM   11  O   UNL     1      -4.869   4.087 -33.564  1.00  0.00    -0.271 OA
BRANCH  10  12
HETATM   12  C   UNL     1      -4.616   5.916 -32.006  1.00  0.00     0.228 C 
BRANCH  12  13
HETATM   13  N   UNL     1      -3.221   6.058 -31.599  1.00  0.00    -0.347 N 
HETATM   14  C   UNL     1      -2.169   6.472 -32.423  1.00  0.00     0.171 C 
HETATM   15  S   UNL     1      -2.125   6.647 -34.067  1.00  0.00    -0.041 SA
HETATM   16  N   UNL     1      -1.076   6.748 -31.621  1.00  0.00    -0.357 N 
HETATM   17  C   UNL     1      -1.335   6.430 -30.238  1.00  0.00     0.135 C 
HETATM   18  H   UNL     1      -0.165   6.981 -31.998  1.00  0.00     0.162 HD
HETATM   19  C   UNL     1      -2.865   6.315 -30.204  1.00  0.00     0.155 C 
BRANCH  17  20
HETATM   20  C   UNL     1      -0.752   7.429 -29.275  1.00  0.00    -0.034 A 
HETATM   21  C   UNL     1      -1.534   8.436 -28.688  1.00  0.00     0.009 A 
HETATM   22  C   UNL     1      -0.966   9.355 -27.805  1.00  0.00     0.001 A 
HETATM   23  C   UNL     1       0.388   9.274 -27.487  1.00  0.00     0.000 A 
HETATM   24  C   UNL     1       1.174   8.270 -28.049  1.00  0.00     0.001 A 
HETATM   25  C   UNL     1       0.608   7.352 -28.935  1.00  0.00     0.009 A 
ENDBRANCH  17  20
ENDBRANCH  12  13
ENDBRANCH  10  12
BRANCH   9  26
HETATM   26  C   UNL     1      -5.976   4.121 -30.130  1.00  0.00     0.088 A 
HETATM   27  C   UNL     1      -7.153   5.071 -30.051  1.00  0.00     0.027 A 
HETATM   28  C   UNL     1      -7.268   3.712 -29.456  1.00  0.00     0.027 A 
ENDBRANCH   9  26
ENDBRANCH   6   9
BRANCH   6  29
HETATM   29  C   UNL     1      -6.859   1.575 -32.075  1.00  0.00     0.251 C 
HETATM   30  N   UNL     1      -7.408   2.210 -33.171  1.00  0.00    -0.325 N 
HETATM   31  H   UNL     1      -6.746   2.595 -33.836  1.00  0.00     0.169 HD
HETATM   32  O   UNL     1      -7.478   0.851 -31.296  1.00  0.00    -0.270 OA
BRANCH  30  33
HETATM   33  C   UNL     1      -8.775   2.377 -33.472  1.00  0.00     0.034 A 
HETATM   34  C   UNL     1      -9.535   1.446 -34.170  1.00  0.00     0.032 A 
HETATM   35  C   UNL     1     -10.915   1.639 -34.340  1.00  0.00     0.031 A 
HETATM   36  C   UNL     1     -11.592   2.750 -33.817  1.00  0.00     0.030 A 
HETATM   37  C   UNL     1     -10.798   3.695 -33.156  1.00  0.00     0.031 A 
HETATM   38  C   UNL     1      -9.415   3.515 -32.979  1.00  0.00     0.032 A 
BRANCH  36  39
HETATM   39  N   UNL     1     -12.962   2.894 -34.015  1.00  0.00    -0.377 N 
HETATM   40  C   UNL     1     -13.718   1.731 -34.542  1.00  0.00     0.149 C 
HETATM   41  C   UNL     1     -14.306   0.910 -33.380  1.00  0.00     0.187 C 
HETATM   42  O   UNL     1     -15.138   1.717 -32.530  1.00  0.00    -0.388 OA
HETATM   43  C   UNL     1     -14.393   2.821 -31.988  1.00  0.00     0.187 C 
HETATM   44  C   UNL     1     -13.799   3.700 -33.101  1.00  0.00     0.149 C 
ENDBRANCH  36  39
ENDBRANCH  30  33
ENDBRANCH   6  29
TORSDOF 8
ENDMDL
MODEL 5
REMARK VINA RESULT:      -9.2      2.751      4.125
REMARK  8 active torsions:
REMARK  status: ('A' for Active; 'I' for Inactive)
REMARK    1  A    between atoms: C_6  and  N_7 
REMARK    2  A    between atoms: C_6  and  C_26 
REMARK       I    between atoms: N_7  and  C_8 
REMARK    3  A    between atoms: N_7  and  C_23 
REMARK    4  A    between atoms: C_8  and  C_9 
REMARK    5  A    between atoms: C_9  and  N_10 
REMARK    6  A    between atoms: C_14  and  C_15 
REMARK       I    between atoms: C_26  and  N_27 
REMARK    7  A    between atoms: N_27  and  C_28 
REMARK    8  A    between atoms: C_31  and  N_32 
ROOT
HETATM    1  C   UNL     1      -8.415   7.710 -27.770  1.00  0.00     0.269 C 
HETATM    2  N   UNL     1      -9.360   7.098 -28.776  1.00  0.00    -0.075 N 
HETATM    3  H   UNL     1     -10.231   6.894 -28.267  1.00  0.00     0.279 HD
HETATM    4  C   UNL     1      -9.680   8.079 -29.869  1.00  0.00     0.237 C 
HETATM    5  C   UNL     1     -10.621   7.458 -30.893  1.00  0.00     0.069 C 
HETATM    6  C   UNL     1     -10.168   6.090 -31.486  1.00  0.00     0.120 C 
HETATM    7  C   UNL     1      -9.799   5.178 -30.279  1.00  0.00     0.069 C 
HETATM    8  C   UNL     1      -8.809   5.808 -29.309  1.00  0.00     0.237 C 
ENDROOT
BRANCH   6   9
HETATM    9  N   UNL     1     -11.265   5.496 -32.350  1.00  0.00    -0.328 N 
HETATM   10  C   UNL     1     -12.020   4.434 -31.816  1.00  0.00     0.239 C 
HETATM   11  O   UNL     1     -12.063   4.248 -30.598  1.00  0.00    -0.271 OA
BRANCH  10  12
HETATM   12  C   UNL     1     -12.773   3.496 -32.782  1.00  0.00     0.228 C 
BRANCH  12  13
HETATM   13  N   UNL     1     -11.920   2.516 -33.448  1.00  0.00    -0.347 N 
HETATM   14  C   UNL     1     -11.703   2.427 -34.828  1.00  0.00     0.171 C 
HETATM   15  S   UNL     1     -12.504   3.169 -36.069  1.00  0.00    -0.041 SA
HETATM   16  N   UNL     1     -10.637   1.573 -35.042  1.00  0.00    -0.357 N 
HETATM   17  C   UNL     1     -10.169   0.984 -33.812  1.00  0.00     0.135 C 
HETATM   18  H   UNL     1     -10.347   1.280 -35.968  1.00  0.00     0.162 HD
HETATM   19  C   UNL     1     -10.798   1.893 -32.747  1.00  0.00     0.155 C 
BRANCH  17  20
HETATM   20  C   UNL     1      -8.670   0.862 -33.737  1.00  0.00    -0.034 A 
HETATM   21  C   UNL     1      -7.949   1.275 -32.606  1.00  0.00     0.009 A 
HETATM   22  C   UNL     1      -6.559   1.160 -32.567  1.00  0.00     0.001 A 
HETATM   23  C   UNL     1      -5.872   0.621 -33.652  1.00  0.00     0.000 A 
HETATM   24  C   UNL     1      -6.575   0.192 -34.776  1.00  0.00     0.001 A 
HETATM   25  C   UNL     1      -7.965   0.309 -34.818  1.00  0.00     0.009 A 
ENDBRANCH  17  20
ENDBRANCH  12  13
ENDBRANCH  10  12
BRANCH   9  26
HETATM   26  C   UNL     1     -11.419   5.916 -33.732  1.00  0.00     0.088 A 
HETATM   27  C   UNL     1     -12.730   6.509 -34.207  1.00  0.00     0.027 A 
HETATM   28  C   UNL     1     -11.508   7.358 -34.181  1.00  0.00     0.027 A 
ENDBRANCH   9  26
ENDBRANCH   6   9
BRANCH   6  29
HETATM   29  C   UNL     1      -8.852   6.242 -32.314  1.00  0.00     0.251 C 
HETATM   30  N   UNL     1      -8.200   5.047 -32.542  1.00  0.00    -0.325 N 
HETATM   31  H   UNL     1      -8.789   4.221 -32.572  1.00  0.00     0.169 HD
HETATM   32  O   UNL     1      -8.357   7.357 -32.476  1.00  0.00    -0.270 OA
BRANCH  30  33
HETATM   33  C   UNL     1      -6.819   4.845 -32.742  1.00  0.00     0.034 A 
HETATM   34  C   UNL     1      -6.224   4.740 -33.994  1.00  0.00     0.032 A 
HETATM   35  C   UNL     1      -4.829   4.643 -34.111  1.00  0.00     0.031 A 
HETATM   36  C   UNL     1      -3.975   4.659 -32.999  1.00  0.00     0.030 A 
HETATM   37  C   UNL     1      -4.600   4.722 -31.748  1.00  0.00     0.031 A 
HETATM   38  C   UNL     1      -5.996   4.818 -31.616  1.00  0.00     0.032 A 
BRANCH  36  39
HETATM   39  N   UNL     1      -2.598   4.559 -33.172  1.00  0.00    -0.377 N 
HETATM   40  C   UNL     1      -2.010   5.079 -34.432  1.00  0.00     0.149 C 
HETATM   41  C   UNL     1      -1.549   6.535 -34.240  1.00  0.00     0.187 C 
HETATM   42  O   UNL     1      -0.615   6.656 -33.154  1.00  0.00    -0.388 OA
HETATM   43  C   UNL     1      -1.200   6.189 -31.926  1.00  0.00     0.187 C 
HETATM   44  C   UNL     1      -1.658   4.725 -32.042  1.00  0.00     0.149 C 
ENDBRANCH  36  39
ENDBRANCH  30  33
ENDBRANCH   6  29
TORSDOF 8
ENDMDL
MODEL 6
REMARK VINA RESULT:      -8.9      3.505      8.592
REMARK  8 active torsions:
REMARK  status: ('A' for Active; 'I' for Inactive)
REMARK    1  A    between atoms: C_6  and  N_7 
REMARK    2  A    between atoms: C_6  and  C_26 
REMARK       I    between atoms: N_7  and  C_8 
REMARK    3  A    between atoms: N_7  and  C_23 
REMARK    4  A    between atoms: C_8  and  C_9 
REMARK    5  A    between atoms: C_9  and  N_10 
REMARK    6  A    between atoms: C_14  and  C_15 
REMARK       I    between atoms: C_26  and  N_27 
REMARK    7  A    between atoms: N_27  and  C_28 
REMARK    8  A    between atoms: C_31  and  N_32 
ROOT
HETATM    1  C   UNL     1      -8.066  10.521 -27.645  1.00  0.00     0.269 C 
HETATM    2  N   UNL     1      -6.636  10.100 -27.882  1.00  0.00    -0.075 N 
HETATM    3  H   UNL     1      -6.094  10.968 -27.992  1.00  0.00     0.279 HD
HETATM    4  C   UNL     1      -6.095   9.364 -26.688  1.00  0.00     0.237 C 
HETATM    5  C   UNL     1      -4.657   8.924 -26.931  1.00  0.00     0.069 C 
HETATM    6  C   UNL     1      -4.408   8.121 -28.242  1.00  0.00     0.120 C 
HETATM    7  C   UNL     1      -5.061   8.934 -29.398  1.00  0.00     0.069 C 
HETATM    8  C   UNL     1      -6.517   9.303 -29.147  1.00  0.00     0.237 C 
ENDROOT
BRANCH   6   9
HETATM    9  N   UNL     1      -2.922   7.899 -28.455  1.00  0.00    -0.328 N 
HETATM   10  C   UNL     1      -2.304   8.567 -29.530  1.00  0.00     0.239 C 
HETATM   11  O   UNL     1      -2.830   9.565 -30.031  1.00  0.00    -0.271 OA
BRANCH  10  12
HETATM   12  C   UNL     1      -0.974   8.018 -30.083  1.00  0.00     0.228 C 
BRANCH  12  13
HETATM   13  N   UNL     1      -1.128   6.902 -31.011  1.00  0.00    -0.347 N 
HETATM   14  C   UNL     1      -0.597   5.618 -30.839  1.00  0.00     0.171 C 
HETATM   15  S   UNL     1       0.526   5.081 -29.751  1.00  0.00    -0.041 SA
HETATM   16  N   UNL     1      -1.185   4.781 -31.770  1.00  0.00    -0.357 N 
HETATM   17  C   UNL     1      -2.059   5.503 -32.661  1.00  0.00     0.135 C 
HETATM   18  H   UNL     1      -0.896   3.819 -31.900  1.00  0.00     0.162 HD
HETATM   19  C   UNL     1      -2.275   6.827 -31.916  1.00  0.00     0.155 C 
BRANCH  17  20
HETATM   20  C   UNL     1      -3.319   4.753 -33.001  1.00  0.00    -0.034 A 
HETATM   21  C   UNL     1      -3.526   3.428 -32.591  1.00  0.00     0.009 A 
HETATM   22  C   UNL     1      -4.700   2.752 -32.928  1.00  0.00     0.001 A 
HETATM   23  C   UNL     1      -5.688   3.396 -33.670  1.00  0.00     0.000 A 
HETATM   24  C   UNL     1      -5.504   4.717 -34.071  1.00  0.00     0.001 A 
HETATM   25  C   UNL     1      -4.329   5.393 -33.737  1.00  0.00     0.009 A 
ENDBRANCH  17  20
ENDBRANCH  12  13
ENDBRANCH  10  12
BRANCH   9  26
HETATM   26  C   UNL     1      -2.206   6.913 -27.665  1.00  0.00     0.088 A 
HETATM   27  C   UNL     1      -1.165   7.354 -26.656  1.00  0.00     0.027 A 
HETATM   28  C   UNL     1      -2.412   6.694 -26.181  1.00  0.00     0.027 A 
ENDBRANCH   9  26
ENDBRANCH   6   9
BRANCH   6  29
HETATM   29  C   UNL     1      -5.159   6.751 -28.216  1.00  0.00     0.251 C 
HETATM   30  N   UNL     1      -5.053   6.039 -29.394  1.00  0.00    -0.325 N 
HETATM   31  H   UNL     1      -4.213   6.208 -29.938  1.00  0.00     0.169 HD
HETATM   32  O   UNL     1      -5.968   6.515 -27.319  1.00  0.00    -0.270 OA
BRANCH  30  33
HETATM   33  C   UNL     1      -5.970   5.106 -29.920  1.00  0.00     0.034 A 
HETATM   34  C   UNL     1      -5.927   3.743 -29.656  1.00  0.00     0.032 A 
HETATM   35  C   UNL     1      -6.938   2.894 -30.135  1.00  0.00     0.031 A 
HETATM   36  C   UNL     1      -8.029   3.365 -30.878  1.00  0.00     0.030 A 
HETATM   37  C   UNL     1      -8.027   4.735 -31.168  1.00  0.00     0.031 A 
HETATM   38  C   UNL     1      -7.021   5.595 -30.696  1.00  0.00     0.032 A 
BRANCH  36  39
HETATM   39  N   UNL     1      -9.004   2.480 -31.330  1.00  0.00    -0.377 N 
HETATM   40  C   UNL     1      -9.995   2.975 -32.318  1.00  0.00     0.149 C 
HETATM   41  C   UNL     1      -9.519   2.665 -33.749  1.00  0.00     0.187 C 
HETATM   42  O   UNL     1      -9.274   1.261 -33.932  1.00  0.00    -0.388 OA
HETATM   43  C   UNL     1      -8.284   0.791 -33.001  1.00  0.00     0.187 C 
HETATM   44  C   UNL     1      -8.713   1.046 -31.546  1.00  0.00     0.149 C 
ENDBRANCH  36  39
ENDBRANCH  30  33
ENDBRANCH   6  29
TORSDOF 8
ENDMDL
MODEL 7
REMARK VINA RESULT:      -8.9      3.314      7.242
REMARK  8 active torsions:
REMARK  status: ('A' for Active; 'I' for Inactive)
REMARK    1  A    between atoms: C_6  and  N_7 
REMARK    2  A    between atoms: C_6  and  C_26 
REMARK       I    between atoms: N_7  and  C_8 
REMARK    3  A    between atoms: N_7  and  C_23 
REMARK    4  A    between atoms: C_8  and  C_9 
REMARK    5  A    between atoms: C_9  and  N_10 
REMARK    6  A    between atoms: C_14  and  C_15 
REMARK       I    between atoms: C_26  and  N_27 
REMARK    7  A    between atoms: N_27  and  C_28 
REMARK    8  A    between atoms: C_31  and  N_32 
ROOT
HETATM    1  C   UNL     1     -14.369   1.138 -34.211  1.00  0.00     0.269 C 
HETATM    2  N   UNL     1     -13.193   1.512 -33.341  1.00  0.00    -0.075 N 
HETATM    3  H   UNL     1     -13.306   0.988 -32.462  1.00  0.00     0.279 HD
HETATM    4  C   UNL     1     -11.903   1.078 -33.978  1.00  0.00     0.237 C 
HETATM    5  C   UNL     1     -10.714   1.469 -33.110  1.00  0.00     0.069 C 
HETATM    6  C   UNL     1     -10.651   2.966 -32.684  1.00  0.00     0.120 C 
HETATM    7  C   UNL     1     -12.049   3.328 -32.103  1.00  0.00     0.069 C 
HETATM    8  C   UNL     1     -13.209   2.979 -33.025  1.00  0.00     0.237 C 
ENDROOT
BRANCH   6   9
HETATM    9  N   UNL     1      -9.530   3.188 -31.685  1.00  0.00    -0.328 N 
HETATM   10  C   UNL     1      -8.326   2.485 -31.882  1.00  0.00     0.239 C 
HETATM   11  O   UNL     1      -8.045   2.023 -32.991  1.00  0.00    -0.271 OA
BRANCH  10  12
HETATM   12  C   UNL     1      -7.376   2.285 -30.684  1.00  0.00     0.228 C 
BRANCH  12  13
HETATM   13  N   UNL     1      -5.959   2.381 -31.023  1.00  0.00    -0.347 N 
HETATM   14  C   UNL     1      -5.182   1.360 -31.584  1.00  0.00     0.171 C 
HETATM   15  S   UNL     1      -5.528  -0.246 -31.766  1.00  0.00    -0.041 SA
HETATM   16  N   UNL     1      -3.989   1.913 -32.012  1.00  0.00    -0.357 N 
HETATM   17  C   UNL     1      -3.890   3.307 -31.660  1.00  0.00     0.135 C 
HETATM   18  H   UNL     1      -3.225   1.353 -32.373  1.00  0.00     0.162 HD
HETATM   19  C   UNL     1      -5.343   3.672 -31.328  1.00  0.00     0.155 C 
BRANCH  17  20
HETATM   20  C   UNL     1      -3.252   4.152 -32.730  1.00  0.00    -0.034 A 
HETATM   21  C   UNL     1      -3.957   4.550 -33.877  1.00  0.00     0.009 A 
HETATM   22  C   UNL     1      -3.339   5.326 -34.859  1.00  0.00     0.001 A 
HETATM   23  C   UNL     1      -2.013   5.723 -34.704  1.00  0.00     0.000 A 
HETATM   24  C   UNL     1      -1.305   5.349 -33.564  1.00  0.00     0.001 A 
HETATM   25  C   UNL     1      -1.921   4.572 -32.582  1.00  0.00     0.009 A 
ENDBRANCH  17  20
ENDBRANCH  12  13
ENDBRANCH  10  12
BRANCH   9  26
HETATM   26  C   UNL     1      -9.757   3.981 -30.490  1.00  0.00     0.088 A 
HETATM   27  C   UNL     1      -8.894   5.193 -30.204  1.00  0.00     0.027 A 
HETATM   28  C   UNL     1     -10.343   5.377 -30.491  1.00  0.00     0.027 A 
ENDBRANCH   9  26
ENDBRANCH   6   9
BRANCH   6  29
HETATM   29  C   UNL     1     -10.458   3.897 -33.924  1.00  0.00     0.251 C 
HETATM   30  N   UNL     1     -10.798   5.214 -33.686  1.00  0.00    -0.325 N 
HETATM   31  H   UNL     1     -10.697   5.530 -32.727  1.00  0.00     0.169 HD
HETATM   32  O   UNL     1     -10.287   3.403 -35.038  1.00  0.00    -0.270 OA
BRANCH  30  33
HETATM   33  C   UNL     1     -11.260   6.165 -34.618  1.00  0.00     0.034 A 
HETATM   34  C   UNL     1     -12.603   6.383 -34.903  1.00  0.00     0.032 A 
HETATM   35  C   UNL     1     -12.987   7.420 -35.768  1.00  0.00     0.031 A 
HETATM   36  C   UNL     1     -12.059   8.283 -36.369  1.00  0.00     0.030 A 
HETATM   37  C   UNL     1     -10.711   8.017 -36.101  1.00  0.00     0.031 A 
HETATM   38  C   UNL     1     -10.314   6.981 -35.238  1.00  0.00     0.032 A 
BRANCH  36  39
HETATM   39  N   UNL     1     -12.493   9.295 -37.220  1.00  0.00    -0.377 N 
HETATM   40  C   UNL     1     -11.494  10.282 -37.701  1.00  0.00     0.149 C 
HETATM   41  C   UNL     1     -10.921   9.838 -39.059  1.00  0.00     0.187 C 
HETATM   42  O   UNL     1     -11.959   9.647 -40.034  1.00  0.00    -0.388 OA
HETATM   43  C   UNL     1     -12.905   8.661 -39.584  1.00  0.00     0.187 C 
HETATM   44  C   UNL     1     -13.537   9.060 -38.240  1.00  0.00     0.149 C 
ENDBRANCH  36  39
ENDBRANCH  30  33
ENDBRANCH   6  29
TORSDOF 8
ENDMDL
MODEL 8
REMARK VINA RESULT:      -8.8      3.289      9.215
REMARK  8 active torsions:
REMARK  status: ('A' for Active; 'I' for Inactive)
REMARK    1  A    between atoms: C_6  and  N_7 
REMARK    2  A    between atoms: C_6  and  C_26 
REMARK       I    between atoms: N_7  and  C_8 
REMARK    3  A    between atoms: N_7  and  C_23 
REMARK    4  A    between atoms: C_8  and  C_9 
REMARK    5  A    between atoms: C_9  and  N_10 
REMARK    6  A    between atoms: C_14  and  C_15 
REMARK       I    between atoms: C_26  and  N_27 
REMARK    7  A    between atoms: N_27  and  C_28 
REMARK    8  A    between atoms: C_31  and  N_32 
ROOT
HETATM    1  C   UNL     1      -3.093  -0.260 -31.322  1.00  0.00     0.269 C 
HETATM    2  N   UNL     1      -3.604   1.156 -31.205  1.00  0.00    -0.075 N 
HETATM    3  H   UNL     1      -2.830   1.710 -30.814  1.00  0.00     0.279 HD
HETATM    4  C   UNL     1      -3.934   1.713 -32.561  1.00  0.00     0.237 C 
HETATM    5  C   UNL     1      -4.464   3.137 -32.445  1.00  0.00     0.069 C 
HETATM    6  C   UNL     1      -5.650   3.338 -31.454  1.00  0.00     0.120 C 
HETATM    7  C   UNL     1      -5.231   2.669 -30.112  1.00  0.00     0.069 C 
HETATM    8  C   UNL     1      -4.765   1.227 -30.259  1.00  0.00     0.237 C 
ENDROOT
BRANCH   6   9
HETATM    9  N   UNL     1      -5.966   4.814 -31.296  1.00  0.00    -0.328 N 
HETATM   10  C   UNL     1      -5.625   5.676 -32.356  1.00  0.00     0.239 C 
HETATM   11  O   UNL     1      -5.443   5.229 -33.492  1.00  0.00    -0.271 OA
BRANCH  10  12
HETATM   12  C   UNL     1      -5.462   7.182 -32.069  1.00  0.00     0.228 C 
BRANCH  12  13
HETATM   13  N   UNL     1      -4.181   7.540 -31.468  1.00  0.00    -0.347 N 
HETATM   14  C   UNL     1      -4.007   8.158 -30.224  1.00  0.00     0.171 C 
HETATM   15  S   UNL     1      -5.124   8.879 -29.242  1.00  0.00    -0.041 SA
HETATM   16  N   UNL     1      -2.668   8.076 -29.886  1.00  0.00    -0.357 N 
HETATM   17  C   UNL     1      -1.886   7.486 -30.944  1.00  0.00     0.135 C 
HETATM   18  H   UNL     1      -2.282   8.532 -29.068  1.00  0.00     0.162 HD
HETATM   19  C   UNL     1      -2.956   6.822 -31.820  1.00  0.00     0.155 C 
BRANCH  17  20
HETATM   20  C   UNL     1      -0.809   6.559 -30.447  1.00  0.00    -0.034 A 
HETATM   21  C   UNL     1      -0.104   5.710 -31.314  1.00  0.00     0.009 A 
HETATM   22  C   UNL     1       0.884   4.854 -30.825  1.00  0.00     0.001 A 
HETATM   23  C   UNL     1       1.189   4.842 -29.466  1.00  0.00     0.000 A 
HETATM   24  C   UNL     1       0.509   5.690 -28.595  1.00  0.00     0.001 A 
HETATM   25  C   UNL     1      -0.481   6.545 -29.082  1.00  0.00     0.009 A 
ENDBRANCH  17  20
ENDBRANCH  12  13
ENDBRANCH  10  12
BRANCH   9  26
HETATM   26  C   UNL     1      -6.462   5.328 -30.032  1.00  0.00     0.088 A 
HETATM   27  C   UNL     1      -7.841   5.950 -29.950  1.00  0.00     0.027 A 
HETATM   28  C   UNL     1      -7.566   4.682 -29.222  1.00  0.00     0.027 A 
ENDBRANCH   9  26
ENDBRANCH   6   9
BRANCH   6  29
HETATM   29  C   UNL     1      -6.920   2.563 -31.930  1.00  0.00     0.251 C 
HETATM   30  N   UNL     1      -7.713   3.282 -32.802  1.00  0.00    -0.325 N 
HETATM   31  H   UNL     1      -7.231   3.972 -33.369  1.00  0.00     0.169 HD
HETATM   32  O   UNL     1      -7.268   1.539 -31.342  1.00  0.00    -0.270 OA
BRANCH  30  33
HETATM   33  C   UNL     1      -9.103   3.163 -32.998  1.00  0.00     0.034 A 
HETATM   34  C   UNL     1     -10.051   3.903 -32.300  1.00  0.00     0.032 A 
HETATM   35  C   UNL     1     -11.413   3.801 -32.625  1.00  0.00     0.031 A 
HETATM   36  C   UNL     1     -11.882   2.977 -33.658  1.00  0.00     0.030 A 
HETATM   37  C   UNL     1     -10.914   2.210 -34.318  1.00  0.00     0.031 A 
HETATM   38  C   UNL     1      -9.548   2.301 -34.001  1.00  0.00     0.032 A 
BRANCH  36  39
HETATM   39  N   UNL     1     -13.244   2.913 -33.939  1.00  0.00    -0.377 N 
HETATM   40  C   UNL     1     -13.772   1.672 -34.559  1.00  0.00     0.149 C 
HETATM   41  C   UNL     1     -14.288   0.713 -33.470  1.00  0.00     0.187 C 
HETATM   42  O   UNL     1     -15.286   1.337 -32.645  1.00  0.00    -0.388 OA
HETATM   43  C   UNL     1     -14.760   2.517 -32.014  1.00  0.00     0.187 C 
HETATM   44  C   UNL     1     -14.251   3.532 -33.052  1.00  0.00     0.149 C 
ENDBRANCH  36  39
ENDBRANCH  30  33
ENDBRANCH   6  29
TORSDOF 8
ENDMDL
MODEL 9
REMARK VINA RESULT:      -8.7      3.541     10.145
REMARK  8 active torsions:
REMARK  status: ('A' for Active; 'I' for Inactive)
REMARK    1  A    between atoms: C_6  and  N_7 
REMARK    2  A    between atoms: C_6  and  C_26 
REMARK       I    between atoms: N_7  and  C_8 
REMARK    3  A    between atoms: N_7  and  C_23 
REMARK    4  A    between atoms: C_8  and  C_9 
REMARK    5  A    between atoms: C_9  and  N_10 
REMARK    6  A    between atoms: C_14  and  C_15 
REMARK       I    between atoms: C_26  and  N_27 
REMARK    7  A    between atoms: N_27  and  C_28 
REMARK    8  A    between atoms: C_31  and  N_32 
ROOT
HETATM    1  C   UNL     1      -4.549  -0.462 -31.347  1.00  0.00     0.269 C 
HETATM    2  N   UNL     1      -4.328   0.989 -30.995  1.00  0.00    -0.075 N 
HETATM    3  H   UNL     1      -3.677   0.996 -30.198  1.00  0.00     0.279 HD
HETATM    4  C   UNL     1      -3.674   1.718 -32.135  1.00  0.00     0.237 C 
HETATM    5  C   UNL     1      -3.464   3.186 -31.787  1.00  0.00     0.069 C 
HETATM    6  C   UNL     1      -4.727   3.950 -31.287  1.00  0.00     0.120 C 
HETATM    7  C   UNL     1      -5.361   3.081 -30.161  1.00  0.00     0.069 C 
HETATM    8  C   UNL     1      -5.612   1.635 -30.565  1.00  0.00     0.237 C 
ENDROOT
BRANCH   6   9
HETATM    9  N   UNL     1      -4.352   5.340 -30.809  1.00  0.00    -0.328 N 
HETATM   10  C   UNL     1      -3.406   6.062 -31.563  1.00  0.00     0.239 C 
HETATM   11  O   UNL     1      -3.183   5.762 -32.738  1.00  0.00    -0.271 OA
BRANCH  10  12
HETATM   12  C   UNL     1      -2.641   7.217 -30.887  1.00  0.00     0.228 C 
BRANCH  12  13
HETATM   13  N   UNL     1      -1.791   6.801 -29.775  1.00  0.00    -0.347 N 
HETATM   14  C   UNL     1      -0.587   6.096 -29.886  1.00  0.00     0.171 C 
HETATM   15  S   UNL     1       0.062   5.323 -31.196  1.00  0.00    -0.041 SA
HETATM   16  N   UNL     1       0.050   6.136 -28.660  1.00  0.00    -0.357 N 
HETATM   17  C   UNL     1      -0.758   6.788 -27.659  1.00  0.00     0.135 C 
HETATM   18  H   UNL     1       0.900   5.619 -28.468  1.00  0.00     0.162 HD
HETATM   19  C   UNL     1      -1.805   7.525 -28.504  1.00  0.00     0.155 C 
BRANCH  17  20
HETATM   20  C   UNL     1       0.035   7.663 -26.725  1.00  0.00    -0.034 A 
HETATM   21  C   UNL     1      -0.587   8.559 -25.843  1.00  0.00     0.009 A 
HETATM   22  C   UNL     1       0.172   9.367 -24.994  1.00  0.00     0.001 A 
HETATM   23  C   UNL     1       1.562   9.281 -25.008  1.00  0.00     0.000 A 
HETATM   24  C   UNL     1       2.194   8.385 -25.867  1.00  0.00     0.001 A 
HETATM   25  C   UNL     1       1.436   7.579 -26.718  1.00  0.00     0.009 A 
ENDBRANCH  17  20
ENDBRANCH  12  13
ENDBRANCH  10  12
BRANCH   9  26
HETATM   26  C   UNL     1      -4.844   5.837 -29.536  1.00  0.00     0.088 A 
HETATM   27  C   UNL     1      -5.869   6.952 -29.497  1.00  0.00     0.027 A 
HETATM   28  C   UNL     1      -6.242   5.596 -29.008  1.00  0.00     0.027 A 
ENDBRANCH   9  26
ENDBRANCH   6   9
BRANCH   6  29
HETATM   29  C   UNL     1      -5.812   4.040 -32.408  1.00  0.00     0.251 C 
HETATM   30  N   UNL     1      -7.044   4.468 -31.953  1.00  0.00    -0.325 N 
HETATM   31  H   UNL     1      -7.028   5.071 -31.137  1.00  0.00     0.169 HD
HETATM   32  O   UNL     1      -5.609   3.510 -33.500  1.00  0.00    -0.270 OA
BRANCH  30  33
HETATM   33  C   UNL     1      -8.311   4.168 -32.492  1.00  0.00     0.034 A 
HETATM   34  C   UNL     1      -9.147   3.172 -32.002  1.00  0.00     0.032 A 
HETATM   35  C   UNL     1     -10.437   3.004 -32.528  1.00  0.00     0.031 A 
HETATM   36  C   UNL     1     -10.949   3.821 -33.546  1.00  0.00     0.030 A 
HETATM   37  C   UNL     1     -10.074   4.789 -34.053  1.00  0.00     0.031 A 
HETATM   38  C   UNL     1      -8.779   4.967 -33.536  1.00  0.00     0.032 A 
BRANCH  36  39
HETATM   39  N   UNL     1     -12.236   3.611 -34.033  1.00  0.00    -0.377 N 
HETATM   40  C   UNL     1     -12.397   3.305 -35.476  1.00  0.00     0.149 C 
HETATM   41  C   UNL     1     -12.420   1.781 -35.697  1.00  0.00     0.187 C 
HETATM   42  O   UNL     1     -13.454   1.151 -34.923  1.00  0.00    -0.388 OA
HETATM   43  C   UNL     1     -13.274   1.415 -33.521  1.00  0.00     0.187 C 
HETATM   44  C   UNL     1     -13.270   2.925 -33.228  1.00  0.00     0.149 C 
ENDBRANCH  36  39
ENDBRANCH  30  33
ENDBRANCH   6  29
TORSDOF 8
ENDMDL
MODEL 10
REMARK VINA RESULT:      -8.7      3.324     10.029
REMARK  8 active torsions:
REMARK  status: ('A' for Active; 'I' for Inactive)
REMARK    1  A    between atoms: C_6  and  N_7 
REMARK    2  A    between atoms: C_6  and  C_26 
REMARK       I    between atoms: N_7  and  C_8 
REMARK    3  A    between atoms: N_7  and  C_23 
REMARK    4  A    between atoms: C_8  and  C_9 
REMARK    5  A    between atoms: C_9  and  N_10 
REMARK    6  A    between atoms: C_14  and  C_15 
REMARK       I    between atoms: C_26  and  N_27 
REMARK    7  A    between atoms: N_27  and  C_28 
REMARK    8  A    between atoms: C_31  and  N_32 
ROOT
HETATM    1  C   UNL     1      -4.941   0.138 -30.642  1.00  0.00     0.269 C 
HETATM    2  N   UNL     1      -4.523   1.568 -30.886  1.00  0.00    -0.075 N 
HETATM    3  H   UNL     1      -3.818   1.789 -30.170  1.00  0.00     0.279 HD
HETATM    4  C   UNL     1      -3.875   1.707 -32.235  1.00  0.00     0.237 C 
HETATM    5  C   UNL     1      -3.466   3.153 -32.490  1.00  0.00     0.069 C 
HETATM    6  C   UNL     1      -4.588   4.217 -32.297  1.00  0.00     0.120 C 
HETATM    7  C   UNL     1      -5.233   3.942 -30.907  1.00  0.00     0.069 C 
HETATM    8  C   UNL     1      -5.685   2.500 -30.712  1.00  0.00     0.237 C 
ENDROOT
BRANCH   6   9
HETATM    9  N   UNL     1      -4.015   5.618 -32.405  1.00  0.00    -0.328 N 
HETATM   10  C   UNL     1      -4.036   6.427 -31.252  1.00  0.00     0.239 C 
HETATM   11  O   UNL     1      -4.148   5.920 -30.134  1.00  0.00    -0.271 OA
BRANCH  10  12
HETATM   12  C   UNL     1      -3.940   7.958 -31.415  1.00  0.00     0.228 C 
BRANCH  12  13
HETATM   13  N   UNL     1      -3.250   8.633 -30.319  1.00  0.00    -0.347 N 
HETATM   14  C   UNL     1      -3.817   8.977 -29.087  1.00  0.00     0.171 C 
HETATM   15  S   UNL     1      -5.404   8.981 -28.623  1.00  0.00    -0.041 SA
HETATM   16  N   UNL     1      -2.794   9.337 -28.228  1.00  0.00    -0.357 N 
HETATM   17  C   UNL     1      -1.515   9.339 -28.893  1.00  0.00     0.135 C 
HETATM   18  H   UNL     1      -2.964   9.711 -27.302  1.00  0.00     0.162 HD
HETATM   19  C   UNL     1      -1.799   8.532 -30.166  1.00  0.00     0.155 C 
BRANCH  17  20
HETATM   20  C   UNL     1      -0.395   8.806 -28.040  1.00  0.00    -0.034 A 
HETATM   21  C   UNL     1       0.180   9.568 -27.012  1.00  0.00     0.009 A 
HETATM   22  C   UNL     1       1.224   9.054 -26.242  1.00  0.00     0.001 A 
HETATM   23  C   UNL     1       1.699   7.766 -26.480  1.00  0.00     0.000 A 
HETATM   24  C   UNL     1       1.128   6.991 -27.487  1.00  0.00     0.001 A 
HETATM   25  C   UNL     1       0.085   7.506 -28.260  1.00  0.00     0.009 A 
ENDBRANCH  17  20
ENDBRANCH  12  13
ENDBRANCH  10  12
BRANCH   9  26
HETATM   26  C   UNL     1      -3.602   6.146 -33.693  1.00  0.00     0.088 A 
HETATM   27  C   UNL     1      -2.132   6.352 -33.997  1.00  0.00     0.027 A 
HETATM   28  C   UNL     1      -2.903   5.335 -34.764  1.00  0.00     0.027 A 
ENDBRANCH   9  26
ENDBRANCH   6   9
BRANCH   6  29
HETATM   29  C   UNL     1      -5.735   4.022 -33.339  1.00  0.00     0.251 C 
HETATM   30  N   UNL     1      -6.900   4.687 -33.010  1.00  0.00    -0.325 N 
HETATM   31  H   UNL     1      -6.787   5.526 -32.451  1.00  0.00     0.169 HD
HETATM   32  O   UNL     1      -5.644   3.139 -34.191  1.00  0.00    -0.270 OA
BRANCH  30  33
HETATM   33  C   UNL     1      -8.219   4.339 -33.366  1.00  0.00     0.034 A 
HETATM   34  C   UNL     1      -8.986   5.044 -34.286  1.00  0.00     0.032 A 
HETATM   35  C   UNL     1     -10.254   4.573 -34.663  1.00  0.00     0.031 A 
HETATM   36  C   UNL     1     -10.799   3.385 -34.155  1.00  0.00     0.030 A 
HETATM   37  C   UNL     1     -10.026   2.716 -33.199  1.00  0.00     0.031 A 
HETATM   38  C   UNL     1      -8.756   3.177 -32.811  1.00  0.00     0.032 A 
BRANCH  36  39
HETATM   39  N   UNL     1     -12.061   2.963 -34.562  1.00  0.00    -0.377 N 
HETATM   40  C   UNL     1     -12.232   1.542 -34.953  1.00  0.00     0.149 C 
HETATM   41  C   UNL     1     -12.707   0.713 -33.745  1.00  0.00     0.187 C 
HETATM   42  O   UNL     1     -13.923   1.238 -33.188  1.00  0.00    -0.388 OA
HETATM   43  C   UNL     1     -13.744   2.603 -32.773  1.00  0.00     0.187 C 
HETATM   44  C   UNL     1     -13.296   3.494 -33.944  1.00  0.00     0.149 C 
ENDBRANCH  36  39
ENDBRANCH  30  33
ENDBRANCH   6  29
TORSDOF 8
ENDMDL
