MODEL 1
REMARK VINA RESULT:      -8.6      0.000      0.000
REMARK  4 active torsions:
REMARK  status: ('A' for Active; 'I' for Inactive)
REMARK    1  A    between atoms: C_6  and  C_7 
REMARK    2  A    between atoms: C_10  and  O_11 
REMARK    3  A    between atoms: C_15  and  C_16 
REMARK       I    between atoms: C_16  and  N_17 
REMARK    4  A    between atoms: N_17  and  C_18 
ROOT
HETATM    1  C   UNL     1      -7.524   3.801 -30.488  1.00  0.00     0.001 A 
HETATM    2  C   UNL     1      -6.251   3.479 -30.954  1.00  0.00     0.015 A 
HETATM    3  C   UNL     1      -6.020   2.288 -31.690  1.00  0.00     0.008 A 
HETATM    4  C   UNL     1      -7.092   1.406 -31.910  1.00  0.00     0.068 A 
HETATM    5  N   UNL     1      -6.956   0.231 -32.547  1.00  0.00    -0.248 NA
HETATM    6  C   UNL     1      -5.736  -0.171 -32.984  1.00  0.00     0.068 A 
HETATM    7  C   UNL     1      -4.625   0.641 -32.843  1.00  0.00     0.050 A 
HETATM    8  C   UNL     1      -4.775   1.881 -32.216  1.00  0.00     0.046 A 
HETATM    9  C   UNL     1      -8.352   1.753 -31.442  1.00  0.00     0.032 A 
HETATM   10  C   UNL     1      -8.581   2.939 -30.740  1.00  0.00     0.002 A 
ENDROOT
BRANCH   6  11
HETATM   11  C   UNL     1      -5.689  -1.509 -33.613  1.00  0.00    -0.007 A 
HETATM   12  C   UNL     1      -6.857  -2.095 -34.146  1.00  0.00     0.016 A 
HETATM   13  C   UNL     1      -6.840  -3.365 -34.732  1.00  0.00     0.037 A 
HETATM   14  C   UNL     1      -5.649  -4.073 -34.790  1.00  0.00     0.065 A 
HETATM   15  C   UNL     1      -4.479  -3.532 -34.274  1.00  0.00     0.037 A 
HETATM   16  C   UNL     1      -4.501  -2.262 -33.688  1.00  0.00     0.016 A 
BRANCH  14  17
HETATM   17  O   UNL     1      -5.584  -5.317 -35.343  1.00  0.00    -0.361 OA
HETATM   18  H   UNL     1      -6.404  -5.478 -35.837  1.00  0.00     0.217 HD
ENDBRANCH  14  17
ENDBRANCH   6  11
BRANCH   8  19
HETATM   19  C   UNL     1      -3.556   2.719 -32.148  1.00  0.00     0.253 C 
HETATM   20  N   UNL     1      -3.406   3.627 -33.178  1.00  0.00    -0.352 N 
HETATM   21  H   UNL     1      -4.081   3.631 -33.933  1.00  0.00     0.163 HD
HETATM   22  O   UNL     1      -2.739   2.529 -31.256  1.00  0.00    -0.268 OA
BRANCH  20  23
HETATM   23  C   UNL     1      -2.253   4.461 -33.293  1.00  0.00     0.084 A 
HETATM   24  C   UNL     1      -1.837   5.013 -34.630  1.00  0.00     0.027 A 
HETATM   25  C   UNL     1      -2.396   5.930 -33.581  1.00  0.00     0.027 A 
ENDBRANCH  20  23
ENDBRANCH   8  19
TORSDOF 4
ENDMDL
MODEL 2
REMARK VINA RESULT:      -8.6      1.955      2.330
REMARK  4 active torsions:
REMARK  status: ('A' for Active; 'I' for Inactive)
REMARK    1  A    between atoms: C_6  and  C_7 
REMARK    2  A    between atoms: C_10  and  O_11 
REMARK    3  A    between atoms: C_15  and  C_16 
REMARK       I    between atoms: C_16  and  N_17 
REMARK    4  A    between atoms: N_17  and  C_18 
ROOT
HETATM    1  C   UNL     1     -10.052   3.123 -33.046  1.00  0.00     0.001 A 
HETATM    2  C   UNL     1      -8.668   3.129 -33.205  1.00  0.00     0.015 A 
HETATM    3  C   UNL     1      -7.962   1.940 -33.525  1.00  0.00     0.008 A 
HETATM    4  C   UNL     1      -8.677   0.735 -33.639  1.00  0.00     0.068 A 
HETATM    5  N   UNL     1      -8.087  -0.447 -33.884  1.00  0.00    -0.248 NA
HETATM    6  C   UNL     1      -6.738  -0.525 -34.001  1.00  0.00     0.068 A 
HETATM    7  C   UNL     1      -5.950   0.610 -33.935  1.00  0.00     0.050 A 
HETATM    8  C   UNL     1      -6.567   1.845 -33.720  1.00  0.00     0.046 A 
HETATM    9  C   UNL     1     -10.056   0.757 -33.483  1.00  0.00     0.032 A 
HETATM   10  C   UNL     1     -10.751   1.934 -33.194  1.00  0.00     0.002 A 
ENDROOT
BRANCH   6  11
HETATM   11  C   UNL     1      -6.190  -1.884 -34.204  1.00  0.00    -0.007 A 
HETATM   12  C   UNL     1      -7.026  -2.942 -34.617  1.00  0.00     0.016 A 
HETATM   13  C   UNL     1      -6.533  -4.239 -34.802  1.00  0.00     0.037 A 
HETATM   14  C   UNL     1      -5.190  -4.497 -34.571  1.00  0.00     0.065 A 
HETATM   15  C   UNL     1      -4.336  -3.482 -34.161  1.00  0.00     0.037 A 
HETATM   16  C   UNL     1      -4.833  -2.187 -33.977  1.00  0.00     0.016 A 
BRANCH  14  17
HETATM   17  O   UNL     1      -4.666  -5.745 -34.729  1.00  0.00    -0.361 OA
HETATM   18  H   UNL     1      -4.887  -6.274 -33.946  1.00  0.00     0.217 HD
ENDBRANCH  14  17
ENDBRANCH   6  11
BRANCH   8  19
HETATM   19  C   UNL     1      -5.669   3.021 -33.716  1.00  0.00     0.253 C 
HETATM   20  N   UNL     1      -4.767   3.073 -32.672  1.00  0.00    -0.352 N 
HETATM   21  H   UNL     1      -4.805   2.360 -31.953  1.00  0.00     0.163 HD
HETATM   22  O   UNL     1      -5.808   3.892 -34.566  1.00  0.00    -0.268 OA
BRANCH  20  23
HETATM   23  C   UNL     1      -3.878   4.175 -32.489  1.00  0.00     0.084 A 
HETATM   24  C   UNL     1      -2.627   4.022 -31.668  1.00  0.00     0.027 A 
HETATM   25  C   UNL     1      -2.531   4.191 -33.156  1.00  0.00     0.027 A 
ENDBRANCH  20  23
ENDBRANCH   8  19
TORSDOF 4
ENDMDL
MODEL 3
REMARK VINA RESULT:      -8.3      2.965      4.888
REMARK  4 active torsions:
REMARK  status: ('A' for Active; 'I' for Inactive)
REMARK    1  A    between atoms: C_6  and  C_7 
REMARK    2  A    between atoms: C_10  and  O_11 
REMARK    3  A    between atoms: C_15  and  C_16 
REMARK       I    between atoms: C_16  and  N_17 
REMARK    4  A    between atoms: N_17  and  C_18 
ROOT
HETATM    1  C   UNL     1      -6.180   4.521 -32.719  1.00  0.00     0.001 A 
HETATM    2  C   UNL     1      -7.261   3.680 -32.974  1.00  0.00     0.015 A 
HETATM    3  C   UNL     1      -7.073   2.289 -33.185  1.00  0.00     0.008 A 
HETATM    4  C   UNL     1      -5.766   1.771 -33.175  1.00  0.00     0.068 A 
HETATM    5  N   UNL     1      -5.488   0.479 -33.420  1.00  0.00    -0.248 NA
HETATM    6  C   UNL     1      -6.486  -0.388 -33.725  1.00  0.00     0.068 A 
HETATM    7  C   UNL     1      -7.808   0.020 -33.729  1.00  0.00     0.050 A 
HETATM    8  C   UNL     1      -8.100   1.354 -33.436  1.00  0.00     0.046 A 
HETATM    9  C   UNL     1      -4.708   2.629 -32.911  1.00  0.00     0.032 A 
HETATM   10  C   UNL     1      -4.899   3.992 -32.679  1.00  0.00     0.002 A 
ENDROOT
BRANCH   6  11
HETATM   11  C   UNL     1      -6.061  -1.769 -34.041  1.00  0.00    -0.007 A 
HETATM   12  C   UNL     1      -6.984  -2.708 -34.545  1.00  0.00     0.016 A 
HETATM   13  C   UNL     1      -6.609  -4.024 -34.837  1.00  0.00     0.037 A 
HETATM   14  C   UNL     1      -5.297  -4.422 -34.624  1.00  0.00     0.065 A 
HETATM   15  C   UNL     1      -4.360  -3.528 -34.127  1.00  0.00     0.037 A 
HETATM   16  C   UNL     1      -4.740  -2.213 -33.835  1.00  0.00     0.016 A 
BRANCH  14  17
HETATM   17  O   UNL     1      -4.886  -5.695 -34.885  1.00  0.00    -0.361 OA
HETATM   18  H   UNL     1      -5.355  -6.299 -34.288  1.00  0.00     0.217 HD
ENDBRANCH  14  17
ENDBRANCH   6  11
BRANCH   8  19
HETATM   19  C   UNL     1      -9.538   1.706 -33.405  1.00  0.00     0.253 C 
HETATM   20  N   UNL     1     -10.063   2.154 -34.601  1.00  0.00    -0.352 N 
HETATM   21  H   UNL     1      -9.445   2.274 -35.395  1.00  0.00     0.163 HD
HETATM   22  O   UNL     1     -10.153   1.649 -32.347  1.00  0.00    -0.268 OA
BRANCH  20  23
HETATM   23  C   UNL     1     -11.416   2.596 -34.719  1.00  0.00     0.084 A 
HETATM   24  C   UNL     1     -11.986   2.964 -36.062  1.00  0.00     0.027 A 
HETATM   25  C   UNL     1     -12.453   1.720 -35.364  1.00  0.00     0.027 A 
ENDBRANCH  20  23
ENDBRANCH   8  19
TORSDOF 4
ENDMDL
MODEL 4
REMARK VINA RESULT:      -8.2      3.371      5.746
REMARK  4 active torsions:
REMARK  status: ('A' for Active; 'I' for Inactive)
REMARK    1  A    between atoms: C_6  and  C_7 
REMARK    2  A    between atoms: C_10  and  O_11 
REMARK    3  A    between atoms: C_15  and  C_16 
REMARK       I    between atoms: C_16  and  N_17 
REMARK    4  A    between atoms: N_17  and  C_18 
ROOT
HETATM    1  C   UNL     1      -8.960   3.975 -30.336  1.00  0.00     0.001 A 
HETATM    2  C   UNL     1      -9.474   3.277 -31.426  1.00  0.00     0.015 A 
HETATM    3  C   UNL     1      -8.815   2.128 -31.937  1.00  0.00     0.008 A 
HETATM    4  C   UNL     1      -7.604   1.723 -31.351  1.00  0.00     0.068 A 
HETATM    5  N   UNL     1      -6.883   0.682 -31.802  1.00  0.00    -0.248 NA
HETATM    6  C   UNL     1      -7.297  -0.013 -32.891  1.00  0.00     0.068 A 
HETATM    7  C   UNL     1      -8.492   0.289 -33.517  1.00  0.00     0.050 A 
HETATM    8  C   UNL     1      -9.261   1.346 -33.024  1.00  0.00     0.046 A 
HETATM    9  C   UNL     1      -7.117   2.432 -30.262  1.00  0.00     0.032 A 
HETATM   10  C   UNL     1      -7.781   3.547 -29.746  1.00  0.00     0.002 A 
ENDROOT
BRANCH   6  11
HETATM   11  C   UNL     1      -6.395  -1.096 -33.341  1.00  0.00    -0.007 A 
HETATM   12  C   UNL     1      -5.068  -1.169 -32.868  1.00  0.00     0.016 A 
HETATM   13  C   UNL     1      -4.192  -2.175 -33.290  1.00  0.00     0.037 A 
HETATM   14  C   UNL     1      -4.632  -3.126 -34.199  1.00  0.00     0.065 A 
HETATM   15  C   UNL     1      -5.930  -3.086 -34.689  1.00  0.00     0.037 A 
HETATM   16  C   UNL     1      -6.803  -2.077 -34.265  1.00  0.00     0.016 A 
BRANCH  14  17
HETATM   17  O   UNL     1      -3.814  -4.119 -34.646  1.00  0.00    -0.361 OA
HETATM   18  H   UNL     1      -4.241  -4.973 -34.471  1.00  0.00     0.217 HD
ENDBRANCH  14  17
ENDBRANCH   6  11
BRANCH   8  19
HETATM   19  C   UNL     1     -10.553   1.576 -33.709  1.00  0.00     0.253 C 
HETATM   20  N   UNL     1     -11.563   0.693 -33.381  1.00  0.00    -0.352 N 
HETATM   21  H   UNL     1     -11.358  -0.079 -32.757  1.00  0.00     0.163 HD
HETATM   22  O   UNL     1     -10.643   2.462 -34.550  1.00  0.00    -0.268 OA
BRANCH  20  23
HETATM   23  C   UNL     1     -12.847   0.740 -34.004  1.00  0.00     0.084 A 
HETATM   24  C   UNL     1     -13.929  -0.223 -33.600  1.00  0.00     0.027 A 
HETATM   25  C   UNL     1     -14.048   1.231 -33.245  1.00  0.00     0.027 A 
ENDBRANCH  20  23
ENDBRANCH   8  19
TORSDOF 4
ENDMDL
MODEL 5
REMARK VINA RESULT:      -8.0      2.392      4.171
REMARK  4 active torsions:
REMARK  status: ('A' for Active; 'I' for Inactive)
REMARK    1  A    between atoms: C_6  and  C_7 
REMARK    2  A    between atoms: C_10  and  O_11 
REMARK    3  A    between atoms: C_15  and  C_16 
REMARK       I    between atoms: C_16  and  N_17 
REMARK    4  A    between atoms: N_17  and  C_18 
ROOT
HETATM    1  C   UNL     1      -4.293   4.301 -31.615  1.00  0.00     0.001 A 
HETATM    2  C   UNL     1      -5.545   3.825 -32.001  1.00  0.00     0.015 A 
HETATM    3  C   UNL     1      -5.723   2.477 -32.406  1.00  0.00     0.008 A 
HETATM    4  C   UNL     1      -4.604   1.628 -32.455  1.00  0.00     0.068 A 
HETATM    5  N   UNL     1      -4.668   0.354 -32.879  1.00  0.00    -0.248 NA
HETATM    6  C   UNL     1      -5.844  -0.161 -33.316  1.00  0.00     0.068 A 
HETATM    7  C   UNL     1      -7.007   0.586 -33.277  1.00  0.00     0.050 A 
HETATM    8  C   UNL     1      -6.949   1.897 -32.800  1.00  0.00     0.046 A 
HETATM    9  C   UNL     1      -3.369   2.124 -32.060  1.00  0.00     0.032 A 
HETATM   10  C   UNL     1      -3.202   3.445 -31.637  1.00  0.00     0.002 A 
ENDROOT
BRANCH   6  11
HETATM   11  C   UNL     1      -5.786  -1.550 -33.821  1.00  0.00    -0.007 A 
HETATM   12  C   UNL     1      -4.558  -2.240 -33.890  1.00  0.00     0.016 A 
HETATM   13  C   UNL     1      -4.476  -3.549 -34.377  1.00  0.00     0.037 A 
HETATM   14  C   UNL     1      -5.629  -4.189 -34.808  1.00  0.00     0.065 A 
HETATM   15  C   UNL     1      -6.856  -3.543 -34.759  1.00  0.00     0.037 A 
HETATM   16  C   UNL     1      -6.933  -2.233 -34.272  1.00  0.00     0.016 A 
BRANCH  14  17
HETATM   17  O   UNL     1      -5.599  -5.460 -35.298  1.00  0.00    -0.361 OA
HETATM   18  H   UNL     1      -6.144  -5.495 -36.101  1.00  0.00     0.217 HD
ENDBRANCH  14  17
ENDBRANCH   6  11
BRANCH   8  19
HETATM   19  C   UNL     1      -8.241   2.617 -32.735  1.00  0.00     0.253 C 
HETATM   20  N   UNL     1      -8.649   3.206 -33.916  1.00  0.00    -0.352 N 
HETATM   21  H   UNL     1      -8.036   3.169 -34.722  1.00  0.00     0.163 HD
HETATM   22  O   UNL     1      -8.829   2.710 -31.665  1.00  0.00    -0.268 OA
BRANCH  20  23
HETATM   23  C   UNL     1      -9.838   3.992 -34.001  1.00  0.00     0.084 A 
HETATM   24  C   UNL     1      -9.854   5.272 -34.791  1.00  0.00     0.027 A 
HETATM   25  C   UNL     1     -10.610   4.075 -35.289  1.00  0.00     0.027 A 
ENDBRANCH  20  23
ENDBRANCH   8  19
TORSDOF 4
ENDMDL
MODEL 6
REMARK VINA RESULT:      -7.9      3.290      5.549
REMARK  4 active torsions:
REMARK  status: ('A' for Active; 'I' for Inactive)
REMARK    1  A    between atoms: C_6  and  C_7 
REMARK    2  A    between atoms: C_10  and  O_11 
REMARK    3  A    between atoms: C_15  and  C_16 
REMARK       I    between atoms: C_16  and  N_17 
REMARK    4  A    between atoms: N_17  and  C_18 
ROOT
HETATM    1  C   UNL     1      -4.438  -2.338 -33.933  1.00  0.00     0.001 A 
HETATM    2  C   UNL     1      -4.593  -1.103 -33.307  1.00  0.00     0.015 A 
HETATM    3  C   UNL     1      -5.846  -0.435 -33.306  1.00  0.00     0.008 A 
HETATM    4  C   UNL     1      -6.928  -1.019 -33.987  1.00  0.00     0.068 A 
HETATM    5  N   UNL     1      -8.133  -0.433 -34.085  1.00  0.00    -0.248 NA
HETATM    6  C   UNL     1      -8.343   0.792 -33.543  1.00  0.00     0.068 A 
HETATM    7  C   UNL     1      -7.349   1.434 -32.827  1.00  0.00     0.050 A 
HETATM    8  C   UNL     1      -6.109   0.808 -32.690  1.00  0.00     0.046 A 
HETATM    9  C   UNL     1      -6.748  -2.253 -34.596  1.00  0.00     0.032 A 
HETATM   10  C   UNL     1      -5.522  -2.919 -34.574  1.00  0.00     0.002 A 
ENDROOT
BRANCH   6  11
HETATM   11  C   UNL     1      -9.686   1.371 -33.768  1.00  0.00    -0.007 A 
HETATM   12  C   UNL     1     -10.848   0.629 -33.471  1.00  0.00     0.016 A 
HETATM   13  C   UNL     1     -12.129   1.149 -33.688  1.00  0.00     0.037 A 
HETATM   14  C   UNL     1     -12.265   2.426 -34.213  1.00  0.00     0.065 A 
HETATM   15  C   UNL     1     -11.146   3.187 -34.520  1.00  0.00     0.037 A 
HETATM   16  C   UNL     1      -9.867   2.661 -34.302  1.00  0.00     0.016 A 
BRANCH  14  17
HETATM   17  O   UNL     1     -13.491   2.972 -34.450  1.00  0.00    -0.361 OA
HETATM   18  H   UNL     1     -13.372   3.781 -34.974  1.00  0.00     0.217 HD
ENDBRANCH  14  17
ENDBRANCH   6  11
BRANCH   8  19
HETATM   19  C   UNL     1      -5.112   1.527 -31.865  1.00  0.00     0.253 C 
HETATM   20  N   UNL     1      -4.280   2.385 -32.558  1.00  0.00    -0.352 N 
HETATM   21  H   UNL     1      -4.350   2.431 -33.567  1.00  0.00     0.163 HD
HETATM   22  O   UNL     1      -5.030   1.288 -30.667  1.00  0.00    -0.268 OA
BRANCH  20  23
HETATM   23  C   UNL     1      -3.223   3.101 -31.917  1.00  0.00     0.084 A 
HETATM   24  C   UNL     1      -2.424   4.126 -32.675  1.00  0.00     0.027 A 
HETATM   25  C   UNL     1      -3.373   4.562 -31.597  1.00  0.00     0.027 A 
ENDBRANCH  20  23
ENDBRANCH   8  19
TORSDOF 4
ENDMDL
MODEL 7
REMARK VINA RESULT:      -7.9     14.572     15.738
REMARK  4 active torsions:
REMARK  status: ('A' for Active; 'I' for Inactive)
REMARK    1  A    between atoms: C_6  and  C_7 
REMARK    2  A    between atoms: C_10  and  O_11 
REMARK    3  A    between atoms: C_15  and  C_16 
REMARK       I    between atoms: C_16  and  N_17 
REMARK    4  A    between atoms: N_17  and  C_18 
ROOT
HETATM    1  C   UNL     1      -6.660 -11.992 -40.721  1.00  0.00     0.001 A 
HETATM    2  C   UNL     1      -5.441 -12.089 -40.054  1.00  0.00     0.015 A 
HETATM    3  C   UNL     1      -5.364 -12.630 -38.744  1.00  0.00     0.008 A 
HETATM    4  C   UNL     1      -6.548 -13.032 -38.104  1.00  0.00     0.068 A 
HETATM    5  N   UNL     1      -6.578 -13.503 -36.846  1.00  0.00    -0.248 NA
HETATM    6  C   UNL     1      -5.436 -13.578 -36.118  1.00  0.00     0.068 A 
HETATM    7  C   UNL     1      -4.215 -13.235 -36.671  1.00  0.00     0.050 A 
HETATM    8  C   UNL     1      -4.179 -12.783 -37.992  1.00  0.00     0.046 A 
HETATM    9  C   UNL     1      -7.749 -12.932 -38.793  1.00  0.00     0.032 A 
HETATM   10  C   UNL     1      -7.818 -12.423 -40.092  1.00  0.00     0.002 A 
ENDROOT
BRANCH   6  11
HETATM   11  C   UNL     1      -5.594 -14.048 -34.724  1.00  0.00    -0.007 A 
HETATM   12  C   UNL     1      -5.508 -13.143 -33.646  1.00  0.00     0.016 A 
HETATM   13  C   UNL     1      -5.639 -13.566 -32.319  1.00  0.00     0.037 A 
HETATM   14  C   UNL     1      -5.856 -14.910 -32.050  1.00  0.00     0.065 A 
HETATM   15  C   UNL     1      -5.944 -15.832 -33.084  1.00  0.00     0.037 A 
HETATM   16  C   UNL     1      -5.811 -15.404 -34.410  1.00  0.00     0.016 A 
BRANCH  14  17
HETATM   17  O   UNL     1      -5.982 -15.371 -30.774  1.00  0.00    -0.361 OA
HETATM   18  H   UNL     1      -5.294 -14.960 -30.228  1.00  0.00     0.217 HD
ENDBRANCH  14  17
ENDBRANCH   6  11
BRANCH   8  19
HETATM   19  C   UNL     1      -2.834 -12.487 -38.534  1.00  0.00     0.253 C 
HETATM   20  N   UNL     1      -2.157 -13.570 -39.062  1.00  0.00    -0.352 N 
HETATM   21  H   UNL     1      -2.576 -14.491 -38.997  1.00  0.00     0.163 HD
HETATM   22  O   UNL     1      -2.375 -11.357 -38.433  1.00  0.00    -0.268 OA
BRANCH  20  23
HETATM   23  C   UNL     1      -0.824 -13.463 -39.563  1.00  0.00     0.084 A 
HETATM   24  C   UNL     1       0.291 -14.263 -38.947  1.00  0.00     0.027 A 
HETATM   25  C   UNL     1      -0.200 -14.598 -40.326  1.00  0.00     0.027 A 
ENDBRANCH  20  23
ENDBRANCH   8  19
TORSDOF 4
ENDMDL
MODEL 8
REMARK VINA RESULT:      -7.6      2.644      7.120
REMARK  4 active torsions:
REMARK  status: ('A' for Active; 'I' for Inactive)
REMARK    1  A    between atoms: C_6  and  C_7 
REMARK    2  A    between atoms: C_10  and  O_11 
REMARK    3  A    between atoms: C_15  and  C_16 
REMARK       I    between atoms: C_16  and  N_17 
REMARK    4  A    between atoms: N_17  and  C_18 
ROOT
HETATM    1  C   UNL     1      -6.633  -3.142 -34.706  1.00  0.00     0.001 A 
HETATM    2  C   UNL     1      -7.453  -2.104 -34.268  1.00  0.00     0.015 A 
HETATM    3  C   UNL     1      -6.902  -0.888 -33.788  1.00  0.00     0.008 A 
HETATM    4  C   UNL     1      -5.505  -0.756 -33.719  1.00  0.00     0.068 A 
HETATM    5  N   UNL     1      -4.896   0.337 -33.228  1.00  0.00    -0.248 NA
HETATM    6  C   UNL     1      -5.631   1.366 -32.738  1.00  0.00     0.068 A 
HETATM    7  C   UNL     1      -7.013   1.343 -32.790  1.00  0.00     0.050 A 
HETATM    8  C   UNL     1      -7.646   0.224 -33.338  1.00  0.00     0.046 A 
HETATM    9  C   UNL     1      -4.710  -1.801 -34.168  1.00  0.00     0.032 A 
HETATM   10  C   UNL     1      -5.255  -2.987 -34.664  1.00  0.00     0.002 A 
ENDROOT
BRANCH   6  11
HETATM   11  C   UNL     1      -4.858   2.488 -32.162  1.00  0.00    -0.007 A 
HETATM   12  C   UNL     1      -5.505   3.508 -31.433  1.00  0.00     0.016 A 
HETATM   13  C   UNL     1      -4.798   4.587 -30.891  1.00  0.00     0.037 A 
HETATM   14  C   UNL     1      -3.425   4.663 -31.075  1.00  0.00     0.065 A 
HETATM   15  C   UNL     1      -2.753   3.681 -31.789  1.00  0.00     0.037 A 
HETATM   16  C   UNL     1      -3.465   2.604 -32.330  1.00  0.00     0.016 A 
BRANCH  14  17
HETATM   17  O   UNL     1      -2.695   5.698 -30.574  1.00  0.00    -0.361 OA
HETATM   18  H   UNL     1      -1.892   5.797 -31.110  1.00  0.00     0.217 HD
ENDBRANCH  14  17
ENDBRANCH   6  11
BRANCH   8  19
HETATM   19  C   UNL     1      -9.123   0.292 -33.411  1.00  0.00     0.253 C 
HETATM   20  N   UNL     1      -9.628   1.235 -34.286  1.00  0.00    -0.352 N 
HETATM   21  H   UNL     1      -8.986   1.852 -34.768  1.00  0.00     0.163 HD
HETATM   22  O   UNL     1      -9.799  -0.414 -32.675  1.00  0.00    -0.268 OA
BRANCH  20  23
HETATM   23  C   UNL     1     -11.030   1.470 -34.422  1.00  0.00     0.084 A 
HETATM   24  C   UNL     1     -11.697   2.583 -33.661  1.00  0.00     0.027 A 
HETATM   25  C   UNL     1     -11.535   2.685 -35.150  1.00  0.00     0.027 A 
ENDBRANCH  20  23
ENDBRANCH   8  19
TORSDOF 4
ENDMDL
MODEL 9
REMARK VINA RESULT:      -7.4      1.500      1.881
REMARK  4 active torsions:
REMARK  status: ('A' for Active; 'I' for Inactive)
REMARK    1  A    between atoms: C_6  and  C_7 
REMARK    2  A    between atoms: C_10  and  O_11 
REMARK    3  A    between atoms: C_15  and  C_16 
REMARK       I    between atoms: C_16  and  N_17 
REMARK    4  A    between atoms: N_17  and  C_18 
ROOT
HETATM    1  C   UNL     1      -8.566   4.337 -30.869  1.00  0.00     0.001 A 
HETATM    2  C   UNL     1      -7.429   4.266 -31.672  1.00  0.00     0.015 A 
HETATM    3  C   UNL     1      -7.042   3.047 -32.286  1.00  0.00     0.008 A 
HETATM    4  C   UNL     1      -7.801   1.890 -32.040  1.00  0.00     0.068 A 
HETATM    5  N   UNL     1      -7.479   0.683 -32.534  1.00  0.00    -0.248 NA
HETATM    6  C   UNL     1      -6.358   0.529 -33.282  1.00  0.00     0.068 A 
HETATM    7  C   UNL     1      -5.563   1.613 -33.606  1.00  0.00     0.050 A 
HETATM    8  C   UNL     1      -5.920   2.875 -33.126  1.00  0.00     0.046 A 
HETATM    9  C   UNL     1      -8.933   1.989 -31.242  1.00  0.00     0.032 A 
HETATM   10  C   UNL     1      -9.325   3.196 -30.659  1.00  0.00     0.002 A 
ENDROOT
BRANCH   6  11
HETATM   11  C   UNL     1      -6.064  -0.854 -33.718  1.00  0.00    -0.007 A 
HETATM   12  C   UNL     1      -4.734  -1.319 -33.787  1.00  0.00     0.016 A 
HETATM   13  C   UNL     1      -4.429  -2.617 -34.210  1.00  0.00     0.037 A 
HETATM   14  C   UNL     1      -5.458  -3.473 -34.577  1.00  0.00     0.065 A 
HETATM   15  C   UNL     1      -6.780  -3.052 -34.526  1.00  0.00     0.037 A 
HETATM   16  C   UNL     1      -7.079  -1.751 -34.102  1.00  0.00     0.016 A 
BRANCH  14  17
HETATM   17  O   UNL     1      -5.211  -4.743 -35.004  1.00  0.00    -0.361 OA
HETATM   18  H   UNL     1      -5.404  -4.792 -35.953  1.00  0.00     0.217 HD
ENDBRANCH  14  17
ENDBRANCH   6  11
BRANCH   8  19
HETATM   19  C   UNL     1      -5.055   3.997 -33.557  1.00  0.00     0.253 C 
HETATM   20  N   UNL     1      -3.887   4.153 -32.837  1.00  0.00    -0.352 N 
HETATM   21  H   UNL     1      -3.716   3.552 -32.039  1.00  0.00     0.163 HD
HETATM   22  O   UNL     1      -5.432   4.743 -34.451  1.00  0.00    -0.268 OA
BRANCH  20  23
HETATM   23  C   UNL     1      -2.979   5.227 -33.085  1.00  0.00     0.084 A 
HETATM   24  C   UNL     1      -2.303   5.937 -31.944  1.00  0.00     0.027 A 
HETATM   25  C   UNL     1      -1.504   5.050 -32.854  1.00  0.00     0.027 A 
ENDBRANCH  20  23
ENDBRANCH   8  19
TORSDOF 4
ENDMDL
MODEL 10
REMARK VINA RESULT:      -7.4      2.065      2.784
REMARK  4 active torsions:
REMARK  status: ('A' for Active; 'I' for Inactive)
REMARK    1  A    between atoms: C_6  and  C_7 
REMARK    2  A    between atoms: C_10  and  O_11 
REMARK    3  A    between atoms: C_15  and  C_16 
REMARK       I    between atoms: C_16  and  N_17 
REMARK    4  A    between atoms: N_17  and  C_18 
ROOT
HETATM    1  C   UNL     1      -6.046   5.411 -29.322  1.00  0.00     0.001 A 
HETATM    2  C   UNL     1      -4.939   5.118 -30.116  1.00  0.00     0.015 A 
HETATM    3  C   UNL     1      -4.914   3.962 -30.939  1.00  0.00     0.008 A 
HETATM    4  C   UNL     1      -6.011   3.085 -30.912  1.00  0.00     0.068 A 
HETATM    5  N   UNL     1      -6.052   1.940 -31.615  1.00  0.00    -0.248 NA
HETATM    6  C   UNL     1      -4.990   1.565 -32.371  1.00  0.00     0.068 A 
HETATM    7  C   UNL     1      -3.876   2.377 -32.486  1.00  0.00     0.050 A 
HETATM    8  C   UNL     1      -3.850   3.586 -31.787  1.00  0.00     0.046 A 
HETATM    9  C   UNL     1      -7.104   3.403 -30.118  1.00  0.00     0.032 A 
HETATM   10  C   UNL     1      -7.137   4.555 -29.329  1.00  0.00     0.002 A 
ENDROOT
BRANCH   6  11
HETATM   11  C   UNL     1      -5.115   0.257 -33.049  1.00  0.00    -0.007 A 
HETATM   12  C   UNL     1      -4.114  -0.726 -32.907  1.00  0.00     0.016 A 
HETATM   13  C   UNL     1      -4.203  -1.965 -33.550  1.00  0.00     0.037 A 
HETATM   14  C   UNL     1      -5.302  -2.239 -34.352  1.00  0.00     0.065 A 
HETATM   15  C   UNL     1      -6.307  -1.297 -34.518  1.00  0.00     0.037 A 
HETATM   16  C   UNL     1      -6.213  -0.058 -33.874  1.00  0.00     0.016 A 
BRANCH  14  17
HETATM   17  O   UNL     1      -5.430  -3.428 -35.005  1.00  0.00    -0.361 OA
HETATM   18  H   UNL     1      -4.618  -3.944 -34.870  1.00  0.00     0.217 HD
ENDBRANCH  14  17
ENDBRANCH   6  11
BRANCH   8  19
HETATM   19  C   UNL     1      -2.651   4.428 -32.001  1.00  0.00     0.253 C 
HETATM   20  N   UNL     1      -1.749   4.448 -30.955  1.00  0.00    -0.352 N 
HETATM   21  H   UNL     1      -1.975   3.953 -30.100  1.00  0.00     0.163 HD
HETATM   22  O   UNL     1      -2.552   5.092 -33.025  1.00  0.00    -0.268 OA
BRANCH  20  23
HETATM   23  C   UNL     1      -0.577   5.263 -30.978  1.00  0.00     0.084 A 
HETATM   24  C   UNL     1      -0.214   6.116 -29.793  1.00  0.00     0.027 A 
HETATM   25  C   UNL     1       0.616   4.912 -30.134  1.00  0.00     0.027 A 
ENDBRANCH  20  23
ENDBRANCH   8  19
TORSDOF 4
ENDMDL
