MODEL 1
REMARK VINA RESULT:      -9.1      0.000      0.000
REMARK  5 active torsions:
REMARK  status: ('A' for Active; 'I' for Inactive)
REMARK    1  A    between atoms: C_7  and  C_8 
REMARK    2  A    between atoms: N_9  and  C_10 
REMARK    3  A    between atoms: C_10  and  C_11 
REMARK       I    between atoms: C_11  and  N_12 
REMARK    4  A    between atoms: N_12  and  C_13 
REMARK    5  A    between atoms: C_13  and  C_14 
ROOT
HETATM    1  C   UNL     1      -5.447   3.232 -32.606  1.00  0.00     0.158 C 
HETATM    2  N   UNL     1      -5.908   3.858 -33.838  1.00  0.00    -0.326 N 
HETATM    3  C   UNL     1      -7.079   4.578 -33.594  1.00  0.00     0.255 C 
HETATM    4  O   UNL     1      -7.622   5.390 -34.319  1.00  0.00    -0.267 OA
HETATM    5  C   UNL     1      -7.551   4.224 -32.251  1.00  0.00     0.040 A 
HETATM    6  C   UNL     1      -6.594   3.404 -31.659  1.00  0.00    -0.015 A 
HETATM    7  C   UNL     1      -8.699   4.631 -31.597  1.00  0.00     0.017 A 
HETATM    8  C   UNL     1      -8.885   4.181 -30.289  1.00  0.00     0.001 A 
HETATM    9  C   UNL     1      -7.927   3.354 -29.675  1.00  0.00     0.001 A 
HETATM   10  C   UNL     1      -6.769   2.964 -30.356  1.00  0.00     0.011 A 
ENDROOT
BRANCH   1  11
HETATM   11  C   UNL     1      -5.178   1.770 -32.771  1.00  0.00     0.004 A 
HETATM   12  C   UNL     1      -4.154   1.060 -32.142  1.00  0.00     0.017 A 
HETATM   13  C   UNL     1      -3.099   1.532 -31.195  1.00  0.00     0.069 C 
HETATM   14  N   UNL     1      -4.236  -0.256 -32.549  1.00  0.00    -0.354 N 
HETATM   15  C   UNL     1      -3.329  -1.302 -32.117  1.00  0.00     0.156 C 
HETATM   16  C   UNL     1      -5.292  -0.428 -33.417  1.00  0.00     0.045 A 
HETATM   17  C   UNL     1      -5.901   0.819 -33.576  1.00  0.00     0.001 A 
HETATM   18  C   UNL     1      -5.767  -1.576 -34.080  1.00  0.00     0.030 A 
HETATM   19  C   UNL     1      -7.029   0.910 -34.424  1.00  0.00     0.014 A 
HETATM   20  C   UNL     1      -7.507  -0.226 -35.084  1.00  0.00     0.001 A 
HETATM   21  C   UNL     1      -6.881  -1.453 -34.913  1.00  0.00     0.002 A 
ENDBRANCH   1  11
BRANCH   2  22
HETATM   22  C   UNL     1      -4.923   4.409 -34.760  1.00  0.00     0.229 C 
BRANCH  22  23
HETATM   23  C   UNL     1      -3.832   5.289 -34.144  1.00  0.00     0.235 C 
HETATM   24  N   UNL     1      -2.593   4.702 -34.012  1.00  0.00    -0.357 N 
HETATM   25  H   UNL     1      -2.439   3.812 -34.472  1.00  0.00     0.162 HD
HETATM   26  O   UNL     1      -4.097   6.391 -33.663  1.00  0.00    -0.272 OA
BRANCH  24  27
HETATM   27  C   UNL     1      -1.456   5.459 -33.515  1.00  0.00     0.154 C 
BRANCH  27  28
HETATM   28  C   UNL     1      -1.389   5.509 -31.979  1.00  0.00     0.139 C 
HETATM   29  O   UNL     1      -0.367   4.599 -31.508  1.00  0.00    -0.384 OA
HETATM   30  C   UNL     1       0.391   5.274 -30.501  1.00  0.00     0.168 C 
HETATM   31  C   UNL     1       0.374   6.728 -30.904  1.00  0.00     0.029 C 
HETATM   32  C   UNL     1      -1.028   6.893 -31.438  1.00  0.00     0.035 C 
ENDBRANCH  27  28
ENDBRANCH  24  27
ENDBRANCH  22  23
ENDBRANCH   2  22
TORSDOF 5
ENDMDL
MODEL 2
REMARK VINA RESULT:      -9.0      2.572      3.706
REMARK  5 active torsions:
REMARK  status: ('A' for Active; 'I' for Inactive)
REMARK    1  A    between atoms: C_7  and  C_8 
REMARK    2  A    between atoms: N_9  and  C_10 
REMARK    3  A    between atoms: C_10  and  C_11 
REMARK       I    between atoms: C_11  and  N_12 
REMARK    4  A    between atoms: N_12  and  C_13 
REMARK    5  A    between atoms: C_13  and  C_14 
ROOT
HETATM    1  C   UNL     1      -9.275   3.439 -32.840  1.00  0.00     0.158 C 
HETATM    2  N   UNL     1      -8.787   4.419 -33.801  1.00  0.00    -0.326 N 
HETATM    3  C   UNL     1      -9.725   4.589 -34.820  1.00  0.00     0.255 C 
HETATM    4  O   UNL     1      -9.761   5.464 -35.664  1.00  0.00    -0.267 OA
HETATM    5  C   UNL     1     -10.732   3.532 -34.685  1.00  0.00     0.040 A 
HETATM    6  C   UNL     1     -10.461   2.825 -33.515  1.00  0.00    -0.015 A 
HETATM    7  C   UNL     1     -11.815   3.252 -35.496  1.00  0.00     0.017 A 
HETATM    8  C   UNL     1     -12.655   2.208 -35.107  1.00  0.00     0.001 A 
HETATM    9  C   UNL     1     -12.398   1.485 -33.928  1.00  0.00     0.001 A 
HETATM   10  C   UNL     1     -11.299   1.795 -33.119  1.00  0.00     0.011 A 
ENDROOT
BRANCH   1  11
HETATM   11  C   UNL     1      -8.274   2.362 -32.559  1.00  0.00     0.004 A 
HETATM   12  C   UNL     1      -7.603   2.177 -31.350  1.00  0.00     0.017 A 
HETATM   13  C   UNL     1      -7.682   2.956 -30.078  1.00  0.00     0.069 C 
HETATM   14  N   UNL     1      -6.770   1.086 -31.488  1.00  0.00    -0.354 N 
HETATM   15  C   UNL     1      -5.896   0.589 -30.443  1.00  0.00     0.156 C 
HETATM   16  C   UNL     1      -6.886   0.546 -32.750  1.00  0.00     0.045 A 
HETATM   17  C   UNL     1      -7.819   1.321 -33.444  1.00  0.00     0.001 A 
HETATM   18  C   UNL     1      -6.249  -0.559 -33.346  1.00  0.00     0.030 A 
HETATM   19  C   UNL     1      -8.125   0.965 -34.778  1.00  0.00     0.014 A 
HETATM   20  C   UNL     1      -7.497  -0.132 -35.375  1.00  0.00     0.001 A 
HETATM   21  C   UNL     1      -6.571  -0.883 -34.666  1.00  0.00     0.002 A 
ENDBRANCH   1  11
BRANCH   2  22
HETATM   22  C   UNL     1      -8.060   5.584 -33.312  1.00  0.00     0.229 C 
BRANCH  22  23
HETATM   23  C   UNL     1      -6.580   5.373 -32.981  1.00  0.00     0.235 C 
HETATM   24  N   UNL     1      -5.844   4.705 -33.933  1.00  0.00    -0.357 N 
HETATM   25  H   UNL     1      -6.270   4.550 -34.839  1.00  0.00     0.162 HD
HETATM   26  O   UNL     1      -6.130   5.652 -31.869  1.00  0.00    -0.272 OA
BRANCH  24  27
HETATM   27  C   UNL     1      -4.411   4.514 -33.771  1.00  0.00     0.154 C 
BRANCH  27  28
HETATM   28  C   UNL     1      -3.574   5.540 -34.555  1.00  0.00     0.139 C 
HETATM   29  O   UNL     1      -3.336   6.704 -33.730  1.00  0.00    -0.384 OA
HETATM   30  C   UNL     1      -1.959   7.066 -33.868  1.00  0.00     0.168 C 
HETATM   31  C   UNL     1      -1.231   5.764 -34.095  1.00  0.00     0.029 C 
HETATM   32  C   UNL     1      -2.201   5.006 -34.968  1.00  0.00     0.035 C 
ENDBRANCH  27  28
ENDBRANCH  24  27
ENDBRANCH  22  23
ENDBRANCH   2  22
TORSDOF 5
ENDMDL
MODEL 3
REMARK VINA RESULT:      -8.9      1.528      2.268
REMARK  5 active torsions:
REMARK  status: ('A' for Active; 'I' for Inactive)
REMARK    1  A    between atoms: C_7  and  C_8 
REMARK    2  A    between atoms: N_9  and  C_10 
REMARK    3  A    between atoms: C_10  and  C_11 
REMARK       I    between atoms: C_11  and  N_12 
REMARK    4  A    between atoms: N_12  and  C_13 
REMARK    5  A    between atoms: C_13  and  C_14 
ROOT
HETATM    1  C   UNL     1      -4.483   2.730 -31.830  1.00  0.00     0.158 C 
HETATM    2  N   UNL     1      -4.179   3.718 -32.857  1.00  0.00    -0.326 N 
HETATM    3  C   UNL     1      -5.031   4.815 -32.722  1.00  0.00     0.255 C 
HETATM    4  O   UNL     1      -4.934   5.905 -33.253  1.00  0.00    -0.267 OA
HETATM    5  C   UNL     1      -6.082   4.454 -31.766  1.00  0.00     0.040 A 
HETATM    6  C   UNL     1      -5.776   3.201 -31.241  1.00  0.00    -0.015 A 
HETATM    7  C   UNL     1      -7.181   5.188 -31.362  1.00  0.00     0.017 A 
HETATM    8  C   UNL     1      -8.007   4.623 -30.389  1.00  0.00     0.001 A 
HETATM    9  C   UNL     1      -7.712   3.360 -29.846  1.00  0.00     0.001 A 
HETATM   10  C   UNL     1      -6.587   2.641 -30.266  1.00  0.00     0.011 A 
ENDROOT
BRANCH   1  11
HETATM   11  C   UNL     1      -4.686   1.358 -32.394  1.00  0.00     0.004 A 
HETATM   12  C   UNL     1      -3.940   0.227 -32.059  1.00  0.00     0.017 A 
HETATM   13  C   UNL     1      -2.797   0.077 -31.109  1.00  0.00     0.069 C 
HETATM   14  N   UNL     1      -4.430  -0.837 -32.788  1.00  0.00    -0.354 N 
HETATM   15  C   UNL     1      -3.900  -2.185 -32.721  1.00  0.00     0.156 C 
HETATM   16  C   UNL     1      -5.481  -0.435 -33.583  1.00  0.00     0.045 A 
HETATM   17  C   UNL     1      -5.666   0.933 -33.359  1.00  0.00     0.001 A 
HETATM   18  C   UNL     1      -6.288  -1.155 -34.484  1.00  0.00     0.030 A 
HETATM   19  C   UNL     1      -6.703   1.590 -34.060  1.00  0.00     0.014 A 
HETATM   20  C   UNL     1      -7.509   0.881 -34.954  1.00  0.00     0.001 A 
HETATM   21  C   UNL     1      -7.302  -0.475 -35.163  1.00  0.00     0.002 A 
ENDBRANCH   1  11
BRANCH   2  22
HETATM   22  C   UNL     1      -2.788   3.947 -33.224  1.00  0.00     0.229 C 
BRANCH  22  23
HETATM   23  C   UNL     1      -1.943   4.742 -32.226  1.00  0.00     0.235 C 
HETATM   24  N   UNL     1      -1.730   6.065 -32.543  1.00  0.00    -0.357 N 
HETATM   25  H   UNL     1      -2.270   6.463 -33.302  1.00  0.00     0.162 HD
HETATM   26  O   UNL     1      -1.371   4.185 -31.289  1.00  0.00    -0.272 OA
BRANCH  24  27
HETATM   27  C   UNL     1      -1.011   6.945 -31.636  1.00  0.00     0.154 C 
BRANCH  27  28
HETATM   28  C   UNL     1      -1.943   7.804 -30.763  1.00  0.00     0.139 C 
HETATM   29  O   UNL     1      -3.163   8.085 -31.489  1.00  0.00    -0.384 OA
HETATM   30  C   UNL     1      -4.261   7.885 -30.594  1.00  0.00     0.168 C 
HETATM   31  C   UNL     1      -3.814   6.786 -29.662  1.00  0.00     0.029 C 
HETATM   32  C   UNL     1      -2.355   7.112 -29.463  1.00  0.00     0.035 C 
ENDBRANCH  27  28
ENDBRANCH  24  27
ENDBRANCH  22  23
ENDBRANCH   2  22
TORSDOF 5
ENDMDL
MODEL 4
REMARK VINA RESULT:      -8.9      3.176      5.675
REMARK  5 active torsions:
REMARK  status: ('A' for Active; 'I' for Inactive)
REMARK    1  A    between atoms: C_7  and  C_8 
REMARK    2  A    between atoms: N_9  and  C_10 
REMARK    3  A    between atoms: C_10  and  C_11 
REMARK       I    between atoms: C_11  and  N_12 
REMARK    4  A    between atoms: N_12  and  C_13 
REMARK    5  A    between atoms: C_13  and  C_14 
ROOT
HETATM    1  C   UNL     1      -8.191   2.083 -33.360  1.00  0.00     0.158 C 
HETATM    2  N   UNL     1      -7.937   2.158 -31.928  1.00  0.00    -0.326 N 
HETATM    3  C   UNL     1      -6.999   1.190 -31.564  1.00  0.00     0.255 C 
HETATM    4  O   UNL     1      -6.392   1.096 -30.513  1.00  0.00    -0.267 OA
HETATM    5  C   UNL     1      -6.812   0.291 -32.707  1.00  0.00     0.040 A 
HETATM    6  C   UNL     1      -7.537   0.804 -33.781  1.00  0.00    -0.015 A 
HETATM    7  C   UNL     1      -6.036  -0.847 -32.802  1.00  0.00     0.017 A 
HETATM    8  C   UNL     1      -5.997  -1.496 -34.037  1.00  0.00     0.001 A 
HETATM    9  C   UNL     1      -6.720  -0.991 -35.133  1.00  0.00     0.001 A 
HETATM   10  C   UNL     1      -7.492   0.169 -35.012  1.00  0.00     0.011 A 
ENDROOT
BRANCH   1  11
HETATM   11  C   UNL     1      -9.650   2.002 -33.682  1.00  0.00     0.004 A 
HETATM   12  C   UNL     1     -10.491   0.935 -33.365  1.00  0.00     0.017 A 
HETATM   13  C   UNL     1     -10.189  -0.351 -32.666  1.00  0.00     0.069 C 
HETATM   14  N   UNL     1     -11.755   1.236 -33.827  1.00  0.00    -0.354 N 
HETATM   15  C   UNL     1     -12.903   0.360 -33.696  1.00  0.00     0.156 C 
HETATM   16  C   UNL     1     -11.767   2.476 -34.429  1.00  0.00     0.045 A 
HETATM   17  C   UNL     1     -10.466   2.981 -34.354  1.00  0.00     0.001 A 
HETATM   18  C   UNL     1     -12.810   3.200 -35.036  1.00  0.00     0.030 A 
HETATM   19  C   UNL     1     -10.212   4.260 -34.902  1.00  0.00     0.014 A 
HETATM   20  C   UNL     1     -11.244   4.985 -35.505  1.00  0.00     0.001 A 
HETATM   21  C   UNL     1     -12.527   4.459 -35.570  1.00  0.00     0.002 A 
ENDBRANCH   1  11
BRANCH   2  22
HETATM   22  C   UNL     1      -7.883   3.466 -31.289  1.00  0.00     0.229 C 
BRANCH  22  23
HETATM   23  C   UNL     1      -7.281   4.604 -32.117  1.00  0.00     0.235 C 
HETATM   24  N   UNL     1      -5.908   4.601 -32.227  1.00  0.00    -0.357 N 
HETATM   25  H   UNL     1      -5.409   3.778 -31.910  1.00  0.00     0.162 HD
HETATM   26  O   UNL     1      -7.976   5.536 -32.521  1.00  0.00    -0.272 OA
BRANCH  24  27
HETATM   27  C   UNL     1      -5.223   5.582 -33.053  1.00  0.00     0.154 C 
BRANCH  27  28
HETATM   28  C   UNL     1      -4.166   4.957 -33.981  1.00  0.00     0.139 C 
HETATM   29  O   UNL     1      -3.446   6.005 -34.672  1.00  0.00    -0.384 OA
HETATM   30  C   UNL     1      -2.054   5.682 -34.627  1.00  0.00     0.168 C 
HETATM   31  C   UNL     1      -1.861   4.950 -33.323  1.00  0.00     0.029 C 
HETATM   32  C   UNL     1      -3.123   4.128 -33.230  1.00  0.00     0.035 C 
ENDBRANCH  27  28
ENDBRANCH  24  27
ENDBRANCH  22  23
ENDBRANCH   2  22
TORSDOF 5
ENDMDL
MODEL 5
REMARK VINA RESULT:      -8.8      3.127      5.590
REMARK  5 active torsions:
REMARK  status: ('A' for Active; 'I' for Inactive)
REMARK    1  A    between atoms: C_7  and  C_8 
REMARK    2  A    between atoms: N_9  and  C_10 
REMARK    3  A    between atoms: C_10  and  C_11 
REMARK       I    between atoms: C_11  and  N_12 
REMARK    4  A    between atoms: N_12  and  C_13 
REMARK    5  A    between atoms: C_13  and  C_14 
ROOT
HETATM    1  C   UNL     1      -7.925   2.235 -33.049  1.00  0.00     0.158 C 
HETATM    2  N   UNL     1      -7.855   1.921 -31.628  1.00  0.00    -0.326 N 
HETATM    3  C   UNL     1      -7.160   0.725 -31.443  1.00  0.00     0.255 C 
HETATM    4  O   UNL     1      -6.725   0.268 -30.403  1.00  0.00    -0.267 OA
HETATM    5  C   UNL     1      -6.986   0.097 -32.756  1.00  0.00     0.040 A 
HETATM    6  C   UNL     1      -7.459   0.982 -33.723  1.00  0.00    -0.015 A 
HETATM    7  C   UNL     1      -6.418  -1.123 -33.070  1.00  0.00     0.017 A 
HETATM    8  C   UNL     1      -6.332  -1.461 -34.421  1.00  0.00     0.001 A 
HETATM    9  C   UNL     1      -6.801  -0.579 -35.411  1.00  0.00     0.001 A 
HETATM   10  C   UNL     1      -7.364   0.655 -35.067  1.00  0.00     0.011 A 
ENDROOT
BRANCH   1  11
HETATM   11  C   UNL     1      -9.320   2.531 -33.504  1.00  0.00     0.004 A 
HETATM   12  C   UNL     1      -9.760   3.749 -34.025  1.00  0.00     0.017 A 
HETATM   13  C   UNL     1      -9.012   5.022 -34.253  1.00  0.00     0.069 C 
HETATM   14  N   UNL     1     -11.101   3.625 -34.324  1.00  0.00    -0.354 N 
HETATM   15  C   UNL     1     -11.916   4.689 -34.875  1.00  0.00     0.156 C 
HETATM   16  C   UNL     1     -11.547   2.356 -34.023  1.00  0.00     0.045 A 
HETATM   17  C   UNL     1     -10.458   1.648 -33.509  1.00  0.00     0.001 A 
HETATM   18  C   UNL     1     -12.819   1.767 -34.157  1.00  0.00     0.030 A 
HETATM   19  C   UNL     1     -10.656   0.302 -33.126  1.00  0.00     0.014 A 
HETATM   20  C   UNL     1     -11.915  -0.290 -33.258  1.00  0.00     0.001 A 
HETATM   21  C   UNL     1     -12.983   0.436 -33.767  1.00  0.00     0.002 A 
ENDBRANCH   1  11
BRANCH   2  22
HETATM   22  C   UNL     1      -7.656   3.006 -30.677  1.00  0.00     0.229 C 
BRANCH  22  23
HETATM   23  C   UNL     1      -6.761   4.160 -31.137  1.00  0.00     0.235 C 
HETATM   24  N   UNL     1      -5.410   3.896 -31.160  1.00  0.00    -0.357 N 
HETATM   25  H   UNL     1      -5.112   2.935 -31.040  1.00  0.00     0.162 HD
HETATM   26  O   UNL     1      -7.219   5.287 -31.324  1.00  0.00    -0.272 OA
BRANCH  24  27
HETATM   27  C   UNL     1      -4.463   4.884 -31.654  1.00  0.00     0.154 C 
BRANCH  27  28
HETATM   28  C   UNL     1      -4.003   4.608 -33.097  1.00  0.00     0.139 C 
HETATM   29  O   UNL     1      -3.989   5.846 -33.846  1.00  0.00    -0.384 OA
HETATM   30  C   UNL     1      -2.773   5.889 -34.598  1.00  0.00     0.168 C 
HETATM   31  C   UNL     1      -1.762   5.151 -33.755  1.00  0.00     0.029 C 
HETATM   32  C   UNL     1      -2.590   4.030 -33.176  1.00  0.00     0.035 C 
ENDBRANCH  27  28
ENDBRANCH  24  27
ENDBRANCH  22  23
ENDBRANCH   2  22
TORSDOF 5
ENDMDL
MODEL 6
REMARK VINA RESULT:      -8.8      3.169      7.185
REMARK  5 active torsions:
REMARK  status: ('A' for Active; 'I' for Inactive)
REMARK    1  A    between atoms: C_7  and  C_8 
REMARK    2  A    between atoms: N_9  and  C_10 
REMARK    3  A    between atoms: C_10  and  C_11 
REMARK       I    between atoms: C_11  and  N_12 
REMARK    4  A    between atoms: N_12  and  C_13 
REMARK    5  A    between atoms: C_13  and  C_14 
ROOT
HETATM    1  C   UNL     1      -6.884   2.745 -32.860  1.00  0.00     0.158 C 
HETATM    2  N   UNL     1      -7.170   2.948 -31.446  1.00  0.00    -0.326 N 
HETATM    3  C   UNL     1      -6.593   4.144 -31.015  1.00  0.00     0.255 C 
HETATM    4  O   UNL     1      -6.797   4.739 -29.974  1.00  0.00    -0.267 OA
HETATM    5  C   UNL     1      -5.699   4.620 -32.076  1.00  0.00     0.040 A 
HETATM    6  C   UNL     1      -5.850   3.780 -33.176  1.00  0.00    -0.015 A 
HETATM    7  C   UNL     1      -4.867   5.723 -32.083  1.00  0.00     0.017 A 
HETATM    8  C   UNL     1      -4.153   5.980 -33.254  1.00  0.00     0.001 A 
HETATM    9  C   UNL     1      -4.294   5.143 -34.376  1.00  0.00     0.001 A 
HETATM   10  C   UNL     1      -5.151   4.038 -34.345  1.00  0.00     0.011 A 
ENDROOT
BRANCH   1  11
HETATM   11  C   UNL     1      -6.309   1.392 -33.142  1.00  0.00     0.004 A 
HETATM   12  C   UNL     1      -6.823   0.468 -34.053  1.00  0.00     0.017 A 
HETATM   13  C   UNL     1      -8.020   0.560 -34.942  1.00  0.00     0.069 C 
HETATM   14  N   UNL     1      -6.018  -0.651 -34.024  1.00  0.00    -0.354 N 
HETATM   15  C   UNL     1      -6.239  -1.837 -34.828  1.00  0.00     0.156 C 
HETATM   16  C   UNL     1      -4.985  -0.481 -33.127  1.00  0.00     0.045 A 
HETATM   17  C   UNL     1      -5.140   0.787 -32.559  1.00  0.00     0.001 A 
HETATM   18  C   UNL     1      -3.927  -1.334 -32.762  1.00  0.00     0.030 A 
HETATM   19  C   UNL     1      -4.191   1.210 -31.600  1.00  0.00     0.014 A 
HETATM   20  C   UNL     1      -3.136   0.369 -31.234  1.00  0.00     0.001 A 
HETATM   21  C   UNL     1      -3.008  -0.888 -31.809  1.00  0.00     0.002 A 
ENDBRANCH   1  11
BRANCH   2  22
HETATM   22  C   UNL     1      -8.479   2.572 -30.931  1.00  0.00     0.229 C 
BRANCH  22  23
HETATM   23  C   UNL     1      -9.691   3.061 -31.728  1.00  0.00     0.235 C 
HETATM   24  N   UNL     1     -10.356   2.100 -32.456  1.00  0.00    -0.357 N 
HETATM   25  H   UNL     1     -10.116   1.130 -32.291  1.00  0.00     0.162 HD
HETATM   26  O   UNL     1      -9.949   4.262 -31.823  1.00  0.00    -0.272 OA
BRANCH  24  27
HETATM   27  C   UNL     1     -11.569   2.424 -33.190  1.00  0.00     0.154 C 
BRANCH  27  28
HETATM   28  C   UNL     1     -12.049   1.278 -34.097  1.00  0.00     0.139 C 
HETATM   29  O   UNL     1     -12.220   0.076 -33.310  1.00  0.00    -0.384 OA
HETATM   30  C   UNL     1     -13.460  -0.526 -33.692  1.00  0.00     0.168 C 
HETATM   31  C   UNL     1     -14.357   0.627 -34.070  1.00  0.00     0.029 C 
HETATM   32  C   UNL     1     -13.396   1.563 -34.762  1.00  0.00     0.035 C 
ENDBRANCH  27  28
ENDBRANCH  24  27
ENDBRANCH  22  23
ENDBRANCH   2  22
TORSDOF 5
ENDMDL
MODEL 7
REMARK VINA RESULT:      -8.8      3.309      6.167
REMARK  5 active torsions:
REMARK  status: ('A' for Active; 'I' for Inactive)
REMARK    1  A    between atoms: C_7  and  C_8 
REMARK    2  A    between atoms: N_9  and  C_10 
REMARK    3  A    between atoms: C_10  and  C_11 
REMARK       I    between atoms: C_11  and  N_12 
REMARK    4  A    between atoms: N_12  and  C_13 
REMARK    5  A    between atoms: C_13  and  C_14 
ROOT
HETATM    1  C   UNL     1      -7.024   1.564 -32.876  1.00  0.00     0.158 C 
HETATM    2  N   UNL     1      -7.650   1.717 -31.569  1.00  0.00    -0.326 N 
HETATM    3  C   UNL     1      -7.675   3.067 -31.214  1.00  0.00     0.255 C 
HETATM    4  O   UNL     1      -8.300   3.589 -30.310  1.00  0.00    -0.267 OA
HETATM    5  C   UNL     1      -6.834   3.799 -32.165  1.00  0.00     0.040 A 
HETATM    6  C   UNL     1      -6.422   2.906 -33.152  1.00  0.00    -0.015 A 
HETATM    7  C   UNL     1      -6.503   5.140 -32.182  1.00  0.00     0.017 A 
HETATM    8  C   UNL     1      -5.716   5.594 -33.242  1.00  0.00     0.001 A 
HETATM    9  C   UNL     1      -5.294   4.707 -34.249  1.00  0.00     0.001 A 
HETATM   10  C   UNL     1      -5.650   3.354 -34.213  1.00  0.00     0.011 A 
ENDROOT
BRANCH   1  11
HETATM   11  C   UNL     1      -5.932   0.541 -32.874  1.00  0.00     0.004 A 
HETATM   12  C   UNL     1      -4.743   0.628 -32.149  1.00  0.00     0.017 A 
HETATM   13  C   UNL     1      -4.252   1.703 -31.234  1.00  0.00     0.069 C 
HETATM   14  N   UNL     1      -3.999  -0.504 -32.411  1.00  0.00    -0.354 N 
HETATM   15  C   UNL     1      -2.690  -0.770 -31.848  1.00  0.00     0.156 C 
HETATM   16  C   UNL     1      -4.675  -1.334 -33.279  1.00  0.00     0.045 A 
HETATM   17  C   UNL     1      -5.886  -0.710 -33.587  1.00  0.00     0.001 A 
HETATM   18  C   UNL     1      -4.324  -2.584 -33.825  1.00  0.00     0.030 A 
HETATM   19  C   UNL     1      -6.775  -1.370 -34.465  1.00  0.00     0.014 A 
HETATM   20  C   UNL     1      -6.435  -2.612 -35.009  1.00  0.00     0.001 A 
HETATM   21  C   UNL     1      -5.223  -3.209 -34.692  1.00  0.00     0.002 A 
ENDBRANCH   1  11
BRANCH   2  22
HETATM   22  C   UNL     1      -8.792   0.878 -31.232  1.00  0.00     0.229 C 
BRANCH  22  23
HETATM   23  C   UNL     1      -9.869   0.731 -32.309  1.00  0.00     0.235 C 
HETATM   24  N   UNL     1     -10.643   1.846 -32.538  1.00  0.00    -0.357 N 
HETATM   25  H   UNL     1     -10.351   2.720 -32.117  1.00  0.00     0.162 HD
HETATM   26  O   UNL     1     -10.116  -0.363 -32.819  1.00  0.00    -0.272 OA
BRANCH  24  27
HETATM   27  C   UNL     1     -11.646   1.857 -33.592  1.00  0.00     0.154 C 
BRANCH  27  28
HETATM   28  C   UNL     1     -11.297   2.814 -34.746  1.00  0.00     0.139 C 
HETATM   29  O   UNL     1     -12.235   3.915 -34.763  1.00  0.00    -0.384 OA
HETATM   30  C   UNL     1     -11.491   5.122 -34.953  1.00  0.00     0.168 C 
HETATM   31  C   UNL     1     -10.163   4.874 -34.282  1.00  0.00     0.029 C 
HETATM   32  C   UNL     1      -9.902   3.426 -34.617  1.00  0.00     0.035 C 
ENDBRANCH  27  28
ENDBRANCH  24  27
ENDBRANCH  22  23
ENDBRANCH   2  22
TORSDOF 5
ENDMDL
MODEL 8
REMARK VINA RESULT:      -8.5      3.193      6.362
REMARK  5 active torsions:
REMARK  status: ('A' for Active; 'I' for Inactive)
REMARK    1  A    between atoms: C_7  and  C_8 
REMARK    2  A    between atoms: N_9  and  C_10 
REMARK    3  A    between atoms: C_10  and  C_11 
REMARK       I    between atoms: C_11  and  N_12 
REMARK    4  A    between atoms: N_12  and  C_13 
REMARK    5  A    between atoms: C_13  and  C_14 
ROOT
HETATM    1  C   UNL     1      -7.245   2.031 -33.080  1.00  0.00     0.158 C 
HETATM    2  N   UNL     1      -7.718   2.127 -31.706  1.00  0.00    -0.326 N 
HETATM    3  C   UNL     1      -7.444   3.398 -31.199  1.00  0.00     0.255 C 
HETATM    4  O   UNL     1      -7.876   3.906 -30.181  1.00  0.00    -0.267 OA
HETATM    5  C   UNL     1      -6.553   4.077 -32.145  1.00  0.00     0.040 A 
HETATM    6  C   UNL     1      -6.411   3.260 -33.265  1.00  0.00    -0.015 A 
HETATM    7  C   UNL     1      -5.963   5.322 -32.045  1.00  0.00     0.017 A 
HETATM    8  C   UNL     1      -5.191   5.755 -33.125  1.00  0.00     0.001 A 
HETATM    9  C   UNL     1      -5.038   4.945 -34.264  1.00  0.00     0.001 A 
HETATM   10  C   UNL     1      -5.654   3.691 -34.344  1.00  0.00     0.011 A 
ENDROOT
BRANCH   1  11
HETATM   11  C   UNL     1      -6.383   0.830 -33.310  1.00  0.00     0.004 A 
HETATM   12  C   UNL     1      -6.624  -0.172 -34.251  1.00  0.00     0.017 A 
HETATM   13  C   UNL     1      -7.745  -0.322 -35.227  1.00  0.00     0.069 C 
HETATM   14  N   UNL     1      -5.609  -1.101 -34.154  1.00  0.00    -0.354 N 
HETATM   15  C   UNL     1      -5.520  -2.299 -34.965  1.00  0.00     0.156 C 
HETATM   16  C   UNL     1      -4.704  -0.729 -33.183  1.00  0.00     0.045 A 
HETATM   17  C   UNL     1      -5.160   0.474 -32.637  1.00  0.00     0.001 A 
HETATM   18  C   UNL     1      -3.522  -1.348 -32.735  1.00  0.00     0.030 A 
HETATM   19  C   UNL     1      -4.393   1.075 -31.612  1.00  0.00     0.014 A 
HETATM   20  C   UNL     1      -3.218   0.467 -31.163  1.00  0.00     0.001 A 
HETATM   21  C   UNL     1      -2.790  -0.730 -31.718  1.00  0.00     0.002 A 
ENDBRANCH   1  11
BRANCH   2  22
HETATM   22  C   UNL     1      -8.974   1.481 -31.347  1.00  0.00     0.229 C 
BRANCH  22  23
HETATM   23  C   UNL     1     -10.074   1.494 -32.411  1.00  0.00     0.235 C 
HETATM   24  N   UNL     1     -10.820   2.649 -32.486  1.00  0.00    -0.357 N 
HETATM   25  H   UNL     1     -10.496   3.457 -31.967  1.00  0.00     0.162 HD
HETATM   26  O   UNL     1     -10.360   0.478 -33.045  1.00  0.00    -0.272 OA
BRANCH  24  27
HETATM   27  C   UNL     1     -11.841   2.815 -33.508  1.00  0.00     0.154 C 
BRANCH  27  28
HETATM   28  C   UNL     1     -11.422   3.785 -34.626  1.00  0.00     0.139 C 
HETATM   29  O   UNL     1     -11.942   5.106 -34.343  1.00  0.00    -0.384 OA
HETATM   30  C   UNL     1     -10.897   6.050 -34.591  1.00  0.00     0.168 C 
HETATM   31  C   UNL     1      -9.619   5.322 -34.255  1.00  0.00     0.029 C 
HETATM   32  C   UNL     1      -9.905   3.929 -34.760  1.00  0.00     0.035 C 
ENDBRANCH  27  28
ENDBRANCH  24  27
ENDBRANCH  22  23
ENDBRANCH   2  22
TORSDOF 5
ENDMDL
MODEL 9
REMARK VINA RESULT:      -8.4      1.848      2.281
REMARK  5 active torsions:
REMARK  status: ('A' for Active; 'I' for Inactive)
REMARK    1  A    between atoms: C_7  and  C_8 
REMARK    2  A    between atoms: N_9  and  C_10 
REMARK    3  A    between atoms: C_10  and  C_11 
REMARK       I    between atoms: C_11  and  N_12 
REMARK    4  A    between atoms: N_12  and  C_13 
REMARK    5  A    between atoms: C_13  and  C_14 
ROOT
HETATM    1  C   UNL     1      -7.169   2.208 -32.270  1.00  0.00     0.158 C 
HETATM    2  N   UNL     1      -6.986   3.321 -33.193  1.00  0.00    -0.326 N 
HETATM    3  C   UNL     1      -8.167   3.545 -33.902  1.00  0.00     0.255 C 
HETATM    4  O   UNL     1      -8.454   4.507 -34.590  1.00  0.00    -0.267 OA
HETATM    5  C   UNL     1      -9.068   2.417 -33.645  1.00  0.00     0.040 A 
HETATM    6  C   UNL     1      -8.472   1.601 -32.686  1.00  0.00    -0.015 A 
HETATM    7  C   UNL     1     -10.318   2.163 -34.174  1.00  0.00     0.017 A 
HETATM    8  C   UNL     1     -10.991   1.029 -33.715  1.00  0.00     0.001 A 
HETATM    9  C   UNL     1     -10.406   0.195 -32.746  1.00  0.00     0.001 A 
HETATM   10  C   UNL     1      -9.142   0.480 -32.219  1.00  0.00     0.011 A 
ENDROOT
BRANCH   1  11
HETATM   11  C   UNL     1      -6.096   1.173 -32.399  1.00  0.00     0.004 A 
HETATM   12  C   UNL     1      -4.923   1.125 -31.645  1.00  0.00     0.017 A 
HETATM   13  C   UNL     1      -4.434   2.041 -30.571  1.00  0.00     0.069 C 
HETATM   14  N   UNL     1      -4.195   0.028 -32.058  1.00  0.00    -0.354 N 
HETATM   15  C   UNL     1      -2.905  -0.347 -31.515  1.00  0.00     0.156 C 
HETATM   16  C   UNL     1      -4.865  -0.648 -33.055  1.00  0.00     0.045 A 
HETATM   17  C   UNL     1      -6.058   0.042 -33.290  1.00  0.00     0.001 A 
HETATM   18  C   UNL     1      -4.526  -1.811 -33.773  1.00  0.00     0.030 A 
HETATM   19  C   UNL     1      -6.938  -0.462 -34.275  1.00  0.00     0.014 A 
HETATM   20  C   UNL     1      -6.608  -1.616 -34.991  1.00  0.00     0.001 A 
HETATM   21  C   UNL     1      -5.416  -2.280 -34.742  1.00  0.00     0.002 A 
ENDBRANCH   1  11
BRANCH   2  22
HETATM   22  C   UNL     1      -6.193   4.466 -32.766  1.00  0.00     0.229 C 
BRANCH  22  23
HETATM   23  C   UNL     1      -5.037   4.873 -33.684  1.00  0.00     0.235 C 
HETATM   24  N   UNL     1      -3.971   5.487 -33.066  1.00  0.00    -0.357 N 
HETATM   25  H   UNL     1      -3.941   5.479 -32.053  1.00  0.00     0.162 HD
HETATM   26  O   UNL     1      -5.135   4.789 -34.908  1.00  0.00    -0.272 OA
BRANCH  24  27
HETATM   27  C   UNL     1      -2.779   5.848 -33.816  1.00  0.00     0.154 C 
BRANCH  27  28
HETATM   28  C   UNL     1      -1.474   5.500 -33.079  1.00  0.00     0.139 C 
HETATM   29  O   UNL     1      -0.725   6.711 -32.821  1.00  0.00    -0.384 OA
HETATM   30  C   UNL     1      -0.251   6.654 -31.473  1.00  0.00     0.168 C 
HETATM   31  C   UNL     1      -1.304   5.881 -30.718  1.00  0.00     0.029 C 
HETATM   32  C   UNL     1      -1.710   4.832 -31.724  1.00  0.00     0.035 C 
ENDBRANCH  27  28
ENDBRANCH  24  27
ENDBRANCH  22  23
ENDBRANCH   2  22
TORSDOF 5
ENDMDL
MODEL 10
REMARK VINA RESULT:      -8.4      3.064      5.213
REMARK  5 active torsions:
REMARK  status: ('A' for Active; 'I' for Inactive)
REMARK    1  A    between atoms: C_7  and  C_8 
REMARK    2  A    between atoms: N_9  and  C_10 
REMARK    3  A    between atoms: C_10  and  C_11 
REMARK       I    between atoms: C_11  and  N_12 
REMARK    4  A    between atoms: N_12  and  C_13 
REMARK    5  A    between atoms: C_13  and  C_14 
ROOT
HETATM    1  C   UNL     1      -5.547   3.762 -32.364  1.00  0.00     0.158 C 
HETATM    2  N   UNL     1      -4.769   2.909 -31.476  1.00  0.00    -0.326 N 
HETATM    3  C   UNL     1      -3.407   3.081 -31.729  1.00  0.00     0.255 C 
HETATM    4  O   UNL     1      -2.468   2.706 -31.053  1.00  0.00    -0.267 OA
HETATM    5  C   UNL     1      -3.274   3.858 -32.966  1.00  0.00     0.040 A 
HETATM    6  C   UNL     1      -4.548   4.253 -33.366  1.00  0.00    -0.015 A 
HETATM    7  C   UNL     1      -2.128   4.221 -33.647  1.00  0.00     0.017 A 
HETATM    8  C   UNL     1      -2.282   5.015 -34.784  1.00  0.00     0.001 A 
HETATM    9  C   UNL     1      -3.561   5.425 -35.202  1.00  0.00     0.001 A 
HETATM   10  C   UNL     1      -4.705   5.051 -34.489  1.00  0.00     0.011 A 
ENDROOT
BRANCH   1  11
HETATM   11  C   UNL     1      -6.620   3.012 -33.088  1.00  0.00     0.004 A 
HETATM   12  C   UNL     1      -7.894   3.501 -33.379  1.00  0.00     0.017 A 
HETATM   13  C   UNL     1      -8.510   4.825 -33.064  1.00  0.00     0.069 C 
HETATM   14  N   UNL     1      -8.586   2.514 -34.051  1.00  0.00    -0.354 N 
HETATM   15  C   UNL     1      -9.955   2.645 -34.510  1.00  0.00     0.156 C 
HETATM   16  C   UNL     1      -7.796   1.397 -34.217  1.00  0.00     0.045 A 
HETATM   17  C   UNL     1      -6.560   1.676 -33.626  1.00  0.00     0.001 A 
HETATM   18  C   UNL     1      -8.060   0.161 -34.835  1.00  0.00     0.030 A 
HETATM   19  C   UNL     1      -5.559   0.680 -33.668  1.00  0.00     0.014 A 
HETATM   20  C   UNL     1      -5.813  -0.549 -34.282  1.00  0.00     0.001 A 
HETATM   21  C   UNL     1      -7.050  -0.804 -34.857  1.00  0.00     0.002 A 
ENDBRANCH   1  11
BRANCH   2  22
HETATM   22  C   UNL     1      -5.212   2.735 -30.099  1.00  0.00     0.229 C 
BRANCH  22  23
HETATM   23  C   UNL     1      -6.129   3.825 -29.537  1.00  0.00     0.235 C 
HETATM   24  N   UNL     1      -5.496   4.951 -29.060  1.00  0.00    -0.357 N 
HETATM   25  H   UNL     1      -4.509   5.061 -29.260  1.00  0.00     0.162 HD
HETATM   26  O   UNL     1      -7.335   3.629 -29.387  1.00  0.00    -0.272 OA
BRANCH  24  27
HETATM   27  C   UNL     1      -6.261   6.089 -28.575  1.00  0.00     0.154 C 
BRANCH  27  28
HETATM   28  C   UNL     1      -5.375   7.273 -28.149  1.00  0.00     0.139 C 
HETATM   29  O   UNL     1      -5.651   7.614 -26.770  1.00  0.00    -0.384 OA
HETATM   30  C   UNL     1      -4.399   7.818 -26.110  1.00  0.00     0.168 C 
HETATM   31  C   UNL     1      -3.436   6.881 -26.794  1.00  0.00     0.029 C 
HETATM   32  C   UNL     1      -3.879   6.965 -28.234  1.00  0.00     0.035 C 
ENDBRANCH  27  28
ENDBRANCH  24  27
ENDBRANCH  22  23
ENDBRANCH   2  22
TORSDOF 5
ENDMDL
