MODEL 1
REMARK VINA RESULT:      -9.3      0.000      0.000
REMARK  7 active torsions:
REMARK  status: ('A' for Active; 'I' for Inactive)
REMARK    1  A    between atoms: C_4  and  N_5 
REMARK       I    between atoms: N_5  and  C_6 
REMARK       I    between atoms: C_6  and  N_7 
REMARK    2  A    between atoms: N_7  and  N_8 
REMARK       I    between atoms: N_8  and  C_9 
REMARK    3  A    between atoms: C_9  and  C_10 
REMARK    4  A    between atoms: C_10  and  N_11 
REMARK    5  A    between atoms: C_10  and  C_19 
REMARK       I    between atoms: N_11  and  C_12 
REMARK    6  A    between atoms: C_12  and  C_13 
REMARK    7  A    between atoms: C_19  and  C_20 
ROOT
HETATM    1  C   UNL     1      -8.703   1.260 -32.495  1.00  0.00     0.183 C 
ENDROOT
BRANCH   1   2
HETATM    2  C   UNL     1      -8.250   2.706 -32.196  1.00  0.00     0.259 C 
HETATM    3  N   UNL     1      -7.812   3.436 -33.285  1.00  0.00    -0.264 N 
HETATM    4  H   UNL     1      -8.099   3.127 -34.220  1.00  0.00     0.190 HD
HETATM    5  O   UNL     1      -8.414   3.218 -31.086  1.00  0.00    -0.269 OA
BRANCH   3   6
HETATM    6  N   UNL     1      -7.626   4.815 -33.117  1.00  0.00    -0.249 N 
HETATM    7  C   UNL     1      -6.376   5.403 -33.128  1.00  0.00     0.339 C 
HETATM    8  N   UNL     1      -5.368   4.529 -33.460  1.00  0.00    -0.308 N 
HETATM    9  O   UNL     1      -6.264   6.593 -32.854  1.00  0.00    -0.245 OA
HETATM   10  H   UNL     1      -5.669   3.568 -33.509  1.00  0.00     0.170 HD
HETATM   11  H   UNL     1      -8.379   5.346 -32.684  1.00  0.00     0.192 HD
BRANCH   8  12
HETATM   12  C   UNL     1      -3.994   4.793 -33.601  1.00  0.00     0.036 A 
HETATM   13  C   UNL     1      -3.413   5.276 -34.775  1.00  0.00     0.029 A 
HETATM   14  C   UNL     1      -2.037   5.516 -34.838  1.00  0.00     0.002 A 
HETATM   15  C   UNL     1      -1.231   5.275 -33.729  1.00  0.00     0.000 A 
HETATM   16  C   UNL     1      -1.799   4.786 -32.555  1.00  0.00     0.002 A 
HETATM   17  C   UNL     1      -3.174   4.543 -32.493  1.00  0.00     0.029 A 
ENDBRANCH   8  12
ENDBRANCH   3   6
ENDBRANCH   1   2
BRANCH   1  18
HETATM   18  N   UNL     1     -10.156   1.094 -32.660  1.00  0.00    -0.343 N 
HETATM   19  C   UNL     1     -10.912   1.667 -33.656  1.00  0.00     0.259 C 
HETATM   20  O   UNL     1     -10.368   2.248 -34.596  1.00  0.00    -0.267 OA
HETATM   21  H   UNL     1     -10.669   0.756 -31.852  1.00  0.00     0.163 HD
BRANCH  19  22
HETATM   22  C   UNL     1     -12.353   1.499 -33.566  1.00  0.00     0.072 A 
HETATM   23  S   UNL     1     -13.399   2.767 -33.083  1.00  0.00    -0.097 SA
HETATM   24  C   UNL     1     -14.780   1.764 -33.188  1.00  0.00     0.050 A 
HETATM   25  C   UNL     1     -14.461   0.490 -33.600  1.00  0.00     0.009 A 
HETATM   26  C   UNL     1     -13.062   0.338 -33.820  1.00  0.00     0.025 A 
ENDBRANCH  19  22
ENDBRANCH   1  18
BRANCH   1  27
HETATM   27  C   UNL     1      -8.060   0.309 -31.471  1.00  0.00     0.076 C 
BRANCH  27  28
HETATM   28  C   UNL     1      -6.684  -0.136 -31.869  1.00  0.00    -0.028 A 
HETATM   29  C   UNL     1      -6.337  -1.036 -32.929  1.00  0.00    -0.002 A 
HETATM   30  C   UNL     1      -4.947  -1.165 -32.927  1.00  0.00     0.042 A 
HETATM   31  C   UNL     1      -7.075  -1.763 -33.885  1.00  0.00     0.014 A 
HETATM   32  C   UNL     1      -4.259  -1.975 -33.840  1.00  0.00     0.030 A 
HETATM   33  N   UNL     1      -4.468  -0.388 -31.901  1.00  0.00    -0.365 N 
HETATM   34  C   UNL     1      -5.014  -2.674 -34.784  1.00  0.00     0.002 A 
HETATM   35  C   UNL     1      -6.403  -2.573 -34.808  1.00  0.00     0.001 A 
HETATM   36  H   UNL     1      -3.491  -0.303 -31.654  1.00  0.00     0.165 HD
HETATM   37  C   UNL     1      -5.502   0.238 -31.259  1.00  0.00     0.096 A 
ENDBRANCH  27  28
ENDBRANCH   1  27
TORSDOF 7
ENDMDL
MODEL 2
REMARK VINA RESULT:      -9.3      2.770      7.166
REMARK  7 active torsions:
REMARK  status: ('A' for Active; 'I' for Inactive)
REMARK    1  A    between atoms: C_4  and  N_5 
REMARK       I    between atoms: N_5  and  C_6 
REMARK       I    between atoms: C_6  and  N_7 
REMARK    2  A    between atoms: N_7  and  N_8 
REMARK       I    between atoms: N_8  and  C_9 
REMARK    3  A    between atoms: C_9  and  C_10 
REMARK    4  A    between atoms: C_10  and  N_11 
REMARK    5  A    between atoms: C_10  and  C_19 
REMARK       I    between atoms: N_11  and  C_12 
REMARK    6  A    between atoms: C_12  and  C_13 
REMARK    7  A    between atoms: C_19  and  C_20 
ROOT
HETATM    1  C   UNL     1      -5.062   1.484 -32.201  1.00  0.00     0.183 C 
ENDROOT
BRANCH   1   2
HETATM    2  C   UNL     1      -6.176   1.891 -31.211  1.00  0.00     0.259 C 
HETATM    3  N   UNL     1      -6.971   2.950 -31.604  1.00  0.00    -0.264 N 
HETATM    4  H   UNL     1      -7.003   3.186 -32.602  1.00  0.00     0.190 HD
HETATM    5  O   UNL     1      -6.429   1.215 -30.211  1.00  0.00    -0.269 OA
BRANCH   3   6
HETATM    6  N   UNL     1      -8.139   3.200 -30.870  1.00  0.00    -0.249 N 
HETATM    7  C   UNL     1      -9.398   3.149 -31.437  1.00  0.00     0.339 C 
HETATM    8  N   UNL     1      -9.392   2.690 -32.733  1.00  0.00    -0.308 N 
HETATM    9  O   UNL     1     -10.372   3.496 -30.779  1.00  0.00    -0.245 OA
HETATM   10  H   UNL     1      -8.465   2.595 -33.121  1.00  0.00     0.170 HD
HETATM   11  H   UNL     1      -8.049   3.719 -29.999  1.00  0.00     0.192 HD
BRANCH   8  12
HETATM   12  C   UNL     1     -10.486   2.477 -33.590  1.00  0.00     0.036 A 
HETATM   13  C   UNL     1     -10.914   3.401 -34.545  1.00  0.00     0.029 A 
HETATM   14  C   UNL     1     -12.012   3.117 -35.362  1.00  0.00     0.002 A 
HETATM   15  C   UNL     1     -12.690   1.908 -35.233  1.00  0.00     0.000 A 
HETATM   16  C   UNL     1     -12.275   0.982 -34.278  1.00  0.00     0.002 A 
HETATM   17  C   UNL     1     -11.181   1.268 -33.458  1.00  0.00     0.029 A 
ENDBRANCH   8  12
ENDBRANCH   3   6
ENDBRANCH   1   2
BRANCH   1  18
HETATM   18  N   UNL     1      -4.295   2.610 -32.758  1.00  0.00    -0.343 N 
HETATM   19  C   UNL     1      -3.174   3.166 -32.187  1.00  0.00     0.259 C 
HETATM   20  O   UNL     1      -2.636   2.630 -31.218  1.00  0.00    -0.267 OA
HETATM   21  H   UNL     1      -4.763   3.174 -33.459  1.00  0.00     0.163 HD
BRANCH  19  22
HETATM   22  C   UNL     1      -2.642   4.363 -32.817  1.00  0.00     0.072 A 
HETATM   23  S   UNL     1      -3.443   5.161 -34.103  1.00  0.00    -0.097 SA
HETATM   24  C   UNL     1      -2.198   6.322 -34.255  1.00  0.00     0.050 A 
HETATM   25  C   UNL     1      -1.193   6.123 -33.335  1.00  0.00     0.009 A 
HETATM   26  C   UNL     1      -1.451   4.995 -32.504  1.00  0.00     0.025 A 
ENDBRANCH  19  22
ENDBRANCH   1  18
BRANCH   1  27
HETATM   27  C   UNL     1      -5.646   0.523 -33.251  1.00  0.00     0.076 C 
BRANCH  27  28
HETATM   28  C   UNL     1      -4.933  -0.796 -33.297  1.00  0.00    -0.028 A 
HETATM   29  C   UNL     1      -5.393  -2.009 -33.904  1.00  0.00    -0.002 A 
HETATM   30  C   UNL     1      -4.411  -2.978 -33.696  1.00  0.00     0.042 A 
HETATM   31  C   UNL     1      -6.559  -2.380 -34.605  1.00  0.00     0.014 A 
HETATM   32  C   UNL     1      -4.531  -4.294 -34.162  1.00  0.00     0.030 A 
HETATM   33  N   UNL     1      -3.400  -2.385 -32.979  1.00  0.00    -0.365 N 
HETATM   34  C   UNL     1      -5.692  -4.630 -34.863  1.00  0.00     0.002 A 
HETATM   35  C   UNL     1      -6.695  -3.689 -35.082  1.00  0.00     0.001 A 
HETATM   36  H   UNL     1      -2.562  -2.858 -32.670  1.00  0.00     0.165 HD
HETATM   37  C   UNL     1      -3.700  -1.072 -32.736  1.00  0.00     0.096 A 
ENDBRANCH  27  28
ENDBRANCH   1  27
TORSDOF 7
ENDMDL
MODEL 3
REMARK VINA RESULT:      -9.2      3.614      8.555
REMARK  7 active torsions:
REMARK  status: ('A' for Active; 'I' for Inactive)
REMARK    1  A    between atoms: C_4  and  N_5 
REMARK       I    between atoms: N_5  and  C_6 
REMARK       I    between atoms: C_6  and  N_7 
REMARK    2  A    between atoms: N_7  and  N_8 
REMARK       I    between atoms: N_8  and  C_9 
REMARK    3  A    between atoms: C_9  and  C_10 
REMARK    4  A    between atoms: C_10  and  N_11 
REMARK    5  A    between atoms: C_10  and  C_19 
REMARK       I    between atoms: N_11  and  C_12 
REMARK    6  A    between atoms: C_12  and  C_13 
REMARK    7  A    between atoms: C_19  and  C_20 
ROOT
HETATM    1  C   UNL     1      -4.269   2.633 -31.550  1.00  0.00     0.183 C 
ENDROOT
BRANCH   1   2
HETATM    2  C   UNL     1      -4.010   1.146 -31.220  1.00  0.00     0.259 C 
HETATM    3  N   UNL     1      -3.038   0.523 -31.980  1.00  0.00    -0.264 N 
HETATM    4  H   UNL     1      -2.350   1.112 -32.462  1.00  0.00     0.190 HD
HETATM    5  O   UNL     1      -4.529   0.601 -30.244  1.00  0.00    -0.269 OA
BRANCH   3   6
HETATM    6  N   UNL     1      -2.591  -0.740 -31.565  1.00  0.00    -0.249 N 
HETATM    7  C   UNL     1      -3.142  -1.915 -32.037  1.00  0.00     0.339 C 
HETATM    8  N   UNL     1      -4.056  -1.720 -33.046  1.00  0.00    -0.308 N 
HETATM    9  O   UNL     1      -2.796  -2.985 -31.547  1.00  0.00    -0.245 OA
HETATM   10  H   UNL     1      -4.290  -0.750 -33.193  1.00  0.00     0.170 HD
HETATM   11  H   UNL     1      -2.072  -0.794 -30.691  1.00  0.00     0.192 HD
BRANCH   8  12
HETATM   12  C   UNL     1      -4.774  -2.686 -33.773  1.00  0.00     0.036 A 
HETATM   13  C   UNL     1      -4.270  -3.948 -34.093  1.00  0.00     0.029 A 
HETATM   14  C   UNL     1      -5.046  -4.856 -34.820  1.00  0.00     0.002 A 
HETATM   15  C   UNL     1      -6.330  -4.511 -35.232  1.00  0.00     0.000 A 
HETATM   16  C   UNL     1      -6.840  -3.251 -34.924  1.00  0.00     0.002 A 
HETATM   17  C   UNL     1      -6.063  -2.342 -34.201  1.00  0.00     0.029 A 
ENDBRANCH   8  12
ENDBRANCH   3   6
ENDBRANCH   1   2
BRANCH   1  18
HETATM   18  N   UNL     1      -3.161   3.539 -31.206  1.00  0.00    -0.343 N 
HETATM   19  C   UNL     1      -2.561   4.423 -32.072  1.00  0.00     0.259 C 
HETATM   20  O   UNL     1      -3.040   4.625 -33.188  1.00  0.00    -0.267 OA
HETATM   21  H   UNL     1      -2.639   3.319 -30.364  1.00  0.00     0.163 HD
BRANCH  19  22
HETATM   22  C   UNL     1      -1.389   5.130 -31.582  1.00  0.00     0.072 A 
HETATM   23  S   UNL     1      -0.938   6.678 -32.162  1.00  0.00    -0.097 SA
HETATM   24  C   UNL     1       0.458   6.719 -31.177  1.00  0.00     0.050 A 
HETATM   25  C   UNL     1       0.577   5.587 -30.404  1.00  0.00     0.009 A 
HETATM   26  C   UNL     1      -0.490   4.672 -30.636  1.00  0.00     0.025 A 
ENDBRANCH  19  22
ENDBRANCH   1  18
BRANCH   1  27
HETATM   27  C   UNL     1      -5.637   3.045 -30.979  1.00  0.00     0.076 C 
BRANCH  27  28
HETATM   28  C   UNL     1      -6.697   3.167 -32.034  1.00  0.00    -0.028 A 
HETATM   29  C   UNL     1      -7.560   2.132 -32.520  1.00  0.00    -0.002 A 
HETATM   30  C   UNL     1      -8.377   2.697 -33.500  1.00  0.00     0.042 A 
HETATM   31  C   UNL     1      -7.718   0.763 -32.225  1.00  0.00     0.014 A 
HETATM   32  C   UNL     1      -9.351   1.965 -34.191  1.00  0.00     0.030 A 
HETATM   33  N   UNL     1      -8.018   4.018 -33.617  1.00  0.00    -0.365 N 
HETATM   34  C   UNL     1      -9.494   0.612 -33.871  1.00  0.00     0.002 A 
HETATM   35  C   UNL     1      -8.689   0.016 -32.903  1.00  0.00     0.001 A 
HETATM   36  H   UNL     1      -8.434   4.670 -34.268  1.00  0.00     0.165 HD
HETATM   37  C   UNL     1      -7.011   4.314 -32.739  1.00  0.00     0.096 A 
ENDBRANCH  27  28
ENDBRANCH   1  27
TORSDOF 7
ENDMDL
MODEL 4
REMARK VINA RESULT:      -9.1      3.908      6.944
REMARK  7 active torsions:
REMARK  status: ('A' for Active; 'I' for Inactive)
REMARK    1  A    between atoms: C_4  and  N_5 
REMARK       I    between atoms: N_5  and  C_6 
REMARK       I    between atoms: C_6  and  N_7 
REMARK    2  A    between atoms: N_7  and  N_8 
REMARK       I    between atoms: N_8  and  C_9 
REMARK    3  A    between atoms: C_9  and  C_10 
REMARK    4  A    between atoms: C_10  and  N_11 
REMARK    5  A    between atoms: C_10  and  C_19 
REMARK       I    between atoms: N_11  and  C_12 
REMARK    6  A    between atoms: C_12  and  C_13 
REMARK    7  A    between atoms: C_19  and  C_20 
ROOT
HETATM    1  C   UNL     1      -4.826   2.958 -32.679  1.00  0.00     0.183 C 
ENDROOT
BRANCH   1   2
HETATM    2  C   UNL     1      -5.596   3.498 -31.454  1.00  0.00     0.259 C 
HETATM    3  N   UNL     1      -4.909   3.476 -30.255  1.00  0.00    -0.264 N 
HETATM    4  H   UNL     1      -3.885   3.421 -30.286  1.00  0.00     0.190 HD
HETATM    5  O   UNL     1      -6.693   4.049 -31.573  1.00  0.00    -0.269 OA
BRANCH   3   6
HETATM    6  N   UNL     1      -5.461   4.174 -29.171  1.00  0.00    -0.249 N 
HETATM    7  C   UNL     1      -4.980   5.400 -28.755  1.00  0.00     0.339 C 
HETATM    8  N   UNL     1      -4.020   5.920 -29.592  1.00  0.00    -0.308 N 
HETATM    9  O   UNL     1      -5.419   5.905 -27.728  1.00  0.00    -0.245 OA
HETATM   10  H   UNL     1      -3.712   5.271 -30.300  1.00  0.00     0.170 HD
HETATM   11  H   UNL     1      -6.012   3.645 -28.499  1.00  0.00     0.192 HD
BRANCH   8  12
HETATM   12  C   UNL     1      -3.350   7.152 -29.494  1.00  0.00     0.036 A 
HETATM   13  C   UNL     1      -2.462   7.472 -28.466  1.00  0.00     0.029 A 
HETATM   14  C   UNL     1      -1.832   8.719 -28.436  1.00  0.00     0.002 A 
HETATM   15  C   UNL     1      -2.083   9.657 -29.435  1.00  0.00     0.000 A 
HETATM   16  C   UNL     1      -2.972   9.350 -30.463  1.00  0.00     0.002 A 
HETATM   17  C   UNL     1      -3.606   8.104 -30.489  1.00  0.00     0.029 A 
ENDBRANCH   8  12
ENDBRANCH   3   6
ENDBRANCH   1   2
BRANCH   1  18
HETATM   18  N   UNL     1      -5.298   1.655 -33.175  1.00  0.00    -0.343 N 
HETATM   19  C   UNL     1      -5.161   0.457 -32.514  1.00  0.00     0.259 C 
HETATM   20  O   UNL     1      -4.758   0.429 -31.351  1.00  0.00    -0.267 OA
HETATM   21  H   UNL     1      -5.500   1.594 -34.168  1.00  0.00     0.163 HD
BRANCH  19  22
HETATM   22  C   UNL     1      -5.565  -0.740 -33.233  1.00  0.00     0.072 A 
HETATM   23  S   UNL     1      -4.449  -1.951 -33.706  1.00  0.00    -0.097 SA
HETATM   24  C   UNL     1      -5.665  -2.872 -34.477  1.00  0.00     0.050 A 
HETATM   25  C   UNL     1      -6.904  -2.284 -34.367  1.00  0.00     0.009 A 
HETATM   26  C   UNL     1      -6.847  -1.056 -33.647  1.00  0.00     0.025 A 
ENDBRANCH  19  22
ENDBRANCH   1  18
BRANCH   1  27
HETATM   27  C   UNL     1      -3.316   3.028 -32.396  1.00  0.00     0.076 C 
BRANCH  27  28
HETATM   28  C   UNL     1      -2.710   4.347 -32.776  1.00  0.00    -0.028 A 
HETATM   29  C   UNL     1      -1.667   5.052 -32.092  1.00  0.00    -0.002 A 
HETATM   30  C   UNL     1      -1.432   6.234 -32.795  1.00  0.00     0.042 A 
HETATM   31  C   UNL     1      -0.904   4.800 -30.933  1.00  0.00     0.014 A 
HETATM   32  C   UNL     1      -0.467   7.171 -32.404  1.00  0.00     0.030 A 
HETATM   33  N   UNL     1      -2.305   6.257 -33.856  1.00  0.00    -0.365 N 
HETATM   34  C   UNL     1       0.283   6.890 -31.259  1.00  0.00     0.002 A 
HETATM   35  C   UNL     1       0.068   5.723 -30.531  1.00  0.00     0.001 A 
HETATM   36  H   UNL     1      -2.370   7.008 -34.529  1.00  0.00     0.165 HD
HETATM   37  C   UNL     1      -3.077   5.127 -33.857  1.00  0.00     0.096 A 
ENDBRANCH  27  28
ENDBRANCH   1  27
TORSDOF 7
ENDMDL
MODEL 5
REMARK VINA RESULT:      -8.9      2.219      6.690
REMARK  7 active torsions:
REMARK  status: ('A' for Active; 'I' for Inactive)
REMARK    1  A    between atoms: C_4  and  N_5 
REMARK       I    between atoms: N_5  and  C_6 
REMARK       I    between atoms: C_6  and  N_7 
REMARK    2  A    between atoms: N_7  and  N_8 
REMARK       I    between atoms: N_8  and  C_9 
REMARK    3  A    between atoms: C_9  and  C_10 
REMARK    4  A    between atoms: C_10  and  N_11 
REMARK    5  A    between atoms: C_10  and  C_19 
REMARK       I    between atoms: N_11  and  C_12 
REMARK    6  A    between atoms: C_12  and  C_13 
REMARK    7  A    between atoms: C_19  and  C_20 
ROOT
HETATM    1  C   UNL     1      -6.841   3.769 -33.194  1.00  0.00     0.183 C 
ENDROOT
BRANCH   1   2
HETATM    2  C   UNL     1      -6.167   2.678 -32.333  1.00  0.00     0.259 C 
HETATM    3  N   UNL     1      -5.254   1.874 -32.988  1.00  0.00    -0.264 N 
HETATM    4  H   UNL     1      -4.845   2.221 -33.863  1.00  0.00     0.190 HD
HETATM    5  O   UNL     1      -6.324   2.632 -31.111  1.00  0.00    -0.269 OA
BRANCH   3   6
HETATM    6  N   UNL     1      -4.438   1.040 -32.211  1.00  0.00    -0.249 N 
HETATM    7  C   UNL     1      -4.414  -0.332 -32.367  1.00  0.00     0.339 C 
HETATM    8  N   UNL     1      -5.150  -0.768 -33.444  1.00  0.00    -0.308 N 
HETATM    9  O   UNL     1      -3.776  -1.020 -31.579  1.00  0.00    -0.245 OA
HETATM   10  H   UNL     1      -5.706  -0.043 -33.871  1.00  0.00     0.170 HD
HETATM   11  H   UNL     1      -4.092   1.408 -31.326  1.00  0.00     0.192 HD
BRANCH   8  12
HETATM   12  C   UNL     1      -5.314  -2.083 -33.915  1.00  0.00     0.036 A 
HETATM   13  C   UNL     1      -4.289  -3.030 -33.943  1.00  0.00     0.029 A 
HETATM   14  C   UNL     1      -4.529  -4.320 -34.425  1.00  0.00     0.002 A 
HETATM   15  C   UNL     1      -5.796  -4.674 -34.882  1.00  0.00     0.000 A 
HETATM   16  C   UNL     1      -6.824  -3.735 -34.864  1.00  0.00     0.002 A 
HETATM   17  C   UNL     1      -6.582  -2.444 -34.387  1.00  0.00     0.029 A 
ENDBRANCH   8  12
ENDBRANCH   3   6
ENDBRANCH   1   2
BRANCH   1  18
HETATM   18  N   UNL     1      -8.093   3.349 -33.845  1.00  0.00    -0.343 N 
HETATM   19  C   UNL     1      -9.171   4.167 -34.091  1.00  0.00     0.259 C 
HETATM   20  O   UNL     1      -9.087   5.382 -33.915  1.00  0.00    -0.267 OA
HETATM   21  H   UNL     1      -8.275   2.352 -33.878  1.00  0.00     0.163 HD
BRANCH  19  22
HETATM   22  C   UNL     1     -10.371   3.532 -34.614  1.00  0.00     0.072 A 
HETATM   23  S   UNL     1     -10.831   1.939 -34.185  1.00  0.00    -0.097 SA
HETATM   24  C   UNL     1     -12.196   1.980 -35.213  1.00  0.00     0.050 A 
HETATM   25  C   UNL     1     -12.317   3.187 -35.862  1.00  0.00     0.009 A 
HETATM   26  C   UNL     1     -11.265   4.083 -35.515  1.00  0.00     0.025 A 
ENDBRANCH  19  22
ENDBRANCH   1  18
BRANCH   1  27
HETATM   27  C   UNL     1      -5.797   4.378 -34.145  1.00  0.00     0.076 C 
BRANCH  27  28
HETATM   28  C   UNL     1      -4.936   5.413 -33.482  1.00  0.00    -0.028 A 
HETATM   29  C   UNL     1      -3.558   5.697 -33.752  1.00  0.00    -0.002 A 
HETATM   30  C   UNL     1      -3.169   6.726 -32.894  1.00  0.00     0.042 A 
HETATM   31  C   UNL     1      -2.599   5.168 -34.640  1.00  0.00     0.014 A 
HETATM   32  C   UNL     1      -1.874   7.261 -32.888  1.00  0.00     0.030 A 
HETATM   33  N   UNL     1      -4.260   7.047 -32.123  1.00  0.00    -0.365 N 
HETATM   34  C   UNL     1      -0.948   6.726 -33.787  1.00  0.00     0.002 A 
HETATM   35  C   UNL     1      -1.302   5.693 -34.651  1.00  0.00     0.001 A 
HETATM   36  H   UNL     1      -4.262   7.753 -31.399  1.00  0.00     0.165 HD
HETATM   37  C   UNL     1      -5.329   6.267 -32.469  1.00  0.00     0.096 A 
ENDBRANCH  27  28
ENDBRANCH   1  27
TORSDOF 7
ENDMDL
MODEL 6
REMARK VINA RESULT:      -8.9      4.196      6.504
REMARK  7 active torsions:
REMARK  status: ('A' for Active; 'I' for Inactive)
REMARK    1  A    between atoms: C_4  and  N_5 
REMARK       I    between atoms: N_5  and  C_6 
REMARK       I    between atoms: C_6  and  N_7 
REMARK    2  A    between atoms: N_7  and  N_8 
REMARK       I    between atoms: N_8  and  C_9 
REMARK    3  A    between atoms: C_9  and  C_10 
REMARK    4  A    between atoms: C_10  and  N_11 
REMARK    5  A    between atoms: C_10  and  C_19 
REMARK       I    between atoms: N_11  and  C_12 
REMARK    6  A    between atoms: C_12  and  C_13 
REMARK    7  A    between atoms: C_19  and  C_20 
ROOT
HETATM    1  C   UNL     1      -5.161   2.314 -30.830  1.00  0.00     0.183 C 
ENDROOT
BRANCH   1   2
HETATM    2  C   UNL     1      -5.981   3.145 -29.818  1.00  0.00     0.259 C 
HETATM    3  N   UNL     1      -5.246   3.903 -28.927  1.00  0.00    -0.264 N 
HETATM    4  H   UNL     1      -4.274   4.127 -29.171  1.00  0.00     0.190 HD
HETATM    5  O   UNL     1      -7.207   3.238 -29.903  1.00  0.00    -0.269 OA
BRANCH   3   6
HETATM    6  N   UNL     1      -5.928   4.856 -28.158  1.00  0.00    -0.249 N 
HETATM    7  C   UNL     1      -5.405   6.105 -27.887  1.00  0.00     0.339 C 
HETATM    8  N   UNL     1      -4.233   6.361 -28.560  1.00  0.00    -0.308 N 
HETATM    9  O   UNL     1      -5.989   6.850 -27.108  1.00  0.00    -0.245 OA
HETATM   10  H   UNL     1      -3.860   5.555 -29.038  1.00  0.00     0.170 HD
HETATM   11  H   UNL     1      -6.670   4.526 -27.544  1.00  0.00     0.192 HD
BRANCH   8  12
HETATM   12  C   UNL     1      -3.457   7.533 -28.548  1.00  0.00     0.036 A 
HETATM   13  C   UNL     1      -2.354   7.724 -27.714  1.00  0.00     0.029 A 
HETATM   14  C   UNL     1      -1.630   8.920 -27.761  1.00  0.00     0.002 A 
HETATM   15  C   UNL     1      -2.001   9.932 -28.641  1.00  0.00     0.000 A 
HETATM   16  C   UNL     1      -3.104   9.754 -29.473  1.00  0.00     0.002 A 
HETATM   17  C   UNL     1      -3.831   8.561 -29.423  1.00  0.00     0.029 A 
ENDBRANCH   8  12
ENDBRANCH   3   6
ENDBRANCH   1   2
BRANCH   1  18
HETATM   18  N   UNL     1      -4.509   3.105 -31.887  1.00  0.00    -0.343 N 
HETATM   19  C   UNL     1      -3.171   3.418 -31.932  1.00  0.00     0.259 C 
HETATM   20  O   UNL     1      -2.382   2.903 -31.139  1.00  0.00    -0.267 OA
HETATM   21  H   UNL     1      -5.118   3.667 -32.473  1.00  0.00     0.163 HD
BRANCH  19  22
HETATM   22  C   UNL     1      -2.745   4.329 -32.982  1.00  0.00     0.072 A 
HETATM   23  S   UNL     1      -1.255   5.173 -32.921  1.00  0.00    -0.097 SA
HETATM   24  C   UNL     1      -1.572   5.984 -34.392  1.00  0.00     0.050 A 
HETATM   25  C   UNL     1      -2.780   5.612 -34.935  1.00  0.00     0.009 A 
HETATM   26  C   UNL     1      -3.455   4.656 -34.123  1.00  0.00     0.025 A 
ENDBRANCH  19  22
ENDBRANCH   1  18
BRANCH   1  27
HETATM   27  C   UNL     1      -6.023   1.147 -31.340  1.00  0.00     0.076 C 
BRANCH  27  28
HETATM   28  C   UNL     1      -5.207   0.018 -31.898  1.00  0.00    -0.028 A 
HETATM   29  C   UNL     1      -5.581  -0.888 -32.943  1.00  0.00    -0.002 A 
HETATM   30  C   UNL     1      -4.520  -1.776 -33.125  1.00  0.00     0.042 A 
HETATM   31  C   UNL     1      -6.728  -1.044 -33.748  1.00  0.00     0.014 A 
HETATM   32  C   UNL     1      -4.544  -2.803 -34.077  1.00  0.00     0.030 A 
HETATM   33  N   UNL     1      -3.545  -1.435 -32.219  1.00  0.00    -0.365 N 
HETATM   34  C   UNL     1      -5.688  -2.926 -34.869  1.00  0.00     0.002 A 
HETATM   35  C   UNL     1      -6.767  -2.062 -34.708  1.00  0.00     0.001 A 
HETATM   36  H   UNL     1      -2.665  -1.921 -32.113  1.00  0.00     0.165 HD
HETATM   37  C   UNL     1      -3.945  -0.356 -31.478  1.00  0.00     0.096 A 
ENDBRANCH  27  28
ENDBRANCH   1  27
TORSDOF 7
ENDMDL
MODEL 7
REMARK VINA RESULT:      -8.8      2.770      7.633
REMARK  7 active torsions:
REMARK  status: ('A' for Active; 'I' for Inactive)
REMARK    1  A    between atoms: C_4  and  N_5 
REMARK       I    between atoms: N_5  and  C_6 
REMARK       I    between atoms: C_6  and  N_7 
REMARK    2  A    between atoms: N_7  and  N_8 
REMARK       I    between atoms: N_8  and  C_9 
REMARK    3  A    between atoms: C_9  and  C_10 
REMARK    4  A    between atoms: C_10  and  N_11 
REMARK    5  A    between atoms: C_10  and  C_19 
REMARK       I    between atoms: N_11  and  C_12 
REMARK    6  A    between atoms: C_12  and  C_13 
REMARK    7  A    between atoms: C_19  and  C_20 
ROOT
HETATM    1  C   UNL     1      -4.618   2.380 -32.226  1.00  0.00     0.183 C 
ENDROOT
BRANCH   1   2
HETATM    2  C   UNL     1      -5.727   2.619 -31.178  1.00  0.00     0.259 C 
HETATM    3  N   UNL     1      -6.776   3.421 -31.585  1.00  0.00    -0.264 N 
HETATM    4  H   UNL     1      -6.930   3.540 -32.593  1.00  0.00     0.190 HD
HETATM    5  O   UNL     1      -5.744   2.010 -30.106  1.00  0.00    -0.269 OA
BRANCH   3   6
HETATM    6  N   UNL     1      -7.917   3.470 -30.773  1.00  0.00    -0.249 N 
HETATM    7  C   UNL     1      -9.186   3.222 -31.259  1.00  0.00     0.339 C 
HETATM    8  N   UNL     1      -9.193   2.787 -32.563  1.00  0.00    -0.308 N 
HETATM    9  O   UNL     1     -10.158   3.400 -30.532  1.00  0.00    -0.245 OA
HETATM   10  H   UNL     1      -8.291   2.848 -33.011  1.00  0.00     0.170 HD
HETATM   11  H   UNL     1      -7.853   3.985 -29.897  1.00  0.00     0.192 HD
BRANCH   8  12
HETATM   12  C   UNL     1     -10.294   2.412 -33.353  1.00  0.00     0.036 A 
HETATM   13  C   UNL     1     -10.878   3.239 -34.313  1.00  0.00     0.029 A 
HETATM   14  C   UNL     1     -11.972   2.794 -35.062  1.00  0.00     0.002 A 
HETATM   15  C   UNL     1     -12.489   1.518 -34.857  1.00  0.00     0.000 A 
HETATM   16  C   UNL     1     -11.918   0.686 -33.897  1.00  0.00     0.002 A 
HETATM   17  C   UNL     1     -10.827   1.133 -33.146  1.00  0.00     0.029 A 
ENDBRANCH   8  12
ENDBRANCH   3   6
ENDBRANCH   1   2
BRANCH   1  18
HETATM   18  N   UNL     1      -4.620   1.036 -32.826  1.00  0.00    -0.343 N 
HETATM   19  C   UNL     1      -5.689   0.455 -33.467  1.00  0.00     0.259 C 
HETATM   20  O   UNL     1      -6.697   1.114 -33.722  1.00  0.00    -0.267 OA
HETATM   21  H   UNL     1      -3.885   0.404 -32.526  1.00  0.00     0.163 HD
BRANCH  19  22
HETATM   22  C   UNL     1      -5.539  -0.935 -33.867  1.00  0.00     0.072 A 
HETATM   23  S   UNL     1      -4.194  -1.888 -33.398  1.00  0.00    -0.097 SA
HETATM   24  C   UNL     1      -4.754  -3.240 -34.280  1.00  0.00     0.050 A 
HETATM   25  C   UNL     1      -5.951  -2.986 -34.910  1.00  0.00     0.009 A 
HETATM   26  C   UNL     1      -6.405  -1.657 -34.669  1.00  0.00     0.025 A 
ENDBRANCH  19  22
ENDBRANCH   1  18
BRANCH   1  27
HETATM   27  C   UNL     1      -3.265   2.818 -31.639  1.00  0.00     0.076 C 
BRANCH  27  28
HETATM   28  C   UNL     1      -2.770   4.113 -32.214  1.00  0.00    -0.028 A 
HETATM   29  C   UNL     1      -1.660   4.896 -31.757  1.00  0.00    -0.002 A 
HETATM   30  C   UNL     1      -1.575   6.018 -32.583  1.00  0.00     0.042 A 
HETATM   31  C   UNL     1      -0.724   4.761 -30.713  1.00  0.00     0.014 A 
HETATM   32  C   UNL     1      -0.594   7.005 -32.422  1.00  0.00     0.030 A 
HETATM   33  N   UNL     1      -2.599   5.930 -33.495  1.00  0.00    -0.365 N 
HETATM   34  C   UNL     1       0.328   6.840 -31.386  1.00  0.00     0.002 A 
HETATM   35  C   UNL     1       0.266   5.736 -30.541  1.00  0.00     0.001 A 
HETATM   36  H   UNL     1      -2.790   6.620 -34.209  1.00  0.00     0.165 HD
HETATM   37  C   UNL     1      -3.322   4.788 -33.286  1.00  0.00     0.096 A 
ENDBRANCH  27  28
ENDBRANCH   1  27
TORSDOF 7
ENDMDL
MODEL 8
REMARK VINA RESULT:      -8.7      2.327      7.414
REMARK  7 active torsions:
REMARK  status: ('A' for Active; 'I' for Inactive)
REMARK    1  A    between atoms: C_4  and  N_5 
REMARK       I    between atoms: N_5  and  C_6 
REMARK       I    between atoms: C_6  and  N_7 
REMARK    2  A    between atoms: N_7  and  N_8 
REMARK       I    between atoms: N_8  and  C_9 
REMARK    3  A    between atoms: C_9  and  C_10 
REMARK    4  A    between atoms: C_10  and  N_11 
REMARK    5  A    between atoms: C_10  and  C_19 
REMARK       I    between atoms: N_11  and  C_12 
REMARK    6  A    between atoms: C_12  and  C_13 
REMARK    7  A    between atoms: C_19  and  C_20 
ROOT
HETATM    1  C   UNL     1      -7.723   1.952 -32.372  1.00  0.00     0.183 C 
ENDROOT
BRANCH   1   2
HETATM    2  C   UNL     1      -8.862   1.905 -33.414  1.00  0.00     0.259 C 
HETATM    3  N   UNL     1      -9.325   3.131 -33.854  1.00  0.00    -0.264 N 
HETATM    4  H   UNL     1      -8.716   3.948 -33.733  1.00  0.00     0.190 HD
HETATM    5  O   UNL     1      -9.224   0.844 -33.927  1.00  0.00    -0.269 OA
BRANCH   3   6
HETATM    6  N   UNL     1     -10.175   3.149 -34.968  1.00  0.00    -0.249 N 
HETATM    7  C   UNL     1     -11.542   2.985 -34.863  1.00  0.00     0.339 C 
HETATM    8  N   UNL     1     -11.986   2.951 -33.562  1.00  0.00    -0.308 N 
HETATM    9  O   UNL     1     -12.220   2.887 -35.879  1.00  0.00    -0.245 OA
HETATM   10  H   UNL     1     -11.240   2.910 -32.884  1.00  0.00     0.170 HD
HETATM   11  H   UNL     1      -9.761   2.976 -35.882  1.00  0.00     0.192 HD
BRANCH   8  12
HETATM   12  C   UNL     1     -13.306   2.836 -33.092  1.00  0.00     0.036 A 
HETATM   13  C   UNL     1     -13.963   3.835 -32.372  1.00  0.00     0.029 A 
HETATM   14  C   UNL     1     -15.279   3.646 -31.938  1.00  0.00     0.002 A 
HETATM   15  C   UNL     1     -15.949   2.459 -32.222  1.00  0.00     0.000 A 
HETATM   16  C   UNL     1     -15.300   1.453 -32.934  1.00  0.00     0.002 A 
HETATM   17  C   UNL     1     -13.983   1.640 -33.363  1.00  0.00     0.029 A 
ENDBRANCH   8  12
ENDBRANCH   3   6
ENDBRANCH   1   2
BRANCH   1  18
HETATM   18  N   UNL     1      -6.459   2.520 -32.868  1.00  0.00    -0.343 N 
HETATM   19  C   UNL     1      -6.006   3.792 -32.609  1.00  0.00     0.259 C 
HETATM   20  O   UNL     1      -6.580   4.504 -31.785  1.00  0.00    -0.267 OA
HETATM   21  H   UNL     1      -6.026   2.045 -33.654  1.00  0.00     0.163 HD
BRANCH  19  22
HETATM   22  C   UNL     1      -4.803   4.216 -33.308  1.00  0.00     0.072 A 
HETATM   23  S   UNL     1      -3.230   3.836 -32.745  1.00  0.00    -0.097 SA
HETATM   24  C   UNL     1      -2.488   4.700 -34.020  1.00  0.00     0.050 A 
HETATM   25  C   UNL     1      -3.413   5.257 -34.873  1.00  0.00     0.009 A 
HETATM   26  C   UNL     1      -4.749   4.975 -34.463  1.00  0.00     0.025 A 
ENDBRANCH  19  22
ENDBRANCH   1  18
BRANCH   1  27
HETATM   27  C   UNL     1      -7.589   0.570 -31.709  1.00  0.00     0.076 C 
BRANCH  27  28
HETATM   28  C   UNL     1      -6.307  -0.126 -32.062  1.00  0.00    -0.028 A 
HETATM   29  C   UNL     1      -6.111  -1.120 -33.074  1.00  0.00    -0.002 A 
HETATM   30  C   UNL     1      -4.765  -1.489 -33.040  1.00  0.00     0.042 A 
HETATM   31  C   UNL     1      -6.954  -1.751 -34.012  1.00  0.00     0.014 A 
HETATM   32  C   UNL     1      -4.219  -2.448 -33.904  1.00  0.00     0.030 A 
HETATM   33  N   UNL     1      -4.169  -0.760 -32.040  1.00  0.00    -0.365 N 
HETATM   34  C   UNL     1      -5.075  -3.048 -34.831  1.00  0.00     0.002 A 
HETATM   35  C   UNL     1      -6.424  -2.708 -34.886  1.00  0.00     0.001 A 
HETATM   36  H   UNL     1      -3.195  -0.836 -31.778  1.00  0.00     0.165 HD
HETATM   37  C   UNL     1      -5.084   0.065 -31.446  1.00  0.00     0.096 A 
ENDBRANCH  27  28
ENDBRANCH   1  27
TORSDOF 7
ENDMDL
MODEL 9
REMARK VINA RESULT:      -8.6      3.194      7.684
REMARK  7 active torsions:
REMARK  status: ('A' for Active; 'I' for Inactive)
REMARK    1  A    between atoms: C_4  and  N_5 
REMARK       I    between atoms: N_5  and  C_6 
REMARK       I    between atoms: C_6  and  N_7 
REMARK    2  A    between atoms: N_7  and  N_8 
REMARK       I    between atoms: N_8  and  C_9 
REMARK    3  A    between atoms: C_9  and  C_10 
REMARK    4  A    between atoms: C_10  and  N_11 
REMARK    5  A    between atoms: C_10  and  C_19 
REMARK       I    between atoms: N_11  and  C_12 
REMARK    6  A    between atoms: C_12  and  C_13 
REMARK    7  A    between atoms: C_19  and  C_20 
ROOT
HETATM    1  C   UNL     1      -4.604   3.704 -30.971  1.00  0.00     0.183 C 
ENDROOT
BRANCH   1   2
HETATM    2  C   UNL     1      -5.917   4.460 -30.669  1.00  0.00     0.259 C 
HETATM    3  N   UNL     1      -6.563   5.002 -31.764  1.00  0.00    -0.264 N 
HETATM    4  H   UNL     1      -6.342   4.623 -32.692  1.00  0.00     0.190 HD
HETATM    5  O   UNL     1      -6.426   4.448 -29.547  1.00  0.00    -0.269 OA
BRANCH   3   6
HETATM    6  N   UNL     1      -7.869   5.479 -31.585  1.00  0.00    -0.249 N 
HETATM    7  C   UNL     1      -8.983   4.762 -31.976  1.00  0.00     0.339 C 
HETATM    8  N   UNL     1      -8.685   3.493 -32.417  1.00  0.00    -0.308 N 
HETATM    9  O   UNL     1     -10.092   5.280 -31.908  1.00  0.00    -0.245 OA
HETATM   10  H   UNL     1      -7.696   3.327 -32.520  1.00  0.00     0.170 HD
HETATM   11  H   UNL     1      -7.993   6.480 -31.448  1.00  0.00     0.192 HD
BRANCH   8  12
HETATM   12  C   UNL     1      -9.568   2.489 -32.851  1.00  0.00     0.036 A 
HETATM   13  C   UNL     1     -10.575   2.697 -33.794  1.00  0.00     0.029 A 
HETATM   14  C   UNL     1     -11.415   1.647 -34.177  1.00  0.00     0.002 A 
HETATM   15  C   UNL     1     -11.255   0.381 -33.620  1.00  0.00     0.000 A 
HETATM   16  C   UNL     1     -10.256   0.164 -32.673  1.00  0.00     0.002 A 
HETATM   17  C   UNL     1      -9.420   1.215 -32.287  1.00  0.00     0.029 A 
ENDBRANCH   8  12
ENDBRANCH   3   6
ENDBRANCH   1   2
BRANCH   1  18
HETATM   18  N   UNL     1      -3.378   4.468 -30.690  1.00  0.00    -0.343 N 
HETATM   19  C   UNL     1      -3.005   5.631 -31.322  1.00  0.00     0.259 C 
HETATM   20  O   UNL     1      -3.785   6.207 -32.081  1.00  0.00    -0.267 OA
HETATM   21  H   UNL     1      -2.642   3.977 -30.192  1.00  0.00     0.163 HD
BRANCH  19  22
HETATM   22  C   UNL     1      -1.688   6.158 -31.004  1.00  0.00     0.072 A 
HETATM   23  S   UNL     1      -1.344   6.942 -29.519  1.00  0.00    -0.097 SA
HETATM   24  C   UNL     1       0.270   7.262 -29.981  1.00  0.00     0.050 A 
HETATM   25  C   UNL     1       0.556   6.771 -31.234  1.00  0.00     0.009 A 
HETATM   26  C   UNL     1      -0.574   6.132 -31.823  1.00  0.00     0.025 A 
ENDBRANCH  19  22
ENDBRANCH   1  18
BRANCH   1  27
HETATM   27  C   UNL     1      -4.680   3.108 -32.387  1.00  0.00     0.076 C 
BRANCH  27  28
HETATM   28  C   UNL     1      -5.111   1.671 -32.395  1.00  0.00    -0.028 A 
HETATM   29  C   UNL     1      -5.921   1.014 -33.377  1.00  0.00    -0.002 A 
HETATM   30  C   UNL     1      -6.072  -0.313 -32.973  1.00  0.00     0.042 A 
HETATM   31  C   UNL     1      -6.549   1.426 -34.570  1.00  0.00     0.014 A 
HETATM   32  C   UNL     1      -6.810  -1.250 -33.706  1.00  0.00     0.030 A 
HETATM   33  N   UNL     1      -5.394  -0.456 -31.786  1.00  0.00    -0.365 N 
HETATM   34  C   UNL     1      -7.412  -0.818 -34.891  1.00  0.00     0.002 A 
HETATM   35  C   UNL     1      -7.287   0.501 -35.319  1.00  0.00     0.001 A 
HETATM   36  H   UNL     1      -5.347  -1.313 -31.253  1.00  0.00     0.165 HD
HETATM   37  C   UNL     1      -4.810   0.729 -31.430  1.00  0.00     0.096 A 
ENDBRANCH  27  28
ENDBRANCH   1  27
TORSDOF 7
ENDMDL
MODEL 10
REMARK VINA RESULT:      -8.6      2.753      5.640
REMARK  7 active torsions:
REMARK  status: ('A' for Active; 'I' for Inactive)
REMARK    1  A    between atoms: C_4  and  N_5 
REMARK       I    between atoms: N_5  and  C_6 
REMARK       I    between atoms: C_6  and  N_7 
REMARK    2  A    between atoms: N_7  and  N_8 
REMARK       I    between atoms: N_8  and  C_9 
REMARK    3  A    between atoms: C_9  and  C_10 
REMARK    4  A    between atoms: C_10  and  N_11 
REMARK    5  A    between atoms: C_10  and  C_19 
REMARK       I    between atoms: N_11  and  C_12 
REMARK    6  A    between atoms: C_12  and  C_13 
REMARK    7  A    between atoms: C_19  and  C_20 
ROOT
HETATM    1  C   UNL     1      -6.569   2.208 -31.746  1.00  0.00     0.183 C 
ENDROOT
BRANCH   1   2
HETATM    2  C   UNL     1      -6.040   3.506 -32.395  1.00  0.00     0.259 C 
HETATM    3  N   UNL     1      -4.801   3.413 -33.000  1.00  0.00    -0.264 N 
HETATM    4  H   UNL     1      -4.461   2.482 -33.266  1.00  0.00     0.190 HD
HETATM    5  O   UNL     1      -6.746   4.511 -32.495  1.00  0.00    -0.269 OA
BRANCH   3   6
HETATM    6  N   UNL     1      -4.386   4.479 -33.810  1.00  0.00    -0.249 N 
HETATM    7  C   UNL     1      -3.450   5.407 -33.396  1.00  0.00     0.339 C 
HETATM    8  N   UNL     1      -2.873   5.094 -32.188  1.00  0.00    -0.308 N 
HETATM    9  O   UNL     1      -3.217   6.386 -34.097  1.00  0.00    -0.245 OA
HETATM   10  H   UNL     1      -3.315   4.317 -31.721  1.00  0.00     0.170 HD
HETATM   11  H   UNL     1      -4.992   4.752 -34.582  1.00  0.00     0.192 HD
BRANCH   8  12
HETATM   12  C   UNL     1      -1.867   5.790 -31.494  1.00  0.00     0.036 A 
HETATM   13  C   UNL     1      -2.123   6.776 -30.540  1.00  0.00     0.029 A 
HETATM   14  C   UNL     1      -1.068   7.424 -29.890  1.00  0.00     0.002 A 
HETATM   15  C   UNL     1       0.251   7.090 -30.187  1.00  0.00     0.000 A 
HETATM   16  C   UNL     1       0.517   6.111 -31.142  1.00  0.00     0.002 A 
HETATM   17  C   UNL     1      -0.538   5.467 -31.795  1.00  0.00     0.029 A 
ENDBRANCH   8  12
ENDBRANCH   3   6
ENDBRANCH   1   2
BRANCH   1  18
HETATM   18  N   UNL     1      -6.439   1.006 -32.585  1.00  0.00    -0.343 N 
HETATM   19  C   UNL     1      -5.959  -0.211 -32.159  1.00  0.00     0.259 C 
HETATM   20  O   UNL     1      -5.749  -0.415 -30.964  1.00  0.00    -0.267 OA
HETATM   21  H   UNL     1      -6.457   1.149 -33.589  1.00  0.00     0.163 HD
BRANCH  19  22
HETATM   22  C   UNL     1      -5.775  -1.236 -33.174  1.00  0.00     0.072 A 
HETATM   23  S   UNL     1      -4.266  -2.002 -33.445  1.00  0.00    -0.097 SA
HETATM   24  C   UNL     1      -4.890  -2.933 -34.736  1.00  0.00     0.050 A 
HETATM   25  C   UNL     1      -6.226  -2.683 -34.953  1.00  0.00     0.009 A 
HETATM   26  C   UNL     1      -6.736  -1.706 -34.050  1.00  0.00     0.025 A 
ENDBRANCH  19  22
ENDBRANCH   1  18
BRANCH   1  27
HETATM   27  C   UNL     1      -7.984   2.458 -31.198  1.00  0.00     0.076 C 
BRANCH  27  28
HETATM   28  C   UNL     1      -9.050   1.758 -31.988  1.00  0.00    -0.028 A 
HETATM   29  C   UNL     1      -9.841   2.303 -33.051  1.00  0.00    -0.002 A 
HETATM   30  C   UNL     1     -10.707   1.298 -33.484  1.00  0.00     0.042 A 
HETATM   31  C   UNL     1      -9.909   3.562 -33.681  1.00  0.00     0.014 A 
HETATM   32  C   UNL     1     -11.629   1.485 -34.521  1.00  0.00     0.030 A 
HETATM   33  N   UNL     1     -10.464   0.190 -32.707  1.00  0.00    -0.365 N 
HETATM   34  C   UNL     1     -11.667   2.739 -35.136  1.00  0.00     0.002 A 
HETATM   35  C   UNL     1     -10.821   3.766 -34.724  1.00  0.00     0.001 A 
HETATM   36  H   UNL     1     -10.961  -0.686 -32.789  1.00  0.00     0.165 HD
HETATM   37  C   UNL     1      -9.468   0.453 -31.807  1.00  0.00     0.096 A 
ENDBRANCH  27  28
ENDBRANCH   1  27
TORSDOF 7
ENDMDL
