MODEL 1
REMARK VINA RESULT:      -7.5      0.000      0.000
REMARK  4 active torsions:
REMARK  status: ('A' for Active; 'I' for Inactive)
REMARK    1  A    between atoms: C_7  and  N_8 
REMARK    2  A    between atoms: N_8  and  C_9 
REMARK    3  A    between atoms: C_9  and  C_10 
REMARK    4  A    between atoms: C_11  and  O_12 
ROOT
HETATM    1  N   UNL     1      -3.880   2.090 -31.213  1.00  0.00    -0.222 N 
HETATM    2  H   UNL     1      -4.691   2.302 -30.652  1.00  0.00     0.178 HD
ENDROOT
BRANCH   1   3
HETATM    3  C   UNL     1      -3.210   3.118 -31.752  1.00  0.00     0.679 A 
HETATM    4  N   UNL     1      -2.574   4.040 -31.050  1.00  0.00    -0.190 N 
HETATM    5  C   UNL     1      -1.991   4.962 -31.894  1.00  0.00     0.076 A 
HETATM    6  H   UNL     1      -2.512   4.076 -30.042  1.00  0.00     0.184 HD
HETATM    7  C   UNL     1      -2.322   4.555 -33.187  1.00  0.00     0.076 A 
HETATM    8  C   UNL     1      -1.224   6.091 -31.637  1.00  0.00     0.032 A 
HETATM    9  C   UNL     1      -1.918   5.251 -34.319  1.00  0.00     0.032 A 
HETATM   10  N   UNL     1      -3.075   3.410 -33.034  1.00  0.00    -0.190 N 
HETATM   11  C   UNL     1      -1.142   6.396 -34.078  1.00  0.00     0.002 A 
HETATM   12  C   UNL     1      -0.802   6.806 -32.769  1.00  0.00     0.002 A 
HETATM   13  H   UNL     1      -3.493   2.888 -33.794  1.00  0.00     0.184 HD
ENDBRANCH   1   3
BRANCH   1  14
HETATM   14  C   UNL     1      -3.358   0.726 -31.227  1.00  0.00     0.179 C 
BRANCH  14  15
HETATM   15  C   UNL     1      -4.024  -0.142 -32.262  1.00  0.00    -0.006 A 
HETATM   16  C   UNL     1      -3.601  -1.472 -32.405  1.00  0.00     0.073 A 
HETATM   17  C   UNL     1      -4.199  -2.339 -33.317  1.00  0.00     0.038 A 
HETATM   18  C   UNL     1      -5.249  -1.881 -34.112  1.00  0.00     0.022 A 
HETATM   19  C   UNL     1      -5.692  -0.569 -33.978  1.00  0.00     0.011 A 
HETATM   20 BR   UNL     1      -7.116   0.055 -35.052  1.00  0.00    -0.051 Br
HETATM   21  C   UNL     1      -5.096   0.296 -33.055  1.00  0.00     0.030 A 
BRANCH  16  22
HETATM   22  O   UNL     1      -2.575  -1.908 -31.615  1.00  0.00    -0.360 OA
HETATM   23  H   UNL     1      -2.207  -1.151 -31.122  1.00  0.00     0.217 HD
ENDBRANCH  16  22
ENDBRANCH  14  15
ENDBRANCH   1  14
TORSDOF 4
ENDMDL
MODEL 2
REMARK VINA RESULT:      -7.5      5.097      7.884
REMARK  4 active torsions:
REMARK  status: ('A' for Active; 'I' for Inactive)
REMARK    1  A    between atoms: C_7  and  N_8 
REMARK    2  A    between atoms: N_8  and  C_9 
REMARK    3  A    between atoms: C_9  and  C_10 
REMARK    4  A    between atoms: C_11  and  O_12 
ROOT
HETATM    1  N   UNL     1      -8.270   0.264 -32.759  1.00  0.00    -0.222 N 
HETATM    2  H   UNL     1      -8.130   0.040 -31.785  1.00  0.00     0.178 HD
ENDROOT
BRANCH   1   3
HETATM    3  C   UNL     1      -9.525   0.480 -33.175  1.00  0.00     0.679 A 
HETATM    4  N   UNL     1      -9.884   1.475 -33.969  1.00  0.00    -0.190 N 
HETATM    5  C   UNL     1     -11.242   1.426 -34.207  1.00  0.00     0.076 A 
HETATM    6  H   UNL     1      -9.265   2.174 -34.356  1.00  0.00     0.184 HD
HETATM    7  C   UNL     1     -11.714   0.328 -33.487  1.00  0.00     0.076 A 
HETATM    8  C   UNL     1     -12.073   2.235 -34.971  1.00  0.00     0.032 A 
HETATM    9  C   UNL     1     -13.054  -0.038 -33.471  1.00  0.00     0.032 A 
HETATM   10  N   UNL     1     -10.606  -0.216 -32.871  1.00  0.00    -0.190 N 
HETATM   11  C   UNL     1     -13.909   0.769 -34.237  1.00  0.00     0.002 A 
HETATM   12  C   UNL     1     -13.431   1.879 -34.971  1.00  0.00     0.002 A 
HETATM   13  H   UNL     1     -10.625  -1.014 -32.249  1.00  0.00     0.184 HD
ENDBRANCH   1   3
BRANCH   1  14
HETATM   14  C   UNL     1      -7.109   0.556 -33.597  1.00  0.00     0.179 C 
BRANCH  14  15
HETATM   15  C   UNL     1      -6.221  -0.644 -33.798  1.00  0.00    -0.006 A 
HETATM   16  C   UNL     1      -4.902  -0.598 -33.321  1.00  0.00     0.073 A 
HETATM   17  C   UNL     1      -4.040  -1.686 -33.442  1.00  0.00     0.038 A 
HETATM   18  C   UNL     1      -4.491  -2.856 -34.051  1.00  0.00     0.022 A 
HETATM   19  C   UNL     1      -5.799  -2.926 -34.521  1.00  0.00     0.011 A 
HETATM   20 BR   UNL     1      -6.416  -4.511 -35.346  1.00  0.00    -0.051 Br
HETATM   21  C   UNL     1      -6.665  -1.837 -34.390  1.00  0.00     0.030 A 
BRANCH  16  22
HETATM   22  O   UNL     1      -4.476   0.553 -32.721  1.00  0.00    -0.360 OA
HETATM   23  H   UNL     1      -3.521   0.665 -32.889  1.00  0.00     0.217 HD
ENDBRANCH  16  22
ENDBRANCH  14  15
ENDBRANCH   1  14
TORSDOF 4
ENDMDL
MODEL 3
REMARK VINA RESULT:      -7.4      2.976      6.837
REMARK  4 active torsions:
REMARK  status: ('A' for Active; 'I' for Inactive)
REMARK    1  A    between atoms: C_7  and  N_8 
REMARK    2  A    between atoms: N_8  and  C_9 
REMARK    3  A    between atoms: C_9  and  C_10 
REMARK    4  A    between atoms: C_11  and  O_12 
ROOT
HETATM    1  N   UNL     1      -3.475   1.001 -31.786  1.00  0.00    -0.222 N 
HETATM    2  H   UNL     1      -2.591   0.742 -31.373  1.00  0.00     0.178 HD
ENDROOT
BRANCH   1   3
HETATM    3  C   UNL     1      -4.143   0.061 -32.466  1.00  0.00     0.679 A 
HETATM    4  N   UNL     1      -3.570  -0.955 -33.089  1.00  0.00    -0.190 N 
HETATM    5  C   UNL     1      -4.526  -1.741 -33.699  1.00  0.00     0.076 A 
HETATM    6  H   UNL     1      -2.577  -1.144 -33.120  1.00  0.00     0.184 HD
HETATM    7  C   UNL     1      -5.750  -1.130 -33.422  1.00  0.00     0.076 A 
HETATM    8  C   UNL     1      -4.421  -2.902 -34.453  1.00  0.00     0.032 A 
HETATM    9  C   UNL     1      -6.959  -1.631 -33.886  1.00  0.00     0.032 A 
HETATM   10  N   UNL     1      -5.448  -0.023 -32.657  1.00  0.00    -0.190 N 
HETATM   11  C   UNL     1      -6.873  -2.805 -34.651  1.00  0.00     0.002 A 
HETATM   12  C   UNL     1      -5.634  -3.427 -34.927  1.00  0.00     0.002 A 
HETATM   13  H   UNL     1      -6.127   0.647 -32.319  1.00  0.00     0.184 HD
ENDBRANCH   1   3
BRANCH   1  14
HETATM   14  C   UNL     1      -4.073   2.288 -31.442  1.00  0.00     0.179 C 
BRANCH  14  15
HETATM   15  C   UNL     1      -4.021   3.277 -32.577  1.00  0.00    -0.006 A 
HETATM   16  C   UNL     1      -5.208   3.593 -33.255  1.00  0.00     0.073 A 
HETATM   17  C   UNL     1      -5.236   4.526 -34.290  1.00  0.00     0.038 A 
HETATM   18  C   UNL     1      -4.058   5.169 -34.667  1.00  0.00     0.022 A 
HETATM   19  C   UNL     1      -2.872   4.878 -33.999  1.00  0.00     0.011 A 
HETATM   20 BR   UNL     1      -1.273   5.749 -34.506  1.00  0.00    -0.051 Br
HETATM   21  C   UNL     1      -2.848   3.949 -32.956  1.00  0.00     0.030 A 
BRANCH  16  22
HETATM   22  O   UNL     1      -6.356   2.959 -32.870  1.00  0.00    -0.360 OA
HETATM   23  H   UNL     1      -7.116   3.376 -33.319  1.00  0.00     0.217 HD
ENDBRANCH  16  22
ENDBRANCH  14  15
ENDBRANCH   1  14
TORSDOF 4
ENDMDL
MODEL 4
REMARK VINA RESULT:      -7.4     16.538     17.453
REMARK  4 active torsions:
REMARK  status: ('A' for Active; 'I' for Inactive)
REMARK    1  A    between atoms: C_7  and  N_8 
REMARK    2  A    between atoms: N_8  and  C_9 
REMARK    3  A    between atoms: C_9  and  C_10 
REMARK    4  A    between atoms: C_11  and  O_12 
ROOT
HETATM    1  N   UNL     1      -4.820 -12.900 -41.015  1.00  0.00    -0.222 N 
HETATM    2  H   UNL     1      -5.118 -13.213 -41.927  1.00  0.00     0.178 HD
ENDROOT
BRANCH   1   3
HETATM    3  C   UNL     1      -3.613 -13.292 -40.586  1.00  0.00     0.679 A 
HETATM    4  N   UNL     1      -3.121 -13.014 -39.391  1.00  0.00    -0.190 N 
HETATM    5  C   UNL     1      -1.858 -13.553 -39.258  1.00  0.00     0.076 A 
HETATM    6  H   UNL     1      -3.591 -12.487 -38.667  1.00  0.00     0.184 HD
HETATM    7  C   UNL     1      -1.586 -14.183 -40.474  1.00  0.00     0.076 A 
HETATM    8  C   UNL     1      -0.955 -13.537 -38.203  1.00  0.00     0.032 A 
HETATM    9  C   UNL     1      -0.387 -14.836 -40.726  1.00  0.00     0.032 A 
HETATM   10  N   UNL     1      -2.707 -13.988 -41.252  1.00  0.00    -0.190 N 
HETATM   11  C   UNL     1       0.539 -14.830 -39.670  1.00  0.00     0.002 A 
HETATM   12  C   UNL     1       0.261 -14.197 -38.438  1.00  0.00     0.002 A 
HETATM   13  H   UNL     1      -2.808 -14.304 -42.208  1.00  0.00     0.184 HD
ENDBRANCH   1   3
BRANCH   1  14
HETATM   14  C   UNL     1      -5.601 -11.881 -40.319  1.00  0.00     0.179 C 
BRANCH  14  15
HETATM   15  C   UNL     1      -6.793 -12.453 -39.598  1.00  0.00    -0.006 A 
HETATM   16  C   UNL     1      -6.667 -12.790 -38.242  1.00  0.00     0.073 A 
HETATM   17  C   UNL     1      -7.741 -13.289 -37.506  1.00  0.00     0.038 A 
HETATM   18  C   UNL     1      -8.978 -13.460 -38.127  1.00  0.00     0.022 A 
HETATM   19  C   UNL     1      -9.127 -13.121 -39.468  1.00  0.00     0.011 A 
HETATM   20 BR   UNL     1     -10.802 -13.350 -40.313  1.00  0.00    -0.051 Br
HETATM   21  C   UNL     1      -8.051 -12.613 -40.201  1.00  0.00     0.030 A 
BRANCH  16  22
HETATM   22  O   UNL     1      -5.451 -12.611 -37.645  1.00  0.00    -0.360 OA
HETATM   23  H   UNL     1      -5.005 -11.846 -38.054  1.00  0.00     0.217 HD
ENDBRANCH  16  22
ENDBRANCH  14  15
ENDBRANCH   1  14
TORSDOF 4
ENDMDL
MODEL 5
REMARK VINA RESULT:      -7.2      1.814      2.218
REMARK  4 active torsions:
REMARK  status: ('A' for Active; 'I' for Inactive)
REMARK    1  A    between atoms: C_7  and  N_8 
REMARK    2  A    between atoms: N_8  and  C_9 
REMARK    3  A    between atoms: C_9  and  C_10 
REMARK    4  A    between atoms: C_11  and  O_12 
ROOT
HETATM    1  N   UNL     1      -3.906   2.520 -30.734  1.00  0.00    -0.222 N 
HETATM    2  H   UNL     1      -4.165   2.804 -29.801  1.00  0.00     0.178 HD
ENDROOT
BRANCH   1   3
HETATM    3  C   UNL     1      -3.245   3.405 -31.492  1.00  0.00     0.679 A 
HETATM    4  N   UNL     1      -2.648   4.487 -31.022  1.00  0.00    -0.190 N 
HETATM    5  C   UNL     1      -2.062   5.193 -32.053  1.00  0.00     0.076 A 
HETATM    6  H   UNL     1      -2.613   4.768 -30.052  1.00  0.00     0.184 HD
HETATM    7  C   UNL     1      -2.351   4.475 -33.215  1.00  0.00     0.076 A 
HETATM    8  C   UNL     1      -1.327   6.371 -32.063  1.00  0.00     0.032 A 
HETATM    9  C   UNL     1      -1.932   4.888 -34.474  1.00  0.00     0.032 A 
HETATM   10  N   UNL     1      -3.082   3.382 -32.804  1.00  0.00    -0.190 N 
HETATM   11  C   UNL     1      -1.188   6.078 -34.503  1.00  0.00     0.002 A 
HETATM   12  C   UNL     1      -0.891   6.802 -33.326  1.00  0.00     0.002 A 
HETATM   13  H   UNL     1      -3.468   2.680 -33.422  1.00  0.00     0.184 HD
ENDBRANCH   1   3
BRANCH   1  14
HETATM   14  C   UNL     1      -4.061   1.121 -31.123  1.00  0.00     0.179 C 
BRANCH  14  15
HETATM   15  C   UNL     1      -5.435   0.815 -31.658  1.00  0.00    -0.006 A 
HETATM   16  C   UNL     1      -6.517   0.781 -30.767  1.00  0.00     0.073 A 
HETATM   17  C   UNL     1      -7.820   0.540 -31.201  1.00  0.00     0.038 A 
HETATM   18  C   UNL     1      -8.063   0.327 -32.558  1.00  0.00     0.022 A 
HETATM   19  C   UNL     1      -7.004   0.368 -33.460  1.00  0.00     0.011 A 
HETATM   20 BR   UNL     1      -7.329   0.081 -35.300  1.00  0.00    -0.051 Br
HETATM   21  C   UNL     1      -5.700   0.619 -33.023  1.00  0.00     0.030 A 
BRANCH  16  22
HETATM   22  O   UNL     1      -6.266   0.998 -29.441  1.00  0.00    -0.360 OA
HETATM   23  H   UNL     1      -6.784   1.768 -29.140  1.00  0.00     0.217 HD
ENDBRANCH  16  22
ENDBRANCH  14  15
ENDBRANCH   1  14
TORSDOF 4
ENDMDL
MODEL 6
REMARK VINA RESULT:      -7.2      5.758      7.895
REMARK  4 active torsions:
REMARK  status: ('A' for Active; 'I' for Inactive)
REMARK    1  A    between atoms: C_7  and  N_8 
REMARK    2  A    between atoms: N_8  and  C_9 
REMARK    3  A    between atoms: C_9  and  C_10 
REMARK    4  A    between atoms: C_11  and  O_12 
ROOT
HETATM    1  N   UNL     1      -7.115   0.914 -33.401  1.00  0.00    -0.222 N 
HETATM    2  H   UNL     1      -6.586   1.710 -33.725  1.00  0.00     0.178 HD
ENDROOT
BRANCH   1   3
HETATM    3  C   UNL     1      -6.637  -0.306 -33.682  1.00  0.00     0.679 A 
HETATM    4  N   UNL     1      -7.370  -1.301 -34.152  1.00  0.00    -0.190 N 
HETATM    5  C   UNL     1      -6.588  -2.424 -34.331  1.00  0.00     0.076 A 
HETATM    6  H   UNL     1      -8.359  -1.260 -34.358  1.00  0.00     0.184 HD
HETATM    7  C   UNL     1      -5.304  -2.061 -33.922  1.00  0.00     0.076 A 
HETATM    8  C   UNL     1      -6.894  -3.695 -34.801  1.00  0.00     0.032 A 
HETATM    9  C   UNL     1      -4.233  -2.944 -33.945  1.00  0.00     0.032 A 
HETATM   10  N   UNL     1      -5.398  -0.742 -33.533  1.00  0.00    -0.190 N 
HETATM   11  C   UNL     1      -4.523  -4.234 -34.417  1.00  0.00     0.002 A 
HETATM   12  C   UNL     1      -5.822  -4.601 -34.837  1.00  0.00     0.002 A 
HETATM   13  H   UNL     1      -4.634  -0.195 -33.156  1.00  0.00     0.184 HD
ENDBRANCH   1   3
BRANCH   1  14
HETATM   14  C   UNL     1      -8.225   1.123 -32.476  1.00  0.00     0.179 C 
BRANCH  14  15
HETATM   15  C   UNL     1      -9.506   1.489 -33.177  1.00  0.00    -0.006 A 
HETATM   16  C   UNL     1      -9.550   2.667 -33.938  1.00  0.00     0.073 A 
HETATM   17  C   UNL     1     -10.692   3.045 -34.642  1.00  0.00     0.038 A 
HETATM   18  C   UNL     1     -11.827   2.236 -34.594  1.00  0.00     0.022 A 
HETATM   19  C   UNL     1     -11.801   1.058 -33.854  1.00  0.00     0.011 A 
HETATM   20 BR   UNL     1     -13.336  -0.043 -33.789  1.00  0.00    -0.051 Br
HETATM   21  C   UNL     1     -10.651   0.676 -33.157  1.00  0.00     0.030 A 
BRANCH  16  22
HETATM   22  O   UNL     1      -8.428   3.446 -33.980  1.00  0.00    -0.360 OA
HETATM   23  H   UNL     1      -8.161   3.570 -34.911  1.00  0.00     0.217 HD
ENDBRANCH  16  22
ENDBRANCH  14  15
ENDBRANCH   1  14
TORSDOF 4
ENDMDL
MODEL 7
REMARK VINA RESULT:      -7.2      3.231      7.216
REMARK  4 active torsions:
REMARK  status: ('A' for Active; 'I' for Inactive)
REMARK    1  A    between atoms: C_7  and  N_8 
REMARK    2  A    between atoms: N_8  and  C_9 
REMARK    3  A    between atoms: C_9  and  C_10 
REMARK    4  A    between atoms: C_11  and  O_12 
ROOT
HETATM    1  N   UNL     1      -4.670   2.523 -32.295  1.00  0.00    -0.222 N 
HETATM    2  H   UNL     1      -4.528   2.576 -31.297  1.00  0.00     0.178 HD
ENDROOT
BRANCH   1   3
HETATM    3  C   UNL     1      -4.922   1.319 -32.824  1.00  0.00     0.679 A 
HETATM    4  N   UNL     1      -6.052   0.996 -33.431  1.00  0.00    -0.190 N 
HETATM    5  C   UNL     1      -6.004  -0.314 -33.860  1.00  0.00     0.076 A 
HETATM    6  H   UNL     1      -6.843   1.610 -33.572  1.00  0.00     0.184 HD
HETATM    7  C   UNL     1      -4.757  -0.798 -33.461  1.00  0.00     0.076 A 
HETATM    8  C   UNL     1      -6.928  -1.095 -34.543  1.00  0.00     0.032 A 
HETATM    9  C   UNL     1      -4.345  -2.101 -33.709  1.00  0.00     0.032 A 
HETATM   10  N   UNL     1      -4.135   0.257 -32.828  1.00  0.00    -0.190 N 
HETATM   11  C   UNL     1      -5.267  -2.905 -34.397  1.00  0.00     0.002 A 
HETATM   12  C   UNL     1      -6.527  -2.414 -34.806  1.00  0.00     0.002 A 
HETATM   13  H   UNL     1      -3.220   0.214 -32.398  1.00  0.00     0.184 HD
ENDBRANCH   1   3
BRANCH   1  14
HETATM   14  C   UNL     1      -4.811   3.758 -33.061  1.00  0.00     0.179 C 
BRANCH  14  15
HETATM   15  C   UNL     1      -3.506   4.490 -33.233  1.00  0.00    -0.006 A 
HETATM   16  C   UNL     1      -3.286   5.216 -34.412  1.00  0.00     0.073 A 
HETATM   17  C   UNL     1      -2.117   5.945 -34.619  1.00  0.00     0.038 A 
HETATM   18  C   UNL     1      -1.133   5.959 -33.631  1.00  0.00     0.022 A 
HETATM   19  C   UNL     1      -1.336   5.255 -32.448  1.00  0.00     0.011 A 
HETATM   20 BR   UNL     1      -0.007   5.274 -31.105  1.00  0.00    -0.051 Br
HETATM   21  C   UNL     1      -2.514   4.532 -32.240  1.00  0.00     0.030 A 
BRANCH  16  22
HETATM   22  O   UNL     1      -4.261   5.197 -35.370  1.00  0.00    -0.360 OA
HETATM   23  H   UNL     1      -5.048   4.742 -35.015  1.00  0.00     0.217 HD
ENDBRANCH  16  22
ENDBRANCH  14  15
ENDBRANCH   1  14
TORSDOF 4
ENDMDL
MODEL 8
REMARK VINA RESULT:      -7.2      3.285      7.244
REMARK  4 active torsions:
REMARK  status: ('A' for Active; 'I' for Inactive)
REMARK    1  A    between atoms: C_7  and  N_8 
REMARK    2  A    between atoms: N_8  and  C_9 
REMARK    3  A    between atoms: C_9  and  C_10 
REMARK    4  A    between atoms: C_11  and  O_12 
ROOT
HETATM    1  N   UNL     1      -4.445   2.742 -32.416  1.00  0.00    -0.222 N 
HETATM    2  H   UNL     1      -4.283   2.806 -31.422  1.00  0.00     0.178 HD
ENDROOT
BRANCH   1   3
HETATM    3  C   UNL     1      -4.822   1.554 -32.909  1.00  0.00     0.679 A 
HETATM    4  N   UNL     1      -4.095   0.452 -32.830  1.00  0.00    -0.190 N 
HETATM    5  C   UNL     1      -4.756  -0.598 -33.435  1.00  0.00     0.076 A 
HETATM    6  H   UNL     1      -3.189   0.373 -32.390  1.00  0.00     0.184 HD
HETATM    7  C   UNL     1      -5.953  -0.064 -33.916  1.00  0.00     0.076 A 
HETATM    8  C   UNL     1      -4.410  -1.932 -33.600  1.00  0.00     0.032 A 
HETATM    9  C   UNL     1      -6.888  -0.826 -34.605  1.00  0.00     0.032 A 
HETATM   10  N   UNL     1      -5.936   1.267 -33.560  1.00  0.00    -0.190 N 
HETATM   11  C   UNL     1      -6.555  -2.178 -34.781  1.00  0.00     0.002 A 
HETATM   12  C   UNL     1      -5.345  -2.719 -34.289  1.00  0.00     0.002 A 
HETATM   13  H   UNL     1      -6.658   1.936 -33.793  1.00  0.00     0.184 HD
ENDBRANCH   1   3
BRANCH   1  14
HETATM   14  C   UNL     1      -4.478   3.964 -33.214  1.00  0.00     0.179 C 
BRANCH  14  15
HETATM   15  C   UNL     1      -3.184   4.731 -33.159  1.00  0.00    -0.006 A 
HETATM   16  C   UNL     1      -2.860   5.591 -34.218  1.00  0.00     0.073 A 
HETATM   17  C   UNL     1      -1.696   6.358 -34.212  1.00  0.00     0.038 A 
HETATM   18  C   UNL     1      -0.824   6.275 -33.127  1.00  0.00     0.022 A 
HETATM   19  C   UNL     1      -1.133   5.436 -32.060  1.00  0.00     0.011 A 
HETATM   20 BR   UNL     1       0.044   5.322 -30.586  1.00  0.00    -0.051 Br
HETATM   21  C   UNL     1      -2.306   4.676 -32.065  1.00  0.00     0.030 A 
BRANCH  16  22
HETATM   22  O   UNL     1      -3.726   5.667 -35.272  1.00  0.00    -0.360 OA
HETATM   23  H   UNL     1      -3.660   6.554 -35.676  1.00  0.00     0.217 HD
ENDBRANCH  16  22
ENDBRANCH  14  15
ENDBRANCH   1  14
TORSDOF 4
ENDMDL
MODEL 9
REMARK VINA RESULT:      -7.1      3.562      7.045
REMARK  4 active torsions:
REMARK  status: ('A' for Active; 'I' for Inactive)
REMARK    1  A    between atoms: C_7  and  N_8 
REMARK    2  A    between atoms: N_8  and  C_9 
REMARK    3  A    between atoms: C_9  and  C_10 
REMARK    4  A    between atoms: C_11  and  O_12 
ROOT
HETATM    1  N   UNL     1      -5.916   4.459 -32.501  1.00  0.00    -0.222 N 
HETATM    2  H   UNL     1      -6.310   4.648 -31.591  1.00  0.00     0.178 HD
ENDROOT
BRANCH   1   3
HETATM    3  C   UNL     1      -5.996   3.206 -32.965  1.00  0.00     0.679 A 
HETATM    4  N   UNL     1      -6.774   2.832 -33.967  1.00  0.00    -0.190 N 
HETATM    5  C   UNL     1      -6.633   1.479 -34.200  1.00  0.00     0.076 A 
HETATM    6  H   UNL     1      -7.386   3.437 -34.497  1.00  0.00     0.184 HD
HETATM    7  C   UNL     1      -5.712   1.026 -33.253  1.00  0.00     0.076 A 
HETATM    8  C   UNL     1      -7.224   0.638 -35.133  1.00  0.00     0.032 A 
HETATM    9  C   UNL     1      -5.321  -0.304 -33.166  1.00  0.00     0.032 A 
HETATM   10  N   UNL     1      -5.355   2.138 -32.521  1.00  0.00    -0.190 N 
HETATM   11  C   UNL     1      -5.908  -1.169 -34.103  1.00  0.00     0.002 A 
HETATM   12  C   UNL     1      -6.837  -0.710 -35.064  1.00  0.00     0.002 A 
HETATM   13  H   UNL     1      -4.718   2.131 -31.735  1.00  0.00     0.184 HD
ENDBRANCH   1   3
BRANCH   1  14
HETATM   14  C   UNL     1      -5.491   5.577 -33.340  1.00  0.00     0.179 C 
BRANCH  14  15
HETATM   15  C   UNL     1      -3.998   5.630 -33.526  1.00  0.00    -0.006 A 
HETATM   16  C   UNL     1      -3.454   5.246 -34.761  1.00  0.00     0.073 A 
HETATM   17  C   UNL     1      -2.085   5.307 -35.011  1.00  0.00     0.038 A 
HETATM   18  C   UNL     1      -1.223   5.762 -34.013  1.00  0.00     0.022 A 
HETATM   19  C   UNL     1      -1.744   6.158 -32.785  1.00  0.00     0.011 A 
HETATM   20 BR   UNL     1      -0.580   6.777 -31.429  1.00  0.00    -0.051 Br
HETATM   21  C   UNL     1      -3.119   6.105 -32.540  1.00  0.00     0.030 A 
BRANCH  16  22
HETATM   22  O   UNL     1      -4.310   4.809 -35.732  1.00  0.00    -0.360 OA
HETATM   23  H   UNL     1      -4.056   3.905 -35.997  1.00  0.00     0.217 HD
ENDBRANCH  16  22
ENDBRANCH  14  15
ENDBRANCH   1  14
TORSDOF 4
ENDMDL
MODEL 10
REMARK VINA RESULT:      -7.1      2.961      7.282
REMARK  4 active torsions:
REMARK  status: ('A' for Active; 'I' for Inactive)
REMARK    1  A    between atoms: C_7  and  N_8 
REMARK    2  A    between atoms: N_8  and  C_9 
REMARK    3  A    between atoms: C_9  and  C_10 
REMARK    4  A    between atoms: C_11  and  O_12 
ROOT
HETATM    1  N   UNL     1      -4.844   1.251 -32.336  1.00  0.00    -0.222 N 
HETATM    2  H   UNL     1      -5.612   1.901 -32.261  1.00  0.00     0.178 HD
ENDROOT
BRANCH   1   3
HETATM    3  C   UNL     1      -5.084   0.069 -32.920  1.00  0.00     0.679 A 
HETATM    4  N   UNL     1      -6.286  -0.358 -33.267  1.00  0.00    -0.190 N 
HETATM    5  C   UNL     1      -6.199  -1.611 -33.839  1.00  0.00     0.076 A 
HETATM    6  H   UNL     1      -7.151   0.149 -33.142  1.00  0.00     0.184 HD
HETATM    7  C   UNL     1      -4.844  -1.947 -33.811  1.00  0.00     0.076 A 
HETATM    8  C   UNL     1      -7.170  -2.456 -34.359  1.00  0.00     0.032 A 
HETATM    9  C   UNL     1      -4.362  -3.156 -34.295  1.00  0.00     0.032 A 
HETATM   10  N   UNL     1      -4.207  -0.869 -33.233  1.00  0.00    -0.190 N 
HETATM   11  C   UNL     1      -5.331  -4.024 -34.825  1.00  0.00     0.002 A 
HETATM   12  C   UNL     1      -6.702  -3.682 -34.858  1.00  0.00     0.002 A 
HETATM   13  H   UNL     1      -3.214  -0.819 -33.045  1.00  0.00     0.184 HD
ENDBRANCH   1   3
BRANCH   1  14
HETATM   14  C   UNL     1      -3.493   1.703 -32.017  1.00  0.00     0.179 C 
BRANCH  14  15
HETATM   15  C   UNL     1      -3.356   3.202 -32.055  1.00  0.00    -0.006 A 
HETATM   16  C   UNL     1      -4.015   3.968 -31.082  1.00  0.00     0.073 A 
HETATM   17  C   UNL     1      -3.901   5.356 -31.038  1.00  0.00     0.038 A 
HETATM   18  C   UNL     1      -3.112   6.011 -31.983  1.00  0.00     0.022 A 
HETATM   19  C   UNL     1      -2.441   5.268 -32.951  1.00  0.00     0.011 A 
HETATM   20 BR   UNL     1      -1.368   6.151 -34.233  1.00  0.00    -0.051 Br
HETATM   21  C   UNL     1      -2.550   3.876 -32.986  1.00  0.00     0.030 A 
BRANCH  16  22
HETATM   22  O   UNL     1      -4.780   3.313 -30.158  1.00  0.00    -0.360 OA
HETATM   23  H   UNL     1      -5.722   3.490 -30.340  1.00  0.00     0.217 HD
ENDBRANCH  16  22
ENDBRANCH  14  15
ENDBRANCH   1  14
TORSDOF 4
ENDMDL
