MODEL 1
REMARK VINA RESULT:      -7.8      0.000      0.000
REMARK  6 active torsions:
REMARK  status: ('A' for Active; 'I' for Inactive)
REMARK    1  A    between atoms: C_2  and  N_3 
REMARK    2  A    between atoms: C_2  and  C_16 
REMARK    3  A    between atoms: N_3  and  C_6 
REMARK    4  A    between atoms: C_16  and  C_17 
REMARK       I    between atoms: C_17  and  N_18 
REMARK    5  A    between atoms: N_18  and  C_19 
REMARK    6  A    between atoms: C_22  and  O_23 
ROOT
HETATM    1  C   UNL     1     -10.003  -0.260 -32.704  1.00  0.00     0.040 C 
HETATM    2  C   UNL     1      -8.741   0.538 -32.996  1.00  0.00     0.191 C 
ENDROOT
BRANCH   2   3
HETATM    3  N   UNL     1      -7.541  -0.043 -32.270  1.00  0.00    -0.063 N 
HETATM    4  H   UNL     1      -7.456   0.548 -31.419  1.00  0.00     0.278 HD
HETATM    5  H   UNL     1      -7.758  -0.980 -31.912  1.00  0.00     0.278 HD
BRANCH   3   6
HETATM    6  C   UNL     1      -6.155  -0.052 -32.886  1.00  0.00     0.221 C 
HETATM    7  C   UNL     1      -5.714  -1.381 -33.456  1.00  0.00    -0.011 A 
HETATM    8  C   UNL     1      -4.445  -1.927 -33.199  1.00  0.00     0.009 A 
HETATM    9  C   UNL     1      -6.569  -2.068 -34.347  1.00  0.00     0.011 A 
HETATM   10  C   UNL     1      -4.085  -3.160 -33.761  1.00  0.00     0.019 A 
HETATM   11  S   UNL     1      -3.217  -1.118 -32.194  1.00  0.00    -0.129 SA
HETATM   12  C   UNL     1      -4.956  -3.840 -34.610  1.00  0.00     0.001 A 
HETATM   13  C   UNL     1      -6.195  -3.289 -34.910  1.00  0.00     0.001 A 
HETATM   14  C   UNL     1      -3.760   0.597 -32.372  1.00  0.00     0.082 C 
HETATM   15  C   UNL     1      -5.207   0.686 -31.928  1.00  0.00     0.048 C 
ENDBRANCH   3   6
ENDBRANCH   2   3
BRANCH   2  16
HETATM   16  C   UNL     1      -8.930   2.006 -32.551  1.00  0.00     0.135 C 
BRANCH  16  17
HETATM   17  C   UNL     1      -9.062   2.928 -33.738  1.00  0.00     0.224 C 
HETATM   18  N   UNL     1     -10.230   3.106 -34.406  1.00  0.00    -0.327 N 
HETATM   19  H   UNL     1     -10.108   3.746 -35.188  1.00  0.00     0.169 HD
HETATM   20  O   UNL     1      -8.080   3.604 -34.076  1.00  0.00    -0.273 OA
BRANCH  18  21
HETATM   21  C   UNL     1     -11.559   2.690 -34.194  1.00  0.00     0.034 A 
HETATM   22  C   UNL     1     -12.255   1.749 -34.946  1.00  0.00     0.032 A 
HETATM   23  C   UNL     1     -13.553   1.367 -34.580  1.00  0.00     0.039 A 
HETATM   24  C   UNL     1     -14.179   1.914 -33.460  1.00  0.00     0.068 A 
HETATM   25  C   UNL     1     -13.506   2.879 -32.722  1.00  0.00     0.039 A 
HETATM   26  C   UNL     1     -12.209   3.263 -33.089  1.00  0.00     0.032 A 
BRANCH  24  27
HETATM   27  O   UNL     1     -15.429   1.428 -33.205  1.00  0.00    -0.356 OA
HETATM   28  C   UNL     1     -16.278   2.231 -32.393  1.00  0.00     0.210 C 
ENDBRANCH  24  27
ENDBRANCH  18  21
ENDBRANCH  16  17
ENDBRANCH   2  16
TORSDOF 6
ENDMDL
MODEL 2
REMARK VINA RESULT:      -7.8      4.841      8.617
REMARK  6 active torsions:
REMARK  status: ('A' for Active; 'I' for Inactive)
REMARK    1  A    between atoms: C_2  and  N_3 
REMARK    2  A    between atoms: C_2  and  C_16 
REMARK    3  A    between atoms: N_3  and  C_6 
REMARK    4  A    between atoms: C_16  and  C_17 
REMARK       I    between atoms: C_17  and  N_18 
REMARK    5  A    between atoms: N_18  and  C_19 
REMARK    6  A    between atoms: C_22  and  O_23 
ROOT
HETATM    1  C   UNL     1      -7.473   5.456 -33.538  1.00  0.00     0.040 C 
HETATM    2  C   UNL     1      -6.205   4.641 -33.742  1.00  0.00     0.191 C 
ENDROOT
BRANCH   2   3
HETATM    3  N   UNL     1      -6.149   3.460 -32.789  1.00  0.00    -0.063 N 
HETATM    4  H   UNL     1      -5.837   3.881 -31.891  1.00  0.00     0.278 HD
HETATM    5  H   UNL     1      -7.095   3.111 -32.595  1.00  0.00     0.278 HD
BRANCH   3   6
HETATM    6  C   UNL     1      -5.220   2.283 -33.020  1.00  0.00     0.221 C 
HETATM    7  C   UNL     1      -5.885   1.036 -33.557  1.00  0.00    -0.011 A 
HETATM    8  C   UNL     1      -5.639  -0.239 -33.020  1.00  0.00     0.009 A 
HETATM    9  C   UNL     1      -6.721   1.133 -34.692  1.00  0.00     0.011 A 
HETATM   10  C   UNL     1      -6.276  -1.363 -33.564  1.00  0.00     0.019 A 
HETATM   11  S   UNL     1      -4.516  -0.532 -31.669  1.00  0.00    -0.129 SA
HETATM   12  C   UNL     1      -7.126  -1.242 -34.661  1.00  0.00     0.001 A 
HETATM   13  C   UNL     1      -7.341   0.005 -35.231  1.00  0.00     0.001 A 
HETATM   14  C   UNL     1      -3.442   0.911 -31.847  1.00  0.00     0.082 C 
HETATM   15  C   UNL     1      -4.305   2.156 -31.792  1.00  0.00     0.048 C 
ENDBRANCH   3   6
ENDBRANCH   2   3
BRANCH   2  16
HETATM   16  C   UNL     1      -4.962   5.529 -33.508  1.00  0.00     0.135 C 
BRANCH  16  17
HETATM   17  C   UNL     1      -3.939   5.344 -34.602  1.00  0.00     0.224 C 
HETATM   18  N   UNL     1      -2.619   5.605 -34.428  1.00  0.00    -0.327 N 
HETATM   19  H   UNL     1      -2.099   5.441 -35.287  1.00  0.00     0.169 HD
HETATM   20  O   UNL     1      -4.309   4.866 -35.683  1.00  0.00    -0.273 OA
BRANCH  18  21
HETATM   21  C   UNL     1      -1.820   5.946 -33.318  1.00  0.00     0.034 A 
HETATM   22  C   UNL     1      -1.396   7.226 -32.974  1.00  0.00     0.032 A 
HETATM   23  C   UNL     1      -0.666   7.438 -31.796  1.00  0.00     0.039 A 
HETATM   24  C   UNL     1      -0.347   6.382 -30.942  1.00  0.00     0.068 A 
HETATM   25  C   UNL     1      -0.737   5.096 -31.294  1.00  0.00     0.039 A 
HETATM   26  C   UNL     1      -1.465   4.883 -32.473  1.00  0.00     0.032 A 
BRANCH  24  27
HETATM   27  O   UNL     1       0.340   6.738 -29.818  1.00  0.00    -0.356 OA
HETATM   28  C   UNL     1       0.486   5.744 -28.810  1.00  0.00     0.210 C 
ENDBRANCH  24  27
ENDBRANCH  18  21
ENDBRANCH  16  17
ENDBRANCH   2  16
TORSDOF 6
ENDMDL
MODEL 3
REMARK VINA RESULT:      -7.7      1.819      2.474
REMARK  6 active torsions:
REMARK  status: ('A' for Active; 'I' for Inactive)
REMARK    1  A    between atoms: C_2  and  N_3 
REMARK    2  A    between atoms: C_2  and  C_16 
REMARK    3  A    between atoms: N_3  and  C_6 
REMARK    4  A    between atoms: C_16  and  C_17 
REMARK       I    between atoms: C_17  and  N_18 
REMARK    5  A    between atoms: N_18  and  C_19 
REMARK    6  A    between atoms: C_22  and  O_23 
ROOT
HETATM    1  C   UNL     1      -7.654   2.816 -30.312  1.00  0.00     0.040 C 
HETATM    2  C   UNL     1      -7.664   2.981 -31.824  1.00  0.00     0.191 C 
ENDROOT
BRANCH   2   3
HETATM    3  N   UNL     1      -6.280   3.317 -32.352  1.00  0.00    -0.063 N 
HETATM    4  H   UNL     1      -6.471   3.866 -33.214  1.00  0.00     0.278 HD
HETATM    5  H   UNL     1      -5.809   3.978 -31.724  1.00  0.00     0.278 HD
BRANCH   3   6
HETATM    6  C   UNL     1      -5.298   2.242 -32.775  1.00  0.00     0.221 C 
HETATM    7  C   UNL     1      -5.909   1.060 -33.493  1.00  0.00    -0.011 A 
HETATM    8  C   UNL     1      -5.588  -0.268 -33.165  1.00  0.00     0.009 A 
HETATM    9  C   UNL     1      -6.772   1.288 -34.588  1.00  0.00     0.011 A 
HETATM   10  C   UNL     1      -6.178  -1.326 -33.871  1.00  0.00     0.019 A 
HETATM   11  S   UNL     1      -4.425  -0.708 -31.890  1.00  0.00    -0.129 SA
HETATM   12  C   UNL     1      -7.055  -1.081 -34.926  1.00  0.00     0.001 A 
HETATM   13  C   UNL     1      -7.344   0.227 -35.290  1.00  0.00     0.001 A 
HETATM   14  C   UNL     1      -3.429   0.800 -31.853  1.00  0.00     0.082 C 
HETATM   15  C   UNL     1      -4.353   1.974 -31.593  1.00  0.00     0.048 C 
ENDBRANCH   3   6
ENDBRANCH   2   3
BRANCH   2  16
HETATM   16  C   UNL     1      -8.639   4.111 -32.226  1.00  0.00     0.135 C 
BRANCH  16  17
HETATM   17  C   UNL     1      -8.680   4.296 -33.723  1.00  0.00     0.224 C 
HETATM   18  N   UNL     1      -9.580   3.667 -34.519  1.00  0.00    -0.327 N 
HETATM   19  H   UNL     1      -9.428   3.903 -35.497  1.00  0.00     0.169 HD
HETATM   20  O   UNL     1      -7.903   5.113 -34.240  1.00  0.00    -0.273 OA
BRANCH  18  21
HETATM   21  C   UNL     1     -10.710   2.860 -34.281  1.00  0.00     0.034 A 
HETATM   22  C   UNL     1     -12.037   3.219 -34.499  1.00  0.00     0.032 A 
HETATM   23  C   UNL     1     -13.066   2.290 -34.294  1.00  0.00     0.039 A 
HETATM   24  C   UNL     1     -12.793   0.990 -33.870  1.00  0.00     0.068 A 
HETATM   25  C   UNL     1     -11.476   0.631 -33.617  1.00  0.00     0.039 A 
HETATM   26  C   UNL     1     -10.446   1.560 -33.820  1.00  0.00     0.032 A 
BRANCH  24  27
HETATM   27  O   UNL     1     -13.888   0.185 -33.741  1.00  0.00    -0.356 OA
HETATM   28  C   UNL     1     -15.107   0.662 -34.298  1.00  0.00     0.210 C 
ENDBRANCH  24  27
ENDBRANCH  18  21
ENDBRANCH  16  17
ENDBRANCH   2  16
TORSDOF 6
ENDMDL
MODEL 4
REMARK VINA RESULT:      -7.7      2.354      3.836
REMARK  6 active torsions:
REMARK  status: ('A' for Active; 'I' for Inactive)
REMARK    1  A    between atoms: C_2  and  N_3 
REMARK    2  A    between atoms: C_2  and  C_16 
REMARK    3  A    between atoms: N_3  and  C_6 
REMARK    4  A    between atoms: C_16  and  C_17 
REMARK       I    between atoms: C_17  and  N_18 
REMARK    5  A    between atoms: N_18  and  C_19 
REMARK    6  A    between atoms: C_22  and  O_23 
ROOT
HETATM    1  C   UNL     1      -3.345   2.548 -32.059  1.00  0.00     0.040 C 
HETATM    2  C   UNL     1      -4.434   1.489 -31.979  1.00  0.00     0.191 C 
ENDROOT
BRANCH   2   3
HETATM    3  N   UNL     1      -4.358   0.530 -33.154  1.00  0.00    -0.063 N 
HETATM    4  H   UNL     1      -4.650   1.110 -33.966  1.00  0.00     0.278 HD
HETATM    5  H   UNL     1      -3.381   0.283 -33.352  1.00  0.00     0.278 HD
BRANCH   3   6
HETATM    6  C   UNL     1      -5.214  -0.720 -33.230  1.00  0.00     0.221 C 
HETATM    7  C   UNL     1      -4.460  -2.024 -33.100  1.00  0.00    -0.011 A 
HETATM    8  C   UNL     1      -4.676  -3.108 -33.968  1.00  0.00     0.009 A 
HETATM    9  C   UNL     1      -3.564  -2.200 -32.022  1.00  0.00     0.011 A 
HETATM   10  C   UNL     1      -3.956  -4.298 -33.796  1.00  0.00     0.019 A 
HETATM   11  S   UNL     1      -5.862  -3.076 -35.297  1.00  0.00    -0.129 SA
HETATM   12  C   UNL     1      -3.050  -4.440 -32.748  1.00  0.00     0.001 A 
HETATM   13  C   UNL     1      -2.860  -3.393 -31.855  1.00  0.00     0.001 A 
HETATM   14  C   UNL     1      -6.991  -1.813 -34.668  1.00  0.00     0.082 C 
HETATM   15  C   UNL     1      -6.193  -0.551 -34.402  1.00  0.00     0.048 C 
ENDBRANCH   3   6
ENDBRANCH   2   3
BRANCH   2  16
HETATM   16  C   UNL     1      -5.826   2.162 -31.975  1.00  0.00     0.135 C 
BRANCH  16  17
HETATM   17  C   UNL     1      -6.571   1.874 -30.695  1.00  0.00     0.224 C 
HETATM   18  N   UNL     1      -7.907   1.641 -30.658  1.00  0.00    -0.327 N 
HETATM   19  H   UNL     1      -8.224   1.493 -29.702  1.00  0.00     0.169 HD
HETATM   20  O   UNL     1      -5.925   1.777 -29.642  1.00  0.00    -0.273 OA
BRANCH  18  21
HETATM   21  C   UNL     1      -8.904   1.465 -31.638  1.00  0.00     0.034 A 
HETATM   22  C   UNL     1      -9.284   0.257 -32.216  1.00  0.00     0.032 A 
HETATM   23  C   UNL     1     -10.349   0.210 -33.127  1.00  0.00     0.039 A 
HETATM   24  C   UNL     1     -11.053   1.362 -33.476  1.00  0.00     0.068 A 
HETATM   25  C   UNL     1     -10.660   2.578 -32.931  1.00  0.00     0.039 A 
HETATM   26  C   UNL     1      -9.594   2.626 -32.022  1.00  0.00     0.032 A 
BRANCH  24  27
HETATM   27  O   UNL     1     -12.083   1.164 -34.349  1.00  0.00    -0.356 OA
HETATM   28  C   UNL     1     -12.534   2.299 -35.081  1.00  0.00     0.210 C 
ENDBRANCH  24  27
ENDBRANCH  18  21
ENDBRANCH  16  17
ENDBRANCH   2  16
TORSDOF 6
ENDMDL
MODEL 5
REMARK VINA RESULT:      -7.7      2.188      3.307
REMARK  6 active torsions:
REMARK  status: ('A' for Active; 'I' for Inactive)
REMARK    1  A    between atoms: C_2  and  N_3 
REMARK    2  A    between atoms: C_2  and  C_16 
REMARK    3  A    between atoms: N_3  and  C_6 
REMARK    4  A    between atoms: C_16  and  C_17 
REMARK       I    between atoms: C_17  and  N_18 
REMARK    5  A    between atoms: N_18  and  C_19 
REMARK    6  A    between atoms: C_22  and  O_23 
ROOT
HETATM    1  C   UNL     1      -4.707   3.662 -33.005  1.00  0.00     0.040 C 
HETATM    2  C   UNL     1      -5.274   3.286 -31.645  1.00  0.00     0.191 C 
ENDROOT
BRANCH   2   3
HETATM    3  N   UNL     1      -5.340   1.778 -31.473  1.00  0.00    -0.063 N 
HETATM    4  H   UNL     1      -5.078   1.632 -30.477  1.00  0.00     0.278 HD
HETATM    5  H   UNL     1      -6.312   1.453 -31.534  1.00  0.00     0.278 HD
BRANCH   3   6
HETATM    6  C   UNL     1      -4.448   0.839 -32.261  1.00  0.00     0.221 C 
HETATM    7  C   UNL     1      -5.174  -0.121 -33.175  1.00  0.00    -0.011 A 
HETATM    8  C   UNL     1      -4.865  -1.491 -33.229  1.00  0.00     0.009 A 
HETATM    9  C   UNL     1      -6.144   0.380 -34.073  1.00  0.00     0.011 A 
HETATM   10  C   UNL     1      -5.565  -2.334 -34.103  1.00  0.00     0.019 A 
HETATM   11  S   UNL     1      -3.585  -2.244 -32.246  1.00  0.00    -0.129 SA
HETATM   12  C   UNL     1      -6.543  -1.826 -34.956  1.00  0.00     0.001 A 
HETATM   13  C   UNL     1      -6.826  -0.466 -34.947  1.00  0.00     0.001 A 
HETATM   14  C   UNL     1      -2.540  -0.799 -31.949  1.00  0.00     0.082 C 
HETATM   15  C   UNL     1      -3.389   0.276 -31.300  1.00  0.00     0.048 C 
ENDBRANCH   3   6
ENDBRANCH   2   3
BRANCH   2  16
HETATM   16  C   UNL     1      -6.697   3.869 -31.487  1.00  0.00     0.135 C 
BRANCH  16  17
HETATM   17  C   UNL     1      -7.423   3.240 -30.323  1.00  0.00     0.224 C 
HETATM   18  N   UNL     1      -8.597   2.576 -30.459  1.00  0.00    -0.327 N 
HETATM   19  H   UNL     1      -8.937   2.248 -29.558  1.00  0.00     0.169 HD
HETATM   20  O   UNL     1      -6.888   3.271 -29.205  1.00  0.00    -0.273 OA
BRANCH  18  21
HETATM   21  C   UNL     1      -9.375   2.165 -31.560  1.00  0.00     0.034 A 
HETATM   22  C   UNL     1      -9.334   0.917 -32.175  1.00  0.00     0.032 A 
HETATM   23  C   UNL     1     -10.221   0.610 -33.217  1.00  0.00     0.039 A 
HETATM   24  C   UNL     1     -11.161   1.538 -33.664  1.00  0.00     0.068 A 
HETATM   25  C   UNL     1     -11.187   2.798 -33.080  1.00  0.00     0.039 A 
HETATM   26  C   UNL     1     -10.300   3.106 -32.039  1.00  0.00     0.032 A 
BRANCH  24  27
HETATM   27  O   UNL     1     -11.978   1.095 -34.663  1.00  0.00    -0.356 OA
HETATM   28  C   UNL     1     -13.165   1.842 -34.903  1.00  0.00     0.210 C 
ENDBRANCH  24  27
ENDBRANCH  18  21
ENDBRANCH  16  17
ENDBRANCH   2  16
TORSDOF 6
ENDMDL
MODEL 6
REMARK VINA RESULT:      -7.6      3.810      6.828
REMARK  6 active torsions:
REMARK  status: ('A' for Active; 'I' for Inactive)
REMARK    1  A    between atoms: C_2  and  N_3 
REMARK    2  A    between atoms: C_2  and  C_16 
REMARK    3  A    between atoms: N_3  and  C_6 
REMARK    4  A    between atoms: C_16  and  C_17 
REMARK       I    between atoms: C_17  and  N_18 
REMARK    5  A    between atoms: N_18  and  C_19 
REMARK    6  A    between atoms: C_22  and  O_23 
ROOT
HETATM    1  C   UNL     1      -8.018   3.747 -31.490  1.00  0.00     0.040 C 
HETATM    2  C   UNL     1      -7.925   2.654 -32.543  1.00  0.00     0.191 C 
ENDROOT
BRANCH   2   3
HETATM    3  N   UNL     1      -7.139   1.460 -32.030  1.00  0.00    -0.063 N 
HETATM    4  H   UNL     1      -7.067   1.633 -31.007  1.00  0.00     0.278 HD
HETATM    5  H   UNL     1      -7.698   0.602 -32.108  1.00  0.00     0.278 HD
BRANCH   3   6
HETATM    6  C   UNL     1      -5.721   1.175 -32.485  1.00  0.00     0.221 C 
HETATM    7  C   UNL     1      -5.515  -0.173 -33.139  1.00  0.00    -0.011 A 
HETATM    8  C   UNL     1      -4.445  -1.018 -32.800  1.00  0.00     0.009 A 
HETATM    9  C   UNL     1      -6.375  -0.571 -34.186  1.00  0.00     0.011 A 
HETATM   10  C   UNL     1      -4.296  -2.254 -33.446  1.00  0.00     0.019 A 
HETATM   11  S   UNL     1      -3.211  -0.597 -31.586  1.00  0.00    -0.129 SA
HETATM   12  C   UNL     1      -5.177  -2.645 -34.452  1.00  0.00     0.001 A 
HETATM   13  C   UNL     1      -6.211  -1.799 -34.829  1.00  0.00     0.001 A 
HETATM   14  C   UNL     1      -3.331   1.205 -31.642  1.00  0.00     0.082 C 
HETATM   15  C   UNL     1      -4.768   1.595 -31.355  1.00  0.00     0.048 C 
ENDBRANCH   3   6
ENDBRANCH   2   3
BRANCH   2  16
HETATM   16  C   UNL     1      -7.231   3.200 -33.812  1.00  0.00     0.135 C 
BRANCH  16  17
HETATM   17  C   UNL     1      -7.225   4.708 -33.829  1.00  0.00     0.224 C 
HETATM   18  N   UNL     1      -6.162   5.445 -33.421  1.00  0.00    -0.327 N 
HETATM   19  H   UNL     1      -6.362   6.441 -33.485  1.00  0.00     0.169 HD
HETATM   20  O   UNL     1      -8.206   5.299 -34.302  1.00  0.00    -0.273 OA
BRANCH  18  21
HETATM   21  C   UNL     1      -4.842   5.139 -33.033  1.00  0.00     0.034 A 
HETATM   22  C   UNL     1      -3.825   4.685 -33.867  1.00  0.00     0.032 A 
HETATM   23  C   UNL     1      -2.529   4.493 -33.367  1.00  0.00     0.039 A 
HETATM   24  C   UNL     1      -2.225   4.749 -32.030  1.00  0.00     0.068 A 
HETATM   25  C   UNL     1      -3.240   5.170 -31.181  1.00  0.00     0.039 A 
HETATM   26  C   UNL     1      -4.537   5.361 -31.681  1.00  0.00     0.032 A 
BRANCH  24  27
HETATM   27  O   UNL     1      -0.919   4.547 -31.688  1.00  0.00    -0.356 OA
HETATM   28  C   UNL     1      -0.440   5.237 -30.539  1.00  0.00     0.210 C 
ENDBRANCH  24  27
ENDBRANCH  18  21
ENDBRANCH  16  17
ENDBRANCH   2  16
TORSDOF 6
ENDMDL
MODEL 7
REMARK VINA RESULT:      -7.6      2.083      2.748
REMARK  6 active torsions:
REMARK  status: ('A' for Active; 'I' for Inactive)
REMARK    1  A    between atoms: C_2  and  N_3 
REMARK    2  A    between atoms: C_2  and  C_16 
REMARK    3  A    between atoms: N_3  and  C_6 
REMARK    4  A    between atoms: C_16  and  C_17 
REMARK       I    between atoms: C_17  and  N_18 
REMARK    5  A    between atoms: N_18  and  C_19 
REMARK    6  A    between atoms: C_22  and  O_23 
ROOT
HETATM    1  C   UNL     1      -8.272   2.704 -31.170  1.00  0.00     0.040 C 
HETATM    2  C   UNL     1      -8.672   1.272 -31.490  1.00  0.00     0.191 C 
ENDROOT
BRANCH   2   3
HETATM    3  N   UNL     1      -7.482   0.333 -31.396  1.00  0.00    -0.063 N 
HETATM    4  H   UNL     1      -7.103   0.508 -30.443  1.00  0.00     0.278 HD
HETATM    5  H   UNL     1      -7.797  -0.644 -31.373  1.00  0.00     0.278 HD
BRANCH   3   6
HETATM    6  C   UNL     1      -6.289   0.451 -32.325  1.00  0.00     0.221 C 
HETATM    7  C   UNL     1      -5.987  -0.784 -33.143  1.00  0.00    -0.011 A 
HETATM    8  C   UNL     1      -4.688  -1.306 -33.269  1.00  0.00     0.009 A 
HETATM    9  C   UNL     1      -7.027  -1.396 -33.879  1.00  0.00     0.011 A 
HETATM   10  C   UNL     1      -4.465  -2.449 -34.049  1.00  0.00     0.019 A 
HETATM   11  S   UNL     1      -3.260  -0.571 -32.499  1.00  0.00    -0.129 SA
HETATM   12  C   UNL     1      -5.510  -3.059 -34.739  1.00  0.00     0.001 A 
HETATM   13  C   UNL     1      -6.790  -2.527 -34.661  1.00  0.00     0.001 A 
HETATM   14  C   UNL     1      -3.847   1.130 -32.328  1.00  0.00     0.082 C 
HETATM   15  C   UNL     1      -5.143   1.109 -31.540  1.00  0.00     0.048 C 
ENDBRANCH   3   6
ENDBRANCH   2   3
BRANCH   2  16
HETATM   16  C   UNL     1      -9.257   1.194 -32.919  1.00  0.00     0.135 C 
BRANCH  16  17
HETATM   17  C   UNL     1     -10.515   0.362 -32.953  1.00  0.00     0.224 C 
HETATM   18  N   UNL     1     -11.711   0.852 -33.364  1.00  0.00    -0.327 N 
HETATM   19  H   UNL     1     -12.439   0.145 -33.290  1.00  0.00     0.169 HD
HETATM   20  O   UNL     1     -10.439  -0.840 -32.660  1.00  0.00    -0.273 OA
BRANCH  18  21
HETATM   21  C   UNL     1     -12.130   2.063 -33.950  1.00  0.00     0.034 A 
HETATM   22  C   UNL     1     -12.532   3.209 -33.270  1.00  0.00     0.032 A 
HETATM   23  C   UNL     1     -12.852   4.377 -33.977  1.00  0.00     0.039 A 
HETATM   24  C   UNL     1     -12.778   4.424 -35.368  1.00  0.00     0.068 A 
HETATM   25  C   UNL     1     -12.411   3.276 -36.058  1.00  0.00     0.039 A 
HETATM   26  C   UNL     1     -12.092   2.107 -35.353  1.00  0.00     0.032 A 
BRANCH  24  27
HETATM   27  O   UNL     1     -13.088   5.633 -35.921  1.00  0.00    -0.356 OA
HETATM   28  C   UNL     1     -12.672   6.793 -35.208  1.00  0.00     0.210 C 
ENDBRANCH  24  27
ENDBRANCH  18  21
ENDBRANCH  16  17
ENDBRANCH   2  16
TORSDOF 6
ENDMDL
MODEL 8
REMARK VINA RESULT:      -7.6      2.708      5.422
REMARK  6 active torsions:
REMARK  status: ('A' for Active; 'I' for Inactive)
REMARK    1  A    between atoms: C_2  and  N_3 
REMARK    2  A    between atoms: C_2  and  C_16 
REMARK    3  A    between atoms: N_3  and  C_6 
REMARK    4  A    between atoms: C_16  and  C_17 
REMARK       I    between atoms: C_17  and  N_18 
REMARK    5  A    between atoms: N_18  and  C_19 
REMARK    6  A    between atoms: C_22  and  O_23 
ROOT
HETATM    1  C   UNL     1      -9.896  -0.017 -32.709  1.00  0.00     0.040 C 
HETATM    2  C   UNL     1      -8.748   0.938 -32.422  1.00  0.00     0.191 C 
ENDROOT
BRANCH   2   3
HETATM    3  N   UNL     1      -7.524   0.194 -31.917  1.00  0.00    -0.063 N 
HETATM    4  H   UNL     1      -7.305   0.662 -31.015  1.00  0.00     0.278 HD
HETATM    5  H   UNL     1      -7.772  -0.767 -31.657  1.00  0.00     0.278 HD
BRANCH   3   6
HETATM    6  C   UNL     1      -6.216   0.182 -32.685  1.00  0.00     0.221 C 
HETATM    7  C   UNL     1      -5.881  -1.127 -33.363  1.00  0.00    -0.011 A 
HETATM    8  C   UNL     1      -4.608  -1.717 -33.275  1.00  0.00     0.009 A 
HETATM    9  C   UNL     1      -6.849  -1.748 -34.183  1.00  0.00     0.011 A 
HETATM   10  C   UNL     1      -4.350  -2.928 -33.932  1.00  0.00     0.019 A 
HETATM   11  S   UNL     1      -3.252  -0.988 -32.379  1.00  0.00    -0.129 SA
HETATM   12  C   UNL     1      -5.330  -3.543 -34.708  1.00  0.00     0.001 A 
HETATM   13  C   UNL     1      -6.577  -2.948 -34.841  1.00  0.00     0.001 A 
HETATM   14  C   UNL     1      -3.761   0.746 -32.414  1.00  0.00     0.082 C 
HETATM   15  C   UNL     1      -5.146   0.848 -31.806  1.00  0.00     0.048 C 
ENDBRANCH   3   6
ENDBRANCH   2   3
BRANCH   2  16
HETATM   16  C   UNL     1      -9.176   1.974 -31.358  1.00  0.00     0.135 C 
BRANCH  16  17
HETATM   17  C   UNL     1      -9.650   3.256 -31.997  1.00  0.00     0.224 C 
HETATM   18  N   UNL     1      -8.800   4.224 -32.424  1.00  0.00    -0.327 N 
HETATM   19  H   UNL     1      -9.313   5.018 -32.802  1.00  0.00     0.169 HD
HETATM   20  O   UNL     1     -10.863   3.401 -32.206  1.00  0.00    -0.273 OA
BRANCH  18  21
HETATM   21  C   UNL     1      -7.400   4.322 -32.546  1.00  0.00     0.034 A 
HETATM   22  C   UNL     1      -6.507   4.646 -31.529  1.00  0.00     0.032 A 
HETATM   23  C   UNL     1      -5.125   4.634 -31.768  1.00  0.00     0.039 A 
HETATM   24  C   UNL     1      -4.611   4.297 -33.020  1.00  0.00     0.068 A 
HETATM   25  C   UNL     1      -5.494   4.005 -34.050  1.00  0.00     0.039 A 
HETATM   26  C   UNL     1      -6.876   4.020 -33.813  1.00  0.00     0.032 A 
BRANCH  24  27
HETATM   27  O   UNL     1      -3.248   4.296 -33.100  1.00  0.00    -0.356 OA
HETATM   28  C   UNL     1      -2.531   4.239 -31.872  1.00  0.00     0.210 C 
ENDBRANCH  24  27
ENDBRANCH  18  21
ENDBRANCH  16  17
ENDBRANCH   2  16
TORSDOF 6
ENDMDL
MODEL 9
REMARK VINA RESULT:      -7.6      5.700      9.773
REMARK  6 active torsions:
REMARK  status: ('A' for Active; 'I' for Inactive)
REMARK    1  A    between atoms: C_2  and  N_3 
REMARK    2  A    between atoms: C_2  and  C_16 
REMARK    3  A    between atoms: N_3  and  C_6 
REMARK    4  A    between atoms: C_16  and  C_17 
REMARK       I    between atoms: C_17  and  N_18 
REMARK    5  A    between atoms: N_18  and  C_19 
REMARK    6  A    between atoms: C_22  and  O_23 
ROOT
HETATM    1  C   UNL     1      -5.027   3.425 -30.523  1.00  0.00     0.040 C 
HETATM    2  C   UNL     1      -4.277   3.939 -31.743  1.00  0.00     0.191 C 
ENDROOT
BRANCH   2   3
HETATM    3  N   UNL     1      -4.688   3.190 -32.998  1.00  0.00    -0.063 N 
HETATM    4  H   UNL     1      -5.004   3.942 -33.643  1.00  0.00     0.278 HD
HETATM    5  H   UNL     1      -3.865   2.784 -33.459  1.00  0.00     0.278 HD
BRANCH   3   6
HETATM    6  C   UNL     1      -5.812   2.172 -32.996  1.00  0.00     0.221 C 
HETATM    7  C   UNL     1      -5.379   0.737 -33.193  1.00  0.00    -0.011 A 
HETATM    8  C   UNL     1      -6.025  -0.128 -34.093  1.00  0.00     0.009 A 
HETATM    9  C   UNL     1      -4.342   0.211 -32.390  1.00  0.00     0.011 A 
HETATM   10  C   UNL     1      -5.588  -1.453 -34.229  1.00  0.00     0.019 A 
HETATM   11  S   UNL     1      -7.425   0.357 -35.083  1.00  0.00    -0.129 SA
HETATM   12  C   UNL     1      -4.539  -1.942 -33.453  1.00  0.00     0.001 A 
HETATM   13  C   UNL     1      -3.922  -1.112 -32.526  1.00  0.00     0.001 A 
HETATM   14  C   UNL     1      -8.062   1.710 -34.067  1.00  0.00     0.082 C 
HETATM   15  C   UNL     1      -6.950   2.722 -33.871  1.00  0.00     0.048 C 
ENDBRANCH   3   6
ENDBRANCH   2   3
BRANCH   2  16
HETATM   16  C   UNL     1      -2.754   3.770 -31.537  1.00  0.00     0.135 C 
BRANCH  16  17
HETATM   17  C   UNL     1      -1.971   4.535 -32.574  1.00  0.00     0.224 C 
HETATM   18  N   UNL     1      -1.070   5.497 -32.255  1.00  0.00    -0.327 N 
HETATM   19  H   UNL     1      -0.666   5.911 -33.092  1.00  0.00     0.169 HD
HETATM   20  O   UNL     1      -2.104   4.223 -33.766  1.00  0.00    -0.273 OA
BRANCH  18  21
HETATM   21  C   UNL     1      -0.513   5.964 -31.047  1.00  0.00     0.034 A 
HETATM   22  C   UNL     1      -0.685   7.231 -30.498  1.00  0.00     0.032 A 
HETATM   23  C   UNL     1      -0.136   7.542 -29.246  1.00  0.00     0.039 A 
HETATM   24  C   UNL     1       0.590   6.598 -28.520  1.00  0.00     0.068 A 
HETATM   25  C   UNL     1       0.796   5.341 -29.074  1.00  0.00     0.039 A 
HETATM   26  C   UNL     1       0.250   5.030 -30.327  1.00  0.00     0.032 A 
BRANCH  24  27
HETATM   27  O   UNL     1       1.039   7.028 -27.305  1.00  0.00    -0.356 OA
HETATM   28  C   UNL     1       1.580   8.344 -27.247  1.00  0.00     0.210 C 
ENDBRANCH  24  27
ENDBRANCH  18  21
ENDBRANCH  16  17
ENDBRANCH   2  16
TORSDOF 6
ENDMDL
MODEL 10
REMARK VINA RESULT:      -7.5      3.854      6.883
REMARK  6 active torsions:
REMARK  status: ('A' for Active; 'I' for Inactive)
REMARK    1  A    between atoms: C_2  and  N_3 
REMARK    2  A    between atoms: C_2  and  C_16 
REMARK    3  A    between atoms: N_3  and  C_6 
REMARK    4  A    between atoms: C_16  and  C_17 
REMARK       I    between atoms: C_17  and  N_18 
REMARK    5  A    between atoms: N_18  and  C_19 
REMARK    6  A    between atoms: C_22  and  O_23 
ROOT
HETATM    1  C   UNL     1      -8.701   0.971 -32.183  1.00  0.00     0.040 C 
HETATM    2  C   UNL     1      -7.250   1.403 -32.329  1.00  0.00     0.191 C 
ENDROOT
BRANCH   2   3
HETATM    3  N   UNL     1      -6.314   0.442 -31.617  1.00  0.00    -0.063 N 
HETATM    4  H   UNL     1      -6.020   0.966 -30.768  1.00  0.00     0.278 HD
HETATM    5  H   UNL     1      -6.836  -0.364 -31.254  1.00  0.00     0.278 HD
BRANCH   3   6
HETATM    6  C   UNL     1      -5.024  -0.043 -32.251  1.00  0.00     0.221 C 
HETATM    7  C   UNL     1      -5.175  -1.210 -33.200  1.00  0.00    -0.011 A 
HETATM    8  C   UNL     1      -4.330  -2.332 -33.154  1.00  0.00     0.009 A 
HETATM    9  C   UNL     1      -6.143  -1.145 -34.227  1.00  0.00     0.011 A 
HETATM   10  C   UNL     1      -4.508  -3.382 -34.066  1.00  0.00     0.019 A 
HETATM   11  S   UNL     1      -2.988  -2.500 -31.995  1.00  0.00    -0.129 SA
HETATM   12  C   UNL     1      -5.493  -3.315 -35.050  1.00  0.00     0.001 A 
HETATM   13  C   UNL     1      -6.304  -2.192 -35.136  1.00  0.00     0.001 A 
HETATM   14  C   UNL     1      -2.670  -0.756 -31.642  1.00  0.00     0.082 C 
HETATM   15  C   UNL     1      -3.958  -0.128 -31.147  1.00  0.00     0.048 C 
ENDBRANCH   3   6
ENDBRANCH   2   3
BRANCH   2  16
HETATM   16  C   UNL     1      -7.057   2.817 -31.735  1.00  0.00     0.135 C 
BRANCH  16  17
HETATM   17  C   UNL     1      -6.224   2.777 -30.478  1.00  0.00     0.224 C 
HETATM   18  N   UNL     1      -4.951   3.241 -30.424  1.00  0.00    -0.327 N 
HETATM   19  H   UNL     1      -4.552   3.103 -29.498  1.00  0.00     0.169 HD
HETATM   20  O   UNL     1      -6.749   2.368 -29.432  1.00  0.00    -0.273 OA
BRANCH  18  21
HETATM   21  C   UNL     1      -4.119   3.944 -31.318  1.00  0.00     0.034 A 
HETATM   22  C   UNL     1      -3.310   3.384 -32.301  1.00  0.00     0.032 A 
HETATM   23  C   UNL     1      -2.588   4.205 -33.179  1.00  0.00     0.039 A 
HETATM   24  C   UNL     1      -2.661   5.595 -33.094  1.00  0.00     0.068 A 
HETATM   25  C   UNL     1      -3.439   6.165 -32.095  1.00  0.00     0.039 A 
HETATM   26  C   UNL     1      -4.159   5.344 -31.215  1.00  0.00     0.032 A 
BRANCH  24  27
HETATM   27  O   UNL     1      -1.931   6.268 -34.031  1.00  0.00    -0.356 OA
HETATM   28  C   UNL     1      -1.132   5.484 -34.909  1.00  0.00     0.210 C 
ENDBRANCH  24  27
ENDBRANCH  18  21
ENDBRANCH  16  17
ENDBRANCH   2  16
TORSDOF 6
ENDMDL
