MODEL 1
REMARK VINA RESULT:      -9.2      0.000      0.000
REMARK  3 active torsions:
REMARK  status: ('A' for Active; 'I' for Inactive)
REMARK    1  A    between atoms: C_7  and  C_8 
REMARK    2  A    between atoms: N_11  and  C_13 
REMARK    3  A    between atoms: C_13  and  C_14 
ROOT
HETATM    1  C   UNL     1      -3.533   5.316 -34.463  1.00  0.00     0.080 A 
HETATM    2  O   UNL     1      -3.533   6.413 -33.651  1.00  0.00    -0.302 OA
HETATM    3  C   UNL     1      -2.237   6.826 -33.550  1.00  0.00     0.155 A 
HETATM    4  C   UNL     1      -1.973   7.970 -32.754  1.00  0.00     0.125 C 
HETATM    5  N   UNL     1      -1.774   8.916 -32.113  1.00  0.00    -0.189 NA
HETATM    6  C   UNL     1      -1.410   6.013 -34.292  1.00  0.00     0.051 A 
HETATM    7  C   UNL     1      -2.249   5.034 -34.883  1.00  0.00     0.038 A 
ENDROOT
BRANCH   1   8
HETATM    8  C   UNL     1      -4.850   4.686 -34.728  1.00  0.00     0.299 C 
BRANCH   8   9
HETATM    9  N   UNL     1      -5.473   3.994 -33.523  1.00  0.00    -0.065 N 
HETATM   10  C   UNL     1      -6.374   2.850 -33.928  1.00  0.00     0.236 C 
HETATM   11  C   UNL     1      -6.910   2.144 -32.692  1.00  0.00     0.037 C 
HETATM   12  C   UNL     1      -5.761   1.574 -31.836  1.00  0.00     0.024 C 
HETATM   13  C   UNL     1      -4.918   2.772 -31.395  1.00  0.00     0.037 C 
HETATM   14  C   UNL     1      -4.384   3.594 -32.561  1.00  0.00     0.236 C 
HETATM   15  H   UNL     1      -6.069   4.703 -33.076  1.00  0.00     0.280 HD
BRANCH  12  16
HETATM   16  C   UNL     1      -5.039   0.448 -32.565  1.00  0.00    -0.026 A 
HETATM   17  C   UNL     1      -5.528  -0.652 -33.366  1.00  0.00    -0.001 A 
HETATM   18  C   UNL     1      -4.428  -1.465 -33.669  1.00  0.00     0.045 A 
HETATM   19  C   UNL     1      -6.789  -1.072 -33.857  1.00  0.00     0.017 A 
HETATM   20  C   UNL     1      -4.532  -2.682 -34.353  1.00  0.00     0.072 A 
HETATM   21  N   UNL     1      -3.304  -0.830 -33.205  1.00  0.00    -0.365 N 
HETATM   22  C   UNL     1      -5.798  -3.079 -34.768  1.00  0.00     0.118 A 
HETATM   23  C   UNL     1      -6.913  -2.289 -34.543  1.00  0.00     0.043 A 
HETATM   24  F   UNL     1      -5.941  -4.245 -35.409  1.00  0.00    -0.206 F 
HETATM   25  C   UNL     1      -3.657   0.317 -32.556  1.00  0.00     0.096 A 
HETATM   26  H   UNL     1      -2.358  -1.163 -33.338  1.00  0.00     0.165 HD
ENDBRANCH  12  16
ENDBRANCH   8   9
ENDBRANCH   1   8
TORSDOF 3
ENDMDL
MODEL 2
REMARK VINA RESULT:      -8.8      1.708      2.180
REMARK  3 active torsions:
REMARK  status: ('A' for Active; 'I' for Inactive)
REMARK    1  A    between atoms: C_7  and  C_8 
REMARK    2  A    between atoms: N_11  and  C_13 
REMARK    3  A    between atoms: C_13  and  C_14 
ROOT
HETATM    1  C   UNL     1      -3.030   4.958 -33.472  1.00  0.00     0.080 A 
HETATM    2  O   UNL     1      -2.303   5.401 -32.404  1.00  0.00    -0.302 OA
HETATM    3  C   UNL     1      -1.161   5.950 -32.908  1.00  0.00     0.155 A 
HETATM    4  C   UNL     1      -0.231   6.494 -31.985  1.00  0.00     0.125 C 
HETATM    5  N   UNL     1       0.511   6.949 -31.219  1.00  0.00    -0.189 NA
HETATM    6  C   UNL     1      -1.151   5.872 -34.282  1.00  0.00     0.051 A 
HETATM    7  C   UNL     1      -2.361   5.229 -34.648  1.00  0.00     0.038 A 
ENDROOT
BRANCH   1   8
HETATM    8  C   UNL     1      -4.333   4.319 -33.168  1.00  0.00     0.299 C 
BRANCH   8   9
HETATM    9  N   UNL     1      -4.316   3.391 -31.961  1.00  0.00    -0.065 N 
HETATM   10  C   UNL     1      -5.709   3.084 -31.460  1.00  0.00     0.236 C 
HETATM   11  C   UNL     1      -5.643   2.095 -30.305  1.00  0.00     0.037 C 
HETATM   12  C   UNL     1      -4.984   0.772 -30.744  1.00  0.00     0.024 C 
HETATM   13  C   UNL     1      -3.560   1.123 -31.176  1.00  0.00     0.037 C 
HETATM   14  C   UNL     1      -3.507   2.162 -32.289  1.00  0.00     0.236 C 
HETATM   15  H   UNL     1      -3.837   3.916 -31.216  1.00  0.00     0.280 HD
BRANCH  12  16
HETATM   16  C   UNL     1      -5.855   0.034 -31.753  1.00  0.00    -0.026 A 
HETATM   17  C   UNL     1      -5.550  -1.000 -32.716  1.00  0.00    -0.001 A 
HETATM   18  C   UNL     1      -6.705  -1.206 -33.483  1.00  0.00     0.045 A 
HETATM   19  C   UNL     1      -4.414  -1.780 -33.048  1.00  0.00     0.017 A 
HETATM   20  C   UNL     1      -6.757  -2.072 -34.582  1.00  0.00     0.072 A 
HETATM   21  N   UNL     1      -7.706  -0.447 -32.934  1.00  0.00    -0.365 N 
HETATM   22  C   UNL     1      -5.602  -2.775 -34.901  1.00  0.00     0.118 A 
HETATM   23  C   UNL     1      -4.448  -2.651 -34.146  1.00  0.00     0.043 A 
HETATM   24  F   UNL     1      -5.608  -3.598 -35.957  1.00  0.00    -0.206 F 
HETATM   25  C   UNL     1      -7.213   0.287 -31.895  1.00  0.00     0.096 A 
HETATM   26  H   UNL     1      -8.668  -0.446 -33.251  1.00  0.00     0.165 HD
ENDBRANCH  12  16
ENDBRANCH   8   9
ENDBRANCH   1   8
TORSDOF 3
ENDMDL
MODEL 3
REMARK VINA RESULT:      -8.7      2.010      2.249
REMARK  3 active torsions:
REMARK  status: ('A' for Active; 'I' for Inactive)
REMARK    1  A    between atoms: C_7  and  C_8 
REMARK    2  A    between atoms: N_11  and  C_13 
REMARK    3  A    between atoms: C_13  and  C_14 
ROOT
HETATM    1  C   UNL     1      -2.943   4.908 -32.119  1.00  0.00     0.080 A 
HETATM    2  O   UNL     1      -1.675   4.409 -32.032  1.00  0.00    -0.302 OA
HETATM    3  C   UNL     1      -0.985   5.236 -31.195  1.00  0.00     0.155 A 
HETATM    4  C   UNL     1       0.374   4.920 -30.936  1.00  0.00     0.125 C 
HETATM    5  N   UNL     1       1.478   4.640 -30.720  1.00  0.00    -0.189 NA
HETATM    6  C   UNL     1      -1.795   6.251 -30.740  1.00  0.00     0.051 A 
HETATM    7  C   UNL     1      -3.063   6.040 -31.338  1.00  0.00     0.038 A 
ENDROOT
BRANCH   1   8
HETATM    8  C   UNL     1      -3.893   4.164 -32.981  1.00  0.00     0.299 C 
BRANCH   8   9
HETATM    9  N   UNL     1      -4.950   3.373 -32.222  1.00  0.00    -0.065 N 
HETATM   10  C   UNL     1      -5.789   2.517 -33.142  1.00  0.00     0.236 C 
HETATM   11  C   UNL     1      -6.777   1.691 -32.331  1.00  0.00     0.037 C 
HETATM   12  C   UNL     1      -6.043   0.763 -31.343  1.00  0.00     0.024 C 
HETATM   13  C   UNL     1      -5.265   1.675 -30.393  1.00  0.00     0.037 C 
HETATM   14  C   UNL     1      -4.290   2.598 -31.111  1.00  0.00     0.236 C 
HETATM   15  H   UNL     1      -5.578   4.077 -31.810  1.00  0.00     0.280 HD
BRANCH  12  16
HETATM   16  C   UNL     1      -5.252  -0.310 -32.080  1.00  0.00    -0.026 A 
HETATM   17  C   UNL     1      -5.625  -1.237 -33.125  1.00  0.00    -0.001 A 
HETATM   18  C   UNL     1      -4.536  -2.095 -33.325  1.00  0.00     0.045 A 
HETATM   19  C   UNL     1      -6.775  -1.466 -33.920  1.00  0.00     0.017 A 
HETATM   20  C   UNL     1      -4.565  -3.189 -34.199  1.00  0.00     0.072 A 
HETATM   21  N   UNL     1      -3.501  -1.637 -32.551  1.00  0.00    -0.365 N 
HETATM   22  C   UNL     1      -5.735  -3.405 -34.917  1.00  0.00     0.118 A 
HETATM   23  C   UNL     1      -6.823  -2.557 -34.799  1.00  0.00     0.043 A 
HETATM   24  F   UNL     1      -5.808  -4.452 -35.749  1.00  0.00    -0.206 F 
HETATM   25  C   UNL     1      -3.914  -0.566 -31.814  1.00  0.00     0.096 A 
HETATM   26  H   UNL     1      -2.569  -2.033 -32.542  1.00  0.00     0.165 HD
ENDBRANCH  12  16
ENDBRANCH   8   9
ENDBRANCH   1   8
TORSDOF 3
ENDMDL
MODEL 4
REMARK VINA RESULT:      -8.6      3.847      6.858
REMARK  3 active torsions:
REMARK  status: ('A' for Active; 'I' for Inactive)
REMARK    1  A    between atoms: C_7  and  C_8 
REMARK    2  A    between atoms: N_11  and  C_13 
REMARK    3  A    between atoms: C_13  and  C_14 
ROOT
HETATM    1  C   UNL     1      -4.697  -1.071 -33.654  1.00  0.00     0.080 A 
HETATM    2  O   UNL     1      -4.722  -2.402 -33.954  1.00  0.00    -0.302 OA
HETATM    3  C   UNL     1      -5.893  -2.633 -34.614  1.00  0.00     0.155 A 
HETATM    4  C   UNL     1      -6.153  -3.960 -35.043  1.00  0.00     0.125 C 
HETATM    5  N   UNL     1      -6.344  -5.046 -35.402  1.00  0.00    -0.189 NA
HETATM    6  C   UNL     1      -6.612  -1.468 -34.748  1.00  0.00     0.051 A 
HETATM    7  C   UNL     1      -5.839  -0.455 -34.126  1.00  0.00     0.038 A 
ENDROOT
BRANCH   1   8
HETATM    8  C   UNL     1      -3.501  -0.576 -32.930  1.00  0.00     0.299 C 
BRANCH   8   9
HETATM    9  N   UNL     1      -3.808   0.365 -31.772  1.00  0.00    -0.065 N 
HETATM   10  C   UNL     1      -3.787   1.815 -32.197  1.00  0.00     0.236 C 
HETATM   11  C   UNL     1      -4.173   2.709 -31.027  1.00  0.00     0.037 C 
HETATM   12  C   UNL     1      -5.590   2.374 -30.519  1.00  0.00     0.024 C 
HETATM   13  C   UNL     1      -5.543   0.923 -30.038  1.00  0.00     0.037 C 
HETATM   14  C   UNL     1      -5.100  -0.055 -31.119  1.00  0.00     0.236 C 
HETATM   15  H   UNL     1      -3.038   0.236 -31.101  1.00  0.00     0.280 HD
BRANCH  12  16
HETATM   16  C   UNL     1      -6.644   2.728 -31.559  1.00  0.00    -0.026 A 
HETATM   17  C   UNL     1      -7.817   2.021 -32.024  1.00  0.00    -0.001 A 
HETATM   18  C   UNL     1      -8.342   2.751 -33.099  1.00  0.00     0.045 A 
HETATM   19  C   UNL     1      -8.492   0.826 -31.671  1.00  0.00     0.017 A 
HETATM   20  C   UNL     1      -9.431   2.319 -33.866  1.00  0.00     0.072 A 
HETATM   21  N   UNL     1      -7.621   3.912 -33.201  1.00  0.00    -0.365 N 
HETATM   22  C   UNL     1     -10.026   1.113 -33.515  1.00  0.00     0.118 A 
HETATM   23  C   UNL     1      -9.583   0.378 -32.429  1.00  0.00     0.043 A 
HETATM   24  F   UNL     1     -11.057   0.658 -34.237  1.00  0.00    -0.206 F 
HETATM   25  C   UNL     1      -6.614   3.914 -32.280  1.00  0.00     0.096 A 
HETATM   26  H   UNL     1      -7.820   4.658 -33.857  1.00  0.00     0.165 HD
ENDBRANCH  12  16
ENDBRANCH   8   9
ENDBRANCH   1   8
TORSDOF 3
ENDMDL
MODEL 5
REMARK VINA RESULT:      -8.4      4.158      6.514
REMARK  3 active torsions:
REMARK  status: ('A' for Active; 'I' for Inactive)
REMARK    1  A    between atoms: C_7  and  C_8 
REMARK    2  A    between atoms: N_11  and  C_13 
REMARK    3  A    between atoms: C_13  and  C_14 
ROOT
HETATM    1  C   UNL     1     -10.266   1.127 -32.994  1.00  0.00     0.080 A 
HETATM    2  O   UNL     1     -11.392   0.514 -33.463  1.00  0.00    -0.302 OA
HETATM    3  C   UNL     1     -12.300   1.501 -33.714  1.00  0.00     0.155 A 
HETATM    4  C   UNL     1     -13.566   1.114 -34.223  1.00  0.00     0.125 C 
HETATM    5  N   UNL     1     -14.590   0.783 -34.654  1.00  0.00    -0.189 NA
HETATM    6  C   UNL     1     -11.767   2.735 -33.420  1.00  0.00     0.051 A 
HETATM    7  C   UNL     1     -10.450   2.494 -32.953  1.00  0.00     0.038 A 
ENDROOT
BRANCH   1   8
HETATM    8  C   UNL     1      -9.124   0.245 -32.653  1.00  0.00     0.299 C 
BRANCH   8   9
HETATM    9  N   UNL     1      -7.870   0.981 -32.198  1.00  0.00    -0.065 N 
HETATM   10  C   UNL     1      -7.155   0.252 -31.084  1.00  0.00     0.236 C 
HETATM   11  C   UNL     1      -5.873   0.985 -30.718  1.00  0.00     0.037 C 
HETATM   12  C   UNL     1      -4.921   1.072 -31.927  1.00  0.00     0.024 C 
HETATM   13  C   UNL     1      -5.659   1.874 -33.000  1.00  0.00     0.037 C 
HETATM   14  C   UNL     1      -6.997   1.262 -33.394  1.00  0.00     0.236 C 
HETATM   15  H   UNL     1      -8.201   1.875 -31.810  1.00  0.00     0.280 HD
BRANCH  12  16
HETATM   16  C   UNL     1      -4.405  -0.306 -32.322  1.00  0.00    -0.026 A 
HETATM   17  C   UNL     1      -4.875  -1.271 -33.291  1.00  0.00    -0.001 A 
HETATM   18  C   UNL     1      -4.104  -2.429 -33.129  1.00  0.00     0.045 A 
HETATM   19  C   UNL     1      -5.888  -1.309 -34.282  1.00  0.00     0.017 A 
HETATM   20  C   UNL     1      -4.337  -3.617 -33.834  1.00  0.00     0.072 A 
HETATM   21  N   UNL     1      -3.122  -2.148 -32.214  1.00  0.00    -0.365 N 
HETATM   22  C   UNL     1      -5.376  -3.621 -34.757  1.00  0.00     0.118 A 
HETATM   23  C   UNL     1      -6.136  -2.489 -34.996  1.00  0.00     0.043 A 
HETATM   24  F   UNL     1      -5.641  -4.743 -35.437  1.00  0.00    -0.206 F 
HETATM   25  C   UNL     1      -3.286  -0.881 -31.736  1.00  0.00     0.096 A 
HETATM   26  H   UNL     1      -2.383  -2.787 -31.947  1.00  0.00     0.165 HD
ENDBRANCH  12  16
ENDBRANCH   8   9
ENDBRANCH   1   8
TORSDOF 3
ENDMDL
MODEL 6
REMARK VINA RESULT:      -8.3      1.855      3.059
REMARK  3 active torsions:
REMARK  status: ('A' for Active; 'I' for Inactive)
REMARK    1  A    between atoms: C_7  and  C_8 
REMARK    2  A    between atoms: N_11  and  C_13 
REMARK    3  A    between atoms: C_13  and  C_14 
ROOT
HETATM    1  C   UNL     1      -5.635   3.415 -31.916  1.00  0.00     0.080 A 
HETATM    2  O   UNL     1      -5.344   4.460 -32.745  1.00  0.00    -0.302 OA
HETATM    3  C   UNL     1      -4.004   4.400 -32.996  1.00  0.00     0.155 A 
HETATM    4  C   UNL     1      -3.452   5.389 -33.850  1.00  0.00     0.125 C 
HETATM    5  N   UNL     1      -3.018   6.194 -34.564  1.00  0.00    -0.189 NA
HETATM    6  C   UNL     1      -3.437   3.328 -32.345  1.00  0.00     0.051 A 
HETATM    7  C   UNL     1      -4.492   2.690 -31.645  1.00  0.00     0.038 A 
ENDROOT
BRANCH   1   8
HETATM    8  C   UNL     1      -7.052   3.269 -31.504  1.00  0.00     0.299 C 
BRANCH   8   9
HETATM    9  N   UNL     1      -7.884   2.372 -32.410  1.00  0.00    -0.065 N 
HETATM   10  C   UNL     1      -7.281   2.240 -33.789  1.00  0.00     0.236 C 
HETATM   11  C   UNL     1      -8.105   1.275 -34.630  1.00  0.00     0.037 C 
HETATM   12  C   UNL     1      -8.148  -0.124 -33.985  1.00  0.00     0.024 C 
HETATM   13  C   UNL     1      -8.826   0.049 -32.625  1.00  0.00     0.037 C 
HETATM   14  C   UNL     1      -8.117   1.050 -31.723  1.00  0.00     0.236 C 
HETATM   15  H   UNL     1      -8.787   2.853 -32.521  1.00  0.00     0.280 HD
BRANCH  12  16
HETATM   16  C   UNL     1      -6.772  -0.778 -33.997  1.00  0.00    -0.026 A 
HETATM   17  C   UNL     1      -6.348  -2.129 -34.289  1.00  0.00    -0.001 A 
HETATM   18  C   UNL     1      -4.978  -2.204 -34.004  1.00  0.00     0.045 A 
HETATM   19  C   UNL     1      -6.972  -3.315 -34.747  1.00  0.00     0.017 A 
HETATM   20  C   UNL     1      -4.238  -3.391 -34.076  1.00  0.00     0.072 A 
HETATM   21  N   UNL     1      -4.551  -0.939 -33.690  1.00  0.00    -0.365 N 
HETATM   22  C   UNL     1      -4.907  -4.540 -34.478  1.00  0.00     0.118 A 
HETATM   23  C   UNL     1      -6.248  -4.513 -34.825  1.00  0.00     0.043 A 
HETATM   24  F   UNL     1      -4.238  -5.698 -34.542  1.00  0.00    -0.206 F 
HETATM   25  C   UNL     1      -5.611  -0.079 -33.695  1.00  0.00     0.096 A 
HETATM   26  H   UNL     1      -3.590  -0.687 -33.496  1.00  0.00     0.165 HD
ENDBRANCH  12  16
ENDBRANCH   8   9
ENDBRANCH   1   8
TORSDOF 3
ENDMDL
MODEL 7
REMARK VINA RESULT:      -8.2      2.203      2.716
REMARK  3 active torsions:
REMARK  status: ('A' for Active; 'I' for Inactive)
REMARK    1  A    between atoms: C_7  and  C_8 
REMARK    2  A    between atoms: N_11  and  C_13 
REMARK    3  A    between atoms: C_13  and  C_14 
ROOT
HETATM    1  C   UNL     1      -1.643   5.913 -33.152  1.00  0.00     0.080 A 
HETATM    2  O   UNL     1      -1.026   5.017 -32.328  1.00  0.00    -0.302 OA
HETATM    3  C   UNL     1      -0.204   5.736 -31.511  1.00  0.00     0.155 A 
HETATM    4  C   UNL     1       0.552   5.022 -30.547  1.00  0.00     0.125 C 
HETATM    5  N   UNL     1       1.151   4.426 -29.752  1.00  0.00    -0.189 NA
HETATM    6  C   UNL     1      -0.292   7.080 -31.797  1.00  0.00     0.051 A 
HETATM    7  C   UNL     1      -1.223   7.195 -32.860  1.00  0.00     0.038 A 
ENDROOT
BRANCH   1   8
HETATM    8  C   UNL     1      -2.601   5.358 -34.138  1.00  0.00     0.299 C 
BRANCH   8   9
HETATM    9  N   UNL     1      -4.045   5.308 -33.658  1.00  0.00    -0.065 N 
HETATM   10  C   UNL     1      -4.914   4.457 -34.555  1.00  0.00     0.236 C 
HETATM   11  C   UNL     1      -6.326   4.376 -33.992  1.00  0.00     0.037 C 
HETATM   12  C   UNL     1      -6.326   3.750 -32.583  1.00  0.00     0.024 C 
HETATM   13  C   UNL     1      -5.493   4.680 -31.699  1.00  0.00     0.037 C 
HETATM   14  C   UNL     1      -4.074   4.886 -32.211  1.00  0.00     0.236 C 
HETATM   15  H   UNL     1      -4.393   6.274 -33.730  1.00  0.00     0.280 HD
BRANCH  12  16
HETATM   16  C   UNL     1      -5.913   2.285 -32.633  1.00  0.00    -0.026 A 
HETATM   17  C   UNL     1      -6.331   1.193 -33.482  1.00  0.00    -0.001 A 
HETATM   18  C   UNL     1      -5.729   0.029 -32.988  1.00  0.00     0.045 A 
HETATM   19  C   UNL     1      -7.176   1.047 -34.611  1.00  0.00     0.017 A 
HETATM   20  C   UNL     1      -5.980  -1.250 -33.502  1.00  0.00     0.072 A 
HETATM   21  N   UNL     1      -4.876   0.401 -31.981  1.00  0.00    -0.365 N 
HETATM   22  C   UNL     1      -6.858  -1.348 -34.575  1.00  0.00     0.118 A 
HETATM   23  C   UNL     1      -7.440  -0.225 -35.138  1.00  0.00     0.043 A 
HETATM   24  F   UNL     1      -7.138  -2.555 -35.082  1.00  0.00    -0.206 F 
HETATM   25  C   UNL     1      -4.969   1.745 -31.770  1.00  0.00     0.096 A 
HETATM   26  H   UNL     1      -4.263  -0.233 -31.482  1.00  0.00     0.165 HD
ENDBRANCH  12  16
ENDBRANCH   8   9
ENDBRANCH   1   8
TORSDOF 3
ENDMDL
MODEL 8
REMARK VINA RESULT:      -8.0      2.038      2.819
REMARK  3 active torsions:
REMARK  status: ('A' for Active; 'I' for Inactive)
REMARK    1  A    between atoms: C_7  and  C_8 
REMARK    2  A    between atoms: N_11  and  C_13 
REMARK    3  A    between atoms: C_13  and  C_14 
ROOT
HETATM    1  C   UNL     1      -2.778   5.700 -33.683  1.00  0.00     0.080 A 
HETATM    2  O   UNL     1      -2.026   4.999 -32.785  1.00  0.00    -0.302 OA
HETATM    3  C   UNL     1      -0.963   5.791 -32.462  1.00  0.00     0.155 A 
HETATM    4  C   UNL     1      -0.026   5.281 -31.526  1.00  0.00     0.125 C 
HETATM    5  N   UNL     1       0.722   4.858 -30.748  1.00  0.00    -0.189 NA
HETATM    6  C   UNL     1      -1.029   6.989 -33.135  1.00  0.00     0.051 A 
HETATM    7  C   UNL     1      -2.203   6.931 -33.927  1.00  0.00     0.038 A 
ENDROOT
BRANCH   1   8
HETATM    8  C   UNL     1      -4.006   5.035 -34.182  1.00  0.00     0.299 C 
BRANCH   8   9
HETATM    9  N   UNL     1      -5.087   4.831 -33.128  1.00  0.00    -0.065 N 
HETATM   10  C   UNL     1      -6.477   4.902 -33.718  1.00  0.00     0.236 C 
HETATM   11  C   UNL     1      -7.516   4.616 -32.643  1.00  0.00     0.037 C 
HETATM   12  C   UNL     1      -7.317   3.210 -32.041  1.00  0.00     0.024 C 
HETATM   13  C   UNL     1      -5.929   3.209 -31.400  1.00  0.00     0.037 C 
HETATM   14  C   UNL     1      -4.814   3.552 -32.378  1.00  0.00     0.236 C 
HETATM   15  H   UNL     1      -4.993   5.624 -32.479  1.00  0.00     0.280 HD
BRANCH  12  16
HETATM   16  C   UNL     1      -7.608   2.126 -33.071  1.00  0.00    -0.026 A 
HETATM   17  C   UNL     1      -6.980   0.850 -33.333  1.00  0.00    -0.001 A 
HETATM   18  C   UNL     1      -7.567   0.330 -34.494  1.00  0.00     0.045 A 
HETATM   19  C   UNL     1      -5.958   0.076 -32.730  1.00  0.00     0.017 A 
HETATM   20  C   UNL     1      -7.143  -0.854 -35.109  1.00  0.00     0.072 A 
HETATM   21  N   UNL     1      -8.595   1.166 -34.848  1.00  0.00    -0.365 N 
HETATM   22  C   UNL     1      -6.101  -1.551 -34.510  1.00  0.00     0.118 A 
HETATM   23  C   UNL     1      -5.520  -1.112 -33.332  1.00  0.00     0.043 A 
HETATM   24  F   UNL     1      -5.655  -2.678 -35.079  1.00  0.00    -0.206 F 
HETATM   25  C   UNL     1      -8.636   2.233 -33.999  1.00  0.00     0.096 A 
HETATM   26  H   UNL     1      -9.231   1.002 -35.618  1.00  0.00     0.165 HD
ENDBRANCH  12  16
ENDBRANCH   8   9
ENDBRANCH   1   8
TORSDOF 3
ENDMDL
MODEL 9
REMARK VINA RESULT:      -7.8      3.839      6.312
REMARK  3 active torsions:
REMARK  status: ('A' for Active; 'I' for Inactive)
REMARK    1  A    between atoms: C_7  and  C_8 
REMARK    2  A    between atoms: N_11  and  C_13 
REMARK    3  A    between atoms: C_13  and  C_14 
ROOT
HETATM    1  C   UNL     1     -10.566   3.422 -31.875  1.00  0.00     0.080 A 
HETATM    2  O   UNL     1     -11.097   2.487 -32.717  1.00  0.00    -0.302 OA
HETATM    3  C   UNL     1     -12.073   3.114 -33.434  1.00  0.00     0.155 A 
HETATM    4  C   UNL     1     -12.778   2.345 -34.395  1.00  0.00     0.125 C 
HETATM    5  N   UNL     1     -13.334   1.708 -35.188  1.00  0.00    -0.189 NA
HETATM    6  C   UNL     1     -12.168   4.438 -33.069  1.00  0.00     0.051 A 
HETATM    7  C   UNL     1     -11.193   4.638 -32.059  1.00  0.00     0.038 A 
ENDROOT
BRANCH   1   8
HETATM    8  C   UNL     1      -9.469   2.968 -30.987  1.00  0.00     0.299 C 
BRANCH   8   9
HETATM    9  N   UNL     1      -8.071   3.173 -31.554  1.00  0.00    -0.065 N 
HETATM   10  C   UNL     1      -7.146   2.027 -31.215  1.00  0.00     0.236 C 
HETATM   11  C   UNL     1      -5.787   2.240 -31.866  1.00  0.00     0.037 C 
HETATM   12  C   UNL     1      -5.915   2.320 -33.401  1.00  0.00     0.024 C 
HETATM   13  C   UNL     1      -6.801   3.531 -33.697  1.00  0.00     0.037 C 
HETATM   14  C   UNL     1      -8.169   3.452 -33.033  1.00  0.00     0.236 C 
HETATM   15  H   UNL     1      -7.701   4.009 -31.082  1.00  0.00     0.280 HD
BRANCH  12  16
HETATM   16  C   UNL     1      -6.349   0.982 -33.986  1.00  0.00    -0.026 A 
HETATM   17  C   UNL     1      -5.759  -0.337 -33.920  1.00  0.00    -0.001 A 
HETATM   18  C   UNL     1      -6.508  -1.167 -34.764  1.00  0.00     0.045 A 
HETATM   19  C   UNL     1      -4.655  -0.927 -33.256  1.00  0.00     0.017 A 
HETATM   20  C   UNL     1      -6.173  -2.501 -35.030  1.00  0.00     0.072 A 
HETATM   21  N   UNL     1      -7.581  -0.441 -35.214  1.00  0.00    -0.365 N 
HETATM   22  C   UNL     1      -5.050  -3.019 -34.397  1.00  0.00     0.118 A 
HETATM   23  C   UNL     1      -4.305  -2.260 -33.511  1.00  0.00     0.043 A 
HETATM   24  F   UNL     1      -4.687  -4.285 -34.640  1.00  0.00    -0.206 F 
HETATM   25  C   UNL     1      -7.502   0.838 -34.745  1.00  0.00     0.096 A 
HETATM   26  H   UNL     1      -8.323  -0.811 -35.796  1.00  0.00     0.165 HD
ENDBRANCH  12  16
ENDBRANCH   8   9
ENDBRANCH   1   8
TORSDOF 3
ENDMDL
MODEL 10
REMARK VINA RESULT:      -7.8      3.494      5.891
REMARK  3 active torsions:
REMARK  status: ('A' for Active; 'I' for Inactive)
REMARK    1  A    between atoms: C_7  and  C_8 
REMARK    2  A    between atoms: N_11  and  C_13 
REMARK    3  A    between atoms: C_13  and  C_14 
ROOT
HETATM    1  C   UNL     1      -9.918   2.677 -31.899  1.00  0.00     0.080 A 
HETATM    2  O   UNL     1     -10.485   1.870 -32.843  1.00  0.00    -0.302 OA
HETATM    3  C   UNL     1     -11.459   2.604 -33.452  1.00  0.00     0.155 A 
HETATM    4  C   UNL     1     -12.199   1.980 -34.489  1.00  0.00     0.125 C 
HETATM    5  N   UNL     1     -12.783   1.461 -35.346  1.00  0.00    -0.189 NA
HETATM    6  C   UNL     1     -11.518   3.871 -32.918  1.00  0.00     0.051 A 
HETATM    7  C   UNL     1     -10.521   3.919 -31.911  1.00  0.00     0.038 A 
ENDROOT
BRANCH   1   8
HETATM    8  C   UNL     1      -8.815   2.091 -31.099  1.00  0.00     0.299 C 
BRANCH   8   9
HETATM    9  N   UNL     1      -7.441   2.678 -31.392  1.00  0.00    -0.065 N 
HETATM   10  C   UNL     1      -6.358   2.034 -30.557  1.00  0.00     0.236 C 
HETATM   11  C   UNL     1      -4.997   2.599 -30.939  1.00  0.00     0.037 C 
HETATM   12  C   UNL     1      -4.684   2.333 -32.425  1.00  0.00     0.024 C 
HETATM   13  C   UNL     1      -5.764   3.059 -33.229  1.00  0.00     0.037 C 
HETATM   14  C   UNL     1      -7.178   2.616 -32.875  1.00  0.00     0.236 C 
HETATM   15  H   UNL     1      -7.496   3.665 -31.104  1.00  0.00     0.280 HD
BRANCH  12  16
HETATM   16  C   UNL     1      -4.503   0.845 -32.691  1.00  0.00    -0.026 A 
HETATM   17  C   UNL     1      -5.248  -0.088 -33.508  1.00  0.00    -0.001 A 
HETATM   18  C   UNL     1      -4.722  -1.363 -33.265  1.00  0.00     0.045 A 
HETATM   19  C   UNL     1      -6.330  -0.004 -34.419  1.00  0.00     0.017 A 
HETATM   20  C   UNL     1      -5.258  -2.536 -33.811  1.00  0.00     0.072 A 
HETATM   21  N   UNL     1      -3.626  -1.211 -32.455  1.00  0.00    -0.365 N 
HETATM   22  C   UNL     1      -6.354  -2.408 -34.656  1.00  0.00     0.118 A 
HETATM   23  C   UNL     1      -6.880  -1.168 -34.974  1.00  0.00     0.043 A 
HETATM   24  F   UNL     1      -6.905  -3.508 -35.183  1.00  0.00    -0.206 F 
HETATM   25  C   UNL     1      -3.480   0.102 -32.117  1.00  0.00     0.096 A 
HETATM   26  H   UNL     1      -3.015  -1.965 -32.166  1.00  0.00     0.165 HD
ENDBRANCH  12  16
ENDBRANCH   8   9
ENDBRANCH   1   8
TORSDOF 3
ENDMDL
