MODEL 1
REMARK VINA RESULT:      -8.1      0.000      0.000
REMARK  6 active torsions:
REMARK  status: ('A' for Active; 'I' for Inactive)
REMARK    1  A    between atoms: C_2  and  N_3 
REMARK    2  A    between atoms: C_2  and  C_16 
REMARK    3  A    between atoms: N_3  and  C_6 
REMARK    4  A    between atoms: C_16  and  C_17 
REMARK       I    between atoms: C_17  and  N_18 
REMARK    5  A    between atoms: N_18  and  C_19 
REMARK    6  A    between atoms: C_21  and  O_22 
ROOT
HETATM    1  C   UNL     1      -6.361   2.490 -34.139  1.00  0.00     0.040 C 
HETATM    2  C   UNL     1      -5.734   2.391 -32.754  1.00  0.00     0.191 C 
ENDROOT
BRANCH   2   3
HETATM    3  N   UNL     1      -6.510   1.431 -31.886  1.00  0.00    -0.063 N 
HETATM    4  H   UNL     1      -6.627   1.923 -30.975  1.00  0.00     0.278 HD
HETATM    5  H   UNL     1      -7.465   1.339 -32.247  1.00  0.00     0.278 HD
BRANCH   3   6
HETATM    6  C   UNL     1      -6.002   0.050 -31.525  1.00  0.00     0.221 C 
HETATM    7  C   UNL     1      -5.831  -0.867 -32.711  1.00  0.00    -0.011 A 
HETATM    8  C   UNL     1      -4.618  -1.506 -33.014  1.00  0.00     0.009 A 
HETATM    9  C   UNL     1      -6.951  -1.125 -33.534  1.00  0.00     0.011 A 
HETATM   10  C   UNL     1      -4.538  -2.351 -34.132  1.00  0.00     0.019 A 
HETATM   11  S   UNL     1      -3.141  -1.364 -32.031  1.00  0.00    -0.129 SA
HETATM   12  C   UNL     1      -5.645  -2.570 -34.948  1.00  0.00     0.001 A 
HETATM   13  C   UNL     1      -6.855  -1.962 -34.646  1.00  0.00     0.001 A 
HETATM   14  C   UNL     1      -3.470   0.149 -31.107  1.00  0.00     0.082 C 
HETATM   15  C   UNL     1      -4.861   0.127 -30.503  1.00  0.00     0.048 C 
ENDBRANCH   3   6
ENDBRANCH   2   3
BRANCH   2  16
HETATM   16  C   UNL     1      -5.708   3.791 -32.097  1.00  0.00     0.135 C 
BRANCH  16  17
HETATM   17  C   UNL     1      -4.883   3.785 -30.832  1.00  0.00     0.224 C 
HETATM   18  N   UNL     1      -3.664   4.375 -30.754  1.00  0.00    -0.327 N 
HETATM   19  H   UNL     1      -3.193   4.154 -29.880  1.00  0.00     0.169 HD
HETATM   20  O   UNL     1      -5.349   3.225 -29.830  1.00  0.00    -0.273 OA
BRANCH  18  21
HETATM   21  C   UNL     1      -2.924   5.194 -31.632  1.00  0.00     0.037 A 
HETATM   22  C   UNL     1      -2.822   6.587 -31.545  1.00  0.00     0.066 A 
HETATM   23  C   UNL     1      -2.055   7.304 -32.472  1.00  0.00     0.070 A 
HETATM   24  C   UNL     1      -1.385   6.623 -33.489  1.00  0.00     0.037 A 
HETATM   25  C   UNL     1      -1.452   5.237 -33.568  1.00  0.00     0.005 A 
HETATM   26  C   UNL     1      -2.210   4.527 -32.637  1.00  0.00     0.029 A 
BRANCH  23  27
HETATM   27  O   UNL     1      -1.881   8.659 -32.495  1.00  0.00    -0.356 OA
HETATM   28  C   UNL     1      -2.213   9.389 -31.321  1.00  0.00     0.210 C 
ENDBRANCH  23  27
ENDBRANCH  18  21
ENDBRANCH  16  17
ENDBRANCH   2  16
TORSDOF 6
ENDMDL
MODEL 2
REMARK VINA RESULT:      -8.0      2.919      5.911
REMARK  6 active torsions:
REMARK  status: ('A' for Active; 'I' for Inactive)
REMARK    1  A    between atoms: C_2  and  N_3 
REMARK    2  A    between atoms: C_2  and  C_16 
REMARK    3  A    between atoms: N_3  and  C_6 
REMARK    4  A    between atoms: C_16  and  C_17 
REMARK       I    between atoms: C_17  and  N_18 
REMARK    5  A    between atoms: N_18  and  C_19 
REMARK    6  A    between atoms: C_21  and  O_22 
ROOT
HETATM    1  C   UNL     1      -4.260   3.664 -32.805  1.00  0.00     0.040 C 
HETATM    2  C   UNL     1      -5.272   2.848 -32.011  1.00  0.00     0.191 C 
ENDROOT
BRANCH   2   3
HETATM    3  N   UNL     1      -5.597   1.560 -32.728  1.00  0.00    -0.063 N 
HETATM    4  H   UNL     1      -6.600   1.646 -32.997  1.00  0.00     0.278 HD
HETATM    5  H   UNL     1      -5.098   1.532 -33.623  1.00  0.00     0.278 HD
BRANCH   3   6
HETATM    6  C   UNL     1      -5.479   0.198 -32.074  1.00  0.00     0.221 C 
HETATM    7  C   UNL     1      -5.449  -0.948 -33.055  1.00  0.00    -0.011 A 
HETATM    8  C   UNL     1      -4.414  -1.896 -33.090  1.00  0.00     0.009 A 
HETATM    9  C   UNL     1      -6.530  -1.099 -33.954  1.00  0.00     0.011 A 
HETATM   10  C   UNL     1      -4.458  -2.940 -34.027  1.00  0.00     0.019 A 
HETATM   11  S   UNL     1      -3.030  -1.907 -31.970  1.00  0.00    -0.129 SA
HETATM   12  C   UNL     1      -5.518  -3.055 -34.925  1.00  0.00     0.001 A 
HETATM   13  C   UNL     1      -6.558  -2.138 -34.885  1.00  0.00     0.001 A 
HETATM   14  C   UNL     1      -3.044  -0.207 -31.368  1.00  0.00     0.082 C 
HETATM   15  C   UNL     1      -4.440   0.211 -30.947  1.00  0.00     0.048 C 
ENDBRANCH   3   6
ENDBRANCH   2   3
BRANCH   2  16
HETATM   16  C   UNL     1      -6.562   3.677 -31.810  1.00  0.00     0.135 C 
BRANCH  16  17
HETATM   17  C   UNL     1      -7.275   3.280 -30.540  1.00  0.00     0.224 C 
HETATM   18  N   UNL     1      -8.456   2.614 -30.544  1.00  0.00    -0.327 N 
HETATM   19  H   UNL     1      -8.860   2.554 -29.612  1.00  0.00     0.169 HD
HETATM   20  O   UNL     1      -6.748   3.571 -29.456  1.00  0.00    -0.273 OA
BRANCH  18  21
HETATM   21  C   UNL     1      -9.234   2.023 -31.562  1.00  0.00     0.037 A 
HETATM   22  C   UNL     1     -10.100   2.711 -32.419  1.00  0.00     0.066 A 
HETATM   23  C   UNL     1     -10.824   2.023 -33.401  1.00  0.00     0.070 A 
HETATM   24  C   UNL     1     -10.680   0.641 -33.526  1.00  0.00     0.037 A 
HETATM   25  C   UNL     1      -9.798  -0.050 -32.702  1.00  0.00     0.005 A 
HETATM   26  C   UNL     1      -9.072   0.641 -31.732  1.00  0.00     0.029 A 
BRANCH  23  27
HETATM   27  O   UNL     1     -11.700   2.578 -34.291  1.00  0.00    -0.356 OA
HETATM   28  C   UNL     1     -12.625   1.714 -34.937  1.00  0.00     0.210 C 
ENDBRANCH  23  27
ENDBRANCH  18  21
ENDBRANCH  16  17
ENDBRANCH   2  16
TORSDOF 6
ENDMDL
MODEL 3
REMARK VINA RESULT:      -8.0      2.026      2.464
REMARK  6 active torsions:
REMARK  status: ('A' for Active; 'I' for Inactive)
REMARK    1  A    between atoms: C_2  and  N_3 
REMARK    2  A    between atoms: C_2  and  C_16 
REMARK    3  A    between atoms: N_3  and  C_6 
REMARK    4  A    between atoms: C_16  and  C_17 
REMARK       I    between atoms: C_17  and  N_18 
REMARK    5  A    between atoms: N_18  and  C_19 
REMARK    6  A    between atoms: C_21  and  O_22 
ROOT
HETATM    1  C   UNL     1      -6.709   2.936 -30.868  1.00  0.00     0.040 C 
HETATM    2  C   UNL     1      -6.106   3.148 -32.250  1.00  0.00     0.191 C 
ENDROOT
BRANCH   2   3
HETATM    3  N   UNL     1      -5.164   2.021 -32.598  1.00  0.00    -0.063 N 
HETATM    4  H   UNL     1      -5.278   1.879 -33.625  1.00  0.00     0.278 HD
HETATM    5  H   UNL     1      -4.195   2.340 -32.494  1.00  0.00     0.278 HD
BRANCH   3   6
HETATM    6  C   UNL     1      -5.277   0.636 -31.995  1.00  0.00     0.221 C 
HETATM    7  C   UNL     1      -5.481  -0.458 -33.014  1.00  0.00    -0.011 A 
HETATM    8  C   UNL     1      -4.635  -1.575 -33.116  1.00  0.00     0.009 A 
HETATM    9  C   UNL     1      -6.595  -0.378 -33.880  1.00  0.00     0.011 A 
HETATM   10  C   UNL     1      -4.894  -2.556 -34.085  1.00  0.00     0.019 A 
HETATM   11  S   UNL     1      -3.247  -1.878 -32.045  1.00  0.00    -0.129 SA
HETATM   12  C   UNL     1      -5.981  -2.444 -34.950  1.00  0.00     0.001 A 
HETATM   13  C   UNL     1      -6.836  -1.357 -34.844  1.00  0.00     0.001 A 
HETATM   14  C   UNL     1      -2.937  -0.228 -31.386  1.00  0.00     0.082 C 
HETATM   15  C   UNL     1      -4.222   0.417 -30.904  1.00  0.00     0.048 C 
ENDBRANCH   3   6
ENDBRANCH   2   3
BRANCH   2  16
HETATM   16  C   UNL     1      -5.346   4.495 -32.282  1.00  0.00     0.135 C 
BRANCH  16  17
HETATM   17  C   UNL     1      -4.898   4.837 -33.683  1.00  0.00     0.224 C 
HETATM   18  N   UNL     1      -3.718   5.454 -33.941  1.00  0.00    -0.327 N 
HETATM   19  H   UNL     1      -3.642   5.733 -34.916  1.00  0.00     0.169 HD
HETATM   20  O   UNL     1      -5.639   4.530 -34.628  1.00  0.00    -0.273 OA
BRANCH  18  21
HETATM   21  C   UNL     1      -2.609   5.802 -33.140  1.00  0.00     0.037 A 
HETATM   22  C   UNL     1      -1.726   4.894 -32.545  1.00  0.00     0.066 A 
HETATM   23  C   UNL     1      -0.653   5.350 -31.769  1.00  0.00     0.070 A 
HETATM   24  C   UNL     1      -0.461   6.720 -31.592  1.00  0.00     0.037 A 
HETATM   25  C   UNL     1      -1.311   7.633 -32.205  1.00  0.00     0.005 A 
HETATM   26  C   UNL     1      -2.373   7.174 -32.984  1.00  0.00     0.029 A 
BRANCH  23  27
HETATM   27  O   UNL     1       0.271   4.567 -31.135  1.00  0.00    -0.356 OA
HETATM   28  C   UNL     1       0.727   4.985 -29.856  1.00  0.00     0.210 C 
ENDBRANCH  23  27
ENDBRANCH  18  21
ENDBRANCH  16  17
ENDBRANCH   2  16
TORSDOF 6
ENDMDL
MODEL 4
REMARK VINA RESULT:      -7.9      4.810      7.688
REMARK  6 active torsions:
REMARK  status: ('A' for Active; 'I' for Inactive)
REMARK    1  A    between atoms: C_2  and  N_3 
REMARK    2  A    between atoms: C_2  and  C_16 
REMARK    3  A    between atoms: N_3  and  C_6 
REMARK    4  A    between atoms: C_16  and  C_17 
REMARK       I    between atoms: C_17  and  N_18 
REMARK    5  A    between atoms: N_18  and  C_19 
REMARK    6  A    between atoms: C_21  and  O_22 
ROOT
HETATM    1  C   UNL     1      -9.117   2.537 -31.640  1.00  0.00     0.040 C 
HETATM    2  C   UNL     1      -8.746   1.062 -31.721  1.00  0.00     0.191 C 
ENDROOT
BRANCH   2   3
HETATM    3  N   UNL     1      -7.320   0.897 -32.188  1.00  0.00    -0.063 N 
HETATM    4  H   UNL     1      -7.382   0.822 -33.226  1.00  0.00     0.278 HD
HETATM    5  H   UNL     1      -6.805   1.769 -32.030  1.00  0.00     0.278 HD
BRANCH   3   6
HETATM    6  C   UNL     1      -6.441  -0.261 -31.761  1.00  0.00     0.221 C 
HETATM    7  C   UNL     1      -6.005  -1.149 -32.900  1.00  0.00    -0.011 A 
HETATM    8  C   UNL     1      -4.658  -1.428 -33.179  1.00  0.00     0.009 A 
HETATM    9  C   UNL     1      -6.998  -1.758 -33.701  1.00  0.00     0.011 A 
HETATM   10  C   UNL     1      -4.330  -2.270 -34.253  1.00  0.00     0.019 A 
HETATM   11  S   UNL     1      -3.291  -0.819 -32.215  1.00  0.00    -0.129 SA
HETATM   12  C   UNL     1      -5.322  -2.838 -35.049  1.00  0.00     0.001 A 
HETATM   13  C   UNL     1      -6.657  -2.588 -34.770  1.00  0.00     0.001 A 
HETATM   14  C   UNL     1      -4.048   0.581 -31.366  1.00  0.00     0.082 C 
HETATM   15  C   UNL     1      -5.379   0.192 -30.752  1.00  0.00     0.048 C 
ENDBRANCH   3   6
ENDBRANCH   2   3
BRANCH   2  16
HETATM   16  C   UNL     1      -9.705   0.341 -32.698  1.00  0.00     0.135 C 
BRANCH  16  17
HETATM   17  C   UNL     1      -9.772   1.056 -34.026  1.00  0.00     0.224 C 
HETATM   18  N   UNL     1     -10.932   1.539 -34.536  1.00  0.00    -0.327 N 
HETATM   19  H   UNL     1     -10.818   1.861 -35.495  1.00  0.00     0.169 HD
HETATM   20  O   UNL     1      -8.720   1.208 -34.664  1.00  0.00    -0.273 OA
BRANCH  18  21
HETATM   21  C   UNL     1     -12.241   1.660 -34.026  1.00  0.00     0.037 A 
HETATM   22  C   UNL     1     -12.653   2.596 -33.070  1.00  0.00     0.066 A 
HETATM   23  C   UNL     1     -13.983   2.629 -32.634  1.00  0.00     0.070 A 
HETATM   24  C   UNL     1     -14.906   1.724 -33.159  1.00  0.00     0.037 A 
HETATM   25  C   UNL     1     -14.518   0.811 -34.132  1.00  0.00     0.005 A 
HETATM   26  C   UNL     1     -13.194   0.788 -34.570  1.00  0.00     0.029 A 
BRANCH  23  27
HETATM   27  O   UNL     1     -14.504   3.488 -31.707  1.00  0.00    -0.356 OA
HETATM   28  C   UNL     1     -13.599   4.138 -30.825  1.00  0.00     0.210 C 
ENDBRANCH  23  27
ENDBRANCH  18  21
ENDBRANCH  16  17
ENDBRANCH   2  16
TORSDOF 6
ENDMDL
MODEL 5
REMARK VINA RESULT:      -7.8      3.844      7.115
REMARK  6 active torsions:
REMARK  status: ('A' for Active; 'I' for Inactive)
REMARK    1  A    between atoms: C_2  and  N_3 
REMARK    2  A    between atoms: C_2  and  C_16 
REMARK    3  A    between atoms: N_3  and  C_6 
REMARK    4  A    between atoms: C_16  and  C_17 
REMARK       I    between atoms: C_17  and  N_18 
REMARK    5  A    between atoms: N_18  and  C_19 
REMARK    6  A    between atoms: C_21  and  O_22 
ROOT
HETATM    1  C   UNL     1      -6.451   3.476 -30.551  1.00  0.00     0.040 C 
HETATM    2  C   UNL     1      -7.363   2.411 -31.144  1.00  0.00     0.191 C 
ENDROOT
BRANCH   2   3
HETATM    3  N   UNL     1      -6.585   1.489 -32.051  1.00  0.00    -0.063 N 
HETATM    4  H   UNL     1      -7.221   1.300 -32.855  1.00  0.00     0.278 HD
HETATM    5  H   UNL     1      -5.800   2.001 -32.467  1.00  0.00     0.278 HD
BRANCH   3   6
HETATM    6  C   UNL     1      -6.087   0.127 -31.613  1.00  0.00     0.221 C 
HETATM    7  C   UNL     1      -5.880  -0.842 -32.752  1.00  0.00    -0.011 A 
HETATM    8  C   UNL     1      -4.657  -1.491 -32.989  1.00  0.00     0.009 A 
HETATM    9  C   UNL     1      -6.974  -1.139 -33.596  1.00  0.00     0.011 A 
HETATM   10  C   UNL     1      -4.542  -2.385 -34.065  1.00  0.00     0.019 A 
HETATM   11  S   UNL     1      -3.211  -1.302 -31.969  1.00  0.00    -0.129 SA
HETATM   12  C   UNL     1      -5.625  -2.643 -34.904  1.00  0.00     0.001 A 
HETATM   13  C   UNL     1      -6.843  -2.025 -34.666  1.00  0.00     0.001 A 
HETATM   14  C   UNL     1      -3.570   0.250 -31.124  1.00  0.00     0.082 C 
HETATM   15  C   UNL     1      -4.978   0.252 -30.562  1.00  0.00     0.048 C 
ENDBRANCH   3   6
ENDBRANCH   2   3
BRANCH   2  16
HETATM   16  C   UNL     1      -8.503   3.091 -31.939  1.00  0.00     0.135 C 
BRANCH  16  17
HETATM   17  C   UNL     1      -8.253   3.014 -33.426  1.00  0.00     0.224 C 
HETATM   18  N   UNL     1      -9.029   2.276 -34.259  1.00  0.00    -0.327 N 
HETATM   19  H   UNL     1      -8.637   2.226 -35.196  1.00  0.00     0.169 HD
HETATM   20  O   UNL     1      -7.305   3.660 -33.896  1.00  0.00    -0.273 OA
BRANCH  18  21
HETATM   21  C   UNL     1     -10.232   1.560 -34.085  1.00  0.00     0.037 A 
HETATM   22  C   UNL     1     -11.456   1.880 -34.683  1.00  0.00     0.066 A 
HETATM   23  C   UNL     1     -12.592   1.095 -34.442  1.00  0.00     0.070 A 
HETATM   24  C   UNL     1     -12.501  -0.014 -33.602  1.00  0.00     0.037 A 
HETATM   25  C   UNL     1     -11.283  -0.361 -33.027  1.00  0.00     0.005 A 
HETATM   26  C   UNL     1     -10.154   0.417 -33.277  1.00  0.00     0.029 A 
BRANCH  23  27
HETATM   27  O   UNL     1     -13.838   1.305 -34.961  1.00  0.00    -0.356 OA
HETATM   28  C   UNL     1     -14.958   0.984 -34.147  1.00  0.00     0.210 C 
ENDBRANCH  23  27
ENDBRANCH  18  21
ENDBRANCH  16  17
ENDBRANCH   2  16
TORSDOF 6
ENDMDL
MODEL 6
REMARK VINA RESULT:      -7.6      2.589      3.035
REMARK  6 active torsions:
REMARK  status: ('A' for Active; 'I' for Inactive)
REMARK    1  A    between atoms: C_2  and  N_3 
REMARK    2  A    between atoms: C_2  and  C_16 
REMARK    3  A    between atoms: N_3  and  C_6 
REMARK    4  A    between atoms: C_16  and  C_17 
REMARK       I    between atoms: C_17  and  N_18 
REMARK    5  A    between atoms: N_18  and  C_19 
REMARK    6  A    between atoms: C_21  and  O_22 
ROOT
HETATM    1  C   UNL     1      -5.388   3.524 -31.264  1.00  0.00     0.040 C 
HETATM    2  C   UNL     1      -4.179   3.571 -32.190  1.00  0.00     0.191 C 
ENDROOT
BRANCH   2   3
HETATM    3  N   UNL     1      -3.792   2.180 -32.628  1.00  0.00    -0.063 N 
HETATM    4  H   UNL     1      -4.004   2.148 -33.648  1.00  0.00     0.278 HD
HETATM    5  H   UNL     1      -2.773   2.077 -32.580  1.00  0.00     0.278 HD
BRANCH   3   6
HETATM    6  C   UNL     1      -4.424   0.927 -32.056  1.00  0.00     0.221 C 
HETATM    7  C   UNL     1      -5.174   0.103 -33.074  1.00  0.00    -0.011 A 
HETATM    8  C   UNL     1      -4.899  -1.254 -33.310  1.00  0.00     0.009 A 
HETATM    9  C   UNL     1      -6.226   0.711 -33.796  1.00  0.00     0.011 A 
HETATM   10  C   UNL     1      -5.644  -1.957 -34.269  1.00  0.00     0.019 A 
HETATM   11  S   UNL     1      -3.674  -2.194 -32.424  1.00  0.00    -0.129 SA
HETATM   12  C   UNL     1      -6.658  -1.332 -34.992  1.00  0.00     0.001 A 
HETATM   13  C   UNL     1      -6.954   0.002 -34.751  1.00  0.00     0.001 A 
HETATM   14  C   UNL     1      -2.628  -0.883 -31.761  1.00  0.00     0.082 C 
HETATM   15  C   UNL     1      -3.462   0.202 -31.108  1.00  0.00     0.048 C 
ENDBRANCH   3   6
ENDBRANCH   2   3
BRANCH   2  16
HETATM   16  C   UNL     1      -2.993   4.240 -31.458  1.00  0.00     0.135 C 
BRANCH  16  17
HETATM   17  C   UNL     1      -1.927   4.679 -32.433  1.00  0.00     0.224 C 
HETATM   18  N   UNL     1      -0.883   5.465 -32.068  1.00  0.00    -0.327 N 
HETATM   19  H   UNL     1      -0.345   5.777 -32.873  1.00  0.00     0.169 HD
HETATM   20  O   UNL     1      -2.013   4.295 -33.608  1.00  0.00    -0.273 OA
BRANCH  18  21
HETATM   21  C   UNL     1      -0.418   5.946 -30.826  1.00  0.00     0.037 A 
HETATM   22  C   UNL     1      -0.688   7.214 -30.299  1.00  0.00     0.066 A 
HETATM   23  C   UNL     1      -0.175   7.589 -29.050  1.00  0.00     0.070 A 
HETATM   24  C   UNL     1       0.607   6.690 -28.325  1.00  0.00     0.037 A 
HETATM   25  C   UNL     1       0.854   5.415 -28.823  1.00  0.00     0.005 A 
HETATM   26  C   UNL     1       0.335   5.044 -30.062  1.00  0.00     0.029 A 
BRANCH  23  27
HETATM   27  O   UNL     1      -0.363   8.794 -28.434  1.00  0.00    -0.356 OA
HETATM   28  C   UNL     1      -1.580   9.484 -28.685  1.00  0.00     0.210 C 
ENDBRANCH  23  27
ENDBRANCH  18  21
ENDBRANCH  16  17
ENDBRANCH   2  16
TORSDOF 6
ENDMDL
MODEL 7
REMARK VINA RESULT:      -7.6     16.582     18.452
REMARK  6 active torsions:
REMARK  status: ('A' for Active; 'I' for Inactive)
REMARK    1  A    between atoms: C_2  and  N_3 
REMARK    2  A    between atoms: C_2  and  C_16 
REMARK    3  A    between atoms: N_3  and  C_6 
REMARK    4  A    between atoms: C_16  and  C_17 
REMARK       I    between atoms: C_17  and  N_18 
REMARK    5  A    between atoms: N_18  and  C_19 
REMARK    6  A    between atoms: C_21  and  O_22 
ROOT
HETATM    1  C   UNL     1      -5.968 -12.056 -40.525  1.00  0.00     0.040 C 
HETATM    2  C   UNL     1      -5.614 -12.594 -39.145  1.00  0.00     0.191 C 
ENDROOT
BRANCH   2   3
HETATM    3  N   UNL     1      -6.634 -12.151 -38.124  1.00  0.00    -0.063 N 
HETATM    4  H   UNL     1      -6.078 -11.890 -37.282  1.00  0.00     0.278 HD
HETATM    5  H   UNL     1      -7.061 -11.270 -38.427  1.00  0.00     0.278 HD
BRANCH   3   6
HETATM    6  C   UNL     1      -7.731 -13.059 -37.606  1.00  0.00     0.221 C 
HETATM    7  C   UNL     1      -8.753 -13.438 -38.650  1.00  0.00    -0.011 A 
HETATM    8  C   UNL     1      -9.065 -14.770 -38.965  1.00  0.00     0.009 A 
HETATM    9  C   UNL     1      -9.455 -12.407 -39.317  1.00  0.00     0.011 A 
HETATM   10  C   UNL     1     -10.033 -15.045 -39.944  1.00  0.00     0.019 A 
HETATM   11  S   UNL     1      -8.345 -16.183 -38.157  1.00  0.00    -0.129 SA
HETATM   12  C   UNL     1     -10.693 -14.015 -40.611  1.00  0.00     0.001 A 
HETATM   13  C   UNL     1     -10.409 -12.695 -40.293  1.00  0.00     0.001 A 
HETATM   14  C   UNL     1      -6.851 -15.465 -37.446  1.00  0.00     0.082 C 
HETATM   15  C   UNL     1      -7.160 -14.171 -36.718  1.00  0.00     0.048 C 
ENDBRANCH   3   6
ENDBRANCH   2   3
BRANCH   2  16
HETATM   16  C   UNL     1      -4.210 -12.089 -38.737  1.00  0.00     0.135 C 
BRANCH  16  17
HETATM   17  C   UNL     1      -3.721 -12.782 -37.488  1.00  0.00     0.224 C 
HETATM   18  N   UNL     1      -2.738 -13.716 -37.509  1.00  0.00    -0.327 N 
HETATM   19  H   UNL     1      -2.635 -14.177 -36.608  1.00  0.00     0.169 HD
HETATM   20  O   UNL     1      -4.239 -12.473 -36.405  1.00  0.00    -0.273 OA
BRANCH  18  21
HETATM   21  C   UNL     1      -1.866 -14.185 -38.514  1.00  0.00     0.037 A 
HETATM   22  C   UNL     1      -2.262 -14.824 -39.694  1.00  0.00     0.066 A 
HETATM   23  C   UNL     1      -1.308 -15.248 -40.628  1.00  0.00     0.070 A 
HETATM   24  C   UNL     1       0.047 -15.028 -40.381  1.00  0.00     0.037 A 
HETATM   25  C   UNL     1       0.452 -14.364 -39.229  1.00  0.00     0.005 A 
HETATM   26  C   UNL     1      -0.502 -13.936 -38.306  1.00  0.00     0.029 A 
BRANCH  23  27
HETATM   27  O   UNL     1      -1.567 -15.885 -41.809  1.00  0.00    -0.356 OA
HETATM   28  C   UNL     1      -2.754 -15.529 -42.506  1.00  0.00     0.210 C 
ENDBRANCH  23  27
ENDBRANCH  18  21
ENDBRANCH  16  17
ENDBRANCH   2  16
TORSDOF 6
ENDMDL
MODEL 8
REMARK VINA RESULT:      -7.5      5.150      8.304
REMARK  6 active torsions:
REMARK  status: ('A' for Active; 'I' for Inactive)
REMARK    1  A    between atoms: C_2  and  N_3 
REMARK    2  A    between atoms: C_2  and  C_16 
REMARK    3  A    between atoms: N_3  and  C_6 
REMARK    4  A    between atoms: C_16  and  C_17 
REMARK       I    between atoms: C_17  and  N_18 
REMARK    5  A    between atoms: N_18  and  C_19 
REMARK    6  A    between atoms: C_21  and  O_22 
ROOT
HETATM    1  C   UNL     1      -9.742  -0.097 -32.634  1.00  0.00     0.040 C 
HETATM    2  C   UNL     1      -9.542   1.408 -32.752  1.00  0.00     0.191 C 
ENDROOT
BRANCH   2   3
HETATM    3  N   UNL     1      -9.780   1.867 -34.170  1.00  0.00    -0.063 N 
HETATM    4  H   UNL     1      -8.946   2.444 -34.412  1.00  0.00     0.278 HD
HETATM    5  H   UNL     1      -9.722   1.063 -34.804  1.00  0.00     0.278 HD
BRANCH   3   6
HETATM    6  C   UNL     1     -10.972   2.709 -34.577  1.00  0.00     0.221 C 
HETATM    7  C   UNL     1     -12.292   2.183 -34.068  1.00  0.00    -0.011 A 
HETATM    8  C   UNL     1     -13.175   2.955 -33.297  1.00  0.00     0.009 A 
HETATM    9  C   UNL     1     -12.675   0.867 -34.415  1.00  0.00     0.011 A 
HETATM   10  C   UNL     1     -14.389   2.398 -32.865  1.00  0.00     0.019 A 
HETATM   11  S   UNL     1     -12.890   4.654 -32.852  1.00  0.00    -0.129 SA
HETATM   12  C   UNL     1     -14.737   1.089 -33.193  1.00  0.00     0.001 A 
HETATM   13  C   UNL     1     -13.883   0.324 -33.973  1.00  0.00     0.001 A 
HETATM   14  C   UNL     1     -11.106   4.788 -33.077  1.00  0.00     0.082 C 
HETATM   15  C   UNL     1     -10.679   4.204 -34.410  1.00  0.00     0.048 C 
ENDBRANCH   3   6
ENDBRANCH   2   3
BRANCH   2  16
HETATM   16  C   UNL     1      -8.105   1.775 -32.315  1.00  0.00     0.135 C 
BRANCH  16  17
HETATM   17  C   UNL     1      -7.297   2.299 -33.478  1.00  0.00     0.224 C 
HETATM   18  N   UNL     1      -6.398   1.534 -34.146  1.00  0.00    -0.327 N 
HETATM   19  H   UNL     1      -5.847   2.083 -34.802  1.00  0.00     0.169 HD
HETATM   20  O   UNL     1      -7.475   3.473 -33.835  1.00  0.00    -0.273 OA
BRANCH  18  21
HETATM   21  C   UNL     1      -6.063   0.165 -34.097  1.00  0.00     0.037 A 
HETATM   22  C   UNL     1      -6.786  -0.866 -34.707  1.00  0.00     0.066 A 
HETATM   23  C   UNL     1      -6.360  -2.196 -34.597  1.00  0.00     0.070 A 
HETATM   24  C   UNL     1      -5.204  -2.495 -33.874  1.00  0.00     0.037 A 
HETATM   25  C   UNL     1      -4.459  -1.476 -33.291  1.00  0.00     0.005 A 
HETATM   26  C   UNL     1      -4.882  -0.153 -33.411  1.00  0.00     0.029 A 
BRANCH  23  27
HETATM   27  O   UNL     1      -6.979  -3.286 -35.141  1.00  0.00    -0.356 OA
HETATM   28  C   UNL     1      -6.359  -4.554 -34.971  1.00  0.00     0.210 C 
ENDBRANCH  23  27
ENDBRANCH  18  21
ENDBRANCH  16  17
ENDBRANCH   2  16
TORSDOF 6
ENDMDL
MODEL 9
REMARK VINA RESULT:      -7.5      4.182      7.366
REMARK  6 active torsions:
REMARK  status: ('A' for Active; 'I' for Inactive)
REMARK    1  A    between atoms: C_2  and  N_3 
REMARK    2  A    between atoms: C_2  and  C_16 
REMARK    3  A    between atoms: N_3  and  C_6 
REMARK    4  A    between atoms: C_16  and  C_17 
REMARK       I    between atoms: C_17  and  N_18 
REMARK    5  A    between atoms: N_18  and  C_19 
REMARK    6  A    between atoms: C_21  and  O_22 
ROOT
HETATM    1  C   UNL     1      -6.320  -0.042 -30.151  1.00  0.00     0.040 C 
HETATM    2  C   UNL     1      -5.670   1.163 -30.818  1.00  0.00     0.191 C 
ENDROOT
BRANCH   2   3
HETATM    3  N   UNL     1      -6.721   2.113 -31.340  1.00  0.00    -0.063 N 
HETATM    4  H   UNL     1      -7.587   1.878 -30.808  1.00  0.00     0.278 HD
HETATM    5  H   UNL     1      -6.496   3.068 -31.045  1.00  0.00     0.278 HD
BRANCH   3   6
HETATM    6  C   UNL     1      -7.151   2.151 -32.793  1.00  0.00     0.221 C 
HETATM    7  C   UNL     1      -8.554   1.649 -33.027  1.00  0.00    -0.011 A 
HETATM    8  C   UNL     1      -9.541   2.413 -33.672  1.00  0.00     0.009 A 
HETATM    9  C   UNL     1      -8.883   0.338 -32.614  1.00  0.00     0.011 A 
HETATM   10  C   UNL     1     -10.823   1.875 -33.860  1.00  0.00     0.019 A 
HETATM   11  S   UNL     1      -9.268   4.042 -34.335  1.00  0.00    -0.129 SA
HETATM   12  C   UNL     1     -11.136   0.591 -33.420  1.00  0.00     0.001 A 
HETATM   13  C   UNL     1     -10.164  -0.182 -32.802  1.00  0.00     0.001 A 
HETATM   14  C   UNL     1      -7.792   4.553 -33.434  1.00  0.00     0.082 C 
HETATM   15  C   UNL     1      -6.734   3.467 -33.461  1.00  0.00     0.048 C 
ENDBRANCH   3   6
ENDBRANCH   2   3
BRANCH   2  16
HETATM   16  C   UNL     1      -4.769   0.688 -31.981  1.00  0.00     0.135 C 
BRANCH  16  17
HETATM   17  C   UNL     1      -3.421   0.231 -31.477  1.00  0.00     0.224 C 
HETATM   18  N   UNL     1      -2.955  -1.027 -31.678  1.00  0.00    -0.327 N 
HETATM   19  H   UNL     1      -2.102  -1.203 -31.153  1.00  0.00     0.169 HD
HETATM   20  O   UNL     1      -2.717   1.045 -30.863  1.00  0.00    -0.273 OA
BRANCH  18  21
HETATM   21  C   UNL     1      -3.420  -2.125 -32.433  1.00  0.00     0.037 A 
HETATM   22  C   UNL     1      -4.260  -2.041 -33.548  1.00  0.00     0.066 A 
HETATM   23  C   UNL     1      -4.659  -3.199 -34.227  1.00  0.00     0.070 A 
HETATM   24  C   UNL     1      -4.213  -4.446 -33.789  1.00  0.00     0.037 A 
HETATM   25  C   UNL     1      -3.351  -4.541 -32.702  1.00  0.00     0.005 A 
HETATM   26  C   UNL     1      -2.950  -3.384 -32.035  1.00  0.00     0.029 A 
BRANCH  23  27
HETATM   27  O   UNL     1      -5.476  -3.248 -35.322  1.00  0.00    -0.356 OA
HETATM   28  C   UNL     1      -6.374  -4.344 -35.429  1.00  0.00     0.210 C 
ENDBRANCH  23  27
ENDBRANCH  18  21
ENDBRANCH  16  17
ENDBRANCH   2  16
TORSDOF 6
ENDMDL
MODEL 10
REMARK VINA RESULT:      -7.4      5.153      7.857
REMARK  6 active torsions:
REMARK  status: ('A' for Active; 'I' for Inactive)
REMARK    1  A    between atoms: C_2  and  N_3 
REMARK    2  A    between atoms: C_2  and  C_16 
REMARK    3  A    between atoms: N_3  and  C_6 
REMARK    4  A    between atoms: C_16  and  C_17 
REMARK       I    between atoms: C_17  and  N_18 
REMARK    5  A    between atoms: N_18  and  C_19 
REMARK    6  A    between atoms: C_21  and  O_22 
ROOT
HETATM    1  C   UNL     1      -9.496   0.300 -32.439  1.00  0.00     0.040 C 
HETATM    2  C   UNL     1      -9.482   1.823 -32.483  1.00  0.00     0.191 C 
ENDROOT
BRANCH   2   3
HETATM    3  N   UNL     1      -9.964   2.320 -33.824  1.00  0.00    -0.063 N 
HETATM    4  H   UNL     1      -9.172   2.879 -34.207  1.00  0.00     0.278 HD
HETATM    5  H   UNL     1     -10.050   1.530 -34.472  1.00  0.00     0.278 HD
BRANCH   3   6
HETATM    6  C   UNL     1     -11.184   3.204 -33.986  1.00  0.00     0.221 C 
HETATM    7  C   UNL     1     -12.492   2.484 -33.764  1.00  0.00    -0.011 A 
HETATM    8  C   UNL     1     -13.448   2.909 -32.827  1.00  0.00     0.009 A 
HETATM    9  C   UNL     1     -12.787   1.354 -34.560  1.00  0.00     0.011 A 
HETATM   10  C   UNL     1     -14.645   2.192 -32.681  1.00  0.00     0.019 A 
HETATM   11  S   UNL     1     -13.276   4.362 -31.813  1.00  0.00    -0.129 SA
HETATM   12  C   UNL     1     -14.905   1.062 -33.454  1.00  0.00     0.001 A 
HETATM   13  C   UNL     1     -13.979   0.646 -34.399  1.00  0.00     0.001 A 
HETATM   14  C   UNL     1     -11.494   4.634 -31.877  1.00  0.00     0.082 C 
HETATM   15  C   UNL     1     -10.982   4.561 -33.303  1.00  0.00     0.048 C 
ENDBRANCH   3   6
ENDBRANCH   2   3
BRANCH   2  16
HETATM   16  C   UNL     1      -8.046   2.334 -32.219  1.00  0.00     0.135 C 
BRANCH  16  17
HETATM   17  C   UNL     1      -7.383   2.786 -33.498  1.00  0.00     0.224 C 
HETATM   18  N   UNL     1      -6.548   1.988 -34.209  1.00  0.00    -0.327 N 
HETATM   19  H   UNL     1      -6.085   2.496 -34.958  1.00  0.00     0.169 HD
HETATM   20  O   UNL     1      -7.623   3.930 -33.911  1.00  0.00    -0.273 OA
BRANCH  18  21
HETATM   21  C   UNL     1      -6.182   0.629 -34.105  1.00  0.00     0.037 A 
HETATM   22  C   UNL     1      -5.229   0.115 -33.218  1.00  0.00     0.066 A 
HETATM   23  C   UNL     1      -4.944  -1.256 -33.197  1.00  0.00     0.070 A 
HETATM   24  C   UNL     1      -5.617  -2.116 -34.066  1.00  0.00     0.037 A 
HETATM   25  C   UNL     1      -6.589  -1.622 -34.928  1.00  0.00     0.005 A 
HETATM   26  C   UNL     1      -6.876  -0.258 -34.939  1.00  0.00     0.029 A 
BRANCH  23  27
HETATM   27  O   UNL     1      -4.037  -1.876 -32.385  1.00  0.00    -0.356 OA
HETATM   28  C   UNL     1      -2.908  -1.125 -31.958  1.00  0.00     0.210 C 
ENDBRANCH  23  27
ENDBRANCH  18  21
ENDBRANCH  16  17
ENDBRANCH   2  16
TORSDOF 6
ENDMDL
