MODEL 1
REMARK VINA RESULT:      -9.4      0.000      0.000
REMARK  5 active torsions:
REMARK  status: ('A' for Active; 'I' for Inactive)
REMARK       I    between atoms: C_2  and  N_3 
REMARK    1  A    between atoms: N_3  and  C_4 
REMARK    2  A    between atoms: C_5  and  C_6 
REMARK    3  A    between atoms: C_15  and  C_16 
REMARK       I    between atoms: C_16  and  N_17 
REMARK    4  A    between atoms: N_17  and  C_18 
REMARK    5  A    between atoms: C_18  and  C_19 
ROOT
HETATM    1  C   UNL     1      -3.676   5.911 -31.189  1.00  0.00     0.138 A 
HETATM    2  N   UNL     1      -4.447   5.125 -30.483  1.00  0.00    -0.240 NA
HETATM    3  C   UNL     1      -4.930   3.945 -31.073  1.00  0.00     0.084 A 
HETATM    4  C   UNL     1      -4.610   3.577 -32.385  1.00  0.00     0.065 A 
HETATM    5  N   UNL     1      -3.776   4.404 -33.138  1.00  0.00    -0.320 N 
HETATM    6  C   UNL     1      -3.251   5.563 -32.625  1.00  0.00     0.275 A 
HETATM    7  O   UNL     1      -2.482   6.267 -33.263  1.00  0.00    -0.266 OA
HETATM    8  C   UNL     1      -5.753   3.104 -30.323  1.00  0.00     0.035 A 
HETATM    9  C   UNL     1      -6.252   1.913 -30.871  1.00  0.00     0.019 A 
HETATM   10  C   UNL     1      -5.934   1.559 -32.188  1.00  0.00     0.034 A 
HETATM   11  C   UNL     1      -5.100   2.397 -32.943  1.00  0.00     0.049 A 
HETATM   12  H   UNL     1      -3.500   4.151 -34.077  1.00  0.00     0.169 HD
ENDROOT
BRANCH  10  13
HETATM   13  C   UNL     1      -6.402   0.297 -32.830  1.00  0.00     0.252 C 
HETATM   14  N   UNL     1      -5.524  -0.364 -33.659  1.00  0.00    -0.353 N 
HETATM   15  H   UNL     1      -4.612   0.013 -33.866  1.00  0.00     0.163 HD
HETATM   16  O   UNL     1      -7.533  -0.118 -32.594  1.00  0.00    -0.268 OA
BRANCH  14  17
HETATM   17  C   UNL     1      -5.978  -1.500 -34.432  1.00  0.00     0.163 C 
BRANCH  17  18
HETATM   18  C   UNL     1      -5.191  -2.748 -34.128  1.00  0.00    -0.019 A 
HETATM   19  C   UNL     1      -5.530  -4.004 -34.654  1.00  0.00     0.042 A 
HETATM   20 CL   UNL     1      -6.865  -4.209 -35.731  1.00  0.00    -0.084 Cl
HETATM   21  C   UNL     1      -4.781  -5.139 -34.325  1.00  0.00     0.024 A 
HETATM   22  C   UNL     1      -3.682  -5.034 -33.474  1.00  0.00     0.002 A 
HETATM   23  C   UNL     1      -3.325  -3.792 -32.957  1.00  0.00     0.001 A 
HETATM   24  C   UNL     1      -4.070  -2.658 -33.283  1.00  0.00     0.010 A 
ENDBRANCH  17  18
ENDBRANCH  14  17
ENDBRANCH  10  13
BRANCH   1  25
HETATM   25  C   UNL     1      -3.162   7.169 -30.570  1.00  0.00     0.025 A 
HETATM   26  C   UNL     1      -1.917   7.190 -29.897  1.00  0.00     0.047 A 
HETATM   27  C   UNL     1      -1.488   8.397 -29.337  1.00  0.00     0.030 A 
HETATM   28  C   UNL     1      -2.257   9.561 -29.455  1.00  0.00     0.002 A 
HETATM   29  C   UNL     1      -3.476   9.531 -30.122  1.00  0.00     0.001 A 
HETATM   30  C   UNL     1      -3.934   8.336 -30.671  1.00  0.00     0.016 A 
BRANCH  26  31
HETATM   31  N   UNL     1      -1.188   5.987 -29.771  1.00  0.00    -0.327 N 
HETATM   32  C   UNL     1       0.010   5.557 -30.258  1.00  0.00     0.218 C 
HETATM   33  C   UNL     1       0.720   6.309 -31.346  1.00  0.00     0.117 C 
HETATM   34  O   UNL     1       0.482   4.502 -29.826  1.00  0.00    -0.274 OA
HETATM   35  H   UNL     1      -1.624   5.283 -29.172  1.00  0.00     0.169 HD
ENDBRANCH  26  31
ENDBRANCH   1  25
TORSDOF 5
ENDMDL
MODEL 2
REMARK VINA RESULT:      -9.4      3.391      9.964
REMARK  5 active torsions:
REMARK  status: ('A' for Active; 'I' for Inactive)
REMARK       I    between atoms: C_2  and  N_3 
REMARK    1  A    between atoms: N_3  and  C_4 
REMARK    2  A    between atoms: C_5  and  C_6 
REMARK    3  A    between atoms: C_15  and  C_16 
REMARK       I    between atoms: C_16  and  N_17 
REMARK    4  A    between atoms: N_17  and  C_18 
REMARK    5  A    between atoms: C_18  and  C_19 
ROOT
HETATM    1  C   UNL     1      -4.916   0.219 -32.925  1.00  0.00     0.138 A 
HETATM    2  N   UNL     1      -5.360   1.358 -33.388  1.00  0.00    -0.240 NA
HETATM    3  C   UNL     1      -4.947   2.549 -32.765  1.00  0.00     0.084 A 
HETATM    4  C   UNL     1      -4.072   2.559 -31.672  1.00  0.00     0.065 A 
HETATM    5  N   UNL     1      -3.583   1.347 -31.183  1.00  0.00    -0.320 N 
HETATM    6  C   UNL     1      -3.926   0.145 -31.750  1.00  0.00     0.275 A 
HETATM    7  O   UNL     1      -3.464  -0.915 -31.356  1.00  0.00    -0.266 OA
HETATM    8  C   UNL     1      -5.419   3.766 -33.256  1.00  0.00     0.035 A 
HETATM    9  C   UNL     1      -5.028   4.978 -32.668  1.00  0.00     0.019 A 
HETATM   10  C   UNL     1      -4.160   4.976 -31.569  1.00  0.00     0.034 A 
HETATM   11  C   UNL     1      -3.675   3.755 -31.077  1.00  0.00     0.049 A 
HETATM   12  H   UNL     1      -2.925   1.321 -30.416  1.00  0.00     0.169 HD
ENDROOT
BRANCH  10  13
HETATM   13  C   UNL     1      -3.676   6.222 -30.908  1.00  0.00     0.252 C 
HETATM   14  N   UNL     1      -3.287   6.140 -29.590  1.00  0.00    -0.353 N 
HETATM   15  H   UNL     1      -3.371   5.279 -29.072  1.00  0.00     0.163 HD
HETATM   16  O   UNL     1      -3.624   7.267 -31.552  1.00  0.00    -0.268 OA
BRANCH  14  17
HETATM   17  C   UNL     1      -2.964   7.344 -28.857  1.00  0.00     0.163 C 
BRANCH  17  18
HETATM   18  C   UNL     1      -1.542   7.347 -28.363  1.00  0.00    -0.019 A 
HETATM   19  C   UNL     1      -1.192   6.974 -27.055  1.00  0.00     0.042 A 
HETATM   20 CL   UNL     1      -2.376   6.440 -25.916  1.00  0.00    -0.084 Cl
HETATM   21  C   UNL     1       0.141   7.013 -26.635  1.00  0.00     0.024 A 
HETATM   22  C   UNL     1       1.143   7.418 -27.516  1.00  0.00     0.002 A 
HETATM   23  C   UNL     1       0.814   7.778 -28.820  1.00  0.00     0.001 A 
HETATM   24  C   UNL     1      -0.516   7.739 -29.242  1.00  0.00     0.010 A 
ENDBRANCH  17  18
ENDBRANCH  14  17
ENDBRANCH  10  13
BRANCH   1  25
HETATM   25  C   UNL     1      -5.353  -1.049 -33.579  1.00  0.00     0.025 A 
HETATM   26  C   UNL     1      -6.716  -1.429 -33.588  1.00  0.00     0.047 A 
HETATM   27  C   UNL     1      -7.065  -2.629 -34.215  1.00  0.00     0.030 A 
HETATM   28  C   UNL     1      -6.097  -3.426 -34.838  1.00  0.00     0.002 A 
HETATM   29  C   UNL     1      -4.760  -3.042 -34.828  1.00  0.00     0.001 A 
HETATM   30  C   UNL     1      -4.385  -1.861 -34.192  1.00  0.00     0.016 A 
BRANCH  26  31
HETATM   31  N   UNL     1      -7.656  -0.614 -32.920  1.00  0.00    -0.327 N 
HETATM   32  C   UNL     1      -8.628   0.242 -33.342  1.00  0.00     0.218 C 
HETATM   33  C   UNL     1      -8.696   0.694 -34.773  1.00  0.00     0.117 C 
HETATM   34  O   UNL     1      -9.428   0.687 -32.516  1.00  0.00    -0.274 OA
HETATM   35  H   UNL     1      -7.635  -0.684 -31.900  1.00  0.00     0.169 HD
ENDBRANCH  26  31
ENDBRANCH   1  25
TORSDOF 5
ENDMDL
MODEL 3
REMARK VINA RESULT:      -9.2      2.620      4.282
REMARK  5 active torsions:
REMARK  status: ('A' for Active; 'I' for Inactive)
REMARK       I    between atoms: C_2  and  N_3 
REMARK    1  A    between atoms: N_3  and  C_4 
REMARK    2  A    between atoms: C_5  and  C_6 
REMARK    3  A    between atoms: C_15  and  C_16 
REMARK       I    between atoms: C_16  and  N_17 
REMARK    4  A    between atoms: N_17  and  C_18 
REMARK    5  A    between atoms: C_18  and  C_19 
ROOT
HETATM    1  C   UNL     1      -0.689   6.562 -29.173  1.00  0.00     0.138 A 
HETATM    2  N   UNL     1      -1.898   7.002 -29.405  1.00  0.00    -0.240 NA
HETATM    3  C   UNL     1      -2.701   6.316 -30.333  1.00  0.00     0.084 A 
HETATM    4  C   UNL     1      -2.255   5.176 -31.012  1.00  0.00     0.065 A 
HETATM    5  N   UNL     1      -0.971   4.693 -30.757  1.00  0.00    -0.320 N 
HETATM    6  C   UNL     1      -0.136   5.298 -29.852  1.00  0.00     0.275 A 
HETATM    7  O   UNL     1       0.972   4.852 -29.591  1.00  0.00    -0.266 OA
HETATM    8  C   UNL     1      -3.992   6.783 -30.582  1.00  0.00     0.035 A 
HETATM    9  C   UNL     1      -4.829   6.126 -31.497  1.00  0.00     0.019 A 
HETATM   10  C   UNL     1      -4.369   4.991 -32.178  1.00  0.00     0.034 A 
HETATM   11  C   UNL     1      -3.075   4.513 -31.924  1.00  0.00     0.049 A 
HETATM   12  H   UNL     1      -0.630   3.855 -31.207  1.00  0.00     0.169 HD
ENDROOT
BRANCH  10  13
HETATM   13  C   UNL     1      -5.207   4.222 -33.142  1.00  0.00     0.252 C 
HETATM   14  N   UNL     1      -5.775   3.047 -32.703  1.00  0.00    -0.353 N 
HETATM   15  H   UNL     1      -5.593   2.691 -31.778  1.00  0.00     0.163 HD
HETATM   16  O   UNL     1      -5.379   4.659 -34.276  1.00  0.00    -0.268 OA
BRANCH  14  17
HETATM   17  C   UNL     1      -6.461   2.184 -33.639  1.00  0.00     0.163 C 
BRANCH  17  18
HETATM   18  C   UNL     1      -5.897   0.788 -33.645  1.00  0.00    -0.019 A 
HETATM   19  C   UNL     1      -6.464  -0.256 -34.394  1.00  0.00     0.042 A 
HETATM   20 CL   UNL     1      -7.843  -0.004 -35.404  1.00  0.00    -0.084 Cl
HETATM   21  C   UNL     1      -5.917  -1.542 -34.351  1.00  0.00     0.024 A 
HETATM   22  C   UNL     1      -4.793  -1.802 -33.568  1.00  0.00     0.002 A 
HETATM   23  C   UNL     1      -4.211  -0.775 -32.831  1.00  0.00     0.001 A 
HETATM   24  C   UNL     1      -4.755   0.510 -32.872  1.00  0.00     0.010 A 
ENDBRANCH  17  18
ENDBRANCH  14  17
ENDBRANCH  10  13
BRANCH   1  25
HETATM   25  C   UNL     1       0.171   7.287 -28.191  1.00  0.00     0.025 A 
HETATM   26  C   UNL     1       0.069   7.023 -26.805  1.00  0.00     0.047 A 
HETATM   27  C   UNL     1       0.900   7.735 -25.933  1.00  0.00     0.030 A 
HETATM   28  C   UNL     1       1.824   8.668 -26.418  1.00  0.00     0.002 A 
HETATM   29  C   UNL     1       1.920   8.917 -27.782  1.00  0.00     0.001 A 
HETATM   30  C   UNL     1       1.089   8.235 -28.669  1.00  0.00     0.016 A 
BRANCH  26  31
HETATM   31  N   UNL     1      -0.898   6.098 -26.354  1.00  0.00    -0.327 N 
HETATM   32  C   UNL     1      -2.133   6.226 -25.792  1.00  0.00     0.218 C 
HETATM   33  C   UNL     1      -2.617   7.551 -25.275  1.00  0.00     0.117 C 
HETATM   34  O   UNL     1      -2.835   5.220 -25.664  1.00  0.00    -0.274 OA
HETATM   35  H   UNL     1      -0.648   5.117 -26.490  1.00  0.00     0.169 HD
ENDBRANCH  26  31
ENDBRANCH   1  25
TORSDOF 5
ENDMDL
MODEL 4
REMARK VINA RESULT:      -9.1      3.459     10.098
REMARK  5 active torsions:
REMARK  status: ('A' for Active; 'I' for Inactive)
REMARK       I    between atoms: C_2  and  N_3 
REMARK    1  A    between atoms: N_3  and  C_4 
REMARK    2  A    between atoms: C_5  and  C_6 
REMARK    3  A    between atoms: C_15  and  C_16 
REMARK       I    between atoms: C_16  and  N_17 
REMARK    4  A    between atoms: N_17  and  C_18 
REMARK    5  A    between atoms: C_18  and  C_19 
ROOT
HETATM    1  C   UNL     1      -5.500   0.786 -32.639  1.00  0.00     0.138 A 
HETATM    2  N   UNL     1      -4.889   1.781 -33.226  1.00  0.00    -0.240 NA
HETATM    3  C   UNL     1      -4.646   2.953 -32.489  1.00  0.00     0.084 A 
HETATM    4  C   UNL     1      -5.029   3.091 -31.150  1.00  0.00     0.065 A 
HETATM    5  N   UNL     1      -5.669   2.027 -30.515  1.00  0.00    -0.320 N 
HETATM    6  C   UNL     1      -5.925   0.844 -31.161  1.00  0.00     0.275 A 
HETATM    7  O   UNL     1      -6.442  -0.108 -30.597  1.00  0.00    -0.266 OA
HETATM    8  C   UNL     1      -3.992   4.018 -33.112  1.00  0.00     0.035 A 
HETATM    9  C   UNL     1      -3.725   5.204 -32.413  1.00  0.00     0.019 A 
HETATM   10  C   UNL     1      -4.122   5.335 -31.076  1.00  0.00     0.034 A 
HETATM   11  C   UNL     1      -4.771   4.265 -30.443  1.00  0.00     0.049 A 
HETATM   12  H   UNL     1      -5.931   2.082 -29.540  1.00  0.00     0.169 HD
ENDROOT
BRANCH  10  13
HETATM   13  C   UNL     1      -3.849   6.552 -30.259  1.00  0.00     0.252 C 
HETATM   14  N   UNL     1      -2.778   6.516 -29.394  1.00  0.00    -0.353 N 
HETATM   15  H   UNL     1      -2.225   5.681 -29.279  1.00  0.00     0.163 HD
HETATM   16  O   UNL     1      -4.565   7.541 -30.389  1.00  0.00    -0.268 OA
BRANCH  14  17
HETATM   17  C   UNL     1      -2.565   7.604 -28.464  1.00  0.00     0.163 C 
BRANCH  17  18
HETATM   18  C   UNL     1      -1.170   7.605 -27.898  1.00  0.00    -0.019 A 
HETATM   19  C   UNL     1      -0.852   7.012 -26.666  1.00  0.00     0.042 A 
HETATM   20 CL   UNL     1      -2.041   6.193 -25.717  1.00  0.00    -0.084 Cl
HETATM   21  C   UNL     1       0.455   7.058 -26.170  1.00  0.00     0.024 A 
HETATM   22  C   UNL     1       1.462   7.689 -26.900  1.00  0.00     0.002 A 
HETATM   23  C   UNL     1       1.165   8.269 -28.129  1.00  0.00     0.001 A 
HETATM   24  C   UNL     1      -0.139   8.225 -28.627  1.00  0.00     0.010 A 
ENDBRANCH  17  18
ENDBRANCH  14  17
ENDBRANCH  10  13
BRANCH   1  25
HETATM   25  C   UNL     1      -5.765  -0.462 -33.415  1.00  0.00     0.025 A 
HETATM   26  C   UNL     1      -6.882  -0.556 -34.279  1.00  0.00     0.047 A 
HETATM   27  C   UNL     1      -7.078  -1.750 -34.979  1.00  0.00     0.030 A 
HETATM   28  C   UNL     1      -6.184  -2.819 -34.848  1.00  0.00     0.002 A 
HETATM   29  C   UNL     1      -5.087  -2.716 -34.001  1.00  0.00     0.001 A 
HETATM   30  C   UNL     1      -4.881  -1.543 -33.277  1.00  0.00     0.016 A 
BRANCH  26  31
HETATM   31  N   UNL     1      -7.778   0.533 -34.357  1.00  0.00    -0.327 N 
HETATM   32  C   UNL     1      -8.895   0.886 -33.660  1.00  0.00     0.218 C 
HETATM   33  C   UNL     1      -9.570  -0.085 -32.735  1.00  0.00     0.117 C 
HETATM   34  O   UNL     1      -9.378   2.006 -33.841  1.00  0.00    -0.274 OA
HETATM   35  H   UNL     1      -7.545   1.229 -35.069  1.00  0.00     0.169 HD
ENDBRANCH  26  31
ENDBRANCH   1  25
TORSDOF 5
ENDMDL
MODEL 5
REMARK VINA RESULT:      -9.1      3.396      5.170
REMARK  5 active torsions:
REMARK  status: ('A' for Active; 'I' for Inactive)
REMARK       I    between atoms: C_2  and  N_3 
REMARK    1  A    between atoms: N_3  and  C_4 
REMARK    2  A    between atoms: C_5  and  C_6 
REMARK    3  A    between atoms: C_15  and  C_16 
REMARK       I    between atoms: C_16  and  N_17 
REMARK    4  A    between atoms: N_17  and  C_18 
REMARK    5  A    between atoms: C_18  and  C_19 
ROOT
HETATM    1  C   UNL     1      -2.830   4.856 -31.243  1.00  0.00     0.138 A 
HETATM    2  N   UNL     1      -2.704   3.577 -31.484  1.00  0.00    -0.240 NA
HETATM    3  C   UNL     1      -3.850   2.840 -31.831  1.00  0.00     0.084 A 
HETATM    4  C   UNL     1      -5.117   3.425 -31.934  1.00  0.00     0.065 A 
HETATM    5  N   UNL     1      -5.253   4.793 -31.693  1.00  0.00    -0.320 N 
HETATM    6  C   UNL     1      -4.180   5.582 -31.367  1.00  0.00     0.275 A 
HETATM    7  O   UNL     1      -4.286   6.788 -31.200  1.00  0.00    -0.266 OA
HETATM    8  C   UNL     1      -3.720   1.474 -32.090  1.00  0.00     0.035 A 
HETATM    9  C   UNL     1      -4.835   0.701 -32.444  1.00  0.00     0.019 A 
HETATM   10  C   UNL     1      -6.100   1.296 -32.536  1.00  0.00     0.034 A 
HETATM   11  C   UNL     1      -6.234   2.670 -32.285  1.00  0.00     0.049 A 
HETATM   12  H   UNL     1      -6.148   5.252 -31.790  1.00  0.00     0.169 HD
ENDROOT
BRANCH  10  13
HETATM   13  C   UNL     1      -7.327   0.548 -32.934  1.00  0.00     0.252 C 
HETATM   14  N   UNL     1      -8.493   1.264 -33.085  1.00  0.00    -0.353 N 
HETATM   15  H   UNL     1      -8.532   2.251 -32.885  1.00  0.00     0.163 HD
HETATM   16  O   UNL     1      -7.261  -0.662 -33.130  1.00  0.00    -0.268 OA
BRANCH  14  17
HETATM   17  C   UNL     1      -9.742   0.569 -33.311  1.00  0.00     0.163 C 
BRANCH  17  18
HETATM   18  C   UNL     1     -10.766   1.442 -33.987  1.00  0.00    -0.019 A 
HETATM   19  C   UNL     1     -12.114   1.071 -34.113  1.00  0.00     0.042 A 
HETATM   20 CL   UNL     1     -12.713  -0.412 -33.460  1.00  0.00    -0.084 Cl
HETATM   21  C   UNL     1     -13.024   1.906 -34.769  1.00  0.00     0.024 A 
HETATM   22  C   UNL     1     -12.603   3.124 -35.301  1.00  0.00     0.002 A 
HETATM   23  C   UNL     1     -11.273   3.512 -35.172  1.00  0.00     0.001 A 
HETATM   24  C   UNL     1     -10.362   2.681 -34.517  1.00  0.00     0.010 A 
ENDBRANCH  17  18
ENDBRANCH  14  17
ENDBRANCH  10  13
BRANCH   1  25
HETATM   25  C   UNL     1      -1.619   5.646 -30.871  1.00  0.00     0.025 A 
HETATM   26  C   UNL     1      -0.608   5.917 -31.824  1.00  0.00     0.047 A 
HETATM   27  C   UNL     1       0.503   6.661 -31.416  1.00  0.00     0.030 A 
HETATM   28  C   UNL     1       0.607   7.144 -30.107  1.00  0.00     0.002 A 
HETATM   29  C   UNL     1      -0.393   6.876 -29.178  1.00  0.00     0.001 A 
HETATM   30  C   UNL     1      -1.500   6.121 -29.555  1.00  0.00     0.016 A 
BRANCH  26  31
HETATM   31  N   UNL     1      -0.735   5.383 -33.125  1.00  0.00    -0.327 N 
HETATM   32  C   UNL     1      -1.325   5.826 -34.271  1.00  0.00     0.218 C 
HETATM   33  C   UNL     1      -2.265   6.998 -34.257  1.00  0.00     0.117 C 
HETATM   34  O   UNL     1      -1.117   5.214 -35.321  1.00  0.00    -0.274 OA
HETATM   35  H   UNL     1      -0.273   4.482 -33.265  1.00  0.00     0.169 HD
ENDBRANCH  26  31
ENDBRANCH   1  25
TORSDOF 5
ENDMDL
MODEL 6
REMARK VINA RESULT:      -9.0     17.005     19.040
REMARK  5 active torsions:
REMARK  status: ('A' for Active; 'I' for Inactive)
REMARK       I    between atoms: C_2  and  N_3 
REMARK    1  A    between atoms: N_3  and  C_4 
REMARK    2  A    between atoms: C_5  and  C_6 
REMARK    3  A    between atoms: C_15  and  C_16 
REMARK       I    between atoms: C_16  and  N_17 
REMARK    4  A    between atoms: N_17  and  C_18 
REMARK    5  A    between atoms: C_18  and  C_19 
ROOT
HETATM    1  C   UNL     1      -7.310 -14.057 -36.732  1.00  0.00     0.138 A 
HETATM    2  N   UNL     1      -7.030 -13.277 -35.720  1.00  0.00    -0.240 NA
HETATM    3  C   UNL     1      -6.493 -13.850 -34.555  1.00  0.00     0.084 A 
HETATM    4  C   UNL     1      -6.240 -15.222 -34.440  1.00  0.00     0.065 A 
HETATM    5  N   UNL     1      -6.523 -16.056 -35.522  1.00  0.00    -0.320 N 
HETATM    6  C   UNL     1      -7.031 -15.569 -36.700  1.00  0.00     0.275 A 
HETATM    7  O   UNL     1      -7.237 -16.288 -37.666  1.00  0.00    -0.266 OA
HETATM    8  C   UNL     1      -6.193 -13.021 -33.473  1.00  0.00     0.035 A 
HETATM    9  C   UNL     1      -5.651 -13.549 -32.292  1.00  0.00     0.019 A 
HETATM   10  C   UNL     1      -5.411 -14.925 -32.185  1.00  0.00     0.034 A 
HETATM   11  C   UNL     1      -5.702 -15.761 -33.273  1.00  0.00     0.049 A 
HETATM   12  H   UNL     1      -6.323 -17.046 -35.484  1.00  0.00     0.169 HD
ENDROOT
BRANCH  10  13
HETATM   13  C   UNL     1      -4.811 -15.558 -30.975  1.00  0.00     0.252 C 
HETATM   14  N   UNL     1      -3.590 -16.180 -31.116  1.00  0.00    -0.353 N 
HETATM   15  H   UNL     1      -3.139 -16.250 -32.014  1.00  0.00     0.163 HD
HETATM   16  O   UNL     1      -5.403 -15.493 -29.902  1.00  0.00    -0.268 OA
BRANCH  14  17
HETATM   17  C   UNL     1      -3.041 -16.946 -30.018  1.00  0.00     0.163 C 
BRANCH  17  18
HETATM   18  C   UNL     1      -1.835 -16.282 -29.408  1.00  0.00    -0.019 A 
HETATM   19  C   UNL     1      -1.228 -16.748 -28.231  1.00  0.00     0.042 A 
HETATM   20 CL   UNL     1      -1.801 -18.155 -27.408  1.00  0.00    -0.084 Cl
HETATM   21  C   UNL     1      -0.122 -16.085 -27.689  1.00  0.00     0.024 A 
HETATM   22  C   UNL     1       0.397 -14.954 -28.319  1.00  0.00     0.002 A 
HETATM   23  C   UNL     1      -0.185 -14.489 -29.494  1.00  0.00     0.001 A 
HETATM   24  C   UNL     1      -1.289 -15.148 -30.037  1.00  0.00     0.010 A 
ENDBRANCH  17  18
ENDBRANCH  14  17
ENDBRANCH  10  13
BRANCH   1  25
HETATM   25  C   UNL     1      -7.883 -13.457 -37.973  1.00  0.00     0.025 A 
HETATM   26  C   UNL     1      -7.128 -12.554 -38.759  1.00  0.00     0.047 A 
HETATM   27  C   UNL     1      -7.719 -12.024 -39.910  1.00  0.00     0.030 A 
HETATM   28  C   UNL     1      -9.016 -12.390 -40.289  1.00  0.00     0.002 A 
HETATM   29  C   UNL     1      -9.749 -13.281 -39.513  1.00  0.00     0.001 A 
HETATM   30  C   UNL     1      -9.189 -13.807 -38.352  1.00  0.00     0.016 A 
BRANCH  26  31
HETATM   31  N   UNL     1      -5.836 -12.185 -38.324  1.00  0.00    -0.327 N 
HETATM   32  C   UNL     1      -4.580 -12.428 -38.792  1.00  0.00     0.218 C 
HETATM   33  C   UNL     1      -4.333 -13.466 -39.849  1.00  0.00     0.117 C 
HETATM   34  O   UNL     1      -3.632 -11.815 -38.295  1.00  0.00    -0.274 OA
HETATM   35  H   UNL     1      -5.818 -11.589 -37.494  1.00  0.00     0.169 HD
ENDBRANCH  26  31
ENDBRANCH   1  25
TORSDOF 5
ENDMDL
MODEL 7
REMARK VINA RESULT:      -9.0      1.679      2.015
REMARK  5 active torsions:
REMARK  status: ('A' for Active; 'I' for Inactive)
REMARK       I    between atoms: C_2  and  N_3 
REMARK    1  A    between atoms: N_3  and  C_4 
REMARK    2  A    between atoms: C_5  and  C_6 
REMARK    3  A    between atoms: C_15  and  C_16 
REMARK       I    between atoms: C_16  and  N_17 
REMARK    4  A    between atoms: N_17  and  C_18 
REMARK    5  A    between atoms: C_18  and  C_19 
ROOT
HETATM    1  C   UNL     1      -4.598   6.449 -31.303  1.00  0.00     0.138 A 
HETATM    2  N   UNL     1      -3.972   5.304 -31.210  1.00  0.00    -0.240 NA
HETATM    3  C   UNL     1      -4.500   4.190 -31.884  1.00  0.00     0.084 A 
HETATM    4  C   UNL     1      -5.666   4.261 -32.656  1.00  0.00     0.065 A 
HETATM    5  N   UNL     1      -6.329   5.484 -32.770  1.00  0.00    -0.320 N 
HETATM    6  C   UNL     1      -5.866   6.620 -32.157  1.00  0.00     0.275 A 
HETATM    7  O   UNL     1      -6.416   7.703 -32.292  1.00  0.00    -0.266 OA
HETATM    8  C   UNL     1      -3.835   2.967 -31.788  1.00  0.00     0.035 A 
HETATM    9  C   UNL     1      -4.323   1.830 -32.448  1.00  0.00     0.019 A 
HETATM   10  C   UNL     1      -5.496   1.911 -33.210  1.00  0.00     0.034 A 
HETATM   11  C   UNL     1      -6.163   3.140 -33.317  1.00  0.00     0.049 A 
HETATM   12  H   UNL     1      -7.155   5.577 -33.345  1.00  0.00     0.169 HD
ENDROOT
BRANCH  10  13
HETATM   13  C   UNL     1      -6.062   0.755 -33.964  1.00  0.00     0.252 C 
HETATM   14  N   UNL     1      -5.686  -0.511 -33.573  1.00  0.00    -0.353 N 
HETATM   15  H   UNL     1      -5.014  -0.654 -32.836  1.00  0.00     0.163 HD
HETATM   16  O   UNL     1      -6.846   0.960 -34.885  1.00  0.00    -0.268 OA
BRANCH  14  17
HETATM   17  C   UNL     1      -6.075  -1.655 -34.368  1.00  0.00     0.163 C 
BRANCH  17  18
HETATM   18  C   UNL     1      -5.218  -2.861 -34.087  1.00  0.00    -0.019 A 
HETATM   19  C   UNL     1      -5.510  -4.135 -34.601  1.00  0.00     0.042 A 
HETATM   20 CL   UNL     1      -6.866  -4.408 -35.637  1.00  0.00    -0.084 Cl
HETATM   21  C   UNL     1      -4.696  -5.230 -34.296  1.00  0.00     0.024 A 
HETATM   22  C   UNL     1      -3.577  -5.068 -33.479  1.00  0.00     0.002 A 
HETATM   23  C   UNL     1      -3.267  -3.809 -32.974  1.00  0.00     0.001 A 
HETATM   24  C   UNL     1      -4.077  -2.714 -33.278  1.00  0.00     0.010 A 
ENDBRANCH  17  18
ENDBRANCH  14  17
ENDBRANCH  10  13
BRANCH   1  25
HETATM   25  C   UNL     1      -4.046   7.637 -30.587  1.00  0.00     0.025 A 
HETATM   26  C   UNL     1      -3.019   8.420 -31.166  1.00  0.00     0.047 A 
HETATM   27  C   UNL     1      -2.541   9.520 -30.448  1.00  0.00     0.030 A 
HETATM   28  C   UNL     1      -3.076   9.855 -29.199  1.00  0.00     0.002 A 
HETATM   29  C   UNL     1      -4.089   9.082 -28.640  1.00  0.00     0.001 A 
HETATM   30  C   UNL     1      -4.568   7.970 -29.328  1.00  0.00     0.016 A 
BRANCH  26  31
HETATM   31  N   UNL     1      -2.482   8.029 -32.413  1.00  0.00    -0.327 N 
HETATM   32  C   UNL     1      -1.387   7.307 -32.782  1.00  0.00     0.218 C 
HETATM   33  C   UNL     1      -0.307   6.976 -31.793  1.00  0.00     0.117 C 
HETATM   34  O   UNL     1      -1.269   6.971 -33.963  1.00  0.00    -0.274 OA
HETATM   35  H   UNL     1      -3.030   8.322 -33.225  1.00  0.00     0.169 HD
ENDBRANCH  26  31
ENDBRANCH   1  25
TORSDOF 5
ENDMDL
MODEL 8
REMARK VINA RESULT:      -8.7      4.132     10.014
REMARK  5 active torsions:
REMARK  status: ('A' for Active; 'I' for Inactive)
REMARK       I    between atoms: C_2  and  N_3 
REMARK    1  A    between atoms: N_3  and  C_4 
REMARK    2  A    between atoms: C_5  and  C_6 
REMARK    3  A    between atoms: C_15  and  C_16 
REMARK       I    between atoms: C_16  and  N_17 
REMARK    4  A    between atoms: N_17  and  C_18 
REMARK    5  A    between atoms: C_18  and  C_19 
ROOT
HETATM    1  C   UNL     1      -5.564   2.755 -33.126  1.00  0.00     0.138 A 
HETATM    2  N   UNL     1      -4.388   3.179 -33.509  1.00  0.00    -0.240 NA
HETATM    3  C   UNL     1      -3.888   4.372 -32.960  1.00  0.00     0.084 A 
HETATM    4  C   UNL     1      -4.600   5.120 -32.015  1.00  0.00     0.065 A 
HETATM    5  N   UNL     1      -5.849   4.664 -31.591  1.00  0.00    -0.320 N 
HETATM    6  C   UNL     1      -6.396   3.500 -32.067  1.00  0.00     0.275 A 
HETATM    7  O   UNL     1      -7.468   3.072 -31.665  1.00  0.00    -0.266 OA
HETATM    8  C   UNL     1      -2.633   4.827 -33.366  1.00  0.00     0.035 A 
HETATM    9  C   UNL     1      -2.093   6.010 -32.840  1.00  0.00     0.019 A 
HETATM   10  C   UNL     1      -2.818   6.755 -31.902  1.00  0.00     0.034 A 
HETATM   11  C   UNL     1      -4.077   6.298 -31.484  1.00  0.00     0.049 A 
HETATM   12  H   UNL     1      -6.374   5.164 -30.887  1.00  0.00     0.169 HD
ENDROOT
BRANCH  10  13
HETATM   13  C   UNL     1      -2.301   8.006 -31.276  1.00  0.00     0.252 C 
HETATM   14  N   UNL     1      -2.001   7.975 -29.933  1.00  0.00    -0.353 N 
HETATM   15  H   UNL     1      -2.172   7.151 -29.377  1.00  0.00     0.163 HD
HETATM   16  O   UNL     1      -2.142   9.007 -31.969  1.00  0.00    -0.268 OA
BRANCH  14  17
HETATM   17  C   UNL     1      -1.652   9.197 -29.244  1.00  0.00     0.163 C 
BRANCH  17  18
HETATM   18  C   UNL     1      -0.533   8.995 -28.256  1.00  0.00    -0.019 A 
HETATM   19  C   UNL     1      -0.246   9.916 -27.237  1.00  0.00     0.042 A 
HETATM   20 CL   UNL     1      -1.188  11.347 -27.012  1.00  0.00    -0.084 Cl
HETATM   21  C   UNL     1       0.818   9.696 -26.356  1.00  0.00     0.024 A 
HETATM   22  C   UNL     1       1.604   8.550 -26.476  1.00  0.00     0.002 A 
HETATM   23  C   UNL     1       1.322   7.620 -27.473  1.00  0.00     0.001 A 
HETATM   24  C   UNL     1       0.261   7.838 -28.353  1.00  0.00     0.010 A 
ENDBRANCH  17  18
ENDBRANCH  14  17
ENDBRANCH  10  13
BRANCH   1  25
HETATM   25  C   UNL     1      -6.104   1.490 -33.706  1.00  0.00     0.025 A 
HETATM   26  C   UNL     1      -5.501   0.244 -33.416  1.00  0.00     0.047 A 
HETATM   27  C   UNL     1      -6.050  -0.907 -33.990  1.00  0.00     0.030 A 
HETATM   28  C   UNL     1      -7.180  -0.834 -34.813  1.00  0.00     0.002 A 
HETATM   29  C   UNL     1      -7.769   0.395 -35.088  1.00  0.00     0.001 A 
HETATM   30  C   UNL     1      -7.228   1.557 -34.544  1.00  0.00     0.016 A 
BRANCH  26  31
HETATM   31  N   UNL     1      -4.342   0.216 -32.608  1.00  0.00    -0.327 N 
HETATM   32  C   UNL     1      -4.134   0.140 -31.264  1.00  0.00     0.218 C 
HETATM   33  C   UNL     1      -5.260   0.345 -30.291  1.00  0.00     0.117 C 
HETATM   34  O   UNL     1      -2.987  -0.048 -30.851  1.00  0.00    -0.274 OA
HETATM   35  H   UNL     1      -3.460   0.234 -33.125  1.00  0.00     0.169 HD
ENDBRANCH  26  31
ENDBRANCH   1  25
TORSDOF 5
ENDMDL
MODEL 9
REMARK VINA RESULT:      -8.6      5.223      9.644
REMARK  5 active torsions:
REMARK  status: ('A' for Active; 'I' for Inactive)
REMARK       I    between atoms: C_2  and  N_3 
REMARK    1  A    between atoms: N_3  and  C_4 
REMARK    2  A    between atoms: C_5  and  C_6 
REMARK    3  A    between atoms: C_15  and  C_16 
REMARK       I    between atoms: C_16  and  N_17 
REMARK    4  A    between atoms: N_17  and  C_18 
REMARK    5  A    between atoms: C_18  and  C_19 
ROOT
HETATM    1  C   UNL     1     -10.865   1.952 -33.454  1.00  0.00     0.138 A 
HETATM    2  N   UNL     1     -10.155   1.282 -32.586  1.00  0.00    -0.240 NA
HETATM    3  C   UNL     1      -8.759   1.447 -32.582  1.00  0.00     0.084 A 
HETATM    4  C   UNL     1      -8.104   2.308 -33.470  1.00  0.00     0.065 A 
HETATM    5  N   UNL     1      -8.858   3.037 -34.390  1.00  0.00    -0.320 N 
HETATM    6  C   UNL     1     -10.226   2.943 -34.442  1.00  0.00     0.275 A 
HETATM    7  O   UNL     1     -10.896   3.614 -35.213  1.00  0.00    -0.266 OA
HETATM    8  C   UNL     1      -7.997   0.734 -31.656  1.00  0.00     0.035 A 
HETATM    9  C   UNL     1      -6.602   0.873 -31.614  1.00  0.00     0.019 A 
HETATM   10  C   UNL     1      -5.956   1.730 -32.514  1.00  0.00     0.034 A 
HETATM   11  C   UNL     1      -6.718   2.457 -33.441  1.00  0.00     0.049 A 
HETATM   12  H   UNL     1      -8.419   3.691 -35.023  1.00  0.00     0.169 HD
ENDROOT
BRANCH  10  13
HETATM   13  C   UNL     1      -4.482   1.954 -32.513  1.00  0.00     0.252 C 
HETATM   14  N   UNL     1      -4.029   3.251 -32.608  1.00  0.00    -0.353 N 
HETATM   15  H   UNL     1      -4.669   4.021 -32.724  1.00  0.00     0.163 HD
HETATM   16  O   UNL     1      -3.724   0.992 -32.413  1.00  0.00    -0.268 OA
BRANCH  14  17
HETATM   17  C   UNL     1      -2.616   3.511 -32.774  1.00  0.00     0.163 C 
BRANCH  17  18
HETATM   18  C   UNL     1      -2.298   4.982 -32.724  1.00  0.00    -0.019 A 
HETATM   19  C   UNL     1      -2.568   5.853 -33.791  1.00  0.00     0.042 A 
HETATM   20 CL   UNL     1      -3.329   5.304 -35.242  1.00  0.00    -0.084 Cl
HETATM   21  C   UNL     1      -2.234   7.209 -33.706  1.00  0.00     0.024 A 
HETATM   22  C   UNL     1      -1.634   7.714 -32.553  1.00  0.00     0.002 A 
HETATM   23  C   UNL     1      -1.373   6.866 -31.481  1.00  0.00     0.001 A 
HETATM   24  C   UNL     1      -1.705   5.512 -31.563  1.00  0.00     0.010 A 
ENDBRANCH  17  18
ENDBRANCH  14  17
ENDBRANCH  10  13
BRANCH   1  25
HETATM   25  C   UNL     1     -12.348   1.779 -33.467  1.00  0.00     0.025 A 
HETATM   26  C   UNL     1     -13.176   2.556 -32.623  1.00  0.00     0.047 A 
HETATM   27  C   UNL     1     -14.558   2.349 -32.678  1.00  0.00     0.030 A 
HETATM   28  C   UNL     1     -15.113   1.413 -33.558  1.00  0.00     0.002 A 
HETATM   29  C   UNL     1     -14.291   0.657 -34.386  1.00  0.00     0.001 A 
HETATM   30  C   UNL     1     -12.911   0.831 -34.336  1.00  0.00     0.016 A 
BRANCH  26  31
HETATM   31  N   UNL     1     -12.575   3.467 -31.725  1.00  0.00    -0.327 N 
HETATM   32  C   UNL     1     -12.430   4.821 -31.714  1.00  0.00     0.218 C 
HETATM   33  C   UNL     1     -12.716   5.642 -32.940  1.00  0.00     0.117 C 
HETATM   34  O   UNL     1     -12.008   5.365 -30.691  1.00  0.00    -0.274 OA
HETATM   35  H   UNL     1     -12.176   3.040 -30.886  1.00  0.00     0.169 HD
ENDBRANCH  26  31
ENDBRANCH   1  25
TORSDOF 5
ENDMDL
MODEL 10
REMARK VINA RESULT:      -8.6      2.849      4.029
REMARK  5 active torsions:
REMARK  status: ('A' for Active; 'I' for Inactive)
REMARK       I    between atoms: C_2  and  N_3 
REMARK    1  A    between atoms: N_3  and  C_4 
REMARK    2  A    between atoms: C_5  and  C_6 
REMARK    3  A    between atoms: C_15  and  C_16 
REMARK       I    between atoms: C_16  and  N_17 
REMARK    4  A    between atoms: N_17  and  C_18 
REMARK    5  A    between atoms: C_18  and  C_19 
ROOT
HETATM    1  C   UNL     1      -2.424   7.117 -29.027  1.00  0.00     0.138 A 
HETATM    2  N   UNL     1      -2.411   6.858 -30.309  1.00  0.00    -0.240 NA
HETATM    3  C   UNL     1      -3.489   6.147 -30.865  1.00  0.00     0.084 A 
HETATM    4  C   UNL     1      -4.577   5.714 -30.099  1.00  0.00     0.065 A 
HETATM    5  N   UNL     1      -4.603   6.000 -28.734  1.00  0.00    -0.320 N 
HETATM    6  C   UNL     1      -3.597   6.705 -28.122  1.00  0.00     0.275 A 
HETATM    7  O   UNL     1      -3.637   6.999 -26.937  1.00  0.00    -0.266 OA
HETATM    8  C   UNL     1      -3.479   5.869 -32.232  1.00  0.00     0.035 A 
HETATM    9  C   UNL     1      -4.537   5.168 -32.830  1.00  0.00     0.019 A 
HETATM   10  C   UNL     1      -5.616   4.730 -32.052  1.00  0.00     0.034 A 
HETATM   11  C   UNL     1      -5.635   5.015 -30.679  1.00  0.00     0.049 A 
HETATM   12  H   UNL     1      -5.388   5.729 -28.158  1.00  0.00     0.169 HD
ENDROOT
BRANCH  10  13
HETATM   13  C   UNL     1      -6.789   4.005 -32.618  1.00  0.00     0.252 C 
HETATM   14  N   UNL     1      -7.333   2.983 -31.872  1.00  0.00    -0.353 N 
HETATM   15  H   UNL     1      -6.924   2.701 -30.995  1.00  0.00     0.163 HD
HETATM   16  O   UNL     1      -7.241   4.343 -33.709  1.00  0.00    -0.268 OA
BRANCH  14  17
HETATM   17  C   UNL     1      -8.365   2.144 -32.441  1.00  0.00     0.163 C 
BRANCH  17  18
HETATM   18  C   UNL     1      -7.795   0.980 -33.207  1.00  0.00    -0.019 A 
HETATM   19  C   UNL     1      -7.043  -0.035 -32.594  1.00  0.00     0.042 A 
HETATM   20 CL   UNL     1      -6.746  -0.045 -30.892  1.00  0.00    -0.084 Cl
HETATM   21  C   UNL     1      -6.515  -1.086 -33.351  1.00  0.00     0.024 A 
HETATM   22  C   UNL     1      -6.736  -1.142 -34.727  1.00  0.00     0.002 A 
HETATM   23  C   UNL     1      -7.492  -0.150 -35.346  1.00  0.00     0.001 A 
HETATM   24  C   UNL     1      -8.020   0.900 -34.593  1.00  0.00     0.010 A 
ENDBRANCH  17  18
ENDBRANCH  14  17
ENDBRANCH  10  13
BRANCH   1  25
HETATM   25  C   UNL     1      -1.281   7.868 -28.428  1.00  0.00     0.025 A 
HETATM   26  C   UNL     1      -0.012   7.261 -28.280  1.00  0.00     0.047 A 
HETATM   27  C   UNL     1       1.020   8.015 -27.711  1.00  0.00     0.030 A 
HETATM   28  C   UNL     1       0.812   9.341 -27.317  1.00  0.00     0.002 A 
HETATM   29  C   UNL     1      -0.438   9.931 -27.471  1.00  0.00     0.001 A 
HETATM   30  C   UNL     1      -1.487   9.195 -28.017  1.00  0.00     0.016 A 
BRANCH  26  31
HETATM   31  N   UNL     1       0.148   5.910 -28.660  1.00  0.00    -0.327 N 
HETATM   32  C   UNL     1       0.585   5.296 -29.795  1.00  0.00     0.218 C 
HETATM   33  C   UNL     1       0.759   6.064 -31.074  1.00  0.00     0.117 C 
HETATM   34  O   UNL     1       0.788   4.080 -29.772  1.00  0.00    -0.274 OA
HETATM   35  H   UNL     1      -0.088   5.231 -27.933  1.00  0.00     0.169 HD
ENDBRANCH  26  31
ENDBRANCH   1  25
TORSDOF 5
ENDMDL
