MODEL 1
REMARK VINA RESULT:      -8.6      0.000      0.000
REMARK  3 active torsions:
REMARK  status: ('A' for Active; 'I' for Inactive)
REMARK       I    between atoms: N_2  and  C_3 
REMARK    1  A    between atoms: C_3  and  C_4 
REMARK    2  A    between atoms: C_6  and  N_7 
REMARK       I    between atoms: N_7  and  C_8 
REMARK    3  A    between atoms: C_8  and  C_9 
ROOT
HETATM    1  N   UNL     1      -4.400   1.359 -32.600  1.00  0.00    -0.321 N 
HETATM    2  C   UNL     1      -3.858   0.127 -32.274  1.00  0.00     0.280 C 
HETATM    3  O   UNL     1      -2.937  -0.057 -31.484  1.00  0.00    -0.265 OA
HETATM    4  H   UNL     1      -5.131   1.324 -33.304  1.00  0.00     0.169 HD
ENDROOT
BRANCH   1   5
HETATM    5  C   UNL     1      -4.013   2.630 -32.135  1.00  0.00     0.036 A 
HETATM    6  C   UNL     1      -2.794   3.233 -32.448  1.00  0.00     0.046 A 
HETATM    7  C   UNL     1      -2.509   4.529 -31.999  1.00  0.00     0.034 A 
HETATM    8  C   UNL     1      -3.419   5.200 -31.175  1.00  0.00     0.017 A 
HETATM    9  C   UNL     1      -4.625   4.593 -30.836  1.00  0.00     0.003 A 
HETATM   10  C   UNL     1      -4.923   3.316 -31.319  1.00  0.00     0.029 A 
BRANCH   7  11
HETATM   11  C   UNL     1      -1.225   5.198 -32.316  1.00  0.00     0.251 C 
HETATM   12  N   UNL     1      -1.136   6.102 -33.344  1.00  0.00    -0.361 N 
HETATM   13  C   UNL     1      -2.199   6.713 -34.110  1.00  0.00     0.149 C 
HETATM   14  H   UNL     1      -0.198   6.462 -33.471  1.00  0.00     0.162 HD
HETATM   15  O   UNL     1      -0.232   4.953 -31.633  1.00  0.00    -0.268 OA
ENDBRANCH   7  11
ENDBRANCH   1   5
BRANCH   2  16
HETATM   16  C   UNL     1      -4.476  -0.968 -32.997  1.00  0.00     0.144 A 
HETATM   17  O   UNL     1      -3.807  -2.161 -33.115  1.00  0.00    -0.304 OA
HETATM   18  C   UNL     1      -4.616  -3.007 -33.810  1.00  0.00     0.086 A 
HETATM   19  C   UNL     1      -5.805  -2.372 -34.149  1.00  0.00     0.001 A 
HETATM   20  C   UNL     1      -4.314  -4.326 -34.141  1.00  0.00     0.038 A 
HETATM   21  C   UNL     1      -5.703  -1.059 -33.625  1.00  0.00     0.057 A 
HETATM   22  C   UNL     1      -6.773  -3.095 -34.867  1.00  0.00     0.014 A 
HETATM   23  C   UNL     1      -6.499  -4.427 -35.212  1.00  0.00     0.001 A 
HETATM   24  C   UNL     1      -5.289  -5.029 -34.855  1.00  0.00     0.003 A 
ENDBRANCH   2  16
TORSDOF 3
ENDMDL
MODEL 2
REMARK VINA RESULT:      -8.5      1.239      1.302
REMARK  3 active torsions:
REMARK  status: ('A' for Active; 'I' for Inactive)
REMARK       I    between atoms: N_2  and  C_3 
REMARK    1  A    between atoms: C_3  and  C_4 
REMARK    2  A    between atoms: C_6  and  N_7 
REMARK       I    between atoms: N_7  and  C_8 
REMARK    3  A    between atoms: C_8  and  C_9 
ROOT
HETATM    1  N   UNL     1      -4.530   1.276 -32.775  1.00  0.00    -0.321 N 
HETATM    2  C   UNL     1      -5.600   1.000 -33.609  1.00  0.00     0.280 C 
HETATM    3  O   UNL     1      -6.402   1.826 -34.032  1.00  0.00    -0.265 OA
HETATM    4  H   UNL     1      -3.994   0.461 -32.493  1.00  0.00     0.169 HD
ENDROOT
BRANCH   1   5
HETATM    5  C   UNL     1      -4.153   2.516 -32.226  1.00  0.00     0.036 A 
HETATM    6  C   UNL     1      -2.940   3.151 -32.502  1.00  0.00     0.046 A 
HETATM    7  C   UNL     1      -2.666   4.416 -31.967  1.00  0.00     0.034 A 
HETATM    8  C   UNL     1      -3.578   5.021 -31.097  1.00  0.00     0.017 A 
HETATM    9  C   UNL     1      -4.777   4.381 -30.795  1.00  0.00     0.003 A 
HETATM   10  C   UNL     1      -5.065   3.137 -31.362  1.00  0.00     0.029 A 
BRANCH   7  11
HETATM   11  C   UNL     1      -1.388   5.117 -32.242  1.00  0.00     0.251 C 
HETATM   12  N   UNL     1      -1.281   6.001 -33.285  1.00  0.00    -0.361 N 
HETATM   13  C   UNL     1      -2.327   6.564 -34.110  1.00  0.00     0.149 C 
HETATM   14  H   UNL     1      -0.349   6.387 -33.379  1.00  0.00     0.162 HD
HETATM   15  O   UNL     1      -0.420   4.916 -31.511  1.00  0.00    -0.268 OA
ENDBRANCH   7  11
ENDBRANCH   1   5
BRANCH   2  16
HETATM   16  C   UNL     1      -5.714  -0.411 -33.928  1.00  0.00     0.144 A 
HETATM   17  O   UNL     1      -4.624  -1.230 -33.765  1.00  0.00    -0.304 OA
HETATM   18  C   UNL     1      -5.013  -2.488 -34.110  1.00  0.00     0.086 A 
HETATM   19  C   UNL     1      -6.348  -2.494 -34.498  1.00  0.00     0.001 A 
HETATM   20  C   UNL     1      -4.204  -3.622 -34.079  1.00  0.00     0.038 A 
HETATM   21  C   UNL     1      -6.788  -1.152 -34.382  1.00  0.00     0.057 A 
HETATM   22  C   UNL     1      -6.931  -3.714 -34.884  1.00  0.00     0.014 A 
HETATM   23  C   UNL     1      -6.142  -4.873 -34.861  1.00  0.00     0.001 A 
HETATM   24  C   UNL     1      -4.802  -4.825 -34.466  1.00  0.00     0.003 A 
ENDBRANCH   2  16
TORSDOF 3
ENDMDL
MODEL 3
REMARK VINA RESULT:      -8.4      1.023      1.350
REMARK  3 active torsions:
REMARK  status: ('A' for Active; 'I' for Inactive)
REMARK       I    between atoms: N_2  and  C_3 
REMARK    1  A    between atoms: C_3  and  C_4 
REMARK    2  A    between atoms: C_6  and  N_7 
REMARK       I    between atoms: N_7  and  C_8 
REMARK    3  A    between atoms: C_8  and  C_9 
ROOT
HETATM    1  N   UNL     1      -4.065   1.629 -32.479  1.00  0.00    -0.321 N 
HETATM    2  C   UNL     1      -3.522   0.441 -32.020  1.00  0.00     0.280 C 
HETATM    3  O   UNL     1      -2.686   0.341 -31.128  1.00  0.00    -0.265 OA
HETATM    4  H   UNL     1      -4.715   1.524 -33.252  1.00  0.00     0.169 HD
ENDROOT
BRANCH   1   5
HETATM    5  C   UNL     1      -3.770   2.939 -32.059  1.00  0.00     0.036 A 
HETATM    6  C   UNL     1      -2.610   3.628 -32.419  1.00  0.00     0.046 A 
HETATM    7  C   UNL     1      -2.420   4.955 -32.012  1.00  0.00     0.034 A 
HETATM    8  C   UNL     1      -3.361   5.576 -31.185  1.00  0.00     0.017 A 
HETATM    9  C   UNL     1      -4.507   4.886 -30.799  1.00  0.00     0.003 A 
HETATM   10  C   UNL     1      -4.713   3.575 -31.239  1.00  0.00     0.029 A 
BRANCH   7  11
HETATM   11  C   UNL     1      -1.200   5.714 -32.379  1.00  0.00     0.251 C 
HETATM   12  N   UNL     1      -0.154   5.834 -31.500  1.00  0.00    -0.361 N 
HETATM   13  C   UNL     1       0.070   5.135 -30.254  1.00  0.00     0.149 C 
HETATM   14  H   UNL     1       0.602   6.401 -31.865  1.00  0.00     0.162 HD
HETATM   15  O   UNL     1      -1.120   6.223 -33.495  1.00  0.00    -0.268 OA
ENDBRANCH   7  11
ENDBRANCH   1   5
BRANCH   2  16
HETATM   16  C   UNL     1      -4.024  -0.719 -32.732  1.00  0.00     0.144 A 
HETATM   17  O   UNL     1      -3.390  -1.928 -32.584  1.00  0.00    -0.304 OA
HETATM   18  C   UNL     1      -4.076  -2.834 -33.334  1.00  0.00     0.086 A 
HETATM   19  C   UNL     1      -5.150  -2.223 -33.972  1.00  0.00     0.001 A 
HETATM   20  C   UNL     1      -3.764  -4.186 -33.454  1.00  0.00     0.038 A 
HETATM   21  C   UNL     1      -5.105  -0.861 -33.581  1.00  0.00     0.057 A 
HETATM   22  C   UNL     1      -5.982  -3.007 -34.789  1.00  0.00     0.014 A 
HETATM   23  C   UNL     1      -5.694  -4.373 -34.928  1.00  0.00     0.001 A 
HETATM   24  C   UNL     1      -4.603  -4.949 -34.272  1.00  0.00     0.003 A 
ENDBRANCH   2  16
TORSDOF 3
ENDMDL
MODEL 4
REMARK VINA RESULT:      -8.3      5.274      7.202
REMARK  3 active torsions:
REMARK  status: ('A' for Active; 'I' for Inactive)
REMARK       I    between atoms: N_2  and  C_3 
REMARK    1  A    between atoms: C_3  and  C_4 
REMARK    2  A    between atoms: C_6  and  N_7 
REMARK       I    between atoms: N_7  and  C_8 
REMARK    3  A    between atoms: C_8  and  C_9 
ROOT
HETATM    1  N   UNL     1      -8.456   0.180 -33.585  1.00  0.00    -0.321 N 
HETATM    2  C   UNL     1      -7.423   0.137 -34.506  1.00  0.00     0.280 C 
HETATM    3  O   UNL     1      -7.222   0.968 -35.386  1.00  0.00    -0.265 OA
HETATM    4  H   UNL     1      -8.491  -0.615 -32.955  1.00  0.00     0.169 HD
ENDROOT
BRANCH   1   5
HETATM    5  C   UNL     1      -9.481   1.137 -33.472  1.00  0.00     0.036 A 
HETATM    6  C   UNL     1     -10.595   1.185 -34.311  1.00  0.00     0.046 A 
HETATM    7  C   UNL     1     -11.606   2.131 -34.093  1.00  0.00     0.034 A 
HETATM    8  C   UNL     1     -11.471   3.077 -33.073  1.00  0.00     0.017 A 
HETATM    9  C   UNL     1     -10.349   3.053 -32.249  1.00  0.00     0.003 A 
HETATM   10  C   UNL     1      -9.361   2.084 -32.444  1.00  0.00     0.029 A 
BRANCH   7  11
HETATM   11  C   UNL     1     -12.802   2.206 -34.966  1.00  0.00     0.251 C 
HETATM   12  N   UNL     1     -14.012   1.716 -34.545  1.00  0.00    -0.361 N 
HETATM   13  C   UNL     1     -14.407   1.280 -33.224  1.00  0.00     0.149 C 
HETATM   14  H   UNL     1     -14.737   1.804 -35.247  1.00  0.00     0.162 HD
HETATM   15  O   UNL     1     -12.710   2.734 -36.072  1.00  0.00    -0.268 OA
ENDBRANCH   7  11
ENDBRANCH   1   5
BRANCH   2  16
HETATM   16  C   UNL     1      -6.585  -1.038 -34.356  1.00  0.00     0.144 A 
HETATM   17  O   UNL     1      -7.027  -2.247 -34.833  1.00  0.00    -0.304 OA
HETATM   18  C   UNL     1      -6.046  -3.158 -34.585  1.00  0.00     0.086 A 
HETATM   19  C   UNL     1      -4.970  -2.551 -33.947  1.00  0.00     0.001 A 
HETATM   20  C   UNL     1      -6.094  -4.509 -34.920  1.00  0.00     0.038 A 
HETATM   21  C   UNL     1      -5.329  -1.188 -33.800  1.00  0.00     0.057 A 
HETATM   22  C   UNL     1      -3.853  -3.338 -33.616  1.00  0.00     0.014 A 
HETATM   23  C   UNL     1      -3.871  -4.702 -33.942  1.00  0.00     0.001 A 
HETATM   24  C   UNL     1      -4.973  -5.275 -34.582  1.00  0.00     0.003 A 
ENDBRANCH   2  16
TORSDOF 3
ENDMDL
MODEL 5
REMARK VINA RESULT:      -8.2      6.343      8.390
REMARK  3 active torsions:
REMARK  status: ('A' for Active; 'I' for Inactive)
REMARK       I    between atoms: N_2  and  C_3 
REMARK    1  A    between atoms: C_3  and  C_4 
REMARK    2  A    between atoms: C_6  and  N_7 
REMARK       I    between atoms: N_7  and  C_8 
REMARK    3  A    between atoms: C_8  and  C_9 
ROOT
HETATM    1  N   UNL     1      -9.685   0.824 -33.923  1.00  0.00    -0.321 N 
HETATM    2  C   UNL     1      -8.978   0.785 -32.733  1.00  0.00     0.280 C 
HETATM    3  O   UNL     1      -9.301   1.355 -31.696  1.00  0.00    -0.265 OA
HETATM    4  H   UNL     1      -9.246   0.325 -34.690  1.00  0.00     0.169 HD
ENDROOT
BRANCH   1   5
HETATM    5  C   UNL     1     -10.875   1.521 -34.204  1.00  0.00     0.036 A 
HETATM    6  C   UNL     1     -12.151   1.011 -33.956  1.00  0.00     0.046 A 
HETATM    7  C   UNL     1     -13.286   1.793 -34.204  1.00  0.00     0.034 A 
HETATM    8  C   UNL     1     -13.151   3.065 -34.768  1.00  0.00     0.017 A 
HETATM    9  C   UNL     1     -11.882   3.570 -35.045  1.00  0.00     0.003 A 
HETATM   10  C   UNL     1     -10.750   2.802 -34.759  1.00  0.00     0.029 A 
BRANCH   7  11
HETATM   11  C   UNL     1     -14.654   1.282 -33.949  1.00  0.00     0.251 C 
HETATM   12  N   UNL     1     -15.326   1.610 -32.799  1.00  0.00    -0.361 N 
HETATM   13  C   UNL     1     -14.989   2.602 -31.802  1.00  0.00     0.149 C 
HETATM   14  H   UNL     1     -16.237   1.172 -32.737  1.00  0.00     0.162 HD
HETATM   15  O   UNL     1     -15.199   0.571 -34.791  1.00  0.00    -0.268 OA
ENDBRANCH   7  11
ENDBRANCH   1   5
BRANCH   2  16
HETATM   16  C   UNL     1      -7.757   0.008 -32.830  1.00  0.00     0.144 A 
HETATM   17  O   UNL     1      -7.624  -0.916 -33.837  1.00  0.00    -0.304 OA
HETATM   18  C   UNL     1      -6.390  -1.476 -33.708  1.00  0.00     0.086 A 
HETATM   19  C   UNL     1      -5.719  -0.925 -32.621  1.00  0.00     0.001 A 
HETATM   20  C   UNL     1      -5.856  -2.458 -34.538  1.00  0.00     0.038 A 
HETATM   21  C   UNL     1      -6.610   0.025 -32.061  1.00  0.00     0.057 A 
HETATM   22  C   UNL     1      -4.419  -1.376 -32.334  1.00  0.00     0.014 A 
HETATM   23  C   UNL     1      -3.854  -2.363 -33.154  1.00  0.00     0.001 A 
HETATM   24  C   UNL     1      -4.562  -2.894 -34.236  1.00  0.00     0.003 A 
ENDBRANCH   2  16
TORSDOF 3
ENDMDL
MODEL 6
REMARK VINA RESULT:      -7.9      6.303      8.113
REMARK  3 active torsions:
REMARK  status: ('A' for Active; 'I' for Inactive)
REMARK       I    between atoms: N_2  and  C_3 
REMARK    1  A    between atoms: C_3  and  C_4 
REMARK    2  A    between atoms: C_6  and  N_7 
REMARK       I    between atoms: N_7  and  C_8 
REMARK    3  A    between atoms: C_8  and  C_9 
ROOT
HETATM    1  N   UNL     1      -9.710   1.131 -34.078  1.00  0.00    -0.321 N 
HETATM    2  C   UNL     1      -8.639   1.182 -33.202  1.00  0.00     0.280 C 
HETATM    3  O   UNL     1      -8.510   1.987 -32.285  1.00  0.00    -0.265 OA
HETATM    4  H   UNL     1      -9.629   0.423 -34.801  1.00  0.00     0.169 HD
ENDROOT
BRANCH   1   5
HETATM    5  C   UNL     1     -10.835   1.974 -34.126  1.00  0.00     0.036 A 
HETATM    6  C   UNL     1     -12.022   1.726 -33.435  1.00  0.00     0.046 A 
HETATM    7  C   UNL     1     -13.076   2.648 -33.483  1.00  0.00     0.034 A 
HETATM    8  C   UNL     1     -12.970   3.792 -34.280  1.00  0.00     0.017 A 
HETATM    9  C   UNL     1     -11.799   4.032 -34.994  1.00  0.00     0.003 A 
HETATM   10  C   UNL     1     -10.735   3.130 -34.913  1.00  0.00     0.029 A 
BRANCH   7  11
HETATM   11  C   UNL     1     -14.348   2.414 -32.758  1.00  0.00     0.251 C 
HETATM   12  N   UNL     1     -15.321   1.605 -33.287  1.00  0.00    -0.361 N 
HETATM   13  C   UNL     1     -15.244   0.714 -34.424  1.00  0.00     0.149 C 
HETATM   14  H   UNL     1     -16.149   1.554 -32.705  1.00  0.00     0.162 HD
HETATM   15  O   UNL     1     -14.521   2.937 -31.659  1.00  0.00    -0.268 OA
ENDBRANCH   7  11
ENDBRANCH   1   5
BRANCH   2  16
HETATM   16  C   UNL     1      -7.627   0.183 -33.492  1.00  0.00     0.144 A 
HETATM   17  O   UNL     1      -6.533   0.074 -32.671  1.00  0.00    -0.304 OA
HETATM   18  C   UNL     1      -5.769  -0.944 -33.154  1.00  0.00     0.086 A 
HETATM   19  C   UNL     1      -6.358  -1.496 -34.286  1.00  0.00     0.001 A 
HETATM   20  C   UNL     1      -4.569  -1.387 -32.604  1.00  0.00     0.038 A 
HETATM   21  C   UNL     1      -7.551  -0.761 -34.498  1.00  0.00     0.057 A 
HETATM   22  C   UNL     1      -5.713  -2.571 -34.923  1.00  0.00     0.014 A 
HETATM   23  C   UNL     1      -4.503  -3.040 -34.391  1.00  0.00     0.001 A 
HETATM   24  C   UNL     1      -3.943  -2.456 -33.252  1.00  0.00     0.003 A 
ENDBRANCH   2  16
TORSDOF 3
ENDMDL
MODEL 7
REMARK VINA RESULT:      -7.8      5.116      7.642
REMARK  3 active torsions:
REMARK  status: ('A' for Active; 'I' for Inactive)
REMARK       I    between atoms: N_2  and  C_3 
REMARK    1  A    between atoms: C_3  and  C_4 
REMARK    2  A    between atoms: C_6  and  N_7 
REMARK       I    between atoms: N_7  and  C_8 
REMARK    3  A    between atoms: C_8  and  C_9 
ROOT
HETATM    1  N   UNL     1      -8.094  -0.231 -33.696  1.00  0.00    -0.321 N 
HETATM    2  C   UNL     1      -8.350   1.098 -33.988  1.00  0.00     0.280 C 
HETATM    3  O   UNL     1      -7.528   1.902 -34.414  1.00  0.00    -0.265 OA
HETATM    4  H   UNL     1      -8.886  -0.739 -33.314  1.00  0.00     0.169 HD
ENDROOT
BRANCH   1   5
HETATM    5  C   UNL     1      -6.872  -0.923 -33.794  1.00  0.00     0.036 A 
HETATM    6  C   UNL     1      -5.756  -0.645 -33.004  1.00  0.00     0.046 A 
HETATM    7  C   UNL     1      -4.596  -1.422 -33.118  1.00  0.00     0.034 A 
HETATM    8  C   UNL     1      -4.526  -2.440 -34.074  1.00  0.00     0.017 A 
HETATM    9  C   UNL     1      -5.626  -2.705 -34.886  1.00  0.00     0.003 A 
HETATM   10  C   UNL     1      -6.795  -1.953 -34.742  1.00  0.00     0.029 A 
BRANCH   7  11
HETATM   11  C   UNL     1      -3.395  -1.154 -32.291  1.00  0.00     0.251 C 
HETATM   12  N   UNL     1      -2.761  -2.168 -31.619  1.00  0.00    -0.361 N 
HETATM   13  C   UNL     1      -2.954  -3.596 -31.737  1.00  0.00     0.149 C 
HETATM   14  H   UNL     1      -1.974  -1.844 -31.070  1.00  0.00     0.162 HD
HETATM   15  O   UNL     1      -2.951  -0.009 -32.226  1.00  0.00    -0.268 OA
ENDBRANCH   7  11
ENDBRANCH   1   5
BRANCH   2  16
HETATM   16  C   UNL     1      -9.721   1.480 -33.707  1.00  0.00     0.144 A 
HETATM   17  O   UNL     1     -10.735   0.590 -33.960  1.00  0.00    -0.304 OA
HETATM   18  C   UNL     1     -11.898   1.191 -33.587  1.00  0.00     0.086 A 
HETATM   19  C   UNL     1     -11.649   2.468 -33.096  1.00  0.00     0.001 A 
HETATM   20  C   UNL     1     -13.167   0.622 -33.673  1.00  0.00     0.038 A 
HETATM   21  C   UNL     1     -10.245   2.646 -33.182  1.00  0.00     0.057 A 
HETATM   22  C   UNL     1     -12.735   3.242 -32.652  1.00  0.00     0.014 A 
HETATM   23  C   UNL     1     -14.024   2.695 -32.724  1.00  0.00     0.001 A 
HETATM   24  C   UNL     1     -14.234   1.408 -33.227  1.00  0.00     0.003 A 
ENDBRANCH   2  16
TORSDOF 3
ENDMDL
MODEL 8
REMARK VINA RESULT:      -7.6      2.302      3.378
REMARK  3 active torsions:
REMARK  status: ('A' for Active; 'I' for Inactive)
REMARK       I    between atoms: N_2  and  C_3 
REMARK    1  A    between atoms: C_3  and  C_4 
REMARK    2  A    between atoms: C_6  and  N_7 
REMARK       I    between atoms: N_7  and  C_8 
REMARK    3  A    between atoms: C_8  and  C_9 
ROOT
HETATM    1  N   UNL     1      -3.564   3.808 -33.074  1.00  0.00    -0.321 N 
HETATM    2  C   UNL     1      -3.467   2.692 -32.261  1.00  0.00     0.280 C 
HETATM    3  O   UNL     1      -2.778   2.607 -31.250  1.00  0.00    -0.265 OA
HETATM    4  H   UNL     1      -4.152   3.684 -33.892  1.00  0.00     0.169 HD
ENDROOT
BRANCH   1   5
HETATM    5  C   UNL     1      -2.898   5.041 -32.940  1.00  0.00     0.036 A 
HETATM    6  C   UNL     1      -3.287   6.041 -32.048  1.00  0.00     0.046 A 
HETATM    7  C   UNL     1      -2.533   7.216 -31.928  1.00  0.00     0.034 A 
HETATM    8  C   UNL     1      -1.423   7.423 -32.753  1.00  0.00     0.017 A 
HETATM    9  C   UNL     1      -1.045   6.441 -33.665  1.00  0.00     0.003 A 
HETATM   10  C   UNL     1      -1.777   5.254 -33.754  1.00  0.00     0.029 A 
BRANCH   7  11
HETATM   11  C   UNL     1      -2.919   8.296 -30.988  1.00  0.00     0.251 C 
HETATM   12  N   UNL     1      -2.596   8.220 -29.657  1.00  0.00    -0.361 N 
HETATM   13  C   UNL     1      -1.707   7.295 -28.989  1.00  0.00     0.149 C 
HETATM   14  H   UNL     1      -2.944   9.007 -29.123  1.00  0.00     0.162 HD
HETATM   15  O   UNL     1      -3.519   9.281 -31.414  1.00  0.00    -0.268 OA
ENDBRANCH   7  11
ENDBRANCH   1   5
BRANCH   2  16
HETATM   16  C   UNL     1      -4.258   1.576 -32.744  1.00  0.00     0.144 A 
HETATM   17  O   UNL     1      -3.645   0.373 -32.995  1.00  0.00    -0.304 OA
HETATM   18  C   UNL     1      -4.613  -0.491 -33.408  1.00  0.00     0.086 A 
HETATM   19  C   UNL     1      -5.851   0.141 -33.430  1.00  0.00     0.001 A 
HETATM   20  C   UNL     1      -4.411  -1.824 -33.758  1.00  0.00     0.038 A 
HETATM   21  C   UNL     1      -5.611   1.472 -33.006  1.00  0.00     0.057 A 
HETATM   22  C   UNL     1      -6.978  -0.601 -33.826  1.00  0.00     0.014 A 
HETATM   23  C   UNL     1      -6.806  -1.946 -34.182  1.00  0.00     0.001 A 
HETATM   24  C   UNL     1      -5.544  -2.545 -34.149  1.00  0.00     0.003 A 
ENDBRANCH   2  16
TORSDOF 3
ENDMDL
MODEL 9
REMARK VINA RESULT:      -7.5      2.339      3.136
REMARK  3 active torsions:
REMARK  status: ('A' for Active; 'I' for Inactive)
REMARK       I    between atoms: N_2  and  C_3 
REMARK    1  A    between atoms: C_3  and  C_4 
REMARK    2  A    between atoms: C_6  and  N_7 
REMARK       I    between atoms: N_7  and  C_8 
REMARK    3  A    between atoms: C_8  and  C_9 
ROOT
HETATM    1  N   UNL     1      -4.337   1.482 -32.540  1.00  0.00    -0.321 N 
HETATM    2  C   UNL     1      -5.392   1.013 -33.304  1.00  0.00     0.280 C 
HETATM    3  O   UNL     1      -6.338   1.687 -33.698  1.00  0.00    -0.265 OA
HETATM    4  H   UNL     1      -3.663   0.772 -32.271  1.00  0.00     0.169 HD
ENDROOT
BRANCH   1   5
HETATM    5  C   UNL     1      -4.135   2.783 -32.042  1.00  0.00     0.036 A 
HETATM    6  C   UNL     1      -5.022   3.432 -31.181  1.00  0.00     0.046 A 
HETATM    7  C   UNL     1      -4.717   4.703 -30.677  1.00  0.00     0.034 A 
HETATM    8  C   UNL     1      -3.554   5.359 -31.090  1.00  0.00     0.017 A 
HETATM    9  C   UNL     1      -2.678   4.730 -31.971  1.00  0.00     0.003 A 
HETATM   10  C   UNL     1      -2.965   3.445 -32.440  1.00  0.00     0.029 A 
BRANCH   7  11
HETATM   11  C   UNL     1      -5.637   5.417 -29.759  1.00  0.00     0.251 C 
HETATM   12  N   UNL     1      -6.576   6.292 -30.243  1.00  0.00    -0.361 N 
HETATM   13  C   UNL     1      -6.993   6.513 -31.610  1.00  0.00     0.149 C 
HETATM   14  H   UNL     1      -7.119   6.732 -29.510  1.00  0.00     0.162 HD
HETATM   15  O   UNL     1      -5.569   5.204 -28.551  1.00  0.00    -0.268 OA
ENDBRANCH   7  11
ENDBRANCH   1   5
BRANCH   2  16
HETATM   16  C   UNL     1      -5.295  -0.407 -33.583  1.00  0.00     0.144 A 
HETATM   17  O   UNL     1      -6.383  -1.070 -34.096  1.00  0.00    -0.304 OA
HETATM   18  C   UNL     1      -6.011  -2.366 -34.282  1.00  0.00     0.086 A 
HETATM   19  C   UNL     1      -4.690  -2.553 -33.892  1.00  0.00     0.001 A 
HETATM   20  C   UNL     1      -6.823  -3.375 -34.795  1.00  0.00     0.038 A 
HETATM   21  C   UNL     1      -4.239  -1.288 -33.439  1.00  0.00     0.057 A 
HETATM   22  C   UNL     1      -4.125  -3.834 -34.019  1.00  0.00     0.014 A 
HETATM   23  C   UNL     1      -4.918  -4.870 -34.534  1.00  0.00     0.001 A 
HETATM   24  C   UNL     1      -6.244  -4.642 -34.914  1.00  0.00     0.003 A 
ENDBRANCH   2  16
TORSDOF 3
ENDMDL
MODEL 10
REMARK VINA RESULT:      -7.5      2.486      2.883
REMARK  3 active torsions:
REMARK  status: ('A' for Active; 'I' for Inactive)
REMARK       I    between atoms: N_2  and  C_3 
REMARK    1  A    between atoms: C_3  and  C_4 
REMARK    2  A    between atoms: C_6  and  N_7 
REMARK       I    between atoms: N_7  and  C_8 
REMARK    3  A    between atoms: C_8  and  C_9 
ROOT
HETATM    1  N   UNL     1      -5.558   1.210 -32.423  1.00  0.00    -0.321 N 
HETATM    2  C   UNL     1      -6.269   0.859 -33.558  1.00  0.00     0.280 C 
HETATM    3  O   UNL     1      -6.986   1.613 -34.208  1.00  0.00    -0.265 OA
HETATM    4  H   UNL     1      -5.049   0.445 -31.992  1.00  0.00     0.169 HD
ENDROOT
BRANCH   1   5
HETATM    5  C   UNL     1      -5.521   2.457 -31.771  1.00  0.00     0.036 A 
HETATM    6  C   UNL     1      -5.441   3.680 -32.439  1.00  0.00     0.046 A 
HETATM    7  C   UNL     1      -5.474   4.882 -31.720  1.00  0.00     0.034 A 
HETATM    8  C   UNL     1      -5.518   4.862 -30.323  1.00  0.00     0.017 A 
HETATM    9  C   UNL     1      -5.570   3.645 -29.649  1.00  0.00     0.003 A 
HETATM   10  C   UNL     1      -5.577   2.448 -30.371  1.00  0.00     0.029 A 
BRANCH   7  11
HETATM   11  C   UNL     1      -5.394   6.198 -32.400  1.00  0.00     0.251 C 
HETATM   12  N   UNL     1      -6.530   6.858 -32.794  1.00  0.00    -0.361 N 
HETATM   13  C   UNL     1      -7.908   6.569 -32.466  1.00  0.00     0.149 C 
HETATM   14  H   UNL     1      -6.332   7.729 -33.271  1.00  0.00     0.162 HD
HETATM   15  O   UNL     1      -4.293   6.711 -32.593  1.00  0.00    -0.268 OA
ENDBRANCH   7  11
ENDBRANCH   1   5
BRANCH   2  16
HETATM   16  C   UNL     1      -6.111  -0.539 -33.910  1.00  0.00     0.144 A 
HETATM   17  O   UNL     1      -4.941  -1.185 -33.599  1.00  0.00    -0.304 OA
HETATM   18  C   UNL     1      -5.072  -2.475 -34.014  1.00  0.00     0.086 A 
HETATM   19  C   UNL     1      -6.319  -2.673 -34.596  1.00  0.00     0.001 A 
HETATM   20  C   UNL     1      -4.107  -3.471 -33.879  1.00  0.00     0.038 A 
HETATM   21  C   UNL     1      -6.978  -1.420 -34.528  1.00  0.00     0.057 A 
HETATM   22  C   UNL     1      -6.640  -3.953 -35.081  1.00  0.00     0.014 A 
HETATM   23  C   UNL     1      -5.690  -4.976 -34.957  1.00  0.00     0.001 A 
HETATM   24  C   UNL     1      -4.446  -4.737 -34.367  1.00  0.00     0.003 A 
ENDBRANCH   2  16
TORSDOF 3
ENDMDL
