MODEL 1
REMARK VINA RESULT:      -9.6      0.000      0.000
REMARK  5 active torsions:
REMARK  status: ('A' for Active; 'I' for Inactive)
REMARK    1  A    between atoms: N_4  and  C_5 
REMARK    2  A    between atoms: C_16  and  N_17 
REMARK       I    between atoms: N_17  and  C_18 
REMARK    3  A    between atoms: C_18  and  C_19 
REMARK       I    between atoms: C_19  and  N_20 
REMARK    4  A    between atoms: N_20  and  C_21 
REMARK    5  A    between atoms: C_21  and  C_22 
ROOT
HETATM    1  C   UNL     1     -11.880   0.986 -33.588  1.00  0.00     0.072 C 
HETATM    2  C   UNL     1     -10.427   1.282 -33.648  1.00  0.00     0.055 C 
HETATM    3  N   UNL     1      -9.543   0.442 -33.103  1.00  0.00    -0.156 NA
HETATM    4  N   UNL     1      -8.313   0.997 -33.389  1.00  0.00    -0.045 N 
HETATM    5  C   UNL     1      -8.463   2.279 -33.915  1.00  0.00     0.152 C 
HETATM    6  C   UNL     1      -9.801   2.412 -34.212  1.00  0.00     0.079 C 
ENDROOT
BRANCH   5   7
HETATM    7  N   UNL     1      -7.472   3.211 -34.163  1.00  0.00    -0.303 N 
HETATM    8  C   UNL     1      -6.761   3.806 -33.137  1.00  0.00     0.315 C 
HETATM    9  O   UNL     1      -6.872   3.625 -31.932  1.00  0.00    -0.262 OA
HETATM   10  H   UNL     1      -7.480   3.736 -35.035  1.00  0.00     0.171 HD
BRANCH   8  11
HETATM   11  C   UNL     1      -5.812   4.908 -33.661  1.00  0.00     0.310 C 
HETATM   12  N   UNL     1      -4.819   4.443 -34.489  1.00  0.00    -0.349 N 
HETATM   13  H   UNL     1      -4.763   3.437 -34.619  1.00  0.00     0.163 HD
HETATM   14  O   UNL     1      -5.974   6.067 -33.307  1.00  0.00    -0.262 OA
BRANCH  12  15
HETATM   15  C   UNL     1      -3.821   5.307 -35.063  1.00  0.00     0.161 C 
BRANCH  15  16
HETATM   16  C   UNL     1      -2.719   5.626 -34.086  1.00  0.00    -0.040 A 
HETATM   17  C   UNL     1      -2.143   6.904 -34.048  1.00  0.00     0.010 A 
HETATM   18  C   UNL     1      -1.136   7.202 -33.125  1.00  0.00     0.024 A 
HETATM   19  C   UNL     1      -0.693   6.220 -32.242  1.00  0.00     0.034 A 
HETATM   20 CL   UNL     1       0.536   6.592 -31.096  1.00  0.00    -0.084 Cl
HETATM   21  C   UNL     1      -1.242   4.941 -32.278  1.00  0.00     0.024 A 
HETATM   22  C   UNL     1      -2.247   4.643 -33.201  1.00  0.00     0.010 A 
ENDBRANCH  15  16
ENDBRANCH  12  15
ENDBRANCH   8  11
ENDBRANCH   5   7
BRANCH   4  23
HETATM   23  C   UNL     1      -7.177   0.158 -33.301  1.00  0.00     0.732 A 
HETATM   24  N   UNL     1      -6.969  -0.897 -34.022  1.00  0.00    -0.067 NA
HETATM   25  C   UNL     1      -5.817  -1.606 -33.754  1.00  0.00     0.065 A 
HETATM   26  C   UNL     1      -4.978  -1.335 -32.737  1.00  0.00     0.036 A 
HETATM   27  C   UNL     1      -5.532  -2.743 -34.710  1.00  0.00     0.060 C 
HETATM   28  C   UNL     1      -3.753  -2.135 -32.402  1.00  0.00     0.046 C 
HETATM   29  C   UNL     1      -5.283  -0.163 -31.884  1.00  0.00     0.268 A 
HETATM   30  C   UNL     1      -3.676  -3.457 -33.167  1.00  0.00     0.005 C 
HETATM   31  C   UNL     1      -4.098  -3.272 -34.620  1.00  0.00     0.006 C 
HETATM   32  O   UNL     1      -4.621   0.117 -30.893  1.00  0.00    -0.267 OA
HETATM   33  N   UNL     1      -6.355   0.568 -32.283  1.00  0.00    -0.152 N 
HETATM   34  H   UNL     1      -6.643   1.364 -31.723  1.00  0.00     0.188 HD
ENDBRANCH   4  23
TORSDOF 5
ENDMDL
MODEL 2
REMARK VINA RESULT:      -9.4      4.108      7.623
REMARK  5 active torsions:
REMARK  status: ('A' for Active; 'I' for Inactive)
REMARK    1  A    between atoms: N_4  and  C_5 
REMARK    2  A    between atoms: C_16  and  N_17 
REMARK       I    between atoms: N_17  and  C_18 
REMARK    3  A    between atoms: C_18  and  C_19 
REMARK       I    between atoms: C_19  and  N_20 
REMARK    4  A    between atoms: N_20  and  C_21 
REMARK    5  A    between atoms: C_21  and  C_22 
ROOT
HETATM    1  C   UNL     1      -4.028   4.328 -31.205  1.00  0.00     0.072 C 
HETATM    2  C   UNL     1      -4.883   3.299 -31.847  1.00  0.00     0.055 C 
HETATM    3  N   UNL     1      -4.331   2.250 -32.464  1.00  0.00    -0.156 NA
HETATM    4  N   UNL     1      -5.403   1.492 -32.887  1.00  0.00    -0.045 N 
HETATM    5  C   UNL     1      -6.597   2.190 -32.717  1.00  0.00     0.152 C 
HETATM    6  C   UNL     1      -6.290   3.279 -31.931  1.00  0.00     0.079 C 
ENDROOT
BRANCH   5   7
HETATM    7  N   UNL     1      -7.853   1.839 -33.175  1.00  0.00    -0.303 N 
HETATM    8  C   UNL     1      -8.716   1.071 -32.414  1.00  0.00     0.315 C 
HETATM    9  O   UNL     1      -8.535   0.609 -31.296  1.00  0.00    -0.262 OA
HETATM   10  H   UNL     1      -8.039   1.822 -34.175  1.00  0.00     0.171 HD
BRANCH   8  11
HETATM   11  C   UNL     1      -9.995   0.699 -33.198  1.00  0.00     0.310 C 
HETATM   12  N   UNL     1     -10.372   1.637 -34.128  1.00  0.00    -0.349 N 
HETATM   13  H   UNL     1      -9.827   2.493 -34.164  1.00  0.00     0.163 HD
HETATM   14  O   UNL     1     -10.584  -0.341 -32.940  1.00  0.00    -0.262 OA
BRANCH  12  15
HETATM   15  C   UNL     1     -11.548   1.488 -34.945  1.00  0.00     0.161 C 
BRANCH  15  16
HETATM   16  C   UNL     1     -12.815   1.706 -34.158  1.00  0.00    -0.040 A 
HETATM   17  C   UNL     1     -12.900   2.735 -33.209  1.00  0.00     0.010 A 
HETATM   18  C   UNL     1     -14.084   2.947 -32.497  1.00  0.00     0.024 A 
HETATM   19  C   UNL     1     -15.187   2.126 -32.724  1.00  0.00     0.034 A 
HETATM   20 CL   UNL     1     -16.649   2.397 -31.858  1.00  0.00    -0.084 Cl
HETATM   21  C   UNL     1     -15.113   1.089 -33.650  1.00  0.00     0.024 A 
HETATM   22  C   UNL     1     -13.929   0.876 -34.361  1.00  0.00     0.010 A 
ENDBRANCH  15  16
ENDBRANCH  12  15
ENDBRANCH   8  11
ENDBRANCH   5   7
BRANCH   4  23
HETATM   23  C   UNL     1      -5.160   0.137 -33.216  1.00  0.00     0.732 A 
HETATM   24  N   UNL     1      -5.968  -0.628 -33.877  1.00  0.00    -0.067 NA
HETATM   25  C   UNL     1      -5.565  -1.935 -34.058  1.00  0.00     0.065 A 
HETATM   26  C   UNL     1      -4.463  -2.473 -33.502  1.00  0.00     0.036 A 
HETATM   27  C   UNL     1      -6.458  -2.759 -34.958  1.00  0.00     0.060 C 
HETATM   28  C   UNL     1      -4.047  -3.908 -33.646  1.00  0.00     0.046 C 
HETATM   29  C   UNL     1      -3.597  -1.589 -32.689  1.00  0.00     0.268 A 
HETATM   30  C   UNL     1      -5.132  -4.785 -34.273  1.00  0.00     0.005 C 
HETATM   31  C   UNL     1      -5.813  -4.064 -35.431  1.00  0.00     0.006 C 
HETATM   32  O   UNL     1      -2.617  -2.005 -32.085  1.00  0.00    -0.267 OA
HETATM   33  N   UNL     1      -3.979  -0.286 -32.662  1.00  0.00    -0.152 N 
HETATM   34  H   UNL     1      -3.451   0.369 -32.094  1.00  0.00     0.188 HD
ENDBRANCH   4  23
TORSDOF 5
ENDMDL
MODEL 3
REMARK VINA RESULT:      -9.4      1.979      2.515
REMARK  5 active torsions:
REMARK  status: ('A' for Active; 'I' for Inactive)
REMARK    1  A    between atoms: N_4  and  C_5 
REMARK    2  A    between atoms: C_16  and  N_17 
REMARK       I    between atoms: N_17  and  C_18 
REMARK    3  A    between atoms: C_18  and  C_19 
REMARK       I    between atoms: C_19  and  N_20 
REMARK    4  A    between atoms: N_20  and  C_21 
REMARK    5  A    between atoms: C_21  and  C_22 
ROOT
HETATM    1  C   UNL     1      -9.859   3.306 -30.403  1.00  0.00     0.072 C 
HETATM    2  C   UNL     1      -8.539   3.086 -31.045  1.00  0.00     0.055 C 
HETATM    3  N   UNL     1      -7.992   1.867 -31.067  1.00  0.00    -0.156 NA
HETATM    4  N   UNL     1      -6.819   2.025 -31.774  1.00  0.00    -0.045 N 
HETATM    5  C   UNL     1      -6.552   3.376 -31.989  1.00  0.00     0.152 C 
HETATM    6  C   UNL     1      -7.706   4.048 -31.652  1.00  0.00     0.079 C 
ENDROOT
BRANCH   5   7
HETATM    7  N   UNL     1      -5.398   3.937 -32.503  1.00  0.00    -0.303 N 
HETATM    8  C   UNL     1      -5.397   4.629 -33.701  1.00  0.00     0.315 C 
HETATM    9  O   UNL     1      -6.338   4.849 -34.451  1.00  0.00    -0.262 OA
HETATM   10  H   UNL     1      -4.491   3.571 -32.224  1.00  0.00     0.171 HD
BRANCH   8  11
HETATM   11  C   UNL     1      -3.968   5.036 -34.126  1.00  0.00     0.310 C 
HETATM   12  N   UNL     1      -2.994   4.676 -33.227  1.00  0.00    -0.349 N 
HETATM   13  H   UNL     1      -3.305   4.248 -32.360  1.00  0.00     0.163 HD
HETATM   14  O   UNL     1      -3.797   5.649 -35.171  1.00  0.00    -0.262 OA
BRANCH  12  15
HETATM   15  C   UNL     1      -1.602   4.984 -33.429  1.00  0.00     0.161 C 
BRANCH  15  16
HETATM   16  C   UNL     1      -1.001   5.688 -32.239  1.00  0.00    -0.040 A 
HETATM   17  C   UNL     1       0.112   5.149 -31.576  1.00  0.00     0.010 A 
HETATM   18  C   UNL     1       0.680   5.816 -30.488  1.00  0.00     0.024 A 
HETATM   19  C   UNL     1       0.133   7.020 -30.050  1.00  0.00     0.034 A 
HETATM   20 CL   UNL     1       0.842   7.848 -28.718  1.00  0.00    -0.084 Cl
HETATM   21  C   UNL     1      -0.982   7.559 -30.685  1.00  0.00     0.024 A 
HETATM   22  C   UNL     1      -1.551   6.892 -31.773  1.00  0.00     0.010 A 
ENDBRANCH  15  16
ENDBRANCH  12  15
ENDBRANCH   8  11
ENDBRANCH   5   7
BRANCH   4  23
HETATM   23  C   UNL     1      -6.215   0.863 -32.312  1.00  0.00     0.732 A 
HETATM   24  N   UNL     1      -6.778   0.043 -33.140  1.00  0.00    -0.067 NA
HETATM   25  C   UNL     1      -6.035  -1.056 -33.515  1.00  0.00     0.065 A 
HETATM   26  C   UNL     1      -4.835  -1.375 -32.995  1.00  0.00     0.036 A 
HETATM   27  C   UNL     1      -6.662  -1.912 -34.593  1.00  0.00     0.060 C 
HETATM   28  C   UNL     1      -4.044  -2.599 -33.355  1.00  0.00     0.046 C 
HETATM   29  C   UNL     1      -4.249  -0.453 -31.995  1.00  0.00     0.268 A 
HETATM   30  C   UNL     1      -4.845  -3.604 -34.184  1.00  0.00     0.005 C 
HETATM   31  C   UNL     1      -5.683  -2.894 -35.241  1.00  0.00     0.006 C 
HETATM   32  O   UNL     1      -3.199  -0.697 -31.413  1.00  0.00    -0.267 OA
HETATM   33  N   UNL     1      -4.969   0.675 -31.769  1.00  0.00    -0.152 N 
HETATM   34  H   UNL     1      -4.644   1.335 -31.069  1.00  0.00     0.188 HD
ENDBRANCH   4  23
TORSDOF 5
ENDMDL
MODEL 4
REMARK VINA RESULT:      -9.2      2.591      3.621
REMARK  5 active torsions:
REMARK  status: ('A' for Active; 'I' for Inactive)
REMARK    1  A    between atoms: N_4  and  C_5 
REMARK    2  A    between atoms: C_16  and  N_17 
REMARK       I    between atoms: N_17  and  C_18 
REMARK    3  A    between atoms: C_18  and  C_19 
REMARK       I    between atoms: C_19  and  N_20 
REMARK    4  A    between atoms: N_20  and  C_21 
REMARK    5  A    between atoms: C_21  and  C_22 
ROOT
HETATM    1  C   UNL     1      -9.928   4.033 -30.425  1.00  0.00     0.072 C 
HETATM    2  C   UNL     1      -8.584   3.495 -30.751  1.00  0.00     0.055 C 
HETATM    3  N   UNL     1      -8.431   2.208 -31.071  1.00  0.00    -0.156 NA
HETATM    4  N   UNL     1      -7.087   2.078 -31.357  1.00  0.00    -0.045 N 
HETATM    5  C   UNL     1      -6.395   3.233 -30.999  1.00  0.00     0.152 C 
HETATM    6  C   UNL     1      -7.356   4.187 -30.743  1.00  0.00     0.079 C 
ENDROOT
BRANCH   5   7
HETATM    7  N   UNL     1      -5.025   3.423 -30.970  1.00  0.00    -0.303 N 
HETATM    8  C   UNL     1      -4.356   4.043 -32.009  1.00  0.00     0.315 C 
HETATM    9  O   UNL     1      -4.819   4.498 -33.046  1.00  0.00    -0.262 OA
HETATM   10  H   UNL     1      -4.445   2.822 -30.390  1.00  0.00     0.171 HD
BRANCH   8  11
HETATM   11  C   UNL     1      -2.824   4.009 -31.805  1.00  0.00     0.310 C 
HETATM   12  N   UNL     1      -2.171   5.117 -32.288  1.00  0.00    -0.349 N 
HETATM   13  H   UNL     1      -2.735   5.804 -32.781  1.00  0.00     0.163 HD
HETATM   14  O   UNL     1      -2.304   3.037 -31.276  1.00  0.00    -0.262 OA
BRANCH  12  15
HETATM   15  C   UNL     1      -0.741   5.267 -32.214  1.00  0.00     0.161 C 
BRANCH  15  16
HETATM   16  C   UNL     1      -0.296   5.799 -30.876  1.00  0.00    -0.040 A 
HETATM   17  C   UNL     1       0.361   4.967 -29.958  1.00  0.00     0.010 A 
HETATM   18  C   UNL     1       0.792   5.470 -28.727  1.00  0.00     0.024 A 
HETATM   19  C   UNL     1       0.559   6.805 -28.404  1.00  0.00     0.034 A 
HETATM   20 CL   UNL     1       1.103   7.427 -26.894  1.00  0.00    -0.084 Cl
HETATM   21  C   UNL     1      -0.108   7.639 -29.297  1.00  0.00     0.024 A 
HETATM   22  C   UNL     1      -0.540   7.136 -30.527  1.00  0.00     0.010 A 
ENDBRANCH  15  16
ENDBRANCH  12  15
ENDBRANCH   8  11
ENDBRANCH   5   7
BRANCH   4  23
HETATM   23  C   UNL     1      -6.681   0.948 -32.106  1.00  0.00     0.732 A 
HETATM   24  N   UNL     1      -5.583   0.286 -31.925  1.00  0.00    -0.067 NA
HETATM   25  C   UNL     1      -5.350  -0.761 -32.790  1.00  0.00     0.065 A 
HETATM   26  C   UNL     1      -6.121  -1.054 -33.854  1.00  0.00     0.036 A 
HETATM   27  C   UNL     1      -4.137  -1.603 -32.460  1.00  0.00     0.060 C 
HETATM   28  C   UNL     1      -5.843  -2.156 -34.835  1.00  0.00     0.046 C 
HETATM   29  C   UNL     1      -7.331  -0.231 -34.077  1.00  0.00     0.268 A 
HETATM   30  C   UNL     1      -4.450  -2.765 -34.670  1.00  0.00     0.005 C 
HETATM   31  C   UNL     1      -4.105  -2.945 -33.196  1.00  0.00     0.006 C 
HETATM   32  O   UNL     1      -8.051  -0.374 -35.058  1.00  0.00    -0.267 OA
HETATM   33  N   UNL     1      -7.574   0.697 -33.116  1.00  0.00    -0.152 N 
HETATM   34  H   UNL     1      -8.368   1.320 -33.223  1.00  0.00     0.188 HD
ENDBRANCH   4  23
TORSDOF 5
ENDMDL
MODEL 5
REMARK VINA RESULT:      -8.9      3.658      7.081
REMARK  5 active torsions:
REMARK  status: ('A' for Active; 'I' for Inactive)
REMARK    1  A    between atoms: N_4  and  C_5 
REMARK    2  A    between atoms: C_16  and  N_17 
REMARK       I    between atoms: N_17  and  C_18 
REMARK    3  A    between atoms: C_18  and  C_19 
REMARK       I    between atoms: C_19  and  N_20 
REMARK    4  A    between atoms: N_20  and  C_21 
REMARK    5  A    between atoms: C_21  and  C_22 
ROOT
HETATM    1  C   UNL     1      -1.057   5.188 -31.014  1.00  0.00     0.072 C 
HETATM    2  C   UNL     1      -2.417   4.715 -31.375  1.00  0.00     0.055 C 
HETATM    3  N   UNL     1      -2.575   3.675 -32.197  1.00  0.00    -0.156 NA
HETATM    4  N   UNL     1      -3.940   3.489 -32.264  1.00  0.00    -0.045 N 
HETATM    5  C   UNL     1      -4.611   4.549 -31.658  1.00  0.00     0.152 C 
HETATM    6  C   UNL     1      -3.652   5.261 -30.971  1.00  0.00     0.079 C 
ENDROOT
BRANCH   5   7
HETATM    7  N   UNL     1      -5.969   4.808 -31.673  1.00  0.00    -0.303 N 
HETATM    8  C   UNL     1      -6.839   4.175 -30.804  1.00  0.00     0.315 C 
HETATM    9  O   UNL     1      -6.582   3.348 -29.941  1.00  0.00    -0.262 OA
HETATM   10  H   UNL     1      -6.403   5.175 -32.517  1.00  0.00     0.171 HD
BRANCH   8  11
HETATM   11  C   UNL     1      -8.313   4.529 -31.111  1.00  0.00     0.310 C 
HETATM   12  N   UNL     1      -8.688   4.281 -32.409  1.00  0.00    -0.349 N 
HETATM   13  H   UNL     1      -7.962   3.961 -33.044  1.00  0.00     0.163 HD
HETATM   14  O   UNL     1      -9.017   5.010 -30.234  1.00  0.00    -0.262 OA
BRANCH  12  15
HETATM   15  C   UNL     1     -10.012   4.562 -32.900  1.00  0.00     0.161 C 
BRANCH  15  16
HETATM   16  C   UNL     1     -10.812   3.305 -33.124  1.00  0.00    -0.040 A 
HETATM   17  C   UNL     1     -10.172   2.065 -33.264  1.00  0.00     0.010 A 
HETATM   18  C   UNL     1     -10.919   0.898 -33.449  1.00  0.00     0.024 A 
HETATM   19  C   UNL     1     -12.309   0.967 -33.506  1.00  0.00     0.034 A 
HETATM   20 CL   UNL     1     -13.229  -0.472 -33.720  1.00  0.00    -0.084 Cl
HETATM   21  C   UNL     1     -12.959   2.192 -33.387  1.00  0.00     0.024 A 
HETATM   22  C   UNL     1     -12.212   3.359 -33.202  1.00  0.00     0.010 A 
ENDBRANCH  15  16
ENDBRANCH  12  15
ENDBRANCH   8  11
ENDBRANCH   5   7
BRANCH   4  23
HETATM   23  C   UNL     1      -4.411   2.236 -32.725  1.00  0.00     0.732 A 
HETATM   24  N   UNL     1      -5.562   2.028 -33.280  1.00  0.00    -0.067 NA
HETATM   25  C   UNL     1      -5.850   0.724 -33.622  1.00  0.00     0.065 A 
HETATM   26  C   UNL     1      -5.072  -0.331 -33.317  1.00  0.00     0.036 A 
HETATM   27  C   UNL     1      -7.134   0.538 -34.399  1.00  0.00     0.060 C 
HETATM   28  C   UNL     1      -5.405  -1.761 -33.634  1.00  0.00     0.046 C 
HETATM   29  C   UNL     1      -3.794  -0.067 -32.616  1.00  0.00     0.268 A 
HETATM   30  C   UNL     1      -6.846  -1.946 -34.112  1.00  0.00     0.005 C 
HETATM   31  C   UNL     1      -7.249  -0.833 -35.072  1.00  0.00     0.006 C 
HETATM   32  O   UNL     1      -3.058  -0.968 -32.232  1.00  0.00    -0.267 OA
HETATM   33  N   UNL     1      -3.509   1.247 -32.428  1.00  0.00    -0.152 N 
HETATM   34  H   UNL     1      -2.666   1.499 -31.922  1.00  0.00     0.188 HD
ENDBRANCH   4  23
TORSDOF 5
ENDMDL
MODEL 6
REMARK VINA RESULT:      -8.8      3.666      4.976
REMARK  5 active torsions:
REMARK  status: ('A' for Active; 'I' for Inactive)
REMARK    1  A    between atoms: N_4  and  C_5 
REMARK    2  A    between atoms: C_16  and  N_17 
REMARK       I    between atoms: N_17  and  C_18 
REMARK    3  A    between atoms: C_18  and  C_19 
REMARK       I    between atoms: C_19  and  N_20 
REMARK    4  A    between atoms: N_20  and  C_21 
REMARK    5  A    between atoms: C_21  and  C_22 
ROOT
HETATM    1  C   UNL     1      -9.177   6.405 -29.478  1.00  0.00     0.072 C 
HETATM    2  C   UNL     1      -7.983   5.591 -29.818  1.00  0.00     0.055 C 
HETATM    3  N   UNL     1      -8.099   4.277 -30.030  1.00  0.00    -0.156 NA
HETATM    4  N   UNL     1      -6.826   3.866 -30.366  1.00  0.00    -0.045 N 
HETATM    5  C   UNL     1      -5.905   4.888 -30.146  1.00  0.00     0.152 C 
HETATM    6  C   UNL     1      -6.648   6.028 -29.930  1.00  0.00     0.079 C 
ENDROOT
BRANCH   5   7
HETATM    7  N   UNL     1      -4.526   4.808 -30.200  1.00  0.00    -0.303 N 
HETATM    8  C   UNL     1      -3.819   5.183 -31.328  1.00  0.00     0.315 C 
HETATM    9  O   UNL     1      -4.254   5.618 -32.385  1.00  0.00    -0.262 OA
HETATM   10  H   UNL     1      -4.034   4.163 -29.585  1.00  0.00     0.171 HD
BRANCH   8  11
HETATM   11  C   UNL     1      -2.312   4.870 -31.190  1.00  0.00     0.310 C 
HETATM   12  N   UNL     1      -1.655   5.672 -30.289  1.00  0.00    -0.349 N 
HETATM   13  H   UNL     1      -2.194   6.420 -29.861  1.00  0.00     0.163 HD
HETATM   14  O   UNL     1      -1.810   3.990 -31.875  1.00  0.00    -0.262 OA
BRANCH  12  15
HETATM   15  C   UNL     1      -0.243   5.555 -30.034  1.00  0.00     0.161 C 
BRANCH  15  16
HETATM   16  C   UNL     1       0.203   6.443 -28.900  1.00  0.00    -0.040 A 
HETATM   17  C   UNL     1      -0.011   6.063 -27.567  1.00  0.00     0.010 A 
HETATM   18  C   UNL     1       0.424   6.879 -26.519  1.00  0.00     0.024 A 
HETATM   19  C   UNL     1       1.066   8.083 -26.798  1.00  0.00     0.034 A 
HETATM   20 CL   UNL     1       1.613   9.080 -25.506  1.00  0.00    -0.084 Cl
HETATM   21  C   UNL     1       1.270   8.483 -28.116  1.00  0.00     0.024 A 
HETATM   22  C   UNL     1       0.834   7.668 -29.164  1.00  0.00     0.010 A 
ENDBRANCH  15  16
ENDBRANCH  12  15
ENDBRANCH   8  11
ENDBRANCH   5   7
BRANCH   4  23
HETATM   23  C   UNL     1      -6.692   2.624 -31.032  1.00  0.00     0.732 A 
HETATM   24  N   UNL     1      -5.621   2.208 -31.629  1.00  0.00    -0.067 NA
HETATM   25  C   UNL     1      -5.706   0.983 -32.256  1.00  0.00     0.065 A 
HETATM   26  C   UNL     1      -6.840   0.268 -32.377  1.00  0.00     0.036 A 
HETATM   27  C   UNL     1      -4.401   0.461 -32.814  1.00  0.00     0.060 C 
HETATM   28  C   UNL     1      -6.955  -1.038 -33.107  1.00  0.00     0.046 C 
HETATM   29  C   UNL     1      -8.066   0.807 -31.745  1.00  0.00     0.268 A 
HETATM   30  C   UNL     1      -5.713  -1.369 -33.937  1.00  0.00     0.005 C 
HETATM   31  C   UNL     1      -4.440  -1.027 -33.173  1.00  0.00     0.006 C 
HETATM   32  O   UNL     1      -9.158   0.266 -31.864  1.00  0.00    -0.267 OA
HETATM   33  N   UNL     1      -7.885   1.948 -31.031  1.00  0.00    -0.152 N 
HETATM   34  H   UNL     1      -8.690   2.392 -30.601  1.00  0.00     0.188 HD
ENDBRANCH   4  23
TORSDOF 5
ENDMDL
MODEL 7
REMARK VINA RESULT:      -8.7      2.615      5.302
REMARK  5 active torsions:
REMARK  status: ('A' for Active; 'I' for Inactive)
REMARK    1  A    between atoms: N_4  and  C_5 
REMARK    2  A    between atoms: C_16  and  N_17 
REMARK       I    between atoms: N_17  and  C_18 
REMARK    3  A    between atoms: C_18  and  C_19 
REMARK       I    between atoms: C_19  and  N_20 
REMARK    4  A    between atoms: N_20  and  C_21 
REMARK    5  A    between atoms: C_21  and  C_22 
ROOT
HETATM    1  C   UNL     1      -2.977  -3.419 -31.835  1.00  0.00     0.072 C 
HETATM    2  C   UNL     1      -3.417  -2.030 -32.117  1.00  0.00     0.055 C 
HETATM    3  N   UNL     1      -4.585  -1.800 -32.724  1.00  0.00    -0.156 NA
HETATM    4  N   UNL     1      -4.687  -0.426 -32.773  1.00  0.00    -0.045 N 
HETATM    5  C   UNL     1      -3.486   0.171 -32.392  1.00  0.00     0.152 C 
HETATM    6  C   UNL     1      -2.722  -0.835 -31.843  1.00  0.00     0.079 C 
ENDROOT
BRANCH   5   7
HETATM    7  N   UNL     1      -3.144   1.508 -32.476  1.00  0.00    -0.303 N 
HETATM    8  C   UNL     1      -3.531   2.419 -31.510  1.00  0.00     0.315 C 
HETATM    9  O   UNL     1      -4.186   2.218 -30.497  1.00  0.00    -0.262 OA
HETATM   10  H   UNL     1      -2.923   1.916 -33.381  1.00  0.00     0.171 HD
BRANCH   8  11
HETATM   11  C   UNL     1      -3.146   3.864 -31.899  1.00  0.00     0.310 C 
HETATM   12  N   UNL     1      -3.503   4.808 -30.967  1.00  0.00    -0.349 N 
HETATM   13  H   UNL     1      -4.032   4.482 -30.163  1.00  0.00     0.163 HD
HETATM   14  O   UNL     1      -2.600   4.079 -32.972  1.00  0.00    -0.262 OA
BRANCH  12  15
HETATM   15  C   UNL     1      -3.253   6.214 -31.152  1.00  0.00     0.161 C 
BRANCH  15  16
HETATM   16  C   UNL     1      -2.078   6.692 -30.339  1.00  0.00    -0.040 A 
HETATM   17  C   UNL     1      -0.775   6.622 -30.853  1.00  0.00     0.010 A 
HETATM   18  C   UNL     1       0.309   7.088 -30.104  1.00  0.00     0.024 A 
HETATM   19  C   UNL     1       0.097   7.616 -28.832  1.00  0.00     0.034 A 
HETATM   20 CL   UNL     1       1.431   8.201 -27.916  1.00  0.00    -0.084 Cl
HETATM   21  C   UNL     1      -1.188   7.675 -28.300  1.00  0.00     0.024 A 
HETATM   22  C   UNL     1      -2.272   7.209 -29.048  1.00  0.00     0.010 A 
ENDBRANCH  15  16
ENDBRANCH  12  15
ENDBRANCH   8  11
ENDBRANCH   5   7
BRANCH   4  23
HETATM   23  C   UNL     1      -5.971   0.130 -32.989  1.00  0.00     0.732 A 
HETATM   24  N   UNL     1      -6.700   0.702 -32.085  1.00  0.00    -0.067 NA
HETATM   25  C   UNL     1      -7.942   1.143 -32.488  1.00  0.00     0.065 A 
HETATM   26  C   UNL     1      -8.471   0.916 -33.705  1.00  0.00     0.036 A 
HETATM   27  C   UNL     1      -8.705   1.936 -31.450  1.00  0.00     0.060 C 
HETATM   28  C   UNL     1      -9.845   1.341 -34.134  1.00  0.00     0.046 C 
HETATM   29  C   UNL     1      -7.639   0.193 -34.695  1.00  0.00     0.268 A 
HETATM   30  C   UNL     1     -10.707   1.836 -32.971  1.00  0.00     0.005 C 
HETATM   31  C   UNL     1      -9.894   2.711 -32.024  1.00  0.00     0.006 C 
HETATM   32  O   UNL     1      -8.062  -0.125 -35.799  1.00  0.00    -0.267 OA
HETATM   33  N   UNL     1      -6.379  -0.095 -34.278  1.00  0.00    -0.152 N 
HETATM   34  H   UNL     1      -5.766  -0.621 -34.893  1.00  0.00     0.188 HD
ENDBRANCH   4  23
TORSDOF 5
ENDMDL
MODEL 8
REMARK VINA RESULT:      -8.7      3.644      7.230
REMARK  5 active torsions:
REMARK  status: ('A' for Active; 'I' for Inactive)
REMARK    1  A    between atoms: N_4  and  C_5 
REMARK    2  A    between atoms: C_16  and  N_17 
REMARK       I    between atoms: N_17  and  C_18 
REMARK    3  A    between atoms: C_18  and  C_19 
REMARK       I    between atoms: C_19  and  N_20 
REMARK    4  A    between atoms: N_20  and  C_21 
REMARK    5  A    between atoms: C_21  and  C_22 
ROOT
HETATM    1  C   UNL     1      -2.674   7.274 -31.972  1.00  0.00     0.072 C 
HETATM    2  C   UNL     1      -3.827   6.460 -32.431  1.00  0.00     0.055 C 
HETATM    3  N   UNL     1      -3.642   5.211 -32.866  1.00  0.00    -0.156 NA
HETATM    4  N   UNL     1      -4.910   4.751 -33.153  1.00  0.00    -0.045 N 
HETATM    5  C   UNL     1      -5.835   5.792 -33.098  1.00  0.00     0.152 C 
HETATM    6  C   UNL     1      -5.180   6.849 -32.506  1.00  0.00     0.079 C 
ENDROOT
BRANCH   5   7
HETATM    7  N   UNL     1      -7.162   5.765 -33.486  1.00  0.00    -0.303 N 
HETATM    8  C   UNL     1      -8.181   5.543 -32.577  1.00  0.00     0.315 C 
HETATM    9  O   UNL     1      -8.094   5.351 -31.372  1.00  0.00    -0.262 OA
HETATM   10  H   UNL     1      -7.400   5.553 -34.452  1.00  0.00     0.171 HD
BRANCH   8  11
HETATM   11  C   UNL     1      -9.554   5.421 -33.276  1.00  0.00     0.310 C 
HETATM   12  N   UNL     1      -9.550   4.600 -34.377  1.00  0.00    -0.349 N 
HETATM   13  H   UNL     1      -8.654   4.215 -34.659  1.00  0.00     0.163 HD
HETATM   14  O   UNL     1     -10.511   6.051 -32.848  1.00  0.00    -0.262 OA
BRANCH  12  15
HETATM   15  C   UNL     1     -10.725   4.372 -35.178  1.00  0.00     0.161 C 
BRANCH  15  16
HETATM   16  C   UNL     1     -11.439   3.104 -34.788  1.00  0.00    -0.040 A 
HETATM   17  C   UNL     1     -10.769   2.093 -34.082  1.00  0.00     0.010 A 
HETATM   18  C   UNL     1     -11.442   0.928 -33.703  1.00  0.00     0.024 A 
HETATM   19  C   UNL     1     -12.784   0.763 -34.036  1.00  0.00     0.034 A 
HETATM   20 CL   UNL     1     -13.615  -0.666 -33.556  1.00  0.00    -0.084 Cl
HETATM   21  C   UNL     1     -13.458   1.748 -34.751  1.00  0.00     0.024 A 
HETATM   22  C   UNL     1     -12.786   2.913 -35.131  1.00  0.00     0.010 A 
ENDBRANCH  15  16
ENDBRANCH  12  15
ENDBRANCH   8  11
ENDBRANCH   5   7
BRANCH   4  23
HETATM   23  C   UNL     1      -5.095   3.351 -33.251  1.00  0.00     0.732 A 
HETATM   24  N   UNL     1      -6.059   2.767 -33.888  1.00  0.00    -0.067 NA
HETATM   25  C   UNL     1      -6.087   1.390 -33.829  1.00  0.00     0.065 A 
HETATM   26  C   UNL     1      -5.258   0.645 -33.073  1.00  0.00     0.036 A 
HETATM   27  C   UNL     1      -7.134   0.735 -34.702  1.00  0.00     0.060 C 
HETATM   28  C   UNL     1      -5.317  -0.850 -32.957  1.00  0.00     0.046 C 
HETATM   29  C   UNL     1      -4.211   1.349 -32.297  1.00  0.00     0.268 A 
HETATM   30  C   UNL     1      -6.581  -1.447 -33.578  1.00  0.00     0.005 C 
HETATM   31  C   UNL     1      -6.913  -0.767 -34.901  1.00  0.00     0.006 C 
HETATM   32  O   UNL     1      -3.462   0.764 -31.525  1.00  0.00    -0.267 OA
HETATM   33  N   UNL     1      -4.155   2.690 -32.503  1.00  0.00    -0.152 N 
HETATM   34  H   UNL     1      -3.484   3.241 -31.976  1.00  0.00     0.188 HD
ENDBRANCH   4  23
TORSDOF 5
ENDMDL
MODEL 9
REMARK VINA RESULT:      -8.6      3.687      8.424
REMARK  5 active torsions:
REMARK  status: ('A' for Active; 'I' for Inactive)
REMARK    1  A    between atoms: N_4  and  C_5 
REMARK    2  A    between atoms: C_16  and  N_17 
REMARK       I    between atoms: N_17  and  C_18 
REMARK    3  A    between atoms: C_18  and  C_19 
REMARK       I    between atoms: C_19  and  N_20 
REMARK    4  A    between atoms: N_20  and  C_21 
REMARK    5  A    between atoms: C_21  and  C_22 
ROOT
HETATM    1  C   UNL     1      -3.199  -1.706 -31.960  1.00  0.00     0.072 C 
HETATM    2  C   UNL     1      -3.785  -0.348 -32.082  1.00  0.00     0.055 C 
HETATM    3  N   UNL     1      -3.049   0.733 -31.809  1.00  0.00    -0.156 NA
HETATM    4  N   UNL     1      -3.883   1.798 -32.075  1.00  0.00    -0.045 N 
HETATM    5  C   UNL     1      -5.187   1.358 -32.298  1.00  0.00     0.152 C 
HETATM    6  C   UNL     1      -5.105  -0.009 -32.441  1.00  0.00     0.079 C 
ENDROOT
BRANCH   5   7
HETATM    7  N   UNL     1      -6.328   2.129 -32.425  1.00  0.00    -0.303 N 
HETATM    8  C   UNL     1      -6.803   2.526 -33.661  1.00  0.00     0.315 C 
HETATM    9  O   UNL     1      -6.337   2.285 -34.767  1.00  0.00    -0.262 OA
HETATM   10  H   UNL     1      -6.636   2.705 -31.646  1.00  0.00     0.171 HD
BRANCH   8  11
HETATM   11  C   UNL     1      -8.004   3.489 -33.531  1.00  0.00     0.310 C 
HETATM   12  N   UNL     1      -9.039   2.992 -32.777  1.00  0.00    -0.349 N 
HETATM   13  H   UNL     1      -8.947   2.037 -32.442  1.00  0.00     0.163 HD
HETATM   14  O   UNL     1      -7.979   4.572 -34.099  1.00  0.00    -0.262 OA
BRANCH  12  15
HETATM   15  C   UNL     1     -10.258   3.726 -32.554  1.00  0.00     0.161 C 
BRANCH  15  16
HETATM   16  C   UNL     1     -11.471   2.962 -33.016  1.00  0.00    -0.040 A 
HETATM   17  C   UNL     1     -11.333   1.762 -33.730  1.00  0.00     0.010 A 
HETATM   18  C   UNL     1     -12.461   1.045 -34.138  1.00  0.00     0.024 A 
HETATM   19  C   UNL     1     -13.734   1.528 -33.842  1.00  0.00     0.034 A 
HETATM   20 CL   UNL     1     -15.123   0.637 -34.332  1.00  0.00    -0.084 Cl
HETATM   21  C   UNL     1     -13.889   2.726 -33.150  1.00  0.00     0.024 A 
HETATM   22  C   UNL     1     -12.761   3.444 -32.743  1.00  0.00     0.010 A 
ENDBRANCH  15  16
ENDBRANCH  12  15
ENDBRANCH   8  11
ENDBRANCH   5   7
BRANCH   4  23
HETATM   23  C   UNL     1      -3.287   3.067 -32.268  1.00  0.00     0.732 A 
HETATM   24  N   UNL     1      -2.416   3.612 -31.481  1.00  0.00    -0.067 NA
HETATM   25  C   UNL     1      -1.986   4.876 -31.823  1.00  0.00     0.065 A 
HETATM   26  C   UNL     1      -2.492   5.601 -32.839  1.00  0.00     0.036 A 
HETATM   27  C   UNL     1      -0.863   5.421 -30.969  1.00  0.00     0.060 C 
HETATM   28  C   UNL     1      -2.071   7.000 -33.184  1.00  0.00     0.046 C 
HETATM   29  C   UNL     1      -3.541   4.977 -33.677  1.00  0.00     0.268 A 
HETATM   30  C   UNL     1      -1.188   7.640 -32.111  1.00  0.00     0.005 C 
HETATM   31  C   UNL     1      -0.167   6.641 -31.579  1.00  0.00     0.006 C 
HETATM   32  O   UNL     1      -4.112   5.585 -34.574  1.00  0.00    -0.267 OA
HETATM   33  N   UNL     1      -3.823   3.685 -33.369  1.00  0.00    -0.152 N 
HETATM   34  H   UNL     1      -4.558   3.207 -33.880  1.00  0.00     0.188 HD
ENDBRANCH   4  23
TORSDOF 5
ENDMDL
MODEL 10
REMARK VINA RESULT:      -8.5      3.996      8.320
REMARK  5 active torsions:
REMARK  status: ('A' for Active; 'I' for Inactive)
REMARK    1  A    between atoms: N_4  and  C_5 
REMARK    2  A    between atoms: C_16  and  N_17 
REMARK       I    between atoms: N_17  and  C_18 
REMARK    3  A    between atoms: C_18  and  C_19 
REMARK       I    between atoms: C_19  and  N_20 
REMARK    4  A    between atoms: N_20  and  C_21 
REMARK    5  A    between atoms: C_21  and  C_22 
ROOT
HETATM    1  C   UNL     1      -0.761   5.848 -32.021  1.00  0.00     0.072 C 
HETATM    2  C   UNL     1      -2.139   5.300 -31.962  1.00  0.00     0.055 C 
HETATM    3  N   UNL     1      -2.936   5.583 -30.928  1.00  0.00    -0.156 NA
HETATM    4  N   UNL     1      -4.130   4.962 -31.229  1.00  0.00    -0.045 N 
HETATM    5  C   UNL     1      -3.985   4.126 -32.335  1.00  0.00     0.152 C 
HETATM    6  C   UNL     1      -2.763   4.441 -32.889  1.00  0.00     0.079 C 
ENDROOT
BRANCH   5   7
HETATM    7  N   UNL     1      -4.899   3.215 -32.831  1.00  0.00    -0.303 N 
HETATM    8  C   UNL     1      -5.865   3.582 -33.749  1.00  0.00     0.315 C 
HETATM    9  O   UNL     1      -6.062   4.683 -34.245  1.00  0.00    -0.262 OA
HETATM   10  H   UNL     1      -5.117   2.378 -32.296  1.00  0.00     0.171 HD
BRANCH   8  11
HETATM   11  C   UNL     1      -6.847   2.424 -34.041  1.00  0.00     0.310 C 
HETATM   12  N   UNL     1      -6.261   1.181 -34.041  1.00  0.00    -0.349 N 
HETATM   13  H   UNL     1      -5.253   1.149 -33.920  1.00  0.00     0.163 HD
HETATM   14  O   UNL     1      -8.023   2.669 -34.269  1.00  0.00    -0.262 OA
BRANCH  12  15
HETATM   15  C   UNL     1      -7.001  -0.024 -34.313  1.00  0.00     0.161 C 
BRANCH  15  16
HETATM   16  C   UNL     1      -6.134  -1.253 -34.219  1.00  0.00    -0.040 A 
HETATM   17  C   UNL     1      -6.541  -2.462 -34.802  1.00  0.00     0.010 A 
HETATM   18  C   UNL     1      -5.723  -3.594 -34.731  1.00  0.00     0.024 A 
HETATM   19  C   UNL     1      -4.500  -3.525 -34.069  1.00  0.00     0.034 A 
HETATM   20 CL   UNL     1      -3.488  -4.915 -33.994  1.00  0.00    -0.084 Cl
HETATM   21  C   UNL     1      -4.090  -2.337 -33.469  1.00  0.00     0.024 A 
HETATM   22  C   UNL     1      -4.907  -1.206 -33.539  1.00  0.00     0.010 A 
ENDBRANCH  15  16
ENDBRANCH  12  15
ENDBRANCH   8  11
ENDBRANCH   5   7
BRANCH   4  23
HETATM   23  C   UNL     1      -5.288   5.396 -30.540  1.00  0.00     0.732 A 
HETATM   24  N   UNL     1      -6.397   5.760 -31.099  1.00  0.00    -0.067 NA
HETATM   25  C   UNL     1      -7.397   6.192 -30.254  1.00  0.00     0.065 A 
HETATM   26  C   UNL     1      -7.249   6.360 -28.926  1.00  0.00     0.036 A 
HETATM   27  C   UNL     1      -8.724   6.467 -30.924  1.00  0.00     0.060 C 
HETATM   28  C   UNL     1      -8.313   6.883 -28.006  1.00  0.00     0.046 C 
HETATM   29  C   UNL     1      -5.942   6.003 -28.326  1.00  0.00     0.268 A 
HETATM   30  C   UNL     1      -9.515   7.463 -28.753  1.00  0.00     0.005 C 
HETATM   31  C   UNL     1      -9.893   6.588 -29.941  1.00  0.00     0.006 C 
HETATM   32  O   UNL     1      -5.690   6.192 -27.143  1.00  0.00    -0.267 OA
HETATM   33  N   UNL     1      -5.048   5.460 -29.192  1.00  0.00    -0.152 N 
HETATM   34  H   UNL     1      -4.119   5.226 -28.856  1.00  0.00     0.188 HD
ENDBRANCH   4  23
TORSDOF 5
ENDMDL
