MODEL 1
REMARK VINA RESULT:      -8.7      0.000      0.000
REMARK  9 active torsions:
REMARK  status: ('A' for Active; 'I' for Inactive)
REMARK    1  A    between atoms: C_2  and  O_3 
REMARK    2  A    between atoms: O_3  and  C_4 
REMARK    3  A    between atoms: C_7  and  N_8 
REMARK    4  A    between atoms: C_12  and  N_13 
REMARK       I    between atoms: N_13  and  C_14 
REMARK       I    between atoms: C_14  and  N_15 
REMARK    5  A    between atoms: N_15  and  C_16 
REMARK    6  A    between atoms: C_16  and  C_17 
REMARK    7  A    between atoms: C_17  and  C_18 
REMARK    8  A    between atoms: C_21  and  S_22 
REMARK    9  A    between atoms: S_22  and  N_23 
ROOT
HETATM    1  N   UNL     1      -2.975   3.645 -31.274  1.00  0.00    -0.336 N 
HETATM    2  C   UNL     1      -2.083   4.518 -31.797  1.00  0.00     0.316 C 
HETATM    3  N   UNL     1      -2.563   5.462 -32.645  1.00  0.00    -0.343 N 
HETATM    4  O   UNL     1      -0.897   4.398 -31.508  1.00  0.00    -0.248 OA
HETATM    5  H   UNL     1      -2.495   2.953 -30.708  1.00  0.00     0.164 HD
HETATM    6  H   UNL     1      -3.504   5.783 -32.477  1.00  0.00     0.164 HD
ENDROOT
BRANCH   1   7
HETATM    7  C   UNL     1      -4.410   3.446 -31.481  1.00  0.00     0.113 C 
HETATM    8  C   UNL     1      -5.141   2.836 -30.296  1.00  0.00     0.130 C 
HETATM    9  C   UNL     1      -5.453   1.422 -30.724  1.00  0.00     0.226 C 
HETATM   10  N   UNL     1      -5.161   1.285 -32.089  1.00  0.00    -0.316 N 
HETATM   11  O   UNL     1      -5.910   0.591 -29.952  1.00  0.00    -0.273 OA
HETATM   12  C   UNL     1      -4.757   2.551 -32.664  1.00  0.00     0.157 C 
BRANCH  10  13
HETATM   13  C   UNL     1      -5.431   0.142 -32.900  1.00  0.00     0.037 A 
HETATM   14  C   UNL     1      -6.667  -0.052 -33.529  1.00  0.00     0.032 A 
HETATM   15  C   UNL     1      -6.902  -1.154 -34.365  1.00  0.00     0.039 A 
HETATM   16  C   UNL     1      -5.900  -2.094 -34.582  1.00  0.00     0.068 A 
HETATM   17  C   UNL     1      -4.684  -1.947 -33.925  1.00  0.00     0.039 A 
HETATM   18  C   UNL     1      -4.447  -0.839 -33.102  1.00  0.00     0.032 A 
BRANCH  16  19
HETATM   19  O   UNL     1      -6.010  -3.196 -35.382  1.00  0.00    -0.352 OA
BRANCH  19  20
HETATM   20  C   UNL     1      -6.333  -4.414 -34.707  1.00  0.00     0.171 C 
HETATM   21  C   UNL     1      -5.051  -5.212 -34.548  1.00  0.00     0.034 C 
ENDBRANCH  19  20
ENDBRANCH  16  19
ENDBRANCH  10  13
ENDBRANCH   1   7
BRANCH   3  22
HETATM   22  C   UNL     1      -1.677   6.428 -33.275  1.00  0.00     0.129 C 
BRANCH  22  23
HETATM   23  C   UNL     1      -1.461   7.719 -32.467  1.00  0.00     0.058 C 
BRANCH  23  24
HETATM   24  C   UNL     1      -1.219   7.606 -30.974  1.00  0.00    -0.057 A 
HETATM   25  C   UNL     1      -2.216   7.779 -30.006  1.00  0.00     0.009 A 
HETATM   26  C   UNL     1      -1.921   7.674 -28.645  1.00  0.00     0.025 A 
HETATM   27  C   UNL     1      -0.620   7.368 -28.241  1.00  0.00     0.074 A 
HETATM   28  C   UNL     1       0.389   7.180 -29.184  1.00  0.00     0.025 A 
HETATM   29  C   UNL     1       0.086   7.300 -30.543  1.00  0.00     0.009 A 
BRANCH  27  30
HETATM   30  S   UNL     1      -0.259   7.238 -26.518  1.00  0.00     0.239 S 
HETATM   31  O   UNL     1       1.172   7.281 -26.321  1.00  0.00    -0.206 OA
HETATM   32  O   UNL     1      -1.170   8.079 -25.780  1.00  0.00    -0.206 OA
BRANCH  30  33
HETATM   33  N   UNL     1      -0.702   5.652 -26.176  1.00  0.00    -0.225 NA
HETATM   34  H   UNL     1      -0.736   5.112 -27.041  1.00  0.00     0.136 HD
HETATM   35  H   UNL     1      -0.076   5.266 -25.468  1.00  0.00     0.136 HD
ENDBRANCH  30  33
ENDBRANCH  27  30
ENDBRANCH  23  24
ENDBRANCH  22  23
ENDBRANCH   3  22
TORSDOF 9
ENDMDL
MODEL 2
REMARK VINA RESULT:      -8.5      5.448      9.042
REMARK  9 active torsions:
REMARK  status: ('A' for Active; 'I' for Inactive)
REMARK    1  A    between atoms: C_2  and  O_3 
REMARK    2  A    between atoms: O_3  and  C_4 
REMARK    3  A    between atoms: C_7  and  N_8 
REMARK    4  A    between atoms: C_12  and  N_13 
REMARK       I    between atoms: N_13  and  C_14 
REMARK       I    between atoms: C_14  and  N_15 
REMARK    5  A    between atoms: N_15  and  C_16 
REMARK    6  A    between atoms: C_16  and  C_17 
REMARK    7  A    between atoms: C_17  and  C_18 
REMARK    8  A    between atoms: C_21  and  S_22 
REMARK    9  A    between atoms: S_22  and  N_23 
ROOT
HETATM    1  N   UNL     1      -7.467   2.679 -29.682  1.00  0.00    -0.336 N 
HETATM    2  C   UNL     1      -8.123   3.283 -30.700  1.00  0.00     0.316 C 
HETATM    3  N   UNL     1      -7.478   3.367 -31.890  1.00  0.00    -0.343 N 
HETATM    4  O   UNL     1      -9.241   3.744 -30.493  1.00  0.00    -0.248 OA
HETATM    5  H   UNL     1      -8.019   2.729 -28.832  1.00  0.00     0.164 HD
HETATM    6  H   UNL     1      -6.837   2.620 -32.110  1.00  0.00     0.164 HD
ENDROOT
BRANCH   1   7
HETATM    7  C   UNL     1      -6.118   2.122 -29.559  1.00  0.00     0.113 C 
HETATM    8  C   UNL     1      -5.029   2.952 -30.217  1.00  0.00     0.130 C 
HETATM    9  C   UNL     1      -4.635   2.165 -31.444  1.00  0.00     0.226 C 
HETATM   10  N   UNL     1      -5.244   0.902 -31.389  1.00  0.00    -0.316 N 
HETATM   11  O   UNL     1      -3.881   2.614 -32.295  1.00  0.00    -0.273 OA
HETATM   12  C   UNL     1      -5.960   0.725 -30.144  1.00  0.00     0.157 C 
BRANCH  10  13
HETATM   13  C   UNL     1      -5.028  -0.179 -32.295  1.00  0.00     0.037 A 
HETATM   14  C   UNL     1      -3.963  -1.077 -32.145  1.00  0.00     0.032 A 
HETATM   15  C   UNL     1      -3.792  -2.166 -33.013  1.00  0.00     0.039 A 
HETATM   16  C   UNL     1      -4.685  -2.375 -34.059  1.00  0.00     0.068 A 
HETATM   17  C   UNL     1      -5.718  -1.465 -34.255  1.00  0.00     0.039 A 
HETATM   18  C   UNL     1      -5.895  -0.387 -33.379  1.00  0.00     0.032 A 
BRANCH  16  19
HETATM   19  O   UNL     1      -4.626  -3.405 -34.955  1.00  0.00    -0.352 OA
BRANCH  19  20
HETATM   20  C   UNL     1      -5.326  -4.591 -34.573  1.00  0.00     0.171 C 
HETATM   21  C   UNL     1      -6.526  -4.740 -35.491  1.00  0.00     0.034 C 
ENDBRANCH  19  20
ENDBRANCH  16  19
ENDBRANCH  10  13
ENDBRANCH   1   7
BRANCH   3  22
HETATM   22  C   UNL     1      -8.094   4.020 -33.034  1.00  0.00     0.129 C 
BRANCH  22  23
HETATM   23  C   UNL     1      -8.585   3.059 -34.130  1.00  0.00     0.058 C 
BRANCH  23  24
HETATM   24  C   UNL     1      -9.963   2.444 -33.988  1.00  0.00    -0.057 A 
HETATM   25  C   UNL     1     -10.195   1.149 -33.505  1.00  0.00     0.009 A 
HETATM   26  C   UNL     1     -11.492   0.640 -33.413  1.00  0.00     0.025 A 
HETATM   27  C   UNL     1     -12.577   1.436 -33.783  1.00  0.00     0.074 A 
HETATM   28  C   UNL     1     -12.374   2.732 -34.256  1.00  0.00     0.025 A 
HETATM   29  C   UNL     1     -11.073   3.228 -34.357  1.00  0.00     0.009 A 
BRANCH  27  30
HETATM   30  S   UNL     1     -14.211   0.781 -33.661  1.00  0.00     0.239 S 
HETATM   31  O   UNL     1     -14.873   1.347 -32.507  1.00  0.00    -0.206 OA
HETATM   32  O   UNL     1     -14.813   0.770 -34.972  1.00  0.00    -0.206 OA
BRANCH  30  33
HETATM   33  N   UNL     1     -13.927  -0.827 -33.260  1.00  0.00    -0.225 NA
HETATM   34  H   UNL     1     -13.999  -1.405 -34.097  1.00  0.00     0.136 HD
HETATM   35  H   UNL     1     -13.033  -0.906 -32.775  1.00  0.00     0.136 HD
ENDBRANCH  30  33
ENDBRANCH  27  30
ENDBRANCH  23  24
ENDBRANCH  22  23
ENDBRANCH   3  22
TORSDOF 9
ENDMDL
MODEL 3
REMARK VINA RESULT:      -8.4      3.524      4.953
REMARK  9 active torsions:
REMARK  status: ('A' for Active; 'I' for Inactive)
REMARK    1  A    between atoms: C_2  and  O_3 
REMARK    2  A    between atoms: O_3  and  C_4 
REMARK    3  A    between atoms: C_7  and  N_8 
REMARK    4  A    between atoms: C_12  and  N_13 
REMARK       I    between atoms: N_13  and  C_14 
REMARK       I    between atoms: C_14  and  N_15 
REMARK    5  A    between atoms: N_15  and  C_16 
REMARK    6  A    between atoms: C_16  and  C_17 
REMARK    7  A    between atoms: C_17  and  C_18 
REMARK    8  A    between atoms: C_21  and  S_22 
REMARK    9  A    between atoms: S_22  and  N_23 
ROOT
HETATM    1  N   UNL     1      -7.593   2.613 -29.877  1.00  0.00    -0.336 N 
HETATM    2  C   UNL     1      -8.214   3.073 -30.987  1.00  0.00     0.316 C 
HETATM    3  N   UNL     1      -7.535   2.987 -32.158  1.00  0.00    -0.343 N 
HETATM    4  O   UNL     1      -9.332   3.567 -30.879  1.00  0.00    -0.248 OA
HETATM    5  H   UNL     1      -8.169   2.784 -29.058  1.00  0.00     0.164 HD
HETATM    6  H   UNL     1      -6.896   2.212 -32.254  1.00  0.00     0.164 HD
ENDROOT
BRANCH   1   7
HETATM    7  C   UNL     1      -6.255   2.069 -29.638  1.00  0.00     0.113 C 
HETATM    8  C   UNL     1      -5.123   2.886 -30.240  1.00  0.00     0.130 C 
HETATM    9  C   UNL     1      -4.637   2.066 -31.410  1.00  0.00     0.226 C 
HETATM   10  N   UNL     1      -5.242   0.800 -31.361  1.00  0.00    -0.316 N 
HETATM   11  O   UNL     1      -3.824   2.494 -32.217  1.00  0.00    -0.273 OA
HETATM   12  C   UNL     1      -6.048   0.656 -30.167  1.00  0.00     0.157 C 
BRANCH  10  13
HETATM   13  C   UNL     1      -4.956  -0.306 -32.215  1.00  0.00     0.037 A 
HETATM   14  C   UNL     1      -3.961  -1.245 -31.912  1.00  0.00     0.032 A 
HETATM   15  C   UNL     1      -3.723  -2.356 -32.734  1.00  0.00     0.039 A 
HETATM   16  C   UNL     1      -4.477  -2.548 -33.887  1.00  0.00     0.068 A 
HETATM   17  C   UNL     1      -5.434  -1.600 -34.232  1.00  0.00     0.039 A 
HETATM   18  C   UNL     1      -5.678  -0.499 -33.403  1.00  0.00     0.032 A 
BRANCH  16  19
HETATM   19  O   UNL     1      -4.344  -3.596 -34.754  1.00  0.00    -0.352 OA
BRANCH  19  20
HETATM   20  C   UNL     1      -5.187  -4.721 -34.488  1.00  0.00     0.171 C 
HETATM   21  C   UNL     1      -6.351  -4.670 -35.462  1.00  0.00     0.034 C 
ENDBRANCH  19  20
ENDBRANCH  16  19
ENDBRANCH  10  13
ENDBRANCH   1   7
BRANCH   3  22
HETATM   22  C   UNL     1      -8.111   3.478 -33.400  1.00  0.00     0.129 C 
BRANCH  22  23
HETATM   23  C   UNL     1      -7.668   4.897 -33.793  1.00  0.00     0.058 C 
BRANCH  23  24
HETATM   24  C   UNL     1      -6.238   5.313 -33.508  1.00  0.00    -0.057 A 
HETATM   25  C   UNL     1      -5.857   6.105 -32.418  1.00  0.00     0.009 A 
HETATM   26  C   UNL     1      -4.521   6.463 -32.222  1.00  0.00     0.025 A 
HETATM   27  C   UNL     1      -3.546   6.007 -33.110  1.00  0.00     0.074 A 
HETATM   28  C   UNL     1      -3.896   5.208 -34.198  1.00  0.00     0.025 A 
HETATM   29  C   UNL     1      -5.237   4.867 -34.392  1.00  0.00     0.009 A 
BRANCH  27  30
HETATM   30  S   UNL     1      -1.861   6.465 -32.853  1.00  0.00     0.239 S 
HETATM   31  O   UNL     1      -1.748   7.223 -31.628  1.00  0.00    -0.206 OA
HETATM   32  O   UNL     1      -1.015   5.333 -33.145  1.00  0.00    -0.206 OA
BRANCH  30  33
HETATM   33  N   UNL     1      -1.597   7.579 -34.084  1.00  0.00    -0.225 NA
HETATM   34  H   UNL     1      -2.487   7.823 -34.520  1.00  0.00     0.136 HD
HETATM   35  H   UNL     1      -1.080   8.378 -33.719  1.00  0.00     0.136 HD
ENDBRANCH  30  33
ENDBRANCH  27  30
ENDBRANCH  23  24
ENDBRANCH  22  23
ENDBRANCH   3  22
TORSDOF 9
ENDMDL
MODEL 4
REMARK VINA RESULT:      -8.3      3.426      5.220
REMARK  9 active torsions:
REMARK  status: ('A' for Active; 'I' for Inactive)
REMARK    1  A    between atoms: C_2  and  O_3 
REMARK    2  A    between atoms: O_3  and  C_4 
REMARK    3  A    between atoms: C_7  and  N_8 
REMARK    4  A    between atoms: C_12  and  N_13 
REMARK       I    between atoms: N_13  and  C_14 
REMARK       I    between atoms: C_14  and  N_15 
REMARK    5  A    between atoms: N_15  and  C_16 
REMARK    6  A    between atoms: C_16  and  C_17 
REMARK    7  A    between atoms: C_17  and  C_18 
REMARK    8  A    between atoms: C_21  and  S_22 
REMARK    9  A    between atoms: S_22  and  N_23 
ROOT
HETATM    1  N   UNL     1     -10.091   3.641 -32.160  1.00  0.00    -0.336 N 
HETATM    2  C   UNL     1      -9.133   3.938 -31.250  1.00  0.00     0.316 C 
HETATM    3  N   UNL     1      -7.912   3.375 -31.430  1.00  0.00    -0.343 N 
HETATM    4  O   UNL     1      -9.419   4.665 -30.305  1.00  0.00    -0.248 OA
HETATM    5  H   UNL     1     -10.972   4.067 -31.890  1.00  0.00     0.164 HD
HETATM    6  H   UNL     1      -7.629   3.204 -32.383  1.00  0.00     0.164 HD
ENDROOT
BRANCH   1   7
HETATM    7  C   UNL     1     -10.117   2.752 -33.322  1.00  0.00     0.113 C 
HETATM    8  C   UNL     1     -11.023   1.541 -33.172  1.00  0.00     0.130 C 
HETATM    9  C   UNL     1     -10.081   0.374 -33.004  1.00  0.00     0.226 C 
HETATM   10  N   UNL     1      -8.772   0.805 -33.269  1.00  0.00    -0.316 N 
HETATM   11  O   UNL     1     -10.472  -0.746 -32.708  1.00  0.00    -0.273 OA
HETATM   12  C   UNL     1      -8.758   2.184 -33.709  1.00  0.00     0.157 C 
BRANCH  10  13
HETATM   13  C   UNL     1      -7.609  -0.020 -33.337  1.00  0.00     0.037 A 
HETATM   14  C   UNL     1      -7.327  -0.820 -34.451  1.00  0.00     0.032 A 
HETATM   15  C   UNL     1      -6.155  -1.588 -34.527  1.00  0.00     0.039 A 
HETATM   16  C   UNL     1      -5.239  -1.573 -33.481  1.00  0.00     0.068 A 
HETATM   17  C   UNL     1      -5.527  -0.825 -32.344  1.00  0.00     0.039 A 
HETATM   18  C   UNL     1      -6.691  -0.050 -32.276  1.00  0.00     0.032 A 
BRANCH  16  19
HETATM   19  O   UNL     1      -4.062  -2.266 -33.449  1.00  0.00    -0.352 OA
BRANCH  19  20
HETATM   20  C   UNL     1      -3.377  -2.254 -32.195  1.00  0.00     0.171 C 
HETATM   21  C   UNL     1      -2.994  -3.684 -31.859  1.00  0.00     0.034 C 
ENDBRANCH  19  20
ENDBRANCH  16  19
ENDBRANCH  10  13
ENDBRANCH   1   7
BRANCH   3  22
HETATM   22  C   UNL     1      -6.827   3.616 -30.491  1.00  0.00     0.129 C 
BRANCH  22  23
HETATM   23  C   UNL     1      -5.456   3.094 -30.951  1.00  0.00     0.058 C 
BRANCH  23  24
HETATM   24  C   UNL     1      -4.407   4.100 -31.382  1.00  0.00    -0.057 A 
HETATM   25  C   UNL     1      -4.417   5.449 -31.006  1.00  0.00     0.009 A 
HETATM   26  C   UNL     1      -3.425   6.325 -31.451  1.00  0.00     0.025 A 
HETATM   27  C   UNL     1      -2.394   5.849 -32.263  1.00  0.00     0.074 A 
HETATM   28  C   UNL     1      -2.354   4.508 -32.643  1.00  0.00     0.025 A 
HETATM   29  C   UNL     1      -3.358   3.643 -32.204  1.00  0.00     0.009 A 
BRANCH  27  30
HETATM   30  S   UNL     1      -1.145   6.966 -32.819  1.00  0.00     0.239 S 
HETATM   31  O   UNL     1      -0.050   6.973 -31.876  1.00  0.00    -0.206 OA
HETATM   32  O   UNL     1      -0.948   6.784 -34.236  1.00  0.00    -0.206 OA
BRANCH  30  33
HETATM   33  N   UNL     1      -1.891   8.462 -32.636  1.00  0.00    -0.225 NA
HETATM   34  H   UNL     1      -2.306   8.747 -33.523  1.00  0.00     0.136 HD
HETATM   35  H   UNL     1      -2.553   8.422 -31.860  1.00  0.00     0.136 HD
ENDBRANCH  30  33
ENDBRANCH  27  30
ENDBRANCH  23  24
ENDBRANCH  22  23
ENDBRANCH   3  22
TORSDOF 9
ENDMDL
MODEL 5
REMARK VINA RESULT:      -8.3      2.727      4.096
REMARK  9 active torsions:
REMARK  status: ('A' for Active; 'I' for Inactive)
REMARK    1  A    between atoms: C_2  and  O_3 
REMARK    2  A    between atoms: O_3  and  C_4 
REMARK    3  A    between atoms: C_7  and  N_8 
REMARK    4  A    between atoms: C_12  and  N_13 
REMARK       I    between atoms: N_13  and  C_14 
REMARK       I    between atoms: C_14  and  N_15 
REMARK    5  A    between atoms: N_15  and  C_16 
REMARK    6  A    between atoms: C_16  and  C_17 
REMARK    7  A    between atoms: C_17  and  C_18 
REMARK    8  A    between atoms: C_21  and  S_22 
REMARK    9  A    between atoms: S_22  and  N_23 
ROOT
HETATM    1  N   UNL     1      -9.275   3.618 -33.130  1.00  0.00    -0.336 N 
HETATM    2  C   UNL     1      -8.383   4.505 -33.627  1.00  0.00     0.316 C 
HETATM    3  N   UNL     1      -7.075   4.301 -33.330  1.00  0.00    -0.343 N 
HETATM    4  O   UNL     1      -8.796   5.453 -34.287  1.00  0.00    -0.248 OA
HETATM    5  H   UNL     1     -10.220   3.904 -33.364  1.00  0.00     0.164 HD
HETATM    6  H   UNL     1      -6.782   3.343 -33.214  1.00  0.00     0.164 HD
ENDROOT
BRANCH   1   7
HETATM    7  C   UNL     1      -9.139   2.460 -32.244  1.00  0.00     0.113 C 
HETATM    8  C   UNL     1      -8.111   2.627 -31.138  1.00  0.00     0.130 C 
HETATM    9  C   UNL     1      -6.958   1.743 -31.547  1.00  0.00     0.226 C 
HETATM   10  N   UNL     1      -7.354   0.956 -32.640  1.00  0.00    -0.316 N 
HETATM   11  O   UNL     1      -5.887   1.748 -30.957  1.00  0.00    -0.273 OA
HETATM   12  C   UNL     1      -8.751   1.169 -32.954  1.00  0.00     0.157 C 
BRANCH  10  13
HETATM   13  C   UNL     1      -6.597  -0.092 -33.244  1.00  0.00     0.037 A 
HETATM   14  C   UNL     1      -5.203  -0.168 -33.128  1.00  0.00     0.032 A 
HETATM   15  C   UNL     1      -4.475  -1.231 -33.684  1.00  0.00     0.039 A 
HETATM   16  C   UNL     1      -5.132  -2.242 -34.377  1.00  0.00     0.068 A 
HETATM   17  C   UNL     1      -6.510  -2.157 -34.548  1.00  0.00     0.039 A 
HETATM   18  C   UNL     1      -7.235  -1.102 -33.981  1.00  0.00     0.032 A 
BRANCH  16  19
HETATM   19  O   UNL     1      -4.532  -3.329 -34.947  1.00  0.00    -0.352 OA
BRANCH  19  20
HETATM   20  C   UNL     1      -4.772  -4.576 -34.291  1.00  0.00     0.171 C 
HETATM   21  C   UNL     1      -3.565  -4.885 -33.424  1.00  0.00     0.034 C 
ENDBRANCH  19  20
ENDBRANCH  16  19
ENDBRANCH  10  13
ENDBRANCH   1   7
BRANCH   3  22
HETATM   22  C   UNL     1      -6.046   5.216 -33.801  1.00  0.00     0.129 C 
BRANCH  22  23
HETATM   23  C   UNL     1      -4.717   4.542 -34.180  1.00  0.00     0.058 C 
BRANCH  23  24
HETATM   24  C   UNL     1      -3.506   4.785 -33.302  1.00  0.00    -0.057 A 
HETATM   25  C   UNL     1      -3.567   4.932 -31.910  1.00  0.00     0.009 A 
HETATM   26  C   UNL     1      -2.412   5.169 -31.162  1.00  0.00     0.025 A 
HETATM   27  C   UNL     1      -1.174   5.237 -31.804  1.00  0.00     0.074 A 
HETATM   28  C   UNL     1      -1.084   5.085 -33.186  1.00  0.00     0.025 A 
HETATM   29  C   UNL     1      -2.246   4.861 -33.927  1.00  0.00     0.009 A 
BRANCH  27  30
HETATM   30  S   UNL     1       0.280   5.536 -30.848  1.00  0.00     0.239 S 
HETATM   31  O   UNL     1       1.192   4.425 -30.996  1.00  0.00    -0.206 OA
HETATM   32  O   UNL     1       0.691   6.907 -31.032  1.00  0.00    -0.206 OA
BRANCH  30  33
HETATM   33  N   UNL     1      -0.295   5.425 -29.272  1.00  0.00    -0.225 NA
HETATM   34  H   UNL     1      -0.219   6.334 -28.816  1.00  0.00     0.136 HD
HETATM   35  H   UNL     1      -1.240   5.041 -29.278  1.00  0.00     0.136 HD
ENDBRANCH  30  33
ENDBRANCH  27  30
ENDBRANCH  23  24
ENDBRANCH  22  23
ENDBRANCH   3  22
TORSDOF 9
ENDMDL
MODEL 6
REMARK VINA RESULT:      -8.2      2.922      3.926
REMARK  9 active torsions:
REMARK  status: ('A' for Active; 'I' for Inactive)
REMARK    1  A    between atoms: C_2  and  O_3 
REMARK    2  A    between atoms: O_3  and  C_4 
REMARK    3  A    between atoms: C_7  and  N_8 
REMARK    4  A    between atoms: C_12  and  N_13 
REMARK       I    between atoms: N_13  and  C_14 
REMARK       I    between atoms: C_14  and  N_15 
REMARK    5  A    between atoms: N_15  and  C_16 
REMARK    6  A    between atoms: C_16  and  C_17 
REMARK    7  A    between atoms: C_17  and  C_18 
REMARK    8  A    between atoms: C_21  and  S_22 
REMARK    9  A    between atoms: S_22  and  N_23 
ROOT
HETATM    1  N   UNL     1      -3.085   3.349 -32.443  1.00  0.00    -0.336 N 
HETATM    2  C   UNL     1      -2.344   4.459 -32.221  1.00  0.00     0.316 C 
HETATM    3  N   UNL     1      -1.990   4.721 -30.939  1.00  0.00    -0.343 N 
HETATM    4  O   UNL     1      -2.057   5.179 -33.172  1.00  0.00    -0.248 OA
HETATM    5  H   UNL     1      -3.339   3.289 -33.424  1.00  0.00     0.164 HD
HETATM    6  H   UNL     1      -1.849   3.925 -30.336  1.00  0.00     0.164 HD
ENDROOT
BRANCH   1   7
HETATM    7  C   UNL     1      -3.672   2.349 -31.549  1.00  0.00     0.113 C 
HETATM    8  C   UNL     1      -3.313   0.911 -31.886  1.00  0.00     0.130 C 
HETATM    9  C   UNL     1      -4.580   0.323 -32.459  1.00  0.00     0.226 C 
HETATM   10  N   UNL     1      -5.632   1.229 -32.260  1.00  0.00    -0.316 N 
HETATM   11  O   UNL     1      -4.611  -0.784 -32.977  1.00  0.00    -0.273 OA
HETATM   12  C   UNL     1      -5.194   2.374 -31.491  1.00  0.00     0.157 C 
BRANCH  10  13
HETATM   13  C   UNL     1      -7.011   0.999 -32.549  1.00  0.00     0.037 A 
HETATM   14  C   UNL     1      -7.541   1.162 -33.835  1.00  0.00     0.032 A 
HETATM   15  C   UNL     1      -8.887   0.883 -34.116  1.00  0.00     0.039 A 
HETATM   16  C   UNL     1      -9.736   0.439 -33.108  1.00  0.00     0.068 A 
HETATM   17  C   UNL     1      -9.240   0.320 -31.814  1.00  0.00     0.039 A 
HETATM   18  C   UNL     1      -7.894   0.587 -31.539  1.00  0.00     0.032 A 
BRANCH  16  19
HETATM   19  O   UNL     1     -11.056   0.124 -33.266  1.00  0.00    -0.352 OA
BRANCH  19  20
HETATM   20  C   UNL     1     -11.866   1.151 -33.843  1.00  0.00     0.171 C 
HETATM   21  C   UNL     1     -13.318   0.735 -33.699  1.00  0.00     0.034 C 
ENDBRANCH  19  20
ENDBRANCH  16  19
ENDBRANCH  10  13
ENDBRANCH   1   7
BRANCH   3  22
HETATM   22  C   UNL     1      -1.214   5.905 -30.600  1.00  0.00     0.129 C 
BRANCH  22  23
HETATM   23  C   UNL     1       0.075   5.620 -29.811  1.00  0.00     0.058 C 
BRANCH  23  24
HETATM   24  C   UNL     1       0.440   6.543 -28.664  1.00  0.00    -0.057 A 
HETATM   25  C   UNL     1       0.216   6.239 -27.316  1.00  0.00     0.009 A 
HETATM   26  C   UNL     1       0.565   7.142 -26.309  1.00  0.00     0.025 A 
HETATM   27  C   UNL     1       1.166   8.356 -26.647  1.00  0.00     0.074 A 
HETATM   28  C   UNL     1       1.409   8.679 -27.981  1.00  0.00     0.025 A 
HETATM   29  C   UNL     1       1.045   7.774 -28.981  1.00  0.00     0.009 A 
BRANCH  27  30
HETATM   30  S   UNL     1       1.603   9.490 -25.367  1.00  0.00     0.239 S 
HETATM   31  O   UNL     1       0.526   9.571 -24.406  1.00  0.00    -0.206 OA
HETATM   32  O   UNL     1       2.973   9.257 -24.979  1.00  0.00    -0.206 OA
BRANCH  30  33
HETATM   33  N   UNL     1       1.587  10.966 -26.171  1.00  0.00    -0.225 NA
HETATM   34  H   UNL     1       2.100  10.883 -27.049  1.00  0.00     0.136 HD
HETATM   35  H   UNL     1       0.624  11.286 -26.281  1.00  0.00     0.136 HD
ENDBRANCH  30  33
ENDBRANCH  27  30
ENDBRANCH  23  24
ENDBRANCH  22  23
ENDBRANCH   3  22
TORSDOF 9
ENDMDL
MODEL 7
REMARK VINA RESULT:      -8.2      4.577     10.992
REMARK  9 active torsions:
REMARK  status: ('A' for Active; 'I' for Inactive)
REMARK    1  A    between atoms: C_2  and  O_3 
REMARK    2  A    between atoms: O_3  and  C_4 
REMARK    3  A    between atoms: C_7  and  N_8 
REMARK    4  A    between atoms: C_12  and  N_13 
REMARK       I    between atoms: N_13  and  C_14 
REMARK       I    between atoms: C_14  and  N_15 
REMARK    5  A    between atoms: N_15  and  C_16 
REMARK    6  A    between atoms: C_16  and  C_17 
REMARK    7  A    between atoms: C_17  and  C_18 
REMARK    8  A    between atoms: C_21  and  S_22 
REMARK    9  A    between atoms: S_22  and  N_23 
ROOT
HETATM    1  N   UNL     1      -3.472   2.012 -32.294  1.00  0.00    -0.336 N 
HETATM    2  C   UNL     1      -4.275   0.932 -32.439  1.00  0.00     0.316 C 
HETATM    3  N   UNL     1      -5.545   1.156 -32.861  1.00  0.00    -0.343 N 
HETATM    4  O   UNL     1      -3.833  -0.177 -32.158  1.00  0.00    -0.248 OA
HETATM    5  H   UNL     1      -2.573   1.730 -31.918  1.00  0.00     0.164 HD
HETATM    6  H   UNL     1      -5.684   1.941 -33.478  1.00  0.00     0.164 HD
ENDROOT
BRANCH   1   7
HETATM    7  C   UNL     1      -3.702   3.450 -32.441  1.00  0.00     0.113 C 
HETATM    8  C   UNL     1      -3.046   4.074 -33.662  1.00  0.00     0.130 C 
HETATM    9  C   UNL     1      -1.898   4.883 -33.110  1.00  0.00     0.226 C 
HETATM   10  N   UNL     1      -2.007   4.932 -31.712  1.00  0.00    -0.316 N 
HETATM   11  O   UNL     1      -1.059   5.404 -33.830  1.00  0.00    -0.273 OA
HETATM   12  C   UNL     1      -3.222   4.287 -31.262  1.00  0.00     0.157 C 
BRANCH  10  13
HETATM   13  C   UNL     1      -1.189   5.697 -30.827  1.00  0.00     0.037 A 
HETATM   14  C   UNL     1      -0.056   5.157 -30.205  1.00  0.00     0.032 A 
HETATM   15  C   UNL     1       0.769   5.934 -29.377  1.00  0.00     0.039 A 
HETATM   16  C   UNL     1       0.470   7.273 -29.150  1.00  0.00     0.068 A 
HETATM   17  C   UNL     1      -0.679   7.814 -29.718  1.00  0.00     0.039 A 
HETATM   18  C   UNL     1      -1.493   7.040 -30.553  1.00  0.00     0.032 A 
BRANCH  16  19
HETATM   19  O   UNL     1       1.205   8.128 -28.377  1.00  0.00    -0.352 OA
BRANCH  19  20
HETATM   20  C   UNL     1       0.498   8.735 -27.293  1.00  0.00     0.171 C 
HETATM   21  C   UNL     1       0.564   7.791 -26.107  1.00  0.00     0.034 C 
ENDBRANCH  19  20
ENDBRANCH  16  19
ENDBRANCH  10  13
ENDBRANCH   1   7
BRANCH   3  22
HETATM   22  C   UNL     1      -6.487   0.060 -33.023  1.00  0.00     0.129 C 
BRANCH  22  23
HETATM   23  C   UNL     1      -7.806   0.233 -32.252  1.00  0.00     0.058 C 
BRANCH  23  24
HETATM   24  C   UNL     1      -9.001   0.813 -32.983  1.00  0.00    -0.057 A 
HETATM   25  C   UNL     1      -8.958   1.993 -33.736  1.00  0.00     0.009 A 
HETATM   26  C   UNL     1     -10.102   2.479 -34.374  1.00  0.00     0.025 A 
HETATM   27  C   UNL     1     -11.300   1.769 -34.282  1.00  0.00     0.074 A 
HETATM   28  C   UNL     1     -11.368   0.586 -33.547  1.00  0.00     0.025 A 
HETATM   29  C   UNL     1     -10.222   0.115 -32.902  1.00  0.00     0.009 A 
BRANCH  27  30
HETATM   30  S   UNL     1     -12.739   2.392 -35.092  1.00  0.00     0.239 S 
HETATM   31  O   UNL     1     -13.801   1.416 -35.010  1.00  0.00    -0.206 OA
HETATM   32  O   UNL     1     -12.926   3.775 -34.723  1.00  0.00    -0.206 OA
BRANCH  30  33
HETATM   33  N   UNL     1     -12.270   2.397 -36.707  1.00  0.00    -0.225 NA
HETATM   34  H   UNL     1     -12.794   3.111 -37.213  1.00  0.00     0.136 HD
HETATM   35  H   UNL     1     -11.257   2.500 -36.770  1.00  0.00     0.136 HD
ENDBRANCH  30  33
ENDBRANCH  27  30
ENDBRANCH  23  24
ENDBRANCH  22  23
ENDBRANCH   3  22
TORSDOF 9
ENDMDL
MODEL 8
REMARK VINA RESULT:      -8.2      3.338      9.172
REMARK  9 active torsions:
REMARK  status: ('A' for Active; 'I' for Inactive)
REMARK    1  A    between atoms: C_2  and  O_3 
REMARK    2  A    between atoms: O_3  and  C_4 
REMARK    3  A    between atoms: C_7  and  N_8 
REMARK    4  A    between atoms: C_12  and  N_13 
REMARK       I    between atoms: N_13  and  C_14 
REMARK       I    between atoms: C_14  and  N_15 
REMARK    5  A    between atoms: N_15  and  C_16 
REMARK    6  A    between atoms: C_16  and  C_17 
REMARK    7  A    between atoms: C_17  and  C_18 
REMARK    8  A    between atoms: C_21  and  S_22 
REMARK    9  A    between atoms: S_22  and  N_23 
ROOT
HETATM    1  N   UNL     1      -7.510   4.733 -33.221  1.00  0.00    -0.336 N 
HETATM    2  C   UNL     1      -8.623   3.998 -32.995  1.00  0.00     0.316 C 
HETATM    3  N   UNL     1      -8.615   2.712 -33.425  1.00  0.00    -0.343 N 
HETATM    4  O   UNL     1      -9.583   4.531 -32.446  1.00  0.00    -0.248 OA
HETATM    5  H   UNL     1      -7.654   5.689 -32.912  1.00  0.00     0.164 HD
HETATM    6  H   UNL     1      -7.723   2.241 -33.424  1.00  0.00     0.164 HD
ENDROOT
BRANCH   1   7
HETATM    7  C   UNL     1      -6.255   4.449 -33.919  1.00  0.00     0.113 C 
HETATM    8  C   UNL     1      -5.673   3.073 -33.639  1.00  0.00     0.130 C 
HETATM    9  C   UNL     1      -4.473   3.334 -32.761  1.00  0.00     0.226 C 
HETATM   10  N   UNL     1      -4.228   4.716 -32.725  1.00  0.00    -0.316 N 
HETATM   11  O   UNL     1      -3.849   2.433 -32.221  1.00  0.00    -0.273 OA
HETATM   12  C   UNL     1      -5.128   5.426 -33.609  1.00  0.00     0.157 C 
BRANCH  10  13
HETATM   13  C   UNL     1      -3.115   5.360 -32.106  1.00  0.00     0.037 A 
HETATM   14  C   UNL     1      -3.242   6.091 -30.918  1.00  0.00     0.032 A 
HETATM   15  C   UNL     1      -2.131   6.677 -30.293  1.00  0.00     0.039 A 
HETATM   16  C   UNL     1      -0.865   6.547 -30.851  1.00  0.00     0.068 A 
HETATM   17  C   UNL     1      -0.726   5.869 -32.057  1.00  0.00     0.039 A 
HETATM   18  C   UNL     1      -1.834   5.274 -32.672  1.00  0.00     0.032 A 
BRANCH  16  19
HETATM   19  O   UNL     1       0.288   7.061 -30.326  1.00  0.00    -0.352 OA
BRANCH  19  20
HETATM   20  C   UNL     1       0.500   6.796 -28.938  1.00  0.00     0.171 C 
HETATM   21  C   UNL     1       0.948   8.089 -28.280  1.00  0.00     0.034 C 
ENDBRANCH  19  20
ENDBRANCH  16  19
ENDBRANCH  10  13
ENDBRANCH   1   7
BRANCH   3  22
HETATM   22  C   UNL     1      -9.775   1.852 -33.248  1.00  0.00     0.129 C 
BRANCH  22  23
HETATM   23  C   UNL     1      -9.446   0.421 -32.791  1.00  0.00     0.058 C 
BRANCH  23  24
HETATM   24  C   UNL     1      -7.992   0.043 -32.590  1.00  0.00    -0.057 A 
HETATM   25  C   UNL     1      -7.295   0.230 -31.389  1.00  0.00     0.009 A 
HETATM   26  C   UNL     1      -5.950  -0.130 -31.277  1.00  0.00     0.025 A 
HETATM   27  C   UNL     1      -5.294  -0.706 -32.366  1.00  0.00     0.074 A 
HETATM   28  C   UNL     1      -5.968  -0.913 -33.569  1.00  0.00     0.025 A 
HETATM   29  C   UNL     1      -7.309  -0.538 -33.676  1.00  0.00     0.009 A 
BRANCH  27  30
HETATM   30  S   UNL     1      -3.595  -1.157 -32.212  1.00  0.00     0.239 S 
HETATM   31  O   UNL     1      -3.496  -2.556 -31.864  1.00  0.00    -0.206 OA
HETATM   32  O   UNL     1      -2.852  -0.574 -33.303  1.00  0.00    -0.206 OA
BRANCH  30  33
HETATM   33  N   UNL     1      -3.125  -0.325 -30.828  1.00  0.00    -0.225 NA
HETATM   34  H   UNL     1      -2.765   0.593 -31.087  1.00  0.00     0.136 HD
HETATM   35  H   UNL     1      -3.900  -0.297 -30.165  1.00  0.00     0.136 HD
ENDBRANCH  30  33
ENDBRANCH  27  30
ENDBRANCH  23  24
ENDBRANCH  22  23
ENDBRANCH   3  22
TORSDOF 9
ENDMDL
MODEL 9
REMARK VINA RESULT:      -8.0      2.492      3.450
REMARK  9 active torsions:
REMARK  status: ('A' for Active; 'I' for Inactive)
REMARK    1  A    between atoms: C_2  and  O_3 
REMARK    2  A    between atoms: O_3  and  C_4 
REMARK    3  A    between atoms: C_7  and  N_8 
REMARK    4  A    between atoms: C_12  and  N_13 
REMARK       I    between atoms: N_13  and  C_14 
REMARK       I    between atoms: C_14  and  N_15 
REMARK    5  A    between atoms: N_15  and  C_16 
REMARK    6  A    between atoms: C_16  and  C_17 
REMARK    7  A    between atoms: C_17  and  C_18 
REMARK    8  A    between atoms: C_21  and  S_22 
REMARK    9  A    between atoms: S_22  and  N_23 
ROOT
HETATM    1  N   UNL     1      -2.906   3.496 -33.186  1.00  0.00    -0.336 N 
HETATM    2  C   UNL     1      -2.477   4.690 -33.657  1.00  0.00     0.316 C 
HETATM    3  N   UNL     1      -2.680   5.775 -32.870  1.00  0.00    -0.343 N 
HETATM    4  O   UNL     1      -1.959   4.737 -34.768  1.00  0.00    -0.248 OA
HETATM    5  H   UNL     1      -2.756   2.772 -33.882  1.00  0.00     0.164 HD
HETATM    6  H   UNL     1      -2.664   5.621 -31.874  1.00  0.00     0.164 HD
ENDROOT
BRANCH   1   7
HETATM    7  C   UNL     1      -3.635   3.107 -31.978  1.00  0.00     0.113 C 
HETATM    8  C   UNL     1      -3.317   1.711 -31.468  1.00  0.00     0.130 C 
HETATM    9  C   UNL     1      -4.543   0.893 -31.795  1.00  0.00     0.226 C 
HETATM   10  N   UNL     1      -5.563   1.756 -32.224  1.00  0.00    -0.316 N 
HETATM   11  O   UNL     1      -4.575  -0.321 -31.657  1.00  0.00    -0.273 OA
HETATM   12  C   UNL     1      -5.151   3.139 -32.121  1.00  0.00     0.157 C 
BRANCH  10  13
HETATM   13  C   UNL     1      -6.913   1.390 -32.509  1.00  0.00     0.037 A 
HETATM   14  C   UNL     1      -7.870   1.226 -31.500  1.00  0.00     0.032 A 
HETATM   15  C   UNL     1      -9.206   0.916 -31.797  1.00  0.00     0.039 A 
HETATM   16  C   UNL     1      -9.611   0.758 -33.118  1.00  0.00     0.068 A 
HETATM   17  C   UNL     1      -8.665   0.867 -34.131  1.00  0.00     0.039 A 
HETATM   18  C   UNL     1      -7.335   1.189 -33.832  1.00  0.00     0.032 A 
BRANCH  16  19
HETATM   19  O   UNL     1     -10.883   0.471 -33.526  1.00  0.00    -0.352 OA
BRANCH  19  20
HETATM   20  C   UNL     1     -11.747   1.600 -33.682  1.00  0.00     0.171 C 
HETATM   21  C   UNL     1     -12.728   1.285 -34.796  1.00  0.00     0.034 C 
ENDBRANCH  19  20
ENDBRANCH  16  19
ENDBRANCH  10  13
ENDBRANCH   1   7
BRANCH   3  22
HETATM   22  C   UNL     1      -2.274   7.104 -33.302  1.00  0.00     0.129 C 
BRANCH  22  23
HETATM   23  C   UNL     1      -1.176   7.748 -32.441  1.00  0.00     0.058 C 
BRANCH  23  24
HETATM   24  C   UNL     1      -1.180   7.485 -30.947  1.00  0.00    -0.057 A 
HETATM   25  C   UNL     1      -0.225   6.699 -30.290  1.00  0.00     0.009 A 
HETATM   26  C   UNL     1      -0.297   6.486 -28.912  1.00  0.00     0.025 A 
HETATM   27  C   UNL     1      -1.319   7.083 -28.172  1.00  0.00     0.074 A 
HETATM   28  C   UNL     1      -2.276   7.879 -28.800  1.00  0.00     0.025 A 
HETATM   29  C   UNL     1      -2.203   8.075 -30.181  1.00  0.00     0.009 A 
BRANCH  27  30
HETATM   30  S   UNL     1      -1.399   6.808 -26.430  1.00  0.00     0.239 S 
HETATM   31  O   UNL     1      -0.552   5.691 -26.079  1.00  0.00    -0.206 OA
HETATM   32  O   UNL     1      -1.331   8.078 -25.749  1.00  0.00    -0.206 OA
BRANCH  30  33
HETATM   33  N   UNL     1      -2.971   6.248 -26.225  1.00  0.00    -0.225 NA
HETATM   34  H   UNL     1      -3.083   5.357 -26.710  1.00  0.00     0.136 HD
HETATM   35  H   UNL     1      -3.196   6.212 -25.231  1.00  0.00     0.136 HD
ENDBRANCH  30  33
ENDBRANCH  27  30
ENDBRANCH  23  24
ENDBRANCH  22  23
ENDBRANCH   3  22
TORSDOF 9
ENDMDL
MODEL 10
REMARK VINA RESULT:      -8.0      2.824      3.498
REMARK  9 active torsions:
REMARK  status: ('A' for Active; 'I' for Inactive)
REMARK    1  A    between atoms: C_2  and  O_3 
REMARK    2  A    between atoms: O_3  and  C_4 
REMARK    3  A    between atoms: C_7  and  N_8 
REMARK    4  A    between atoms: C_12  and  N_13 
REMARK       I    between atoms: N_13  and  C_14 
REMARK       I    between atoms: C_14  and  N_15 
REMARK    5  A    between atoms: N_15  and  C_16 
REMARK    6  A    between atoms: C_16  and  C_17 
REMARK    7  A    between atoms: C_17  and  C_18 
REMARK    8  A    between atoms: C_21  and  S_22 
REMARK    9  A    between atoms: S_22  and  N_23 
ROOT
HETATM    1  N   UNL     1      -1.436   4.357 -31.043  1.00  0.00    -0.336 N 
HETATM    2  C   UNL     1      -0.520   5.112 -30.393  1.00  0.00     0.316 C 
HETATM    3  N   UNL     1      -0.742   6.449 -30.340  1.00  0.00    -0.343 N 
HETATM    4  O   UNL     1       0.468   4.563 -29.915  1.00  0.00    -0.248 OA
HETATM    5  H   UNL     1      -1.135   3.388 -31.070  1.00  0.00     0.164 HD
HETATM    6  H   UNL     1      -1.706   6.746 -30.322  1.00  0.00     0.164 HD
ENDROOT
BRANCH   1   7
HETATM    7  C   UNL     1      -2.647   4.692 -31.795  1.00  0.00     0.113 C 
HETATM    8  C   UNL     1      -3.815   5.156 -30.940  1.00  0.00     0.130 C 
HETATM    9  C   UNL     1      -4.791   4.005 -30.965  1.00  0.00     0.226 C 
HETATM   10  N   UNL     1      -4.366   3.069 -31.920  1.00  0.00    -0.316 N 
HETATM   11  O   UNL     1      -5.787   3.976 -30.256  1.00  0.00    -0.273 OA
HETATM   12  C   UNL     1      -3.201   3.547 -32.634  1.00  0.00     0.157 C 
BRANCH  10  13
HETATM   13  C   UNL     1      -5.077   1.902 -32.334  1.00  0.00     0.037 A 
HETATM   14  C   UNL     1      -5.966   1.915 -33.416  1.00  0.00     0.032 A 
HETATM   15  C   UNL     1      -6.620   0.750 -33.844  1.00  0.00     0.039 A 
HETATM   16  C   UNL     1      -6.400  -0.457 -33.190  1.00  0.00     0.068 A 
HETATM   17  C   UNL     1      -5.560  -0.480 -32.082  1.00  0.00     0.039 A 
HETATM   18  C   UNL     1      -4.899   0.682 -31.664  1.00  0.00     0.032 A 
BRANCH  16  19
HETATM   19  O   UNL     1      -6.968  -1.653 -33.525  1.00  0.00    -0.352 OA
BRANCH  19  20
HETATM   20  C   UNL     1      -6.716  -2.099 -34.860  1.00  0.00     0.171 C 
HETATM   21  C   UNL     1      -5.495  -3.001 -34.827  1.00  0.00     0.034 C 
ENDBRANCH  19  20
ENDBRANCH  16  19
ENDBRANCH  10  13
ENDBRANCH   1   7
BRANCH   3  22
HETATM   22  C   UNL     1       0.199   7.342 -29.684  1.00  0.00     0.129 C 
BRANCH  22  23
HETATM   23  C   UNL     1      -0.442   8.339 -28.704  1.00  0.00     0.058 C 
BRANCH  23  24
HETATM   24  C   UNL     1       0.356   8.777 -27.492  1.00  0.00    -0.057 A 
HETATM   25  C   UNL     1       0.132   9.974 -26.800  1.00  0.00     0.009 A 
HETATM   26  C   UNL     1       0.915  10.323 -25.697  1.00  0.00     0.025 A 
HETATM   27  C   UNL     1       1.921   9.458 -25.261  1.00  0.00     0.074 A 
HETATM   28  C   UNL     1       2.158   8.256 -25.926  1.00  0.00     0.025 A 
HETATM   29  C   UNL     1       1.378   7.922 -27.035  1.00  0.00     0.009 A 
BRANCH  27  30
HETATM   30  S   UNL     1       2.904   9.909 -23.867  1.00  0.00     0.239 S 
HETATM   31  O   UNL     1       2.148   9.694 -22.653  1.00  0.00    -0.206 OA
HETATM   32  O   UNL     1       4.241   9.400 -24.048  1.00  0.00    -0.206 OA
BRANCH  30  33
HETATM   33  N   UNL     1       3.012  11.580 -24.026  1.00  0.00    -0.225 NA
HETATM   34  H   UNL     1       3.174  11.820 -25.004  1.00  0.00     0.136 HD
HETATM   35  H   UNL     1       2.183  12.017 -23.623  1.00  0.00     0.136 HD
ENDBRANCH  30  33
ENDBRANCH  27  30
ENDBRANCH  23  24
ENDBRANCH  22  23
ENDBRANCH   3  22
TORSDOF 9
ENDMDL
