MODEL 1
REMARK VINA RESULT:      -8.2      0.000      0.000
REMARK  2 active torsions:
REMARK  status: ('A' for Active; 'I' for Inactive)
REMARK    1  A    between atoms: C_7  and  C_8 
REMARK    2  A    between atoms: C_8  and  O_9 
ROOT
HETATM    1  C   UNL     1      -6.241   0.757 -31.672  1.00  0.00     0.199 A 
HETATM    2  C   UNL     1      -5.857   1.171 -30.213  1.00  0.00     0.266 A 
HETATM    3  O   UNL     1      -5.911   0.479 -29.207  1.00  0.00    -0.269 OA
HETATM    4  N   UNL     1      -5.497   2.518 -30.241  1.00  0.00    -0.323 N 
HETATM    5  C   UNL     1      -5.603   3.037 -31.524  1.00  0.00     0.045 A 
HETATM    6  C   UNL     1      -6.028   2.050 -32.420  1.00  0.00     0.017 A 
HETATM    7  C   UNL     1      -5.357   4.338 -31.912  1.00  0.00     0.030 A 
HETATM    8  C   UNL     1      -5.552   4.656 -33.258  1.00  0.00     0.002 A 
HETATM    9  C   UNL     1      -5.985   3.679 -34.171  1.00  0.00     0.001 A 
HETATM   10  C   UNL     1      -6.231   2.367 -33.755  1.00  0.00     0.013 A 
HETATM   11  H   UNL     1      -5.240   3.034 -29.416  1.00  0.00     0.169 HD
ENDROOT
BRANCH   1  12
HETATM   12  C   UNL     1      -5.334  -0.286 -32.292  1.00  0.00     0.025 A 
HETATM   13  C   UNL     1      -3.968  -0.441 -32.044  1.00  0.00     0.016 A 
HETATM   14  C   UNL     1      -3.040   0.304 -31.149  1.00  0.00     0.069 C 
HETATM   15  N   UNL     1      -3.509  -1.482 -32.807  1.00  0.00    -0.359 N 
HETATM   16  H   UNL     1      -2.554  -1.811 -32.829  1.00  0.00     0.166 HD
HETATM   17  C   UNL     1      -4.525  -2.028 -33.547  1.00  0.00     0.043 A 
HETATM   18  C   UNL     1      -5.686  -1.314 -33.247  1.00  0.00     0.003 A 
HETATM   19  C   UNL     1      -4.490  -3.098 -34.452  1.00  0.00     0.030 A 
HETATM   20  C   UNL     1      -6.878  -1.712 -33.896  1.00  0.00     0.014 A 
HETATM   21  C   UNL     1      -6.862  -2.777 -34.806  1.00  0.00     0.001 A 
HETATM   22  C   UNL     1      -5.683  -3.458 -35.080  1.00  0.00     0.002 A 
ENDBRANCH   1  12
BRANCH   1  23
HETATM   23  O   UNL     1      -7.618   0.392 -31.706  1.00  0.00    -0.371 OA
HETATM   24  H   UNL     1      -7.816   0.131 -30.788  1.00  0.00     0.212 HD
ENDBRANCH   1  23
TORSDOF 2
ENDMDL
MODEL 2
REMARK VINA RESULT:      -7.9     14.976     16.395
REMARK  2 active torsions:
REMARK  status: ('A' for Active; 'I' for Inactive)
REMARK    1  A    between atoms: C_7  and  C_8 
REMARK    2  A    between atoms: C_8  and  O_9 
ROOT
HETATM    1  C   UNL     1      -4.988 -12.672 -39.917  1.00  0.00     0.199 A 
HETATM    2  C   UNL     1      -3.731 -12.650 -38.986  1.00  0.00     0.266 A 
HETATM    3  O   UNL     1      -3.593 -12.033 -37.940  1.00  0.00    -0.269 OA
HETATM    4  N   UNL     1      -2.742 -13.419 -39.599  1.00  0.00    -0.323 N 
HETATM    5  C   UNL     1      -3.188 -13.933 -40.810  1.00  0.00     0.045 A 
HETATM    6  C   UNL     1      -4.507 -13.539 -41.055  1.00  0.00     0.017 A 
HETATM    7  C   UNL     1      -2.466 -14.709 -41.693  1.00  0.00     0.030 A 
HETATM    8  C   UNL     1      -3.102 -15.099 -42.873  1.00  0.00     0.002 A 
HETATM    9  C   UNL     1      -4.425 -14.708 -43.140  1.00  0.00     0.001 A 
HETATM   10  C   UNL     1      -5.137 -13.919 -42.231  1.00  0.00     0.013 A 
HETATM   11  H   UNL     1      -1.819 -13.534 -39.214  1.00  0.00     0.169 HD
ENDROOT
BRANCH   1  12
HETATM   12  C   UNL     1      -6.208 -13.339 -39.316  1.00  0.00     0.025 A 
HETATM   13  C   UNL     1      -6.201 -14.410 -38.418  1.00  0.00     0.016 A 
HETATM   14  C   UNL     1      -5.080 -15.171 -37.802  1.00  0.00     0.069 C 
HETATM   15  N   UNL     1      -7.501 -14.731 -38.125  1.00  0.00    -0.359 N 
HETATM   16  H   UNL     1      -7.791 -15.473 -37.503  1.00  0.00     0.166 HD
HETATM   17  C   UNL     1      -8.368 -13.906 -38.791  1.00  0.00     0.043 A 
HETATM   18  C   UNL     1      -7.600 -13.014 -39.541  1.00  0.00     0.003 A 
HETATM   19  C   UNL     1      -9.770 -13.891 -38.776  1.00  0.00     0.030 A 
HETATM   20  C   UNL     1      -8.291 -12.051 -40.311  1.00  0.00     0.014 A 
HETATM   21  C   UNL     1      -9.691 -12.023 -40.312  1.00  0.00     0.001 A 
HETATM   22  C   UNL     1     -10.419 -12.933 -39.556  1.00  0.00     0.002 A 
ENDBRANCH   1  12
BRANCH   1  23
HETATM   23  O   UNL     1      -5.247 -11.350 -40.383  1.00  0.00    -0.371 OA
HETATM   24  H   UNL     1      -4.515 -10.823 -40.015  1.00  0.00     0.212 HD
ENDBRANCH   1  23
TORSDOF 2
ENDMDL
MODEL 3
REMARK VINA RESULT:      -7.8      2.319      3.544
REMARK  2 active torsions:
REMARK  status: ('A' for Active; 'I' for Inactive)
REMARK    1  A    between atoms: C_7  and  C_8 
REMARK    2  A    between atoms: C_8  and  O_9 
ROOT
HETATM    1  C   UNL     1      -5.639   3.497 -32.252  1.00  0.00     0.199 A 
HETATM    2  C   UNL     1      -4.788   2.922 -31.071  1.00  0.00     0.266 A 
HETATM    3  O   UNL     1      -5.199   2.364 -30.064  1.00  0.00    -0.269 OA
HETATM    4  N   UNL     1      -3.452   3.219 -31.335  1.00  0.00    -0.323 N 
HETATM    5  C   UNL     1      -3.321   3.918 -32.527  1.00  0.00     0.045 A 
HETATM    6  C   UNL     1      -4.571   4.108 -33.125  1.00  0.00     0.017 A 
HETATM    7  C   UNL     1      -2.151   4.398 -33.079  1.00  0.00     0.030 A 
HETATM    8  C   UNL     1      -2.249   5.103 -34.281  1.00  0.00     0.002 A 
HETATM    9  C   UNL     1      -3.497   5.310 -34.893  1.00  0.00     0.001 A 
HETATM   10  C   UNL     1      -4.671   4.816 -34.314  1.00  0.00     0.013 A 
HETATM   11  H   UNL     1      -2.703   2.984 -30.704  1.00  0.00     0.169 HD
ENDROOT
BRANCH   1  12
HETATM   12  C   UNL     1      -6.363   2.453 -33.076  1.00  0.00     0.025 A 
HETATM   13  C   UNL     1      -7.595   2.618 -33.716  1.00  0.00     0.016 A 
HETATM   14  C   UNL     1      -8.513   3.788 -33.795  1.00  0.00     0.069 C 
HETATM   15  N   UNL     1      -7.915   1.442 -34.342  1.00  0.00    -0.359 N 
HETATM   16  H   UNL     1      -8.756   1.278 -34.877  1.00  0.00     0.166 HD
HETATM   17  C   UNL     1      -6.934   0.505 -34.147  1.00  0.00     0.043 A 
HETATM   18  C   UNL     1      -5.941   1.100 -33.367  1.00  0.00     0.003 A 
HETATM   19  C   UNL     1      -6.863  -0.817 -34.607  1.00  0.00     0.030 A 
HETATM   20  C   UNL     1      -4.812   0.313 -33.044  1.00  0.00     0.014 A 
HETATM   21  C   UNL     1      -4.725  -1.011 -33.491  1.00  0.00     0.001 A 
HETATM   22  C   UNL     1      -5.739  -1.568 -34.261  1.00  0.00     0.002 A 
ENDBRANCH   1  12
BRANCH   1  23
HETATM   23  O   UNL     1      -6.505   4.512 -31.751  1.00  0.00    -0.371 OA
HETATM   24  H   UNL     1      -6.012   4.895 -31.003  1.00  0.00     0.212 HD
ENDBRANCH   1  23
TORSDOF 2
ENDMDL
MODEL 4
REMARK VINA RESULT:      -7.8      1.765      2.592
REMARK  2 active torsions:
REMARK  status: ('A' for Active; 'I' for Inactive)
REMARK    1  A    between atoms: C_7  and  C_8 
REMARK    2  A    between atoms: C_8  and  O_9 
ROOT
HETATM    1  C   UNL     1      -6.561   1.763 -31.654  1.00  0.00     0.199 A 
HETATM    2  C   UNL     1      -5.449   1.395 -30.617  1.00  0.00     0.266 A 
HETATM    3  O   UNL     1      -5.551   0.650 -29.652  1.00  0.00    -0.269 OA
HETATM    4  N   UNL     1      -4.309   2.127 -30.946  1.00  0.00    -0.323 N 
HETATM    5  C   UNL     1      -4.535   2.930 -32.056  1.00  0.00     0.045 A 
HETATM    6  C   UNL     1      -5.839   2.758 -32.530  1.00  0.00     0.017 A 
HETATM    7  C   UNL     1      -3.641   3.807 -32.636  1.00  0.00     0.030 A 
HETATM    8  C   UNL     1      -4.085   4.542 -33.738  1.00  0.00     0.002 A 
HETATM    9  C   UNL     1      -5.395   4.387 -34.225  1.00  0.00     0.001 A 
HETATM   10  C   UNL     1      -6.284   3.494 -33.618  1.00  0.00     0.013 A 
HETATM   11  H   UNL     1      -3.460   2.094 -30.406  1.00  0.00     0.169 HD
ENDROOT
BRANCH   1  12
HETATM   12  C   UNL     1      -7.008   0.616 -32.535  1.00  0.00     0.025 A 
HETATM   13  C   UNL     1      -8.321   0.344 -32.930  1.00  0.00     0.016 A 
HETATM   14  C   UNL     1      -9.600   1.050 -32.643  1.00  0.00     0.069 C 
HETATM   15  N   UNL     1      -8.311  -0.783 -33.708  1.00  0.00    -0.359 N 
HETATM   16  H   UNL     1      -9.126  -1.210 -34.125  1.00  0.00     0.166 HD
HETATM   17  C   UNL     1      -7.035  -1.265 -33.850  1.00  0.00     0.043 A 
HETATM   18  C   UNL     1      -6.189  -0.413 -33.139  1.00  0.00     0.003 A 
HETATM   19  C   UNL     1      -6.583  -2.388 -34.556  1.00  0.00     0.030 A 
HETATM   20  C   UNL     1      -4.807  -0.713 -33.151  1.00  0.00     0.014 A 
HETATM   21  C   UNL     1      -4.336  -1.833 -33.848  1.00  0.00     0.001 A 
HETATM   22  C   UNL     1      -5.214  -2.660 -34.539  1.00  0.00     0.002 A 
ENDBRANCH   1  12
BRANCH   1  23
HETATM   23  O   UNL     1      -7.639   2.399 -30.975  1.00  0.00    -0.371 OA
HETATM   24  H   UNL     1      -7.806   1.825 -30.205  1.00  0.00     0.212 HD
ENDBRANCH   1  23
TORSDOF 2
ENDMDL
MODEL 5
REMARK VINA RESULT:      -7.7      2.108      2.914
REMARK  2 active torsions:
REMARK  status: ('A' for Active; 'I' for Inactive)
REMARK    1  A    between atoms: C_7  and  C_8 
REMARK    2  A    between atoms: C_8  and  O_9 
ROOT
HETATM    1  C   UNL     1      -6.107   1.358 -32.288  1.00  0.00     0.199 A 
HETATM    2  C   UNL     1      -5.816   2.560 -33.246  1.00  0.00     0.266 A 
HETATM    3  O   UNL     1      -4.786   3.215 -33.323  1.00  0.00    -0.269 OA
HETATM    4  N   UNL     1      -6.980   2.810 -33.971  1.00  0.00    -0.323 N 
HETATM    5  C   UNL     1      -7.993   1.934 -33.607  1.00  0.00     0.045 A 
HETATM    6  C   UNL     1      -7.544   1.045 -32.625  1.00  0.00     0.017 A 
HETATM    7  C   UNL     1      -9.283   1.914 -34.096  1.00  0.00     0.030 A 
HETATM    8  C   UNL     1     -10.156   0.960 -33.569  1.00  0.00     0.002 A 
HETATM    9  C   UNL     1      -9.725   0.062 -32.577  1.00  0.00     0.001 A 
HETATM   10  C   UNL     1      -8.413   0.102 -32.094  1.00  0.00     0.013 A 
HETATM   11  H   UNL     1      -7.062   3.562 -34.636  1.00  0.00     0.169 HD
ENDROOT
BRANCH   1  12
HETATM   12  C   UNL     1      -5.289   0.115 -32.567  1.00  0.00     0.025 A 
HETATM   13  C   UNL     1      -4.054  -0.203 -31.996  1.00  0.00     0.016 A 
HETATM   14  C   UNL     1      -3.217   0.518 -30.999  1.00  0.00     0.069 C 
HETATM   15  N   UNL     1      -3.636  -1.400 -32.517  1.00  0.00    -0.359 N 
HETATM   16  H   UNL     1      -2.771  -1.866 -32.283  1.00  0.00     0.166 HD
HETATM   17  C   UNL     1      -4.555  -1.891 -33.407  1.00  0.00     0.043 A 
HETATM   18  C   UNL     1      -5.609  -0.978 -33.461  1.00  0.00     0.003 A 
HETATM   19  C   UNL     1      -4.521  -3.074 -34.159  1.00  0.00     0.030 A 
HETATM   20  C   UNL     1      -6.690  -1.285 -34.318  1.00  0.00     0.014 A 
HETATM   21  C   UNL     1      -6.673  -2.460 -35.081  1.00  0.00     0.001 A 
HETATM   22  C   UNL     1      -5.601  -3.341 -35.001  1.00  0.00     0.002 A 
ENDBRANCH   1  12
BRANCH   1  23
HETATM   23  O   UNL     1      -6.005   1.803 -30.938  1.00  0.00    -0.371 OA
HETATM   24  H   UNL     1      -5.839   0.987 -30.432  1.00  0.00     0.212 HD
ENDBRANCH   1  23
TORSDOF 2
ENDMDL
MODEL 6
REMARK VINA RESULT:      -7.6      4.167      6.100
REMARK  2 active torsions:
REMARK  status: ('A' for Active; 'I' for Inactive)
REMARK    1  A    between atoms: C_7  and  C_8 
REMARK    2  A    between atoms: C_8  and  O_9 
ROOT
HETATM    1  C   UNL     1      -8.354   2.461 -32.986  1.00  0.00     0.199 A 
HETATM    2  C   UNL     1      -8.464   2.031 -31.485  1.00  0.00     0.266 A 
HETATM    3  O   UNL     1      -8.817   2.721 -30.540  1.00  0.00    -0.269 OA
HETATM    4  N   UNL     1      -8.018   0.713 -31.393  1.00  0.00    -0.323 N 
HETATM    5  C   UNL     1      -7.624   0.231 -32.634  1.00  0.00     0.045 A 
HETATM    6  C   UNL     1      -7.805   1.207 -33.620  1.00  0.00     0.017 A 
HETATM    7  C   UNL     1      -7.103  -1.017 -32.908  1.00  0.00     0.030 A 
HETATM    8  C   UNL     1      -6.746  -1.288 -34.231  1.00  0.00     0.002 A 
HETATM    9  C   UNL     1      -6.914  -0.318 -35.234  1.00  0.00     0.001 A 
HETATM   10  C   UNL     1      -7.442   0.941 -34.933  1.00  0.00     0.013 A 
HETATM   11  H   UNL     1      -7.958   0.214 -30.521  1.00  0.00     0.169 HD
ENDROOT
BRANCH   1  12
HETATM   12  C   UNL     1      -9.677   2.770 -33.653  1.00  0.00     0.025 A 
HETATM   13  C   UNL     1     -10.024   3.973 -34.277  1.00  0.00     0.016 A 
HETATM   14  C   UNL     1      -9.256   5.232 -34.479  1.00  0.00     0.069 C 
HETATM   15  N   UNL     1     -11.308   3.861 -34.741  1.00  0.00    -0.359 N 
HETATM   16  H   UNL     1     -11.815   4.585 -35.230  1.00  0.00     0.166 HD
HETATM   17  C   UNL     1     -11.823   2.623 -34.456  1.00  0.00     0.043 A 
HETATM   18  C   UNL     1     -10.831   1.907 -33.783  1.00  0.00     0.003 A 
HETATM   19  C   UNL     1     -13.089   2.098 -34.748  1.00  0.00     0.030 A 
HETATM   20  C   UNL     1     -11.140   0.584 -33.392  1.00  0.00     0.014 A 
HETATM   21  C   UNL     1     -12.401   0.043 -33.672  1.00  0.00     0.001 A 
HETATM   22  C   UNL     1     -13.362   0.792 -34.339  1.00  0.00     0.002 A 
ENDBRANCH   1  12
BRANCH   1  23
HETATM   23  O   UNL     1      -7.410   3.522 -33.098  1.00  0.00    -0.371 OA
HETATM   24  H   UNL     1      -7.886   4.211 -33.595  1.00  0.00     0.212 HD
ENDBRANCH   1  23
TORSDOF 2
ENDMDL
MODEL 7
REMARK VINA RESULT:      -7.5      2.437      3.062
REMARK  2 active torsions:
REMARK  status: ('A' for Active; 'I' for Inactive)
REMARK    1  A    between atoms: C_7  and  C_8 
REMARK    2  A    between atoms: C_8  and  O_9 
ROOT
HETATM    1  C   UNL     1      -8.398   0.859 -33.587  1.00  0.00     0.199 A 
HETATM    2  C   UNL     1      -9.705   0.610 -32.763  1.00  0.00     0.266 A 
HETATM    3  O   UNL     1     -10.296  -0.450 -32.613  1.00  0.00    -0.269 OA
HETATM    4  N   UNL     1     -10.131   1.842 -32.270  1.00  0.00    -0.323 N 
HETATM    5  C   UNL     1      -9.279   2.862 -32.671  1.00  0.00     0.045 A 
HETATM    6  C   UNL     1      -8.230   2.352 -33.443  1.00  0.00     0.017 A 
HETATM    7  C   UNL     1      -9.413   4.207 -32.393  1.00  0.00     0.030 A 
HETATM    8  C   UNL     1      -8.450   5.071 -32.920  1.00  0.00     0.002 A 
HETATM    9  C   UNL     1      -7.393   4.578 -33.703  1.00  0.00     0.001 A 
HETATM   10  C   UNL     1      -7.279   3.210 -33.974  1.00  0.00     0.013 A 
HETATM   11  H   UNL     1     -10.975   1.956 -31.732  1.00  0.00     0.169 HD
ENDROOT
BRANCH   1  12
HETATM   12  C   UNL     1      -7.158   0.201 -33.020  1.00  0.00     0.025 A 
HETATM   13  C   UNL     1      -6.544   0.511 -31.803  1.00  0.00     0.016 A 
HETATM   14  C   UNL     1      -6.894   1.504 -30.751  1.00  0.00     0.069 C 
HETATM   15  N   UNL     1      -5.445  -0.293 -31.660  1.00  0.00    -0.359 N 
HETATM   16  H   UNL     1      -4.811  -0.278 -30.873  1.00  0.00     0.166 HD
HETATM   17  C   UNL     1      -5.312  -1.132 -32.736  1.00  0.00     0.043 A 
HETATM   18  C   UNL     1      -6.369  -0.861 -33.606  1.00  0.00     0.003 A 
HETATM   19  C   UNL     1      -4.334  -2.104 -32.990  1.00  0.00     0.030 A 
HETATM   20  C   UNL     1      -6.442  -1.623 -34.795  1.00  0.00     0.014 A 
HETATM   21  C   UNL     1      -5.472  -2.596 -35.068  1.00  0.00     0.001 A 
HETATM   22  C   UNL     1      -4.432  -2.831 -34.177  1.00  0.00     0.002 A 
ENDBRANCH   1  12
BRANCH   1  23
HETATM   23  O   UNL     1      -8.636   0.522 -34.951  1.00  0.00    -0.371 OA
HETATM   24  H   UNL     1      -9.331  -0.160 -34.908  1.00  0.00     0.212 HD
ENDBRANCH   1  23
TORSDOF 2
ENDMDL
MODEL 8
REMARK VINA RESULT:      -7.5      2.546      5.879
REMARK  2 active torsions:
REMARK  status: ('A' for Active; 'I' for Inactive)
REMARK    1  A    between atoms: C_7  and  C_8 
REMARK    2  A    between atoms: C_8  and  O_9 
ROOT
HETATM    1  C   UNL     1      -4.941   2.656 -31.635  1.00  0.00     0.199 A 
HETATM    2  C   UNL     1      -6.447   2.621 -31.212  1.00  0.00     0.266 A 
HETATM    3  O   UNL     1      -7.084   3.507 -30.662  1.00  0.00    -0.269 OA
HETATM    4  N   UNL     1      -6.938   1.352 -31.516  1.00  0.00    -0.323 N 
HETATM    5  C   UNL     1      -5.948   0.553 -32.073  1.00  0.00     0.045 A 
HETATM    6  C   UNL     1      -4.747   1.262 -32.181  1.00  0.00     0.017 A 
HETATM    7  C   UNL     1      -6.072  -0.764 -32.463  1.00  0.00     0.030 A 
HETATM    8  C   UNL     1      -4.936  -1.392 -32.979  1.00  0.00     0.002 A 
HETATM    9  C   UNL     1      -3.719  -0.698 -33.089  1.00  0.00     0.001 A 
HETATM   10  C   UNL     1      -3.616   0.637 -32.684  1.00  0.00     0.013 A 
HETATM   11  H   UNL     1      -7.880   1.063 -31.308  1.00  0.00     0.169 HD
ENDROOT
BRANCH   1  12
HETATM   12  C   UNL     1      -4.618   3.632 -32.746  1.00  0.00     0.025 A 
HETATM   13  C   UNL     1      -5.478   4.018 -33.778  1.00  0.00     0.016 A 
HETATM   14  C   UNL     1      -6.883   3.632 -34.084  1.00  0.00     0.069 C 
HETATM   15  N   UNL     1      -4.810   4.902 -34.585  1.00  0.00    -0.359 N 
HETATM   16  H   UNL     1      -5.193   5.338 -35.412  1.00  0.00     0.166 HD
HETATM   17  C   UNL     1      -3.540   5.122 -34.119  1.00  0.00     0.043 A 
HETATM   18  C   UNL     1      -3.383   4.353 -32.965  1.00  0.00     0.003 A 
HETATM   19  C   UNL     1      -2.532   5.944 -34.641  1.00  0.00     0.030 A 
HETATM   20  C   UNL     1      -2.137   4.429 -32.300  1.00  0.00     0.014 A 
HETATM   21  C   UNL     1      -1.116   5.243 -32.808  1.00  0.00     0.001 A 
HETATM   22  C   UNL     1      -1.313   5.988 -33.964  1.00  0.00     0.002 A 
ENDBRANCH   1  12
BRANCH   1  23
HETATM   23  O   UNL     1      -4.136   2.844 -30.474  1.00  0.00    -0.371 OA
HETATM   24  H   UNL     1      -4.021   3.810 -30.419  1.00  0.00     0.212 HD
ENDBRANCH   1  23
TORSDOF 2
ENDMDL
MODEL 9
REMARK VINA RESULT:      -7.3      2.879      3.657
REMARK  2 active torsions:
REMARK  status: ('A' for Active; 'I' for Inactive)
REMARK    1  A    between atoms: C_7  and  C_8 
REMARK    2  A    between atoms: C_8  and  O_9 
ROOT
HETATM    1  C   UNL     1      -6.057   3.600 -32.544  1.00  0.00     0.199 A 
HETATM    2  C   UNL     1      -6.280   4.445 -33.841  1.00  0.00     0.266 A 
HETATM    3  O   UNL     1      -5.433   4.810 -34.644  1.00  0.00    -0.269 OA
HETATM    4  N   UNL     1      -7.633   4.778 -33.897  1.00  0.00    -0.323 N 
HETATM    5  C   UNL     1      -8.318   4.268 -32.803  1.00  0.00     0.045 A 
HETATM    6  C   UNL     1      -7.451   3.555 -31.968  1.00  0.00     0.017 A 
HETATM    7  C   UNL     1      -9.659   4.431 -32.519  1.00  0.00     0.030 A 
HETATM    8  C   UNL     1     -10.142   3.852 -31.343  1.00  0.00     0.002 A 
HETATM    9  C   UNL     1      -9.284   3.137 -30.489  1.00  0.00     0.001 A 
HETATM   10  C   UNL     1      -7.928   2.988 -30.796  1.00  0.00     0.013 A 
HETATM   11  H   UNL     1      -8.027   5.352 -34.624  1.00  0.00     0.169 HD
ENDROOT
BRANCH   1  12
HETATM   12  C   UNL     1      -5.615   2.173 -32.787  1.00  0.00     0.025 A 
HETATM   13  C   UNL     1      -4.484   1.557 -32.241  1.00  0.00     0.016 A 
HETATM   14  C   UNL     1      -3.441   2.065 -31.309  1.00  0.00     0.069 C 
HETATM   15  N   UNL     1      -4.426   0.273 -32.715  1.00  0.00    -0.359 N 
HETATM   16  H   UNL     1      -3.706  -0.399 -32.486  1.00  0.00     0.166 HD
HETATM   17  C   UNL     1      -5.482   0.012 -33.548  1.00  0.00     0.043 A 
HETATM   18  C   UNL     1      -6.255   1.173 -33.613  1.00  0.00     0.003 A 
HETATM   19  C   UNL     1      -5.799  -1.165 -34.241  1.00  0.00     0.030 A 
HETATM   20  C   UNL     1      -7.416   1.134 -34.419  1.00  0.00     0.014 A 
HETATM   21  C   UNL     1      -7.747  -0.032 -35.121  1.00  0.00     0.001 A 
HETATM   22  C   UNL     1      -6.947  -1.164 -35.033  1.00  0.00     0.002 A 
ENDBRANCH   1  12
BRANCH   1  23
HETATM   23  O   UNL     1      -5.188   4.313 -31.667  1.00  0.00    -0.371 OA
HETATM   24  H   UNL     1      -4.645   4.859 -32.265  1.00  0.00     0.212 HD
ENDBRANCH   1  23
TORSDOF 2
ENDMDL
MODEL 10
REMARK VINA RESULT:      -7.3      1.911      5.258
REMARK  2 active torsions:
REMARK  status: ('A' for Active; 'I' for Inactive)
REMARK    1  A    between atoms: C_7  and  C_8 
REMARK    2  A    between atoms: C_8  and  O_9 
ROOT
HETATM    1  C   UNL     1      -7.486   1.434 -32.210  1.00  0.00     0.199 A 
HETATM    2  C   UNL     1      -8.452   2.213 -33.163  1.00  0.00     0.266 A 
HETATM    3  O   UNL     1      -9.114   3.207 -32.898  1.00  0.00    -0.269 OA
HETATM    4  N   UNL     1      -8.484   1.529 -34.378  1.00  0.00    -0.323 N 
HETATM    5  C   UNL     1      -7.673   0.404 -34.339  1.00  0.00     0.045 A 
HETATM    6  C   UNL     1      -7.047   0.292 -33.093  1.00  0.00     0.017 A 
HETATM    7  C   UNL     1      -7.491  -0.518 -35.349  1.00  0.00     0.030 A 
HETATM    8  C   UNL     1      -6.645  -1.599 -35.088  1.00  0.00     0.002 A 
HETATM    9  C   UNL     1      -6.012  -1.732 -33.840  1.00  0.00     0.001 A 
HETATM   10  C   UNL     1      -6.214  -0.786 -32.830  1.00  0.00     0.013 A 
HETATM   11  H   UNL     1      -9.064   1.812 -35.152  1.00  0.00     0.169 HD
ENDROOT
BRANCH   1  12
HETATM   12  C   UNL     1      -6.246   2.201 -31.802  1.00  0.00     0.025 A 
HETATM   13  C   UNL     1      -5.534   2.041 -30.610  1.00  0.00     0.016 A 
HETATM   14  C   UNL     1      -5.744   1.125 -29.455  1.00  0.00     0.069 C 
HETATM   15  N   UNL     1      -4.489   2.927 -30.612  1.00  0.00    -0.359 N 
HETATM   16  H   UNL     1      -3.813   3.031 -29.869  1.00  0.00     0.166 HD
HETATM   17  C   UNL     1      -4.478   3.664 -31.767  1.00  0.00     0.043 A 
HETATM   18  C   UNL     1      -5.556   3.235 -32.543  1.00  0.00     0.003 A 
HETATM   19  C   UNL     1      -3.592   4.672 -32.171  1.00  0.00     0.030 A 
HETATM   20  C   UNL     1      -5.740   3.857 -33.799  1.00  0.00     0.014 A 
HETATM   21  C   UNL     1      -4.866   4.869 -34.218  1.00  0.00     0.001 A 
HETATM   22  C   UNL     1      -3.808   5.271 -33.413  1.00  0.00     0.002 A 
ENDBRANCH   1  12
BRANCH   1  23
HETATM   23  O   UNL     1      -8.228   0.939 -31.099  1.00  0.00    -0.371 OA
HETATM   24  H   UNL     1      -7.779   1.322 -30.324  1.00  0.00     0.212 HD
ENDBRANCH   1  23
TORSDOF 2
ENDMDL
