MODEL 1
REMARK VINA RESULT:      -8.4      0.000      0.000
REMARK  7 active torsions:
REMARK  status: ('A' for Active; 'I' for Inactive)
REMARK    1  A    between atoms: C_2  and  N_3 
REMARK       I    between atoms: N_3  and  C_4 
REMARK    2  A    between atoms: C_4  and  C_5 
REMARK    3  A    between atoms: C_9  and  N_10 
REMARK       I    between atoms: N_10  and  C_11 
REMARK    4  A    between atoms: C_11  and  C_12 
REMARK    5  A    between atoms: C_12  and  S_13 
REMARK    6  A    between atoms: S_13  and  C_14 
REMARK    7  A    between atoms: C_14  and  C_15 
ROOT
HETATM    1  N   UNL     1      -6.964   1.957 -32.304  1.00  0.00    -0.326 N 
HETATM    2  C   UNL     1      -6.532   2.221 -31.011  1.00  0.00     0.231 C 
HETATM    3  O   UNL     1      -7.236   2.411 -30.025  1.00  0.00    -0.272 OA
HETATM    4  H   UNL     1      -6.229   1.809 -32.983  1.00  0.00     0.169 HD
ENDROOT
BRANCH   2   5
HETATM    5  C   UNL     1      -5.009   2.253 -30.897  1.00  0.00     0.177 C 
BRANCH   5   6
HETATM    6  S   UNL     1      -4.299   2.147 -32.579  1.00  0.00    -0.147 SA
BRANCH   6   7
HETATM    7  C   UNL     1      -3.417   0.540 -32.486  1.00  0.00     0.113 C 
HETATM    8  C   UNL     1      -3.028   0.212 -31.046  1.00  0.00     0.029 C 
BRANCH   7   9
HETATM    9  C   UNL     1      -4.165  -0.580 -33.146  1.00  0.00     0.118 A 
HETATM   10  N   UNL     1      -5.428  -0.570 -33.526  1.00  0.00    -0.232 NA
HETATM   11  C   UNL     1      -5.694  -1.835 -33.988  1.00  0.00     0.085 A 
HETATM   12  C   UNL     1      -4.563  -2.638 -33.912  1.00  0.00     0.062 A 
HETATM   13  C   UNL     1      -6.887  -2.377 -34.487  1.00  0.00     0.034 A 
HETATM   14  N   UNL     1      -3.605  -1.819 -33.374  1.00  0.00    -0.342 N 
HETATM   15  C   UNL     1      -4.541  -3.973 -34.320  1.00  0.00     0.032 A 
HETATM   16  H   UNL     1      -2.646  -2.070 -33.178  1.00  0.00     0.167 HD
HETATM   17  C   UNL     1      -5.741  -4.497 -34.816  1.00  0.00     0.002 A 
HETATM   18  C   UNL     1      -6.898  -3.717 -34.895  1.00  0.00     0.002 A 
ENDBRANCH   7   9
ENDBRANCH   6   7
ENDBRANCH   5   6
ENDBRANCH   2   5
BRANCH   1  19
HETATM   19  C   UNL     1      -8.288   1.767 -32.763  1.00  0.00     0.040 A 
HETATM   20  C   UNL     1      -8.912   2.808 -33.488  1.00  0.00    -0.034 A 
HETATM   21  C   UNL     1     -10.212   2.617 -34.002  1.00  0.00     0.026 A 
HETATM   22  C   UNL     1      -8.239   4.131 -33.738  1.00  0.00     0.050 C 
HETATM   23  C   UNL     1     -10.890   1.409 -33.808  1.00  0.00     0.032 A 
HETATM   24  C   UNL     1     -10.285   0.402 -33.057  1.00  0.00     0.019 A 
HETATM   25  C   UNL     1      -8.995   0.580 -32.543  1.00  0.00     0.031 A 
BRANCH  23  26
HETATM   26  C   UNL     1     -12.252   1.162 -34.366  1.00  0.00     0.251 C 
HETATM   27  N   UNL     1     -13.205   0.713 -33.473  1.00  0.00    -0.357 N 
HETATM   28  H   UNL     1     -13.005   0.736 -32.484  1.00  0.00     0.162 HD
HETATM   29  O   UNL     1     -12.484   1.391 -35.546  1.00  0.00    -0.268 OA
BRANCH  27  30
HETATM   30  C   UNL     1     -14.590   0.547 -33.867  1.00  0.00     0.118 C 
HETATM   31  C   UNL     1     -15.480   1.591 -33.217  1.00  0.00     0.026 C 
ENDBRANCH  27  30
ENDBRANCH  23  26
ENDBRANCH   1  19
TORSDOF 7
ENDMDL
MODEL 2
REMARK VINA RESULT:      -8.0      3.701      7.761
REMARK  7 active torsions:
REMARK  status: ('A' for Active; 'I' for Inactive)
REMARK    1  A    between atoms: C_2  and  N_3 
REMARK       I    between atoms: N_3  and  C_4 
REMARK    2  A    between atoms: C_4  and  C_5 
REMARK    3  A    between atoms: C_9  and  N_10 
REMARK       I    between atoms: N_10  and  C_11 
REMARK    4  A    between atoms: C_11  and  C_12 
REMARK    5  A    between atoms: C_12  and  S_13 
REMARK    6  A    between atoms: S_13  and  C_14 
REMARK    7  A    between atoms: C_14  and  C_15 
ROOT
HETATM    1  N   UNL     1      -6.352   3.508 -32.610  1.00  0.00    -0.326 N 
HETATM    2  C   UNL     1      -7.199   4.038 -33.574  1.00  0.00     0.231 C 
HETATM    3  O   UNL     1      -6.995   5.030 -34.266  1.00  0.00    -0.272 OA
HETATM    4  H   UNL     1      -6.688   2.669 -32.154  1.00  0.00     0.169 HD
ENDROOT
BRANCH   2   5
HETATM    5  C   UNL     1      -8.490   3.236 -33.726  1.00  0.00     0.177 C 
BRANCH   5   6
HETATM    6  S   UNL     1      -9.119   2.830 -32.057  1.00  0.00    -0.147 SA
BRANCH   6   7
HETATM    7  C   UNL     1      -9.349   1.015 -32.202  1.00  0.00     0.113 C 
HETATM    8  C   UNL     1     -10.443   0.681 -33.214  1.00  0.00     0.029 C 
BRANCH   7   9
HETATM    9  C   UNL     1      -8.070   0.281 -32.479  1.00  0.00     0.118 A 
HETATM   10  N   UNL     1      -6.910   0.463 -31.879  1.00  0.00    -0.232 NA
HETATM   11  C   UNL     1      -6.018  -0.358 -32.524  1.00  0.00     0.085 A 
HETATM   12  C   UNL     1      -6.648  -1.079 -33.530  1.00  0.00     0.062 A 
HETATM   13  C   UNL     1      -4.644  -0.538 -32.307  1.00  0.00     0.034 A 
HETATM   14  N   UNL     1      -7.950  -0.656 -33.483  1.00  0.00    -0.342 N 
HETATM   15  C   UNL     1      -5.983  -1.997 -34.346  1.00  0.00     0.032 A 
HETATM   16  H   UNL     1      -8.704  -0.975 -34.076  1.00  0.00     0.167 HD
HETATM   17  C   UNL     1      -4.613  -2.165 -34.115  1.00  0.00     0.002 A 
HETATM   18  C   UNL     1      -3.950  -1.446 -33.117  1.00  0.00     0.002 A 
ENDBRANCH   7   9
ENDBRANCH   6   7
ENDBRANCH   5   6
ENDBRANCH   2   5
BRANCH   1  19
HETATM   19  C   UNL     1      -5.047   3.929 -32.264  1.00  0.00     0.040 A 
HETATM   20  C   UNL     1      -4.897   4.975 -31.324  1.00  0.00    -0.034 A 
HETATM   21  C   UNL     1      -3.604   5.371 -30.924  1.00  0.00     0.026 A 
HETATM   22  C   UNL     1      -6.076   5.694 -30.724  1.00  0.00     0.050 C 
HETATM   23  C   UNL     1      -2.467   4.741 -31.441  1.00  0.00     0.032 A 
HETATM   24  C   UNL     1      -2.621   3.738 -32.398  1.00  0.00     0.019 A 
HETATM   25  C   UNL     1      -3.900   3.335 -32.801  1.00  0.00     0.031 A 
BRANCH  23  26
HETATM   26  C   UNL     1      -1.087   5.112 -31.015  1.00  0.00     0.251 C 
HETATM   27  N   UNL     1      -0.975   5.751 -29.795  1.00  0.00    -0.357 N 
HETATM   28  H   UNL     1      -1.776   5.785 -29.181  1.00  0.00     0.162 HD
HETATM   29  O   UNL     1      -0.126   4.817 -31.714  1.00  0.00    -0.268 OA
BRANCH  27  30
HETATM   30  C   UNL     1       0.318   6.058 -29.219  1.00  0.00     0.118 C 
HETATM   31  C   UNL     1       0.461   7.543 -28.937  1.00  0.00     0.026 C 
ENDBRANCH  27  30
ENDBRANCH  23  26
ENDBRANCH   1  19
TORSDOF 7
ENDMDL
MODEL 3
REMARK VINA RESULT:      -7.8      2.607      7.435
REMARK  7 active torsions:
REMARK  status: ('A' for Active; 'I' for Inactive)
REMARK    1  A    between atoms: C_2  and  N_3 
REMARK       I    between atoms: N_3  and  C_4 
REMARK    2  A    between atoms: C_4  and  C_5 
REMARK    3  A    between atoms: C_9  and  N_10 
REMARK       I    between atoms: N_10  and  C_11 
REMARK    4  A    between atoms: C_11  and  C_12 
REMARK    5  A    between atoms: C_12  and  S_13 
REMARK    6  A    between atoms: S_13  and  C_14 
REMARK    7  A    between atoms: C_14  and  C_15 
ROOT
HETATM    1  N   UNL     1      -7.232   2.977 -33.483  1.00  0.00    -0.326 N 
HETATM    2  C   UNL     1      -6.629   4.137 -33.951  1.00  0.00     0.231 C 
HETATM    3  O   UNL     1      -5.636   4.211 -34.668  1.00  0.00    -0.272 OA
HETATM    4  H   UNL     1      -8.059   3.119 -32.917  1.00  0.00     0.169 HD
ENDROOT
BRANCH   2   5
HETATM    5  C   UNL     1      -7.345   5.401 -33.482  1.00  0.00     0.177 C 
BRANCH   5   6
HETATM    6  S   UNL     1      -8.622   4.926 -32.262  1.00  0.00    -0.147 SA
BRANCH   6   7
HETATM    7  C   UNL     1     -10.150   5.119 -33.261  1.00  0.00     0.113 C 
HETATM    8  C   UNL     1      -9.825   5.621 -34.666  1.00  0.00     0.029 C 
BRANCH   7   9
HETATM    9  C   UNL     1     -11.001   3.883 -33.278  1.00  0.00     0.118 A 
HETATM   10  N   UNL     1     -10.594   2.648 -33.498  1.00  0.00    -0.232 NA
HETATM   11  C   UNL     1     -11.728   1.874 -33.510  1.00  0.00     0.085 A 
HETATM   12  C   UNL     1     -12.857   2.646 -33.270  1.00  0.00     0.062 A 
HETATM   13  C   UNL     1     -11.872   0.495 -33.727  1.00  0.00     0.034 A 
HETATM   14  N   UNL     1     -12.370   3.919 -33.126  1.00  0.00    -0.342 N 
HETATM   15  C   UNL     1     -14.149   2.119 -33.220  1.00  0.00     0.032 A 
HETATM   16  H   UNL     1     -12.914   4.749 -32.936  1.00  0.00     0.167 HD
HETATM   17  C   UNL     1     -14.274   0.742 -33.438  1.00  0.00     0.002 A 
HETATM   18  C   UNL     1     -13.158  -0.059 -33.692  1.00  0.00     0.002 A 
ENDBRANCH   7   9
ENDBRANCH   6   7
ENDBRANCH   5   6
ENDBRANCH   2   5
BRANCH   1  19
HETATM   19  C   UNL     1      -6.901   1.636 -33.783  1.00  0.00     0.040 A 
HETATM   20  C   UNL     1      -5.923   0.985 -32.997  1.00  0.00    -0.034 A 
HETATM   21  C   UNL     1      -5.620  -0.371 -33.244  1.00  0.00     0.026 A 
HETATM   22  C   UNL     1      -5.181   1.686 -31.890  1.00  0.00     0.050 C 
HETATM   23  C   UNL     1      -6.276  -1.081 -34.254  1.00  0.00     0.032 A 
HETATM   24  C   UNL     1      -7.210  -0.422 -35.053  1.00  0.00     0.019 A 
HETATM   25  C   UNL     1      -7.521   0.923 -34.816  1.00  0.00     0.031 A 
BRANCH  23  26
HETATM   26  C   UNL     1      -6.003  -2.523 -34.521  1.00  0.00     0.251 C 
HETATM   27  N   UNL     1      -4.698  -2.940 -34.345  1.00  0.00    -0.357 N 
HETATM   28  H   UNL     1      -4.040  -2.323 -33.891  1.00  0.00     0.162 HD
HETATM   29  O   UNL     1      -6.916  -3.274 -34.839  1.00  0.00    -0.268 OA
BRANCH  27  30
HETATM   30  C   UNL     1      -4.330  -4.337 -34.459  1.00  0.00     0.118 C 
HETATM   31  C   UNL     1      -3.506  -4.793 -33.268  1.00  0.00     0.026 C 
ENDBRANCH  27  30
ENDBRANCH  23  26
ENDBRANCH   1  19
TORSDOF 7
ENDMDL
MODEL 4
REMARK VINA RESULT:      -7.8      2.875      6.719
REMARK  7 active torsions:
REMARK  status: ('A' for Active; 'I' for Inactive)
REMARK    1  A    between atoms: C_2  and  N_3 
REMARK       I    between atoms: N_3  and  C_4 
REMARK    2  A    between atoms: C_4  and  C_5 
REMARK    3  A    between atoms: C_9  and  N_10 
REMARK       I    between atoms: N_10  and  C_11 
REMARK    4  A    between atoms: C_11  and  C_12 
REMARK    5  A    between atoms: C_12  and  S_13 
REMARK    6  A    between atoms: S_13  and  C_14 
REMARK    7  A    between atoms: C_14  and  C_15 
ROOT
HETATM    1  N   UNL     1      -5.849   3.669 -32.678  1.00  0.00    -0.326 N 
HETATM    2  C   UNL     1      -5.774   4.763 -33.531  1.00  0.00     0.231 C 
HETATM    3  O   UNL     1      -5.361   4.766 -34.686  1.00  0.00    -0.272 OA
HETATM    4  H   UNL     1      -6.237   3.861 -31.764  1.00  0.00     0.169 HD
ENDROOT
BRANCH   2   5
HETATM    5  C   UNL     1      -6.282   6.048 -32.883  1.00  0.00     0.177 C 
BRANCH   5   6
HETATM    6  S   UNL     1      -6.447   5.765 -31.083  1.00  0.00    -0.147 SA
BRANCH   6   7
HETATM    7  C   UNL     1      -8.267   5.591 -30.921  1.00  0.00     0.113 C 
HETATM    8  C   UNL     1      -8.991   6.750 -31.602  1.00  0.00     0.029 C 
BRANCH   7   9
HETATM    9  C   UNL     1      -8.772   4.254 -31.377  1.00  0.00     0.118 A 
HETATM   10  N   UNL     1      -8.449   3.076 -30.877  1.00  0.00    -0.232 NA
HETATM   11  C   UNL     1      -9.077   2.146 -31.668  1.00  0.00     0.085 A 
HETATM   12  C   UNL     1      -9.821   2.765 -32.665  1.00  0.00     0.062 A 
HETATM   13  C   UNL     1      -9.053   0.745 -31.600  1.00  0.00     0.034 A 
HETATM   14  N   UNL     1      -9.612   4.103 -32.459  1.00  0.00    -0.342 N 
HETATM   15  C   UNL     1     -10.570   2.062 -33.611  1.00  0.00     0.032 A 
HETATM   16  H   UNL     1     -10.006   4.860 -33.001  1.00  0.00     0.167 HD
HETATM   17  C   UNL     1     -10.535   0.665 -33.527  1.00  0.00     0.002 A 
HETATM   18  C   UNL     1      -9.787   0.014 -32.542  1.00  0.00     0.002 A 
ENDBRANCH   7   9
ENDBRANCH   6   7
ENDBRANCH   5   6
ENDBRANCH   2   5
BRANCH   1  19
HETATM   19  C   UNL     1      -5.553   2.316 -32.961  1.00  0.00     0.040 A 
HETATM   20  C   UNL     1      -4.437   1.718 -32.332  1.00  0.00    -0.034 A 
HETATM   21  C   UNL     1      -4.158   0.354 -32.558  1.00  0.00     0.026 A 
HETATM   22  C   UNL     1      -3.520   2.487 -31.418  1.00  0.00     0.050 C 
HETATM   23  C   UNL     1      -4.973  -0.417 -33.393  1.00  0.00     0.032 A 
HETATM   24  C   UNL     1      -6.048   0.189 -34.043  1.00  0.00     0.019 A 
HETATM   25  C   UNL     1      -6.336   1.541 -33.825  1.00  0.00     0.031 A 
BRANCH  23  26
HETATM   26  C   UNL     1      -4.726  -1.870 -33.627  1.00  0.00     0.251 C 
HETATM   27  N   UNL     1      -5.558  -2.492 -34.537  1.00  0.00    -0.357 N 
HETATM   28  H   UNL     1      -6.163  -1.929 -35.118  1.00  0.00     0.162 HD
HETATM   29  O   UNL     1      -3.802  -2.437 -33.057  1.00  0.00    -0.268 OA
BRANCH  27  30
HETATM   30  C   UNL     1      -5.346  -3.868 -34.936  1.00  0.00     0.118 C 
HETATM   31  C   UNL     1      -6.649  -4.538 -35.334  1.00  0.00     0.026 C 
ENDBRANCH  27  30
ENDBRANCH  23  26
ENDBRANCH   1  19
TORSDOF 7
ENDMDL
MODEL 5
REMARK VINA RESULT:      -7.5      3.491      7.274
REMARK  7 active torsions:
REMARK  status: ('A' for Active; 'I' for Inactive)
REMARK    1  A    between atoms: C_2  and  N_3 
REMARK       I    between atoms: N_3  and  C_4 
REMARK    2  A    between atoms: C_4  and  C_5 
REMARK    3  A    between atoms: C_9  and  N_10 
REMARK       I    between atoms: N_10  and  C_11 
REMARK    4  A    between atoms: C_11  and  C_12 
REMARK    5  A    between atoms: C_12  and  S_13 
REMARK    6  A    between atoms: S_13  and  C_14 
REMARK    7  A    between atoms: C_14  and  C_15 
ROOT
HETATM    1  N   UNL     1      -9.049   3.428 -31.999  1.00  0.00    -0.326 N 
HETATM    2  C   UNL     1     -10.071   4.351 -32.176  1.00  0.00     0.231 C 
HETATM    3  O   UNL     1      -9.948   5.534 -32.477  1.00  0.00    -0.272 OA
HETATM    4  H   UNL     1      -9.350   2.490 -31.769  1.00  0.00     0.169 HD
ENDROOT
BRANCH   2   5
HETATM    5  C   UNL     1     -11.454   3.743 -31.960  1.00  0.00     0.177 C 
BRANCH   5   6
HETATM    6  S   UNL     1     -12.198   3.398 -33.595  1.00  0.00    -0.147 SA
BRANCH   6   7
HETATM    7  C   UNL     1     -12.119   1.565 -33.636  1.00  0.00     0.113 C 
HETATM    8  C   UNL     1     -12.988   1.004 -34.759  1.00  0.00     0.029 C 
BRANCH   7   9
HETATM    9  C   UNL     1     -10.715   1.038 -33.681  1.00  0.00     0.118 A 
HETATM   10  N   UNL     1     -10.017   0.563 -32.667  1.00  0.00    -0.232 NA
HETATM   11  C   UNL     1      -8.767   0.293 -33.164  1.00  0.00     0.085 A 
HETATM   12  C   UNL     1      -8.698   0.587 -34.520  1.00  0.00     0.062 A 
HETATM   13  C   UNL     1      -7.628  -0.204 -32.512  1.00  0.00     0.034 A 
HETATM   14  N   UNL     1      -9.948   1.059 -34.825  1.00  0.00    -0.342 N 
HETATM   15  C   UNL     1      -7.546   0.404 -35.287  1.00  0.00     0.032 A 
HETATM   16  H   UNL     1     -10.264   1.368 -35.734  1.00  0.00     0.167 HD
HETATM   17  C   UNL     1      -6.420  -0.093 -34.619  1.00  0.00     0.002 A 
HETATM   18  C   UNL     1      -6.456  -0.389 -33.254  1.00  0.00     0.002 A 
ENDBRANCH   7   9
ENDBRANCH   6   7
ENDBRANCH   5   6
ENDBRANCH   2   5
BRANCH   1  19
HETATM   19  C   UNL     1      -7.661   3.608 -32.200  1.00  0.00     0.040 A 
HETATM   20  C   UNL     1      -6.815   3.692 -31.070  1.00  0.00    -0.034 A 
HETATM   21  C   UNL     1      -5.422   3.816 -31.250  1.00  0.00     0.026 A 
HETATM   22  C   UNL     1      -7.347   3.654 -29.662  1.00  0.00     0.050 C 
HETATM   23  C   UNL     1      -4.864   3.853 -32.532  1.00  0.00     0.032 A 
HETATM   24  C   UNL     1      -5.707   3.811 -33.642  1.00  0.00     0.019 A 
HETATM   25  C   UNL     1      -7.091   3.686 -33.476  1.00  0.00     0.031 A 
BRANCH  23  26
HETATM   26  C   UNL     1      -3.393   3.949 -32.759  1.00  0.00     0.251 C 
HETATM   27  N   UNL     1      -2.926   5.159 -33.233  1.00  0.00    -0.357 N 
HETATM   28  H   UNL     1      -3.545   5.958 -33.242  1.00  0.00     0.162 HD
HETATM   29  O   UNL     1      -2.665   3.001 -32.491  1.00  0.00    -0.268 OA
BRANCH  27  30
HETATM   30  C   UNL     1      -1.508   5.416 -33.382  1.00  0.00     0.118 C 
HETATM   31  C   UNL     1      -1.094   5.412 -34.843  1.00  0.00     0.026 C 
ENDBRANCH  27  30
ENDBRANCH  23  26
ENDBRANCH   1  19
TORSDOF 7
ENDMDL
MODEL 6
REMARK VINA RESULT:      -7.4      5.087      8.861
REMARK  7 active torsions:
REMARK  status: ('A' for Active; 'I' for Inactive)
REMARK    1  A    between atoms: C_2  and  N_3 
REMARK       I    between atoms: N_3  and  C_4 
REMARK    2  A    between atoms: C_4  and  C_5 
REMARK    3  A    between atoms: C_9  and  N_10 
REMARK       I    between atoms: N_10  and  C_11 
REMARK    4  A    between atoms: C_11  and  C_12 
REMARK    5  A    between atoms: C_12  and  S_13 
REMARK    6  A    between atoms: S_13  and  C_14 
REMARK    7  A    between atoms: C_14  and  C_15 
ROOT
HETATM    1  N   UNL     1      -4.963   3.939 -32.390  1.00  0.00    -0.326 N 
HETATM    2  C   UNL     1      -5.064   4.617 -31.182  1.00  0.00     0.231 C 
HETATM    3  O   UNL     1      -5.172   4.119 -30.066  1.00  0.00    -0.272 OA
HETATM    4  H   UNL     1      -4.861   4.526 -33.207  1.00  0.00     0.169 HD
ENDROOT
BRANCH   2   5
HETATM    5  C   UNL     1      -5.022   6.133 -31.356  1.00  0.00     0.177 C 
BRANCH   5   6
HETATM    6  S   UNL     1      -3.493   6.573 -32.258  1.00  0.00    -0.147 SA
BRANCH   6   7
HETATM    7  C   UNL     1      -2.251   5.574 -31.349  1.00  0.00     0.113 C 
HETATM    8  C   UNL     1      -1.268   4.913 -32.313  1.00  0.00     0.029 C 
BRANCH   7   9
HETATM    9  C   UNL     1      -1.557   6.344 -30.264  1.00  0.00     0.118 A 
HETATM   10  N   UNL     1      -0.345   6.863 -30.316  1.00  0.00    -0.232 NA
HETATM   11  C   UNL     1      -0.106   7.386 -29.069  1.00  0.00     0.085 A 
HETATM   12  C   UNL     1      -1.203   7.205 -28.237  1.00  0.00     0.062 A 
HETATM   13  C   UNL     1       1.036   8.029 -28.569  1.00  0.00     0.034 A 
HETATM   14  N   UNL     1      -2.112   6.541 -29.018  1.00  0.00    -0.342 N 
HETATM   15  C   UNL     1      -1.240   7.644 -26.912  1.00  0.00     0.032 A 
HETATM   16  H   UNL     1      -3.037   6.246 -28.738  1.00  0.00     0.167 HD
HETATM   17  C   UNL     1      -0.093   8.285 -26.431  1.00  0.00     0.002 A 
HETATM   18  C   UNL     1       1.030   8.472 -27.241  1.00  0.00     0.002 A 
ENDBRANCH   7   9
ENDBRANCH   6   7
ENDBRANCH   5   6
ENDBRANCH   2   5
BRANCH   1  19
HETATM   19  C   UNL     1      -4.878   2.544 -32.606  1.00  0.00     0.040 A 
HETATM   20  C   UNL     1      -5.961   1.887 -33.234  1.00  0.00    -0.034 A 
HETATM   21  C   UNL     1      -5.873   0.506 -33.509  1.00  0.00     0.026 A 
HETATM   22  C   UNL     1      -7.223   2.608 -33.627  1.00  0.00     0.050 C 
HETATM   23  C   UNL     1      -4.726  -0.221 -33.173  1.00  0.00     0.032 A 
HETATM   24  C   UNL     1      -3.678   0.424 -32.518  1.00  0.00     0.019 A 
HETATM   25  C   UNL     1      -3.754   1.795 -32.241  1.00  0.00     0.031 A 
BRANCH  23  26
HETATM   26  C   UNL     1      -4.586  -1.675 -33.480  1.00  0.00     0.251 C 
HETATM   27  N   UNL     1      -5.426  -2.177 -34.455  1.00  0.00    -0.357 N 
HETATM   28  H   UNL     1      -5.959  -1.536 -35.025  1.00  0.00     0.162 HD
HETATM   29  O   UNL     1      -3.736  -2.346 -32.908  1.00  0.00    -0.268 OA
BRANCH  27  30
HETATM   30  C   UNL     1      -5.308  -3.543 -34.923  1.00  0.00     0.118 C 
HETATM   31  C   UNL     1      -6.664  -4.219 -35.010  1.00  0.00     0.026 C 
ENDBRANCH  27  30
ENDBRANCH  23  26
ENDBRANCH   1  19
TORSDOF 7
ENDMDL
MODEL 7
REMARK VINA RESULT:      -7.4      3.865      7.663
REMARK  7 active torsions:
REMARK  status: ('A' for Active; 'I' for Inactive)
REMARK    1  A    between atoms: C_2  and  N_3 
REMARK       I    between atoms: N_3  and  C_4 
REMARK    2  A    between atoms: C_4  and  C_5 
REMARK    3  A    between atoms: C_9  and  N_10 
REMARK       I    between atoms: N_10  and  C_11 
REMARK    4  A    between atoms: C_11  and  C_12 
REMARK    5  A    between atoms: C_12  and  S_13 
REMARK    6  A    between atoms: S_13  and  C_14 
REMARK    7  A    between atoms: C_14  and  C_15 
ROOT
HETATM    1  N   UNL     1      -7.213   3.003 -33.728  1.00  0.00    -0.326 N 
HETATM    2  C   UNL     1      -8.100   3.532 -32.800  1.00  0.00     0.231 C 
HETATM    3  O   UNL     1      -8.852   2.905 -32.061  1.00  0.00    -0.272 OA
HETATM    4  H   UNL     1      -6.660   3.682 -34.234  1.00  0.00     0.169 HD
ENDROOT
BRANCH   2   5
HETATM    5  C   UNL     1      -8.063   5.058 -32.759  1.00  0.00     0.177 C 
BRANCH   5   6
HETATM    6  S   UNL     1      -6.354   5.608 -33.109  1.00  0.00    -0.147 SA
BRANCH   6   7
HETATM    7  C   UNL     1      -5.712   5.863 -31.409  1.00  0.00     0.113 C 
HETATM    8  C   UNL     1      -6.194   4.759 -30.471  1.00  0.00     0.029 C 
BRANCH   7   9
HETATM    9  C   UNL     1      -4.224   6.043 -31.364  1.00  0.00     0.118 A 
HETATM   10  N   UNL     1      -3.539   7.073 -31.823  1.00  0.00    -0.232 NA
HETATM   11  C   UNL     1      -2.215   6.754 -31.649  1.00  0.00     0.085 A 
HETATM   12  C   UNL     1      -2.081   5.508 -31.049  1.00  0.00     0.062 A 
HETATM   13  C   UNL     1      -1.064   7.481 -31.986  1.00  0.00     0.034 A 
HETATM   14  N   UNL     1      -3.370   5.077 -30.878  1.00  0.00    -0.342 N 
HETATM   15  C   UNL     1      -0.845   4.933 -30.746  1.00  0.00     0.032 A 
HETATM   16  H   UNL     1      -3.657   4.201 -30.463  1.00  0.00     0.167 HD
HETATM   17  C   UNL     1       0.292   5.672 -31.090  1.00  0.00     0.002 A 
HETATM   18  C   UNL     1       0.189   6.924 -31.703  1.00  0.00     0.002 A 
ENDBRANCH   7   9
ENDBRANCH   6   7
ENDBRANCH   5   6
ENDBRANCH   2   5
BRANCH   1  19
HETATM   19  C   UNL     1      -6.914   1.643 -33.976  1.00  0.00     0.040 A 
HETATM   20  C   UNL     1      -5.789   1.067 -33.341  1.00  0.00    -0.034 A 
HETATM   21  C   UNL     1      -5.507  -0.302 -33.531  1.00  0.00     0.026 A 
HETATM   22  C   UNL     1      -4.867   1.865 -32.458  1.00  0.00     0.050 C 
HETATM   23  C   UNL     1      -6.327  -1.099 -34.337  1.00  0.00     0.032 A 
HETATM   24  C   UNL     1      -7.411  -0.516 -34.992  1.00  0.00     0.019 A 
HETATM   25  C   UNL     1      -7.702   0.841 -34.810  1.00  0.00     0.031 A 
BRANCH  23  26
HETATM   26  C   UNL     1      -6.076  -2.556 -34.533  1.00  0.00     0.251 C 
HETATM   27  N   UNL     1      -4.779  -2.986 -34.328  1.00  0.00    -0.357 N 
HETATM   28  H   UNL     1      -4.114  -2.359 -33.900  1.00  0.00     0.162 HD
HETATM   29  O   UNL     1      -7.000  -3.307 -34.821  1.00  0.00    -0.268 OA
BRANCH  27  30
HETATM   30  C   UNL     1      -4.434  -4.392 -34.374  1.00  0.00     0.118 C 
HETATM   31  C   UNL     1      -3.437  -4.754 -33.288  1.00  0.00     0.026 C 
ENDBRANCH  27  30
ENDBRANCH  23  26
ENDBRANCH   1  19
TORSDOF 7
ENDMDL
MODEL 8
REMARK VINA RESULT:      -7.4      3.597      6.560
REMARK  7 active torsions:
REMARK  status: ('A' for Active; 'I' for Inactive)
REMARK    1  A    between atoms: C_2  and  N_3 
REMARK       I    between atoms: N_3  and  C_4 
REMARK    2  A    between atoms: C_4  and  C_5 
REMARK    3  A    between atoms: C_9  and  N_10 
REMARK       I    between atoms: N_10  and  C_11 
REMARK    4  A    between atoms: C_11  and  C_12 
REMARK    5  A    between atoms: C_12  and  S_13 
REMARK    6  A    between atoms: S_13  and  C_14 
REMARK    7  A    between atoms: C_14  and  C_15 
ROOT
HETATM    1  N   UNL     1      -4.373   2.845 -31.102  1.00  0.00    -0.326 N 
HETATM    2  C   UNL     1      -3.656   3.955 -31.527  1.00  0.00     0.231 C 
HETATM    3  O   UNL     1      -2.723   3.967 -32.323  1.00  0.00    -0.272 OA
HETATM    4  H   UNL     1      -5.125   3.038 -30.453  1.00  0.00     0.169 HD
ENDROOT
BRANCH   2   5
HETATM    5  C   UNL     1      -4.153   5.251 -30.892  1.00  0.00     0.177 C 
BRANCH   5   6
HETATM    6  S   UNL     1      -5.120   6.176 -32.139  1.00  0.00    -0.147 SA
BRANCH   6   7
HETATM    7  C   UNL     1      -6.801   5.498 -31.853  1.00  0.00     0.113 C 
HETATM    8  C   UNL     1      -7.873   6.465 -32.351  1.00  0.00     0.029 C 
BRANCH   7   9
HETATM    9  C   UNL     1      -6.978   4.114 -32.404  1.00  0.00     0.118 A 
HETATM   10  N   UNL     1      -6.430   3.625 -33.501  1.00  0.00    -0.232 NA
HETATM   11  C   UNL     1      -6.951   2.364 -33.653  1.00  0.00     0.085 A 
HETATM   12  C   UNL     1      -7.823   2.061 -32.615  1.00  0.00     0.062 A 
HETATM   13  C   UNL     1      -6.729   1.416 -34.662  1.00  0.00     0.034 A 
HETATM   14  N   UNL     1      -7.824   3.187 -31.835  1.00  0.00    -0.342 N 
HETATM   15  C   UNL     1      -8.494   0.840 -32.510  1.00  0.00     0.032 A 
HETATM   16  H   UNL     1      -8.348   3.323 -30.982  1.00  0.00     0.167 HD
HETATM   17  C   UNL     1      -8.260  -0.094 -33.526  1.00  0.00     0.002 A 
HETATM   18  C   UNL     1      -7.396   0.188 -34.588  1.00  0.00     0.002 A 
ENDBRANCH   7   9
ENDBRANCH   6   7
ENDBRANCH   5   6
ENDBRANCH   2   5
BRANCH   1  19
HETATM   19  C   UNL     1      -4.254   1.505 -31.541  1.00  0.00     0.040 A 
HETATM   20  C   UNL     1      -5.033   0.510 -30.907  1.00  0.00    -0.034 A 
HETATM   21  C   UNL     1      -4.970  -0.822 -31.366  1.00  0.00     0.026 A 
HETATM   22  C   UNL     1      -5.941   0.817 -29.745  1.00  0.00     0.050 C 
HETATM   23  C   UNL     1      -4.150  -1.172 -32.444  1.00  0.00     0.032 A 
HETATM   24  C   UNL     1      -3.353  -0.194 -33.038  1.00  0.00     0.019 A 
HETATM   25  C   UNL     1      -3.408   1.132 -32.591  1.00  0.00     0.031 A 
BRANCH  23  26
HETATM   26  C   UNL     1      -4.084  -2.564 -32.976  1.00  0.00     0.251 C 
HETATM   27  N   UNL     1      -4.936  -2.858 -34.022  1.00  0.00    -0.357 N 
HETATM   28  H   UNL     1      -5.425  -2.106 -34.487  1.00  0.00     0.162 HD
HETATM   29  O   UNL     1      -3.280  -3.363 -32.513  1.00  0.00    -0.268 OA
BRANCH  27  30
HETATM   30  C   UNL     1      -4.885  -4.137 -34.701  1.00  0.00     0.118 C 
HETATM   31  C   UNL     1      -6.276  -4.637 -35.049  1.00  0.00     0.026 C 
ENDBRANCH  27  30
ENDBRANCH  23  26
ENDBRANCH   1  19
TORSDOF 7
ENDMDL
MODEL 9
REMARK VINA RESULT:      -7.4      3.485      7.568
REMARK  7 active torsions:
REMARK  status: ('A' for Active; 'I' for Inactive)
REMARK    1  A    between atoms: C_2  and  N_3 
REMARK       I    between atoms: N_3  and  C_4 
REMARK    2  A    between atoms: C_4  and  C_5 
REMARK    3  A    between atoms: C_9  and  N_10 
REMARK       I    between atoms: N_10  and  C_11 
REMARK    4  A    between atoms: C_11  and  C_12 
REMARK    5  A    between atoms: C_12  and  S_13 
REMARK    6  A    between atoms: S_13  and  C_14 
REMARK    7  A    between atoms: C_14  and  C_15 
ROOT
HETATM    1  N   UNL     1      -7.836   3.944 -31.817  1.00  0.00    -0.326 N 
HETATM    2  C   UNL     1      -8.794   4.938 -31.964  1.00  0.00     0.231 C 
HETATM    3  O   UNL     1      -8.598   6.149 -31.995  1.00  0.00    -0.272 OA
HETATM    4  H   UNL     1      -8.190   2.997 -31.833  1.00  0.00     0.169 HD
ENDROOT
BRANCH   2   5
HETATM    5  C   UNL     1     -10.207   4.375 -32.099  1.00  0.00     0.177 C 
BRANCH   5   6
HETATM    6  S   UNL     1     -10.505   3.968 -33.857  1.00  0.00    -0.147 SA
BRANCH   6   7
HETATM    7  C   UNL     1     -10.883   2.176 -33.742  1.00  0.00     0.113 C 
HETATM    8  C   UNL     1     -11.803   1.737 -34.879  1.00  0.00     0.029 C 
BRANCH   7   9
HETATM    9  C   UNL     1      -9.655   1.321 -33.637  1.00  0.00     0.118 A 
HETATM   10  N   UNL     1      -8.952   1.079 -32.547  1.00  0.00    -0.232 NA
HETATM   11  C   UNL     1      -7.874   0.331 -32.951  1.00  0.00     0.085 A 
HETATM   12  C   UNL     1      -7.924   0.089 -34.318  1.00  0.00     0.062 A 
HETATM   13  C   UNL     1      -6.801  -0.175 -32.203  1.00  0.00     0.034 A 
HETATM   14  N   UNL     1      -9.064   0.728 -34.731  1.00  0.00    -0.342 N 
HETATM   15  C   UNL     1      -6.958  -0.653 -35.001  1.00  0.00     0.032 A 
HETATM   16  H   UNL     1      -9.422   0.760 -35.676  1.00  0.00     0.167 HD
HETATM   17  C   UNL     1      -5.895  -1.151 -34.239  1.00  0.00     0.002 A 
HETATM   18  C   UNL     1      -5.812  -0.914 -32.864  1.00  0.00     0.002 A 
ENDBRANCH   7   9
ENDBRANCH   6   7
ENDBRANCH   5   6
ENDBRANCH   2   5
BRANCH   1  19
HETATM   19  C   UNL     1      -6.430   4.085 -31.754  1.00  0.00     0.040 A 
HETATM   20  C   UNL     1      -5.666   3.798 -32.909  1.00  0.00    -0.034 A 
HETATM   21  C   UNL     1      -4.268   3.987 -32.883  1.00  0.00     0.026 A 
HETATM   22  C   UNL     1      -6.290   3.293 -34.183  1.00  0.00     0.050 C 
HETATM   23  C   UNL     1      -3.628   4.458 -31.733  1.00  0.00     0.032 A 
HETATM   24  C   UNL     1      -4.382   4.700 -30.585  1.00  0.00     0.019 A 
HETATM   25  C   UNL     1      -5.770   4.518 -30.599  1.00  0.00     0.031 A 
BRANCH  23  26
HETATM   26  C   UNL     1      -2.157   4.700 -31.682  1.00  0.00     0.251 C 
HETATM   27  N   UNL     1      -1.666   5.234 -30.507  1.00  0.00    -0.357 N 
HETATM   28  H   UNL     1      -2.266   5.276 -29.695  1.00  0.00     0.162 HD
HETATM   29  O   UNL     1      -1.449   4.393 -32.633  1.00  0.00    -0.268 OA
BRANCH  27  30
HETATM   30  C   UNL     1      -0.243   5.406 -30.292  1.00  0.00     0.118 C 
HETATM   31  C   UNL     1       0.213   6.798 -30.691  1.00  0.00     0.026 C 
ENDBRANCH  27  30
ENDBRANCH  23  26
ENDBRANCH   1  19
TORSDOF 7
ENDMDL
MODEL 10
REMARK VINA RESULT:      -7.4      4.085      7.321
REMARK  7 active torsions:
REMARK  status: ('A' for Active; 'I' for Inactive)
REMARK    1  A    between atoms: C_2  and  N_3 
REMARK       I    between atoms: N_3  and  C_4 
REMARK    2  A    between atoms: C_4  and  C_5 
REMARK    3  A    between atoms: C_9  and  N_10 
REMARK       I    between atoms: N_10  and  C_11 
REMARK    4  A    between atoms: C_11  and  C_12 
REMARK    5  A    between atoms: C_12  and  S_13 
REMARK    6  A    between atoms: S_13  and  C_14 
REMARK    7  A    between atoms: C_14  and  C_15 
ROOT
HETATM    1  N   UNL     1      -6.313   3.198 -30.411  1.00  0.00    -0.326 N 
HETATM    2  C   UNL     1      -7.537   3.658 -29.945  1.00  0.00     0.231 C 
HETATM    3  O   UNL     1      -8.635   3.146 -30.137  1.00  0.00    -0.272 OA
HETATM    4  H   UNL     1      -5.510   3.748 -30.132  1.00  0.00     0.169 HD
ENDROOT
BRANCH   2   5
HETATM    5  C   UNL     1      -7.407   4.933 -29.115  1.00  0.00     0.177 C 
BRANCH   5   6
HETATM    6  S   UNL     1      -7.207   6.350 -30.254  1.00  0.00    -0.147 SA
BRANCH   6   7
HETATM    7  C   UNL     1      -5.491   6.871 -29.868  1.00  0.00     0.113 C 
HETATM    8  C   UNL     1      -5.054   6.345 -28.502  1.00  0.00     0.029 C 
BRANCH   7   9
HETATM    9  C   UNL     1      -4.514   6.527 -30.953  1.00  0.00     0.118 A 
HETATM   10  N   UNL     1      -4.143   5.317 -31.327  1.00  0.00    -0.232 NA
HETATM   11  C   UNL     1      -3.171   5.498 -32.279  1.00  0.00     0.085 A 
HETATM   12  C   UNL     1      -2.953   6.849 -32.514  1.00  0.00     0.062 A 
HETATM   13  C   UNL     1      -2.421   4.548 -32.989  1.00  0.00     0.034 A 
HETATM   14  N   UNL     1      -3.817   7.483 -31.660  1.00  0.00    -0.342 N 
HETATM   15  C   UNL     1      -2.022   7.326 -33.439  1.00  0.00     0.032 A 
HETATM   16  H   UNL     1      -3.934   8.482 -31.561  1.00  0.00     0.167 HD
HETATM   17  C   UNL     1      -1.283   6.365 -34.138  1.00  0.00     0.002 A 
HETATM   18  C   UNL     1      -1.473   4.998 -33.916  1.00  0.00     0.002 A 
ENDBRANCH   7   9
ENDBRANCH   6   7
ENDBRANCH   5   6
ENDBRANCH   2   5
BRANCH   1  19
HETATM   19  C   UNL     1      -6.039   2.011 -31.129  1.00  0.00     0.040 A 
HETATM   20  C   UNL     1      -5.984   2.068 -32.541  1.00  0.00    -0.034 A 
HETATM   21  C   UNL     1      -5.657   0.908 -33.273  1.00  0.00     0.026 A 
HETATM   22  C   UNL     1      -6.263   3.334 -33.307  1.00  0.00     0.050 C 
HETATM   23  C   UNL     1      -5.382  -0.299 -32.621  1.00  0.00     0.032 A 
HETATM   24  C   UNL     1      -5.478  -0.358 -31.231  1.00  0.00     0.019 A 
HETATM   25  C   UNL     1      -5.800   0.787 -30.494  1.00  0.00     0.031 A 
BRANCH  23  26
HETATM   26  C   UNL     1      -5.001  -1.536 -33.362  1.00  0.00     0.251 C 
HETATM   27  N   UNL     1      -5.898  -1.979 -34.314  1.00  0.00    -0.357 N 
HETATM   28  H   UNL     1      -6.663  -1.378 -34.588  1.00  0.00     0.162 HD
HETATM   29  O   UNL     1      -3.927  -2.081 -33.140  1.00  0.00    -0.268 OA
BRANCH  27  30
HETATM   30  C   UNL     1      -5.590  -3.099 -35.179  1.00  0.00     0.118 C 
HETATM   31  C   UNL     1      -6.598  -4.222 -35.013  1.00  0.00     0.026 C 
ENDBRANCH  27  30
ENDBRANCH  23  26
ENDBRANCH   1  19
TORSDOF 7
ENDMDL
