MODEL 1
REMARK VINA RESULT:      -7.6      0.000      0.000
REMARK  10 active torsions:
REMARK  status: ('A' for Active; 'I' for Inactive)
REMARK    1  A    between atoms: C_2  and  C_3 
REMARK    2  A    between atoms: C_3  and  C_4 
REMARK    3  A    between atoms: C_4  and  N_5 
REMARK    4  A    between atoms: N_5  and  C_7 
REMARK    5  A    between atoms: C_7  and  C_8 
REMARK    6  A    between atoms: C_8  and  C_9 
REMARK    7  A    between atoms: C_9  and  N_10 
REMARK       I    between atoms: N_10  and  C_11 
REMARK    8  A    between atoms: C_11  and  C_12 
REMARK    9  A    between atoms: C_12  and  O_13 
REMARK   10  A    between atoms: N_14  and  C_15 
ROOT
HETATM    1  C   UNL     1      -9.572   2.236 -32.657  1.00  0.00     0.256 C 
HETATM    2  N   UNL     1      -8.559   3.220 -33.091  1.00  0.00    -0.254 N 
HETATM    3  C   UNL     1      -8.884   4.204 -34.013  1.00  0.00     0.330 C 
HETATM    4  O   UNL     1      -8.201   5.190 -34.289  1.00  0.00    -0.246 OA
HETATM    5  N   UNL     1     -10.038   4.059 -34.718  1.00  0.00    -0.308 N 
HETATM    6  C   UNL     1     -10.947   3.026 -34.598  1.00  0.00     0.048 A 
HETATM    7  C   UNL     1     -10.758   2.081 -33.603  1.00  0.00     0.034 A 
HETATM    8  C   UNL     1     -12.034   2.957 -35.472  1.00  0.00     0.030 A 
HETATM    9  C   UNL     1     -12.952   1.917 -35.354  1.00  0.00     0.002 A 
HETATM   10  C   UNL     1     -12.790   0.960 -34.356  1.00  0.00     0.001 A 
HETATM   11  C   UNL     1     -11.707   1.045 -33.478  1.00  0.00     0.015 A 
HETATM   12  H   UNL     1     -10.195   4.798 -35.395  1.00  0.00     0.170 HD
ENDROOT
BRANCH   1  13
HETATM   13  C   UNL     1      -8.878   0.788 -32.587  1.00  0.00     0.279 C 
HETATM   14  N   UNL     1      -8.533   0.238 -33.821  1.00  0.00    -0.356 N 
HETATM   15  H   UNL     1      -8.496   0.925 -34.573  1.00  0.00     0.162 HD
HETATM   16  O   UNL     1      -8.815   0.134 -31.542  1.00  0.00    -0.268 OA
BRANCH  14  17
HETATM   17  C   UNL     1      -7.670  -0.915 -34.006  1.00  0.00     0.124 C 
BRANCH  17  18
HETATM   18  C   UNL     1      -6.194  -0.650 -34.308  1.00  0.00     0.047 C 
BRANCH  18  19
HETATM   19  C   UNL     1      -5.299  -0.830 -33.085  1.00  0.00     0.236 C 
BRANCH  19  20
HETATM   20  N   UNL     1      -4.044  -1.636 -33.404  1.00  0.00    -0.075 N 
HETATM   21  H   UNL     1      -3.334  -0.986 -33.763  1.00  0.00     0.279 HD
HETATM   22  C   UNL     1      -3.445  -2.291 -32.175  1.00  0.00     0.269 C 
BRANCH  20  23
HETATM   23  C   UNL     1      -4.285  -2.697 -34.463  1.00  0.00     0.234 C 
BRANCH  23  24
HETATM   24  C   UNL     1      -4.000  -4.120 -33.987  1.00  0.00     0.027 C 
BRANCH  24  25
HETATM   25  C   UNL     1      -5.045  -5.144 -34.431  1.00  0.00    -0.003 C 
HETATM   26  C   UNL     1      -6.302  -4.457 -34.944  1.00  0.00     0.005 C 
ENDBRANCH  24  25
ENDBRANCH  23  24
ENDBRANCH  20  23
ENDBRANCH  19  20
ENDBRANCH  18  19
ENDBRANCH  17  18
ENDBRANCH  14  17
ENDBRANCH   1  13
BRANCH   1  27
HETATM   27  O   UNL     1     -10.091   2.665 -31.405  1.00  0.00    -0.359 OA
HETATM   28  H   UNL     1     -11.001   2.342 -31.322  1.00  0.00     0.213 HD
ENDBRANCH   1  27
BRANCH   2  29
HETATM   29  C   UNL     1      -7.273   3.263 -32.412  1.00  0.00     0.042 A 
HETATM   30  C   UNL     1      -6.084   2.839 -33.032  1.00  0.00     0.030 A 
HETATM   31  C   UNL     1      -4.844   2.954 -32.390  1.00  0.00     0.002 A 
HETATM   32  C   UNL     1      -4.762   3.499 -31.115  1.00  0.00     0.000 A 
HETATM   33  C   UNL     1      -5.923   3.924 -30.479  1.00  0.00     0.002 A 
HETATM   34  C   UNL     1      -7.160   3.809 -31.122  1.00  0.00     0.030 A 
ENDBRANCH   2  29
TORSDOF 10
ENDMDL
MODEL 2
REMARK VINA RESULT:      -7.4      2.278      6.814
REMARK  10 active torsions:
REMARK  status: ('A' for Active; 'I' for Inactive)
REMARK    1  A    between atoms: C_2  and  C_3 
REMARK    2  A    between atoms: C_3  and  C_4 
REMARK    3  A    between atoms: C_4  and  N_5 
REMARK    4  A    between atoms: N_5  and  C_7 
REMARK    5  A    between atoms: C_7  and  C_8 
REMARK    6  A    between atoms: C_8  and  C_9 
REMARK    7  A    between atoms: C_9  and  N_10 
REMARK       I    between atoms: N_10  and  C_11 
REMARK    8  A    between atoms: C_11  and  C_12 
REMARK    9  A    between atoms: C_12  and  O_13 
REMARK   10  A    between atoms: N_14  and  C_15 
ROOT
HETATM    1  C   UNL     1      -6.298   0.882 -33.366  1.00  0.00     0.256 C 
HETATM    2  N   UNL     1      -5.295   1.482 -32.462  1.00  0.00    -0.254 N 
HETATM    3  C   UNL     1      -4.016   0.950 -32.378  1.00  0.00     0.330 C 
HETATM    4  O   UNL     1      -3.047   1.477 -31.832  1.00  0.00    -0.246 OA
HETATM    5  N   UNL     1      -3.806  -0.287 -32.903  1.00  0.00    -0.308 N 
HETATM    6  C   UNL     1      -4.743  -1.077 -33.540  1.00  0.00     0.048 A 
HETATM    7  C   UNL     1      -6.004  -0.555 -33.782  1.00  0.00     0.034 A 
HETATM    8  C   UNL     1      -4.405  -2.374 -33.930  1.00  0.00     0.030 A 
HETATM    9  C   UNL     1      -5.348  -3.173 -34.571  1.00  0.00     0.002 A 
HETATM   10  C   UNL     1      -6.618  -2.669 -34.834  1.00  0.00     0.001 A 
HETATM   11  C   UNL     1      -6.943  -1.365 -34.453  1.00  0.00     0.015 A 
HETATM   12  H   UNL     1      -2.858  -0.625 -32.779  1.00  0.00     0.170 HD
ENDROOT
BRANCH   1  13
HETATM   13  C   UNL     1      -7.709   0.835 -32.599  1.00  0.00     0.279 C 
HETATM   14  N   UNL     1      -8.718   1.608 -33.173  1.00  0.00    -0.356 N 
HETATM   15  H   UNL     1      -8.528   1.867 -34.141  1.00  0.00     0.162 HD
HETATM   16  O   UNL     1      -7.846   0.302 -31.494  1.00  0.00    -0.268 OA
BRANCH  14  17
HETATM   17  C   UNL     1     -10.127   1.525 -32.829  1.00  0.00     0.124 C 
BRANCH  17  18
HETATM   18  C   UNL     1     -11.054   2.602 -33.395  1.00  0.00     0.047 C 
BRANCH  18  19
HETATM   19  C   UNL     1     -11.614   3.526 -32.318  1.00  0.00     0.236 C 
BRANCH  19  20
HETATM   20  N   UNL     1     -13.000   3.094 -31.852  1.00  0.00    -0.075 N 
HETATM   21  H   UNL     1     -12.908   2.183 -31.387  1.00  0.00     0.279 HD
HETATM   22  C   UNL     1     -13.591   4.041 -30.827  1.00  0.00     0.269 C 
BRANCH  20  23
HETATM   23  C   UNL     1     -13.980   2.936 -33.002  1.00  0.00     0.234 C 
BRANCH  23  24
HETATM   24  C   UNL     1     -14.695   1.587 -33.022  1.00  0.00     0.027 C 
BRANCH  24  25
HETATM   25  C   UNL     1     -14.240   0.659 -34.148  1.00  0.00    -0.003 C 
HETATM   26  C   UNL     1     -13.307  -0.423 -33.624  1.00  0.00     0.005 C 
ENDBRANCH  24  25
ENDBRANCH  23  24
ENDBRANCH  20  23
ENDBRANCH  19  20
ENDBRANCH  18  19
ENDBRANCH  17  18
ENDBRANCH  14  17
ENDBRANCH   1  13
BRANCH   1  27
HETATM   27  O   UNL     1      -6.336   1.661 -34.555  1.00  0.00    -0.359 OA
HETATM   28  H   UNL     1      -7.229   1.605 -34.930  1.00  0.00     0.213 HD
ENDBRANCH   1  27
BRANCH   2  29
HETATM   29  C   UNL     1      -5.598   2.740 -31.797  1.00  0.00     0.042 A 
HETATM   30  C   UNL     1      -5.787   2.827 -30.407  1.00  0.00     0.030 A 
HETATM   31  C   UNL     1      -6.007   4.057 -29.774  1.00  0.00     0.002 A 
HETATM   32  C   UNL     1      -6.040   5.231 -30.516  1.00  0.00     0.000 A 
HETATM   33  C   UNL     1      -5.857   5.173 -31.893  1.00  0.00     0.002 A 
HETATM   34  C   UNL     1      -5.637   3.944 -32.522  1.00  0.00     0.030 A 
ENDBRANCH   2  29
TORSDOF 10
ENDMDL
MODEL 3
REMARK VINA RESULT:      -7.4      1.943      6.681
REMARK  10 active torsions:
REMARK  status: ('A' for Active; 'I' for Inactive)
REMARK    1  A    between atoms: C_2  and  C_3 
REMARK    2  A    between atoms: C_3  and  C_4 
REMARK    3  A    between atoms: C_4  and  N_5 
REMARK    4  A    between atoms: N_5  and  C_7 
REMARK    5  A    between atoms: C_7  and  C_8 
REMARK    6  A    between atoms: C_8  and  C_9 
REMARK    7  A    between atoms: C_9  and  N_10 
REMARK       I    between atoms: N_10  and  C_11 
REMARK    8  A    between atoms: C_11  and  C_12 
REMARK    9  A    between atoms: C_12  and  O_13 
REMARK   10  A    between atoms: N_14  and  C_15 
ROOT
HETATM    1  C   UNL     1      -6.304   0.157 -33.571  1.00  0.00     0.256 C 
HETATM    2  N   UNL     1      -5.264   0.827 -32.763  1.00  0.00    -0.254 N 
HETATM    3  C   UNL     1      -3.967   0.335 -32.739  1.00  0.00     0.330 C 
HETATM    4  O   UNL     1      -2.982   0.914 -32.281  1.00  0.00    -0.246 OA
HETATM    5  N   UNL     1      -3.753  -0.919 -33.220  1.00  0.00    -0.308 N 
HETATM    6  C   UNL     1      -4.705  -1.763 -33.757  1.00  0.00     0.048 A 
HETATM    7  C   UNL     1      -5.994  -1.289 -33.941  1.00  0.00     0.034 A 
HETATM    8  C   UNL     1      -4.352  -3.067 -34.110  1.00  0.00     0.030 A 
HETATM    9  C   UNL     1      -5.310  -3.921 -34.651  1.00  0.00     0.002 A 
HETATM   10  C   UNL     1      -6.609  -3.465 -34.854  1.00  0.00     0.001 A 
HETATM   11  C   UNL     1      -6.949  -2.155 -34.512  1.00  0.00     0.015 A 
HETATM   12  H   UNL     1      -2.789  -1.224 -33.142  1.00  0.00     0.170 HD
ENDROOT
BRANCH   1  13
HETATM   13  C   UNL     1      -7.661   0.108 -32.713  1.00  0.00     0.279 C 
HETATM   14  N   UNL     1      -8.799   0.554 -33.383  1.00  0.00    -0.356 N 
HETATM   15  H   UNL     1      -8.688   0.581 -34.396  1.00  0.00     0.162 HD
HETATM   16  O   UNL     1      -7.672  -0.137 -31.503  1.00  0.00    -0.268 OA
BRANCH  14  17
HETATM   17  C   UNL     1     -10.164   0.363 -32.924  1.00  0.00     0.124 C 
BRANCH  17  18
HETATM   18  C   UNL     1     -11.270   1.111 -33.671  1.00  0.00     0.047 C 
BRANCH  18  19
HETATM   19  C   UNL     1     -10.782   2.411 -34.302  1.00  0.00     0.236 C 
BRANCH  19  20
HETATM   20  N   UNL     1     -11.770   3.555 -34.100  1.00  0.00    -0.075 N 
HETATM   21  H   UNL     1     -11.885   4.037 -35.000  1.00  0.00     0.279 HD
HETATM   22  C   UNL     1     -13.147   3.070 -33.694  1.00  0.00     0.269 C 
BRANCH  20  23
HETATM   23  C   UNL     1     -11.284   4.573 -33.083  1.00  0.00     0.234 C 
BRANCH  23  24
HETATM   24  C   UNL     1      -9.848   4.344 -32.617  1.00  0.00     0.027 C 
BRANCH  24  25
HETATM   25  C   UNL     1      -9.678   4.361 -31.098  1.00  0.00    -0.003 C 
HETATM   26  C   UNL     1      -9.373   2.968 -30.566  1.00  0.00     0.005 C 
ENDBRANCH  24  25
ENDBRANCH  23  24
ENDBRANCH  20  23
ENDBRANCH  19  20
ENDBRANCH  18  19
ENDBRANCH  17  18
ENDBRANCH  14  17
ENDBRANCH   1  13
BRANCH   1  27
HETATM   27  O   UNL     1      -6.442   0.878 -34.789  1.00  0.00    -0.359 OA
HETATM   28  H   UNL     1      -5.887   1.672 -34.741  1.00  0.00     0.213 HD
ENDBRANCH   1  27
BRANCH   2  29
HETATM   29  C   UNL     1      -5.562   2.106 -32.137  1.00  0.00     0.042 A 
HETATM   30  C   UNL     1      -5.509   2.290 -30.745  1.00  0.00     0.030 A 
HETATM   31  C   UNL     1      -5.729   3.545 -30.163  1.00  0.00     0.002 A 
HETATM   32  C   UNL     1      -6.004   4.648 -30.962  1.00  0.00     0.000 A 
HETATM   33  C   UNL     1      -6.064   4.494 -32.342  1.00  0.00     0.002 A 
HETATM   34  C   UNL     1      -5.843   3.239 -32.920  1.00  0.00     0.030 A 
ENDBRANCH   2  29
TORSDOF 10
ENDMDL
MODEL 4
REMARK VINA RESULT:      -7.3      3.323      6.960
REMARK  10 active torsions:
REMARK  status: ('A' for Active; 'I' for Inactive)
REMARK    1  A    between atoms: C_2  and  C_3 
REMARK    2  A    between atoms: C_3  and  C_4 
REMARK    3  A    between atoms: C_4  and  N_5 
REMARK    4  A    between atoms: N_5  and  C_7 
REMARK    5  A    between atoms: C_7  and  C_8 
REMARK    6  A    between atoms: C_8  and  C_9 
REMARK    7  A    between atoms: C_9  and  N_10 
REMARK       I    between atoms: N_10  and  C_11 
REMARK    8  A    between atoms: C_11  and  C_12 
REMARK    9  A    between atoms: C_12  and  O_13 
REMARK   10  A    between atoms: N_14  and  C_15 
ROOT
HETATM    1  C   UNL     1      -6.778   0.780 -31.839  1.00  0.00     0.256 C 
HETATM    2  N   UNL     1      -7.947   1.355 -32.536  1.00  0.00    -0.254 N 
HETATM    3  C   UNL     1      -8.566   0.658 -33.563  1.00  0.00     0.330 C 
HETATM    4  O   UNL     1      -9.654   0.931 -34.070  1.00  0.00    -0.246 OA
HETATM    5  N   UNL     1      -7.904  -0.400 -34.103  1.00  0.00    -0.308 N 
HETATM    6  C   UNL     1      -6.666  -0.875 -33.718  1.00  0.00     0.048 A 
HETATM    7  C   UNL     1      -6.050  -0.316 -32.609  1.00  0.00     0.034 A 
HETATM    8  C   UNL     1      -6.065  -1.906 -34.442  1.00  0.00     0.030 A 
HETATM    9  C   UNL     1      -4.816  -2.387 -34.056  1.00  0.00     0.002 A 
HETATM   10  C   UNL     1      -4.181  -1.848 -32.941  1.00  0.00     0.001 A 
HETATM   11  C   UNL     1      -4.797  -0.827 -32.214  1.00  0.00     0.015 A 
HETATM   12  H   UNL     1      -8.402  -0.842 -34.869  1.00  0.00     0.170 HD
ENDROOT
BRANCH   1  13
HETATM   13  C   UNL     1      -5.696   1.947 -31.613  1.00  0.00     0.279 C 
HETATM   14  N   UNL     1      -5.124   2.455 -32.778  1.00  0.00    -0.356 N 
HETATM   15  H   UNL     1      -5.658   2.237 -33.619  1.00  0.00     0.162 HD
HETATM   16  O   UNL     1      -5.272   2.249 -30.493  1.00  0.00    -0.268 OA
BRANCH  14  17
HETATM   17  C   UNL     1      -4.335   3.672 -32.855  1.00  0.00     0.124 C 
BRANCH  17  18
HETATM   18  C   UNL     1      -2.817   3.537 -32.716  1.00  0.00     0.047 C 
BRANCH  18  19
HETATM   19  C   UNL     1      -2.216   4.573 -31.771  1.00  0.00     0.236 C 
BRANCH  19  20
HETATM   20  N   UNL     1      -0.911   5.152 -32.307  1.00  0.00    -0.075 N 
HETATM   21  H   UNL     1      -0.549   4.509 -33.022  1.00  0.00     0.279 HD
HETATM   22  C   UNL     1      -1.107   6.490 -32.993  1.00  0.00     0.269 C 
BRANCH  20  23
HETATM   23  C   UNL     1       0.149   5.300 -31.230  1.00  0.00     0.234 C 
BRANCH  23  24
HETATM   24  C   UNL     1       0.563   6.745 -30.965  1.00  0.00     0.027 C 
BRANCH  24  25
HETATM   25  C   UNL     1       0.348   7.198 -29.521  1.00  0.00    -0.003 C 
HETATM   26  C   UNL     1       0.382   6.015 -28.565  1.00  0.00     0.005 C 
ENDBRANCH  24  25
ENDBRANCH  23  24
ENDBRANCH  20  23
ENDBRANCH  19  20
ENDBRANCH  18  19
ENDBRANCH  17  18
ENDBRANCH  14  17
ENDBRANCH   1  13
BRANCH   1  27
HETATM   27  O   UNL     1      -7.235   0.202 -30.623  1.00  0.00    -0.359 OA
HETATM   28  H   UNL     1      -8.203   0.160 -30.648  1.00  0.00     0.213 HD
ENDBRANCH   1  27
BRANCH   2  29
HETATM   29  C   UNL     1      -8.555   2.572 -32.020  1.00  0.00     0.042 A 
HETATM   30  C   UNL     1      -8.448   3.805 -32.687  1.00  0.00     0.030 A 
HETATM   31  C   UNL     1      -9.099   4.951 -32.215  1.00  0.00     0.002 A 
HETATM   32  C   UNL     1      -9.877   4.892 -31.066  1.00  0.00     0.000 A 
HETATM   33  C   UNL     1     -10.000   3.686 -30.386  1.00  0.00     0.002 A 
HETATM   34  C   UNL     1      -9.348   2.542 -30.860  1.00  0.00     0.030 A 
ENDBRANCH   2  29
TORSDOF 10
ENDMDL
MODEL 5
REMARK VINA RESULT:      -7.1      2.918      6.834
REMARK  10 active torsions:
REMARK  status: ('A' for Active; 'I' for Inactive)
REMARK    1  A    between atoms: C_2  and  C_3 
REMARK    2  A    between atoms: C_3  and  C_4 
REMARK    3  A    between atoms: C_4  and  N_5 
REMARK    4  A    between atoms: N_5  and  C_7 
REMARK    5  A    between atoms: C_7  and  C_8 
REMARK    6  A    between atoms: C_8  and  C_9 
REMARK    7  A    between atoms: C_9  and  N_10 
REMARK       I    between atoms: N_10  and  C_11 
REMARK    8  A    between atoms: C_11  and  C_12 
REMARK    9  A    between atoms: C_12  and  O_13 
REMARK   10  A    between atoms: N_14  and  C_15 
ROOT
HETATM    1  C   UNL     1      -7.025   1.522 -31.854  1.00  0.00     0.256 C 
HETATM    2  N   UNL     1      -8.418   1.516 -32.346  1.00  0.00    -0.254 N 
HETATM    3  C   UNL     1      -8.934   0.396 -32.983  1.00  0.00     0.330 C 
HETATM    4  O   UNL     1     -10.119   0.195 -33.245  1.00  0.00    -0.246 OA
HETATM    5  N   UNL     1      -8.058  -0.555 -33.405  1.00  0.00    -0.308 N 
HETATM    6  C   UNL     1      -6.687  -0.534 -33.246  1.00  0.00     0.048 A 
HETATM    7  C   UNL     1      -6.115   0.483 -32.498  1.00  0.00     0.034 A 
HETATM    8  C   UNL     1      -5.908  -1.534 -33.831  1.00  0.00     0.030 A 
HETATM    9  C   UNL     1      -4.524  -1.516 -33.673  1.00  0.00     0.002 A 
HETATM   10  C   UNL     1      -3.926  -0.510 -32.919  1.00  0.00     0.001 A 
HETATM   11  C   UNL     1      -4.715   0.478 -32.326  1.00  0.00     0.015 A 
HETATM   12  H   UNL     1      -8.502  -1.328 -33.889  1.00  0.00     0.170 HD
ENDROOT
BRANCH   1  13
HETATM   13  C   UNL     1      -6.371   2.949 -32.197  1.00  0.00     0.279 C 
HETATM   14  N   UNL     1      -6.268   3.239 -33.557  1.00  0.00    -0.356 N 
HETATM   15  H   UNL     1      -6.869   2.658 -34.141  1.00  0.00     0.162 HD
HETATM   16  O   UNL     1      -5.839   3.658 -31.338  1.00  0.00    -0.268 OA
BRANCH  14  17
HETATM   17  C   UNL     1      -5.965   4.548 -34.108  1.00  0.00     0.124 C 
BRANCH  17  18
HETATM   18  C   UNL     1      -4.492   4.891 -34.340  1.00  0.00     0.047 C 
BRANCH  18  19
HETATM   19  C   UNL     1      -3.953   5.898 -33.330  1.00  0.00     0.236 C 
BRANCH  19  20
HETATM   20  N   UNL     1      -3.237   5.220 -32.166  1.00  0.00    -0.075 N 
HETATM   21  H   UNL     1      -3.943   4.963 -31.466  1.00  0.00     0.279 HD
HETATM   22  C   UNL     1      -2.551   3.932 -32.577  1.00  0.00     0.269 C 
BRANCH  20  23
HETATM   23  C   UNL     1      -2.222   6.129 -31.496  1.00  0.00     0.234 C 
BRANCH  23  24
HETATM   24  C   UNL     1      -0.785   5.617 -31.578  1.00  0.00     0.027 C 
BRANCH  24  25
HETATM   25  C   UNL     1       0.272   6.693 -31.332  1.00  0.00    -0.003 C 
HETATM   26  C   UNL     1       0.361   7.046 -29.854  1.00  0.00     0.005 C 
ENDBRANCH  24  25
ENDBRANCH  23  24
ENDBRANCH  20  23
ENDBRANCH  19  20
ENDBRANCH  18  19
ENDBRANCH  17  18
ENDBRANCH  14  17
ENDBRANCH   1  13
BRANCH   1  27
HETATM   27  O   UNL     1      -7.053   1.244 -30.460  1.00  0.00    -0.359 OA
HETATM   28  H   UNL     1      -7.224   2.072 -29.985  1.00  0.00     0.213 HD
ENDBRANCH   1  27
BRANCH   2  29
HETATM   29  C   UNL     1      -9.301   2.619 -31.999  1.00  0.00     0.042 A 
HETATM   30  C   UNL     1      -9.662   2.902 -30.670  1.00  0.00     0.030 A 
HETATM   31  C   UNL     1     -10.455   4.010 -30.347  1.00  0.00     0.002 A 
HETATM   32  C   UNL     1     -10.903   4.866 -31.346  1.00  0.00     0.000 A 
HETATM   33  C   UNL     1     -10.562   4.609 -32.668  1.00  0.00     0.002 A 
HETATM   34  C   UNL     1      -9.770   3.501 -32.988  1.00  0.00     0.030 A 
ENDBRANCH   2  29
TORSDOF 10
ENDMDL
MODEL 6
REMARK VINA RESULT:      -7.0     14.590     17.258
REMARK  10 active torsions:
REMARK  status: ('A' for Active; 'I' for Inactive)
REMARK    1  A    between atoms: C_2  and  C_3 
REMARK    2  A    between atoms: C_3  and  C_4 
REMARK    3  A    between atoms: C_4  and  N_5 
REMARK    4  A    between atoms: N_5  and  C_7 
REMARK    5  A    between atoms: C_7  and  C_8 
REMARK    6  A    between atoms: C_8  and  C_9 
REMARK    7  A    between atoms: C_9  and  N_10 
REMARK       I    between atoms: N_10  and  C_11 
REMARK    8  A    between atoms: C_11  and  C_12 
REMARK    9  A    between atoms: C_12  and  O_13 
REMARK   10  A    between atoms: N_14  and  C_15 
ROOT
HETATM    1  C   UNL     1      -5.951 -14.824 -36.923  1.00  0.00     0.256 C 
HETATM    2  N   UNL     1      -5.342 -13.699 -37.663  1.00  0.00    -0.254 N 
HETATM    3  C   UNL     1      -4.529 -12.785 -37.008  1.00  0.00     0.330 C 
HETATM    4  O   UNL     1      -3.808 -11.944 -37.544  1.00  0.00    -0.246 OA
HETATM    5  N   UNL     1      -4.550 -12.774 -35.648  1.00  0.00    -0.308 N 
HETATM    6  C   UNL     1      -5.295 -13.604 -34.834  1.00  0.00     0.048 A 
HETATM    7  C   UNL     1      -6.025 -14.630 -35.413  1.00  0.00     0.034 A 
HETATM    8  C   UNL     1      -5.296 -13.399 -33.453  1.00  0.00     0.030 A 
HETATM    9  C   UNL     1      -6.047 -14.234 -32.629  1.00  0.00     0.002 A 
HETATM   10  C   UNL     1      -6.781 -15.278 -33.185  1.00  0.00     0.001 A 
HETATM   11  C   UNL     1      -6.763 -15.484 -34.566  1.00  0.00     0.015 A 
HETATM   12  H   UNL     1      -3.955 -12.062 -35.239  1.00  0.00     0.170 HD
ENDROOT
BRANCH   1  13
HETATM   13  C   UNL     1      -7.471 -14.994 -37.417  1.00  0.00     0.279 C 
HETATM   14  N   UNL     1      -7.727 -16.154 -38.146  1.00  0.00    -0.356 N 
HETATM   15  H   UNL     1      -7.012 -16.872 -38.030  1.00  0.00     0.162 HD
HETATM   16  O   UNL     1      -8.306 -14.091 -37.315  1.00  0.00    -0.268 OA
BRANCH  14  17
HETATM   17  C   UNL     1      -9.050 -16.659 -38.468  1.00  0.00     0.124 C 
BRANCH  17  18
HETATM   18  C   UNL     1      -9.401 -16.824 -39.948  1.00  0.00     0.047 C 
BRANCH  18  19
HETATM   19  C   UNL     1      -9.133 -15.562 -40.762  1.00  0.00     0.236 C 
BRANCH  19  20
HETATM   20  N   UNL     1     -10.380 -15.072 -41.491  1.00  0.00    -0.075 N 
HETATM   21  H   UNL     1     -10.085 -14.678 -42.393  1.00  0.00     0.279 HD
HETATM   22  C   UNL     1     -11.348 -16.194 -41.809  1.00  0.00     0.269 C 
BRANCH  20  23
HETATM   23  C   UNL     1     -11.116 -13.986 -40.725  1.00  0.00     0.234 C 
BRANCH  23  24
HETATM   24  C   UNL     1     -10.237 -13.224 -39.737  1.00  0.00     0.027 C 
BRANCH  24  25
HETATM   25  C   UNL     1      -9.878 -11.809 -40.189  1.00  0.00    -0.003 C 
HETATM   26  C   UNL     1     -11.116 -11.046 -40.638  1.00  0.00     0.005 C 
ENDBRANCH  24  25
ENDBRANCH  23  24
ENDBRANCH  20  23
ENDBRANCH  19  20
ENDBRANCH  18  19
ENDBRANCH  17  18
ENDBRANCH  14  17
ENDBRANCH   1  13
BRANCH   1  27
HETATM   27  O   UNL     1      -5.157 -15.980 -37.157  1.00  0.00    -0.359 OA
HETATM   28  H   UNL     1      -4.298 -15.855 -36.725  1.00  0.00     0.213 HD
ENDBRANCH   1  27
BRANCH   2  29
HETATM   29  C   UNL     1      -5.454 -13.656 -39.112  1.00  0.00     0.042 A 
HETATM   30  C   UNL     1      -4.804 -14.587 -39.942  1.00  0.00     0.030 A 
HETATM   31  C   UNL     1      -4.979 -14.575 -41.331  1.00  0.00     0.002 A 
HETATM   32  C   UNL     1      -5.812 -13.635 -41.925  1.00  0.00     0.000 A 
HETATM   33  C   UNL     1      -6.466 -12.703 -41.128  1.00  0.00     0.002 A 
HETATM   34  C   UNL     1      -6.289 -12.716 -39.741  1.00  0.00     0.030 A 
ENDBRANCH   2  29
TORSDOF 10
ENDMDL
MODEL 7
REMARK VINA RESULT:      -7.0      2.232      5.253
REMARK  10 active torsions:
REMARK  status: ('A' for Active; 'I' for Inactive)
REMARK    1  A    between atoms: C_2  and  C_3 
REMARK    2  A    between atoms: C_3  and  C_4 
REMARK    3  A    between atoms: C_4  and  N_5 
REMARK    4  A    between atoms: N_5  and  C_7 
REMARK    5  A    between atoms: C_7  and  C_8 
REMARK    6  A    between atoms: C_8  and  C_9 
REMARK    7  A    between atoms: C_9  and  N_10 
REMARK       I    between atoms: N_10  and  C_11 
REMARK    8  A    between atoms: C_11  and  C_12 
REMARK    9  A    between atoms: C_12  and  O_13 
REMARK   10  A    between atoms: N_14  and  C_15 
ROOT
HETATM    1  C   UNL     1      -8.810   2.146 -34.025  1.00  0.00     0.256 C 
HETATM    2  N   UNL     1      -8.848   0.946 -33.163  1.00  0.00    -0.254 N 
HETATM    3  C   UNL     1     -10.051   0.304 -32.905  1.00  0.00     0.330 C 
HETATM    4  O   UNL     1     -10.182  -0.804 -32.386  1.00  0.00    -0.246 OA
HETATM    5  N   UNL     1     -11.201   0.964 -33.205  1.00  0.00    -0.308 N 
HETATM    6  C   UNL     1     -11.302   2.221 -33.768  1.00  0.00     0.048 A 
HETATM    7  C   UNL     1     -10.145   2.864 -34.180  1.00  0.00     0.034 A 
HETATM    8  C   UNL     1     -12.557   2.813 -33.917  1.00  0.00     0.030 A 
HETATM    9  C   UNL     1     -12.661   4.081 -34.484  1.00  0.00     0.002 A 
HETATM   10  C   UNL     1     -11.516   4.744 -34.914  1.00  0.00     0.001 A 
HETATM   11  C   UNL     1     -10.266   4.137 -34.774  1.00  0.00     0.015 A 
HETATM   12  H   UNL     1     -12.040   0.448 -32.962  1.00  0.00     0.170 HD
ENDROOT
BRANCH   1  13
HETATM   13  C   UNL     1      -7.812   3.217 -33.361  1.00  0.00     0.279 C 
HETATM   14  N   UNL     1      -8.205   3.694 -32.112  1.00  0.00    -0.356 N 
HETATM   15  H   UNL     1      -8.902   3.106 -31.655  1.00  0.00     0.162 HD
HETATM   16  O   UNL     1      -6.866   3.713 -33.980  1.00  0.00    -0.268 OA
BRANCH  14  17
HETATM   17  C   UNL     1      -7.359   4.451 -31.206  1.00  0.00     0.124 C 
BRANCH  17  18
HETATM   18  C   UNL     1      -6.564   3.665 -30.162  1.00  0.00     0.047 C 
BRANCH  18  19
HETATM   19  C   UNL     1      -5.133   3.375 -30.605  1.00  0.00     0.236 C 
BRANCH  19  20
HETATM   20  N   UNL     1      -4.658   4.340 -31.687  1.00  0.00    -0.075 N 
HETATM   21  H   UNL     1      -5.486   4.690 -32.184  1.00  0.00     0.279 HD
HETATM   22  C   UNL     1      -3.955   5.555 -31.116  1.00  0.00     0.269 C 
BRANCH  20  23
HETATM   23  C   UNL     1      -3.748   3.674 -32.704  1.00  0.00     0.234 C 
BRANCH  23  24
HETATM   24  C   UNL     1      -2.385   4.348 -32.847  1.00  0.00     0.027 C 
BRANCH  24  25
HETATM   25  C   UNL     1      -2.060   4.795 -34.272  1.00  0.00    -0.003 C 
HETATM   26  C   UNL     1      -3.296   5.342 -34.971  1.00  0.00     0.005 C 
ENDBRANCH  24  25
ENDBRANCH  23  24
ENDBRANCH  20  23
ENDBRANCH  19  20
ENDBRANCH  18  19
ENDBRANCH  17  18
ENDBRANCH  14  17
ENDBRANCH   1  13
BRANCH   1  27
HETATM   27  O   UNL     1      -8.402   1.738 -35.325  1.00  0.00    -0.359 OA
HETATM   28  H   UNL     1      -8.545   0.782 -35.405  1.00  0.00     0.213 HD
ENDBRANCH   1  27
BRANCH   2  29
HETATM   29  C   UNL     1      -7.598   0.337 -32.735  1.00  0.00     0.042 A 
HETATM   30  C   UNL     1      -7.174   0.357 -31.395  1.00  0.00     0.030 A 
HETATM   31  C   UNL     1      -6.004  -0.295 -30.987  1.00  0.00     0.002 A 
HETATM   32  C   UNL     1      -5.231  -0.988 -31.911  1.00  0.00     0.000 A 
HETATM   33  C   UNL     1      -5.626  -1.023 -33.242  1.00  0.00     0.002 A 
HETATM   34  C   UNL     1      -6.795  -0.370 -33.647  1.00  0.00     0.030 A 
ENDBRANCH   2  29
TORSDOF 10
ENDMDL
MODEL 8
REMARK VINA RESULT:      -6.9      2.736      7.037
REMARK  10 active torsions:
REMARK  status: ('A' for Active; 'I' for Inactive)
REMARK    1  A    between atoms: C_2  and  C_3 
REMARK    2  A    between atoms: C_3  and  C_4 
REMARK    3  A    between atoms: C_4  and  N_5 
REMARK    4  A    between atoms: N_5  and  C_7 
REMARK    5  A    between atoms: C_7  and  C_8 
REMARK    6  A    between atoms: C_8  and  C_9 
REMARK    7  A    between atoms: C_9  and  N_10 
REMARK       I    between atoms: N_10  and  C_11 
REMARK    8  A    between atoms: C_11  and  C_12 
REMARK    9  A    between atoms: C_12  and  O_13 
REMARK   10  A    between atoms: N_14  and  C_15 
ROOT
HETATM    1  C   UNL     1      -7.386   0.892 -32.048  1.00  0.00     0.256 C 
HETATM    2  N   UNL     1      -8.003   0.869 -33.390  1.00  0.00    -0.254 N 
HETATM    3  C   UNL     1      -7.506   0.030 -34.378  1.00  0.00     0.330 C 
HETATM    4  O   UNL     1      -8.053  -0.230 -35.449  1.00  0.00    -0.246 OA
HETATM    5  N   UNL     1      -6.282  -0.530 -34.180  1.00  0.00    -0.308 N 
HETATM    6  C   UNL     1      -5.475  -0.364 -33.072  1.00  0.00     0.048 A 
HETATM    7  C   UNL     1      -5.964   0.347 -31.988  1.00  0.00     0.034 A 
HETATM    8  C   UNL     1      -4.193  -0.917 -33.062  1.00  0.00     0.030 A 
HETATM    9  C   UNL     1      -3.376  -0.751 -31.946  1.00  0.00     0.002 A 
HETATM   10  C   UNL     1      -3.847  -0.049 -30.840  1.00  0.00     0.001 A 
HETATM   11  C   UNL     1      -5.136   0.488 -30.855  1.00  0.00     0.015 A 
HETATM   12  H   UNL     1      -5.970  -1.105 -34.955  1.00  0.00     0.170 HD
ENDROOT
BRANCH   1  13
HETATM   13  C   UNL     1      -7.290   2.420 -31.559  1.00  0.00     0.279 C 
HETATM   14  N   UNL     1      -6.352   3.198 -32.236  1.00  0.00    -0.356 N 
HETATM   15  H   UNL     1      -6.059   2.795 -33.126  1.00  0.00     0.162 HD
HETATM   16  O   UNL     1      -7.869   2.831 -30.549  1.00  0.00    -0.268 OA
BRANCH  14  17
HETATM   17  C   UNL     1      -6.264   4.646 -32.164  1.00  0.00     0.124 C 
BRANCH  17  18
HETATM   18  C   UNL     1      -6.035   5.404 -33.473  1.00  0.00     0.047 C 
BRANCH  18  19
HETATM   19  C   UNL     1      -4.631   5.203 -34.034  1.00  0.00     0.236 C 
BRANCH  19  20
HETATM   20  N   UNL     1      -3.564   5.245 -32.945  1.00  0.00    -0.075 N 
HETATM   21  H   UNL     1      -4.035   5.147 -32.037  1.00  0.00     0.279 HD
HETATM   22  C   UNL     1      -2.583   4.093 -33.047  1.00  0.00     0.269 C 
BRANCH  20  23
HETATM   23  C   UNL     1      -2.792   6.552 -32.933  1.00  0.00     0.234 C 
BRANCH  23  24
HETATM   24  C   UNL     1      -1.304   6.394 -33.236  1.00  0.00     0.027 C 
BRANCH  24  25
HETATM   25  C   UNL     1      -0.387   7.056 -32.207  1.00  0.00    -0.003 C 
HETATM   26  C   UNL     1       0.160   6.034 -31.222  1.00  0.00     0.005 C 
ENDBRANCH  24  25
ENDBRANCH  23  24
ENDBRANCH  20  23
ENDBRANCH  19  20
ENDBRANCH  18  19
ENDBRANCH  17  18
ENDBRANCH  14  17
ENDBRANCH   1  13
BRANCH   1  27
HETATM   27  O   UNL     1      -8.179   0.083 -31.188  1.00  0.00    -0.359 OA
HETATM   28  H   UNL     1      -8.985  -0.172 -31.664  1.00  0.00     0.213 HD
ENDBRANCH   1  27
BRANCH   2  29
HETATM   29  C   UNL     1      -9.243   1.594 -33.617  1.00  0.00     0.042 A 
HETATM   30  C   UNL     1      -9.270   2.862 -34.225  1.00  0.00     0.030 A 
HETATM   31  C   UNL     1     -10.478   3.515 -34.500  1.00  0.00     0.002 A 
HETATM   32  C   UNL     1     -11.688   2.915 -34.178  1.00  0.00     0.000 A 
HETATM   33  C   UNL     1     -11.690   1.663 -33.575  1.00  0.00     0.002 A 
HETATM   34  C   UNL     1     -10.483   1.012 -33.301  1.00  0.00     0.030 A 
ENDBRANCH   2  29
TORSDOF 10
ENDMDL
MODEL 9
REMARK VINA RESULT:      -6.9     15.302     17.704
REMARK  10 active torsions:
REMARK  status: ('A' for Active; 'I' for Inactive)
REMARK    1  A    between atoms: C_2  and  C_3 
REMARK    2  A    between atoms: C_3  and  C_4 
REMARK    3  A    between atoms: C_4  and  N_5 
REMARK    4  A    between atoms: N_5  and  C_7 
REMARK    5  A    between atoms: C_7  and  C_8 
REMARK    6  A    between atoms: C_8  and  C_9 
REMARK    7  A    between atoms: C_9  and  N_10 
REMARK       I    between atoms: N_10  and  C_11 
REMARK    8  A    between atoms: C_11  and  C_12 
REMARK    9  A    between atoms: C_12  and  O_13 
REMARK   10  A    between atoms: N_14  and  C_15 
ROOT
HETATM    1  C   UNL     1      -6.199 -12.973 -38.763  1.00  0.00     0.256 C 
HETATM    2  N   UNL     1      -7.107 -14.120 -38.552  1.00  0.00    -0.254 N 
HETATM    3  C   UNL     1      -6.830 -15.065 -37.574  1.00  0.00     0.330 C 
HETATM    4  O   UNL     1      -7.602 -15.933 -37.167  1.00  0.00    -0.246 OA
HETATM    5  N   UNL     1      -5.580 -15.078 -37.037  1.00  0.00    -0.308 N 
HETATM    6  C   UNL     1      -4.545 -14.221 -37.354  1.00  0.00     0.048 A 
HETATM    7  C   UNL     1      -4.788 -13.166 -38.219  1.00  0.00     0.034 A 
HETATM    8  C   UNL     1      -3.282 -14.428 -36.795  1.00  0.00     0.030 A 
HETATM    9  C   UNL     1      -2.235 -13.567 -37.113  1.00  0.00     0.002 A 
HETATM   10  C   UNL     1      -2.456 -12.494 -37.973  1.00  0.00     0.001 A 
HETATM   11  C   UNL     1      -3.726 -12.287 -38.514  1.00  0.00     0.015 A 
HETATM   12  H   UNL     1      -5.441 -15.813 -36.353  1.00  0.00     0.170 HD
ENDROOT
BRANCH   1  13
HETATM   13  C   UNL     1      -6.030 -12.744 -40.344  1.00  0.00     0.279 C 
HETATM   14  N   UNL     1      -5.330 -13.745 -41.015  1.00  0.00    -0.356 N 
HETATM   15  H   UNL     1      -5.267 -14.617 -40.488  1.00  0.00     0.162 HD
HETATM   16  O   UNL     1      -6.338 -11.683 -40.897  1.00  0.00    -0.268 OA
BRANCH  14  17
HETATM   17  C   UNL     1      -5.275 -13.900 -42.458  1.00  0.00     0.124 C 
BRANCH  17  18
HETATM   18  C   UNL     1      -4.713 -15.213 -43.005  1.00  0.00     0.047 C 
BRANCH  18  19
HETATM   19  C   UNL     1      -4.119 -16.101 -41.915  1.00  0.00     0.236 C 
BRANCH  19  20
HETATM   20  N   UNL     1      -2.838 -16.792 -42.370  1.00  0.00    -0.075 N 
HETATM   21  H   UNL     1      -2.893 -17.778 -42.089  1.00  0.00     0.279 HD
HETATM   22  C   UNL     1      -2.676 -16.784 -43.877  1.00  0.00     0.269 C 
BRANCH  20  23
HETATM   23  C   UNL     1      -1.595 -16.193 -41.736  1.00  0.00     0.234 C 
BRANCH  23  24
HETATM   24  C   UNL     1      -1.882 -15.017 -40.805  1.00  0.00     0.027 C 
BRANCH  24  25
HETATM   25  C   UNL     1      -0.699 -14.066 -40.622  1.00  0.00    -0.003 C 
HETATM   26  C   UNL     1       0.406 -14.717 -39.804  1.00  0.00     0.005 C 
ENDBRANCH  24  25
ENDBRANCH  23  24
ENDBRANCH  20  23
ENDBRANCH  19  20
ENDBRANCH  18  19
ENDBRANCH  17  18
ENDBRANCH  14  17
ENDBRANCH   1  13
BRANCH   1  27
HETATM   27  O   UNL     1      -6.754 -11.848 -38.094  1.00  0.00    -0.359 OA
HETATM   28  H   UNL     1      -6.714 -12.008 -37.138  1.00  0.00     0.213 HD
ENDBRANCH   1  27
BRANCH   2  29
HETATM   29  C   UNL     1      -8.383 -14.155 -39.248  1.00  0.00     0.042 A 
HETATM   30  C   UNL     1      -9.405 -13.224 -38.991  1.00  0.00     0.030 A 
HETATM   31  C   UNL     1     -10.600 -13.229 -39.721  1.00  0.00     0.002 A 
HETATM   32  C   UNL     1     -10.802 -14.163 -40.729  1.00  0.00     0.000 A 
HETATM   33  C   UNL     1      -9.809 -15.095 -41.004  1.00  0.00     0.002 A 
HETATM   34  C   UNL     1      -8.616 -15.089 -40.273  1.00  0.00     0.030 A 
ENDBRANCH   2  29
TORSDOF 10
ENDMDL
MODEL 10
REMARK VINA RESULT:      -6.9      3.080      6.366
REMARK  10 active torsions:
REMARK  status: ('A' for Active; 'I' for Inactive)
REMARK    1  A    between atoms: C_2  and  C_3 
REMARK    2  A    between atoms: C_3  and  C_4 
REMARK    3  A    between atoms: C_4  and  N_5 
REMARK    4  A    between atoms: N_5  and  C_7 
REMARK    5  A    between atoms: C_7  and  C_8 
REMARK    6  A    between atoms: C_8  and  C_9 
REMARK    7  A    between atoms: C_9  and  N_10 
REMARK       I    between atoms: N_10  and  C_11 
REMARK    8  A    between atoms: C_11  and  C_12 
REMARK    9  A    between atoms: C_12  and  O_13 
REMARK   10  A    between atoms: N_14  and  C_15 
ROOT
HETATM    1  C   UNL     1      -8.440   1.680 -32.085  1.00  0.00     0.256 C 
HETATM    2  N   UNL     1      -9.259   2.634 -32.861  1.00  0.00    -0.254 N 
HETATM    3  C   UNL     1      -9.684   2.315 -34.143  1.00  0.00     0.330 C 
HETATM    4  O   UNL     1     -10.530   2.925 -34.797  1.00  0.00    -0.246 OA
HETATM    5  N   UNL     1      -9.092   1.262 -34.767  1.00  0.00    -0.308 N 
HETATM    6  C   UNL     1      -8.106   0.449 -34.243  1.00  0.00     0.048 A 
HETATM    7  C   UNL     1      -7.729   0.621 -32.920  1.00  0.00     0.034 A 
HETATM    8  C   UNL     1      -7.516  -0.528 -35.047  1.00  0.00     0.030 A 
HETATM    9  C   UNL     1      -6.520  -1.349 -34.521  1.00  0.00     0.002 A 
HETATM   10  C   UNL     1      -6.131  -1.202 -33.193  1.00  0.00     0.001 A 
HETATM   11  C   UNL     1      -6.737  -0.232 -32.393  1.00  0.00     0.015 A 
HETATM   12  H   UNL     1      -9.430   1.106 -35.710  1.00  0.00     0.170 HD
ENDROOT
BRANCH   1  13
HETATM   13  C   UNL     1      -7.278   2.499 -31.336  1.00  0.00     0.279 C 
HETATM   14  N   UNL     1      -6.325   3.072 -32.176  1.00  0.00    -0.356 N 
HETATM   15  H   UNL     1      -6.633   3.148 -33.145  1.00  0.00     0.162 HD
HETATM   16  O   UNL     1      -7.136   2.476 -30.110  1.00  0.00    -0.268 OA
BRANCH  14  17
HETATM   17  C   UNL     1      -5.345   4.065 -31.769  1.00  0.00     0.124 C 
BRANCH  17  18
HETATM   18  C   UNL     1      -3.906   3.590 -31.563  1.00  0.00     0.047 C 
BRANCH  18  19
HETATM   19  C   UNL     1      -2.952   4.729 -31.215  1.00  0.00     0.236 C 
BRANCH  19  20
HETATM   20  N   UNL     1      -2.649   5.614 -32.420  1.00  0.00    -0.075 N 
HETATM   21  H   UNL     1      -3.142   5.223 -33.232  1.00  0.00     0.279 HD
HETATM   22  C   UNL     1      -3.164   7.029 -32.247  1.00  0.00     0.269 C 
BRANCH  20  23
HETATM   23  C   UNL     1      -1.168   5.663 -32.751  1.00  0.00     0.234 C 
BRANCH  23  24
HETATM   24  C   UNL     1      -0.470   6.934 -32.273  1.00  0.00     0.027 C 
BRANCH  24  25
HETATM   25  C   UNL     1       0.390   6.738 -31.025  1.00  0.00    -0.003 C 
HETATM   26  C   UNL     1       0.750   5.272 -30.832  1.00  0.00     0.005 C 
ENDBRANCH  24  25
ENDBRANCH  23  24
ENDBRANCH  20  23
ENDBRANCH  19  20
ENDBRANCH  18  19
ENDBRANCH  17  18
ENDBRANCH  14  17
ENDBRANCH   1  13
BRANCH   1  27
HETATM   27  O   UNL     1      -9.303   0.993 -31.188  1.00  0.00    -0.359 OA
HETATM   28  H   UNL     1     -10.119   0.766 -31.660  1.00  0.00     0.213 HD
ENDBRANCH   1  27
BRANCH   2  29
HETATM   29  C   UNL     1      -9.767   3.831 -32.210  1.00  0.00     0.042 A 
HETATM   30  C   UNL     1     -10.813   3.787 -31.271  1.00  0.00     0.030 A 
HETATM   31  C   UNL     1     -11.242   4.939 -30.600  1.00  0.00     0.002 A 
HETATM   32  C   UNL     1     -10.633   6.163 -30.848  1.00  0.00     0.000 A 
HETATM   33  C   UNL     1      -9.598   6.234 -31.772  1.00  0.00     0.002 A 
HETATM   34  C   UNL     1      -9.171   5.083 -32.442  1.00  0.00     0.030 A 
ENDBRANCH   2  29
TORSDOF 10
ENDMDL
