MODEL 1
REMARK VINA RESULT:     -10.6      0.000      0.000
REMARK  4 active torsions:
REMARK  status: ('A' for Active; 'I' for Inactive)
REMARK    1  A    between atoms: C_2  and  C_3 
REMARK    2  A    between atoms: N_16  and  C_17 
REMARK    3  A    between atoms: C_17  and  C_18 
REMARK       I    between atoms: C_18  and  N_19 
REMARK    4  A    between atoms: N_19  and  C_20 
ROOT
HETATM    1  C   UNL     1      -8.779   0.907 -34.157  1.00  0.00     0.054 C 
HETATM    2  C   UNL     1      -7.304   1.083 -33.791  1.00  0.00     0.140 A 
HETATM    3  N   UNL     1      -6.739   2.144 -34.602  1.00  0.00    -0.321 N 
HETATM    4  C   UNL     1      -6.263   3.192 -33.852  1.00  0.00     0.326 A 
HETATM    5  O   UNL     1      -5.647   4.134 -34.316  1.00  0.00    -0.247 OA
HETATM    6  N   UNL     1      -6.558   2.958 -32.546  1.00  0.00    -0.259 N 
HETATM    7  C   UNL     1      -7.214   1.767 -32.404  1.00  0.00     0.261 A 
HETATM    8  O   UNL     1      -7.670   1.349 -31.345  1.00  0.00    -0.270 OA
HETATM    9  H   UNL     1      -6.519   2.070 -35.587  1.00  0.00     0.165 HD
ENDROOT
BRANCH   6  10
HETATM   10  C   UNL     1      -6.204   3.845 -31.460  1.00  0.00     0.240 C 
BRANCH  10  11
HETATM   11  C   UNL     1      -4.691   3.861 -31.258  1.00  0.00     0.240 C 
HETATM   12  N   UNL     1      -4.116   5.104 -31.492  1.00  0.00    -0.325 N 
HETATM   13  H   UNL     1      -4.763   5.868 -31.665  1.00  0.00     0.169 HD
HETATM   14  O   UNL     1      -4.108   2.864 -30.840  1.00  0.00    -0.271 OA
BRANCH  12  15
HETATM   15  C   UNL     1      -2.736   5.436 -31.396  1.00  0.00     0.047 A 
HETATM   16  C   UNL     1      -2.294   6.376 -30.413  1.00  0.00     0.019 A 
HETATM   17  C   UNL     1      -0.916   6.700 -30.335  1.00  0.00     0.069 A 
HETATM   18  C   UNL     1      -3.125   7.013 -29.458  1.00  0.00     0.017 A 
HETATM   19  N   UNL     1      -0.403   7.555 -29.434  1.00  0.00    -0.260 NA
HETATM   20  C   UNL     1      -0.029   6.112 -31.221  1.00  0.00     0.032 A 
HETATM   21  C   UNL     1      -1.238   8.128 -28.546  1.00  0.00     0.117 A 
HETATM   22  C   UNL     1      -2.595   7.892 -28.518  1.00  0.00     0.020 A 
HETATM   23  C   UNL     1      -0.455   5.205 -32.185  1.00  0.00     0.005 A 
HETATM   24  C   UNL     1      -1.800   4.869 -32.271  1.00  0.00     0.030 A 
ENDBRANCH  12  15
ENDBRANCH  10  11
ENDBRANCH   6  10
BRANCH   2  25
HETATM   25  C   UNL     1      -6.432  -0.170 -33.871  1.00  0.00    -0.020 A 
HETATM   26  C   UNL     1      -6.953  -1.372 -34.402  1.00  0.00     0.022 A 
HETATM   27  C   UNL     1      -6.198  -2.558 -34.459  1.00  0.00    -0.025 A 
HETATM   28  C   UNL     1      -4.872  -2.554 -33.984  1.00  0.00    -0.026 A 
HETATM   29  C   UNL     1      -6.741  -3.749 -34.971  1.00  0.00     0.012 A 
HETATM   30  C   UNL     1      -4.338  -1.363 -33.473  1.00  0.00     0.013 A 
HETATM   31  C   UNL     1      -4.119  -3.740 -34.031  1.00  0.00     0.012 A 
HETATM   32  C   UNL     1      -5.104  -0.192 -33.418  1.00  0.00     0.011 A 
HETATM   33  C   UNL     1      -4.672  -4.916 -34.541  1.00  0.00     0.001 A 
HETATM   34  C   UNL     1      -5.983  -4.920 -35.011  1.00  0.00     0.001 A 
ENDBRANCH   2  25
TORSDOF 4
ENDMDL
MODEL 2
REMARK VINA RESULT:     -10.6      2.029      3.636
REMARK  4 active torsions:
REMARK  status: ('A' for Active; 'I' for Inactive)
REMARK    1  A    between atoms: C_2  and  C_3 
REMARK    2  A    between atoms: N_16  and  C_17 
REMARK    3  A    between atoms: C_17  and  C_18 
REMARK       I    between atoms: C_18  and  N_19 
REMARK    4  A    between atoms: N_19  and  C_20 
ROOT
HETATM    1  C   UNL     1      -5.201   3.567 -31.001  1.00  0.00     0.054 C 
HETATM    2  C   UNL     1      -4.475   3.215 -32.302  1.00  0.00     0.140 A 
HETATM    3  N   UNL     1      -5.011   4.029 -33.376  1.00  0.00    -0.321 N 
HETATM    4  C   UNL     1      -4.062   4.835 -33.958  1.00  0.00     0.326 A 
HETATM    5  O   UNL     1      -4.263   5.513 -34.948  1.00  0.00    -0.247 OA
HETATM    6  N   UNL     1      -2.897   4.696 -33.271  1.00  0.00    -0.259 N 
HETATM    7  C   UNL     1      -3.043   3.803 -32.246  1.00  0.00     0.261 A 
HETATM    8  O   UNL     1      -2.174   3.551 -31.418  1.00  0.00    -0.270 OA
HETATM    9  H   UNL     1      -5.916   3.900 -33.809  1.00  0.00     0.165 HD
ENDROOT
BRANCH   6  10
HETATM   10  C   UNL     1      -1.671   5.387 -33.601  1.00  0.00     0.240 C 
BRANCH  10  11
HETATM   11  C   UNL     1      -1.659   6.779 -32.975  1.00  0.00     0.240 C 
HETATM   12  N   UNL     1      -1.805   6.765 -31.593  1.00  0.00    -0.325 N 
HETATM   13  H   UNL     1      -1.799   5.849 -31.155  1.00  0.00     0.169 HD
HETATM   14  O   UNL     1      -1.446   7.771 -33.668  1.00  0.00    -0.271 OA
BRANCH  12  15
HETATM   15  C   UNL     1      -1.841   7.894 -30.729  1.00  0.00     0.047 A 
HETATM   16  C   UNL     1      -1.006   7.931 -29.567  1.00  0.00     0.019 A 
HETATM   17  C   UNL     1      -1.060   9.061 -28.713  1.00  0.00     0.069 A 
HETATM   18  C   UNL     1      -0.080   6.927 -29.194  1.00  0.00     0.017 A 
HETATM   19  N   UNL     1      -0.301   9.197 -27.612  1.00  0.00    -0.260 NA
HETATM   20  C   UNL     1      -1.928  10.098 -29.012  1.00  0.00     0.032 A 
HETATM   21  C   UNL     1       0.567   8.214 -27.307  1.00  0.00     0.117 A 
HETATM   22  C   UNL     1       0.714   7.070 -28.058  1.00  0.00     0.020 A 
HETATM   23  C   UNL     1      -2.748  10.062 -30.134  1.00  0.00     0.005 A 
HETATM   24  C   UNL     1      -2.704   8.966 -30.987  1.00  0.00     0.030 A 
ENDBRANCH  12  15
ENDBRANCH  10  11
ENDBRANCH   6  10
BRANCH   2  25
HETATM   25  C   UNL     1      -4.476   1.739 -32.701  1.00  0.00    -0.020 A 
HETATM   26  C   UNL     1      -5.564   1.192 -33.417  1.00  0.00     0.022 A 
HETATM   27  C   UNL     1      -5.624  -0.169 -33.770  1.00  0.00    -0.025 A 
HETATM   28  C   UNL     1      -4.560  -1.020 -33.413  1.00  0.00    -0.026 A 
HETATM   29  C   UNL     1      -6.725  -0.699 -34.464  1.00  0.00     0.012 A 
HETATM   30  C   UNL     1      -3.466  -0.484 -32.719  1.00  0.00     0.013 A 
HETATM   31  C   UNL     1      -4.621  -2.382 -33.757  1.00  0.00     0.012 A 
HETATM   32  C   UNL     1      -3.424   0.871 -32.370  1.00  0.00     0.011 A 
HETATM   33  C   UNL     1      -5.722  -2.894 -34.445  1.00  0.00     0.001 A 
HETATM   34  C   UNL     1      -6.773  -2.053 -34.798  1.00  0.00     0.001 A 
ENDBRANCH   2  25
TORSDOF 4
ENDMDL
MODEL 3
REMARK VINA RESULT:     -10.6      1.307      2.359
REMARK  4 active torsions:
REMARK  status: ('A' for Active; 'I' for Inactive)
REMARK    1  A    between atoms: C_2  and  C_3 
REMARK    2  A    between atoms: N_16  and  C_17 
REMARK    3  A    between atoms: C_17  and  C_18 
REMARK       I    between atoms: C_18  and  N_19 
REMARK    4  A    between atoms: N_19  and  C_20 
ROOT
HETATM    1  C   UNL     1      -9.374   0.773 -34.094  1.00  0.00     0.054 C 
HETATM    2  C   UNL     1      -7.936   1.131 -33.710  1.00  0.00     0.140 A 
HETATM    3  N   UNL     1      -7.505   2.267 -34.503  1.00  0.00    -0.321 N 
HETATM    4  C   UNL     1      -7.174   3.357 -33.735  1.00  0.00     0.326 A 
HETATM    5  O   UNL     1      -6.679   4.376 -34.181  1.00  0.00    -0.247 OA
HETATM    6  N   UNL     1      -7.448   3.070 -32.435  1.00  0.00    -0.259 N 
HETATM    7  C   UNL     1      -7.947   1.803 -32.314  1.00  0.00     0.261 A 
HETATM    8  O   UNL     1      -8.355   1.315 -31.265  1.00  0.00    -0.270 OA
HETATM    9  H   UNL     1      -7.269   2.235 -35.486  1.00  0.00     0.165 HD
ENDROOT
BRANCH   6  10
HETATM   10  C   UNL     1      -7.219   3.980 -31.335  1.00  0.00     0.240 C 
BRANCH  10  11
HETATM   11  C   UNL     1      -5.723   4.177 -31.109  1.00  0.00     0.240 C 
HETATM   12  N   UNL     1      -5.264   5.426 -31.511  1.00  0.00    -0.325 N 
HETATM   13  H   UNL     1      -5.976   6.088 -31.806  1.00  0.00     0.169 HD
HETATM   14  O   UNL     1      -5.060   3.315 -30.540  1.00  0.00    -0.271 OA
BRANCH  12  15
HETATM   15  C   UNL     1      -3.927   5.906 -31.440  1.00  0.00     0.047 A 
HETATM   16  C   UNL     1      -3.065   5.790 -32.576  1.00  0.00     0.019 A 
HETATM   17  C   UNL     1      -1.734   6.268 -32.486  1.00  0.00     0.069 A 
HETATM   18  C   UNL     1      -3.437   5.253 -33.833  1.00  0.00     0.017 A 
HETATM   19  N   UNL     1      -0.857   6.222 -33.504  1.00  0.00    -0.260 NA
HETATM   20  C   UNL     1      -1.290   6.823 -31.298  1.00  0.00     0.032 A 
HETATM   21  C   UNL     1      -1.266   5.705 -34.679  1.00  0.00     0.117 A 
HETATM   22  C   UNL     1      -2.533   5.212 -34.892  1.00  0.00     0.020 A 
HETATM   23  C   UNL     1      -2.120   6.929 -30.187  1.00  0.00     0.005 A 
HETATM   24  C   UNL     1      -3.431   6.473 -30.259  1.00  0.00     0.030 A 
ENDBRANCH  12  15
ENDBRANCH  10  11
ENDBRANCH   6  10
BRANCH   2  25
HETATM   25  C   UNL     1      -6.910   0.001 -33.797  1.00  0.00    -0.020 A 
HETATM   26  C   UNL     1      -7.288  -1.274 -34.275  1.00  0.00     0.022 A 
HETATM   27  C   UNL     1      -6.386  -2.352 -34.334  1.00  0.00    -0.025 A 
HETATM   28  C   UNL     1      -5.055  -2.160 -33.917  1.00  0.00    -0.026 A 
HETATM   29  C   UNL     1      -6.786  -3.619 -34.793  1.00  0.00     0.012 A 
HETATM   30  C   UNL     1      -4.663  -0.894 -33.459  1.00  0.00     0.013 A 
HETATM   31  C   UNL     1      -4.154  -3.238 -33.967  1.00  0.00     0.012 A 
HETATM   32  C   UNL     1      -5.574   0.167 -33.400  1.00  0.00     0.011 A 
HETATM   33  C   UNL     1      -4.566  -4.491 -34.424  1.00  0.00     0.001 A 
HETATM   34  C   UNL     1      -5.882  -4.681 -34.836  1.00  0.00     0.001 A 
ENDBRANCH   2  25
TORSDOF 4
ENDMDL
MODEL 4
REMARK VINA RESULT:     -10.5      4.184      8.628
REMARK  4 active torsions:
REMARK  status: ('A' for Active; 'I' for Inactive)
REMARK    1  A    between atoms: C_2  and  C_3 
REMARK    2  A    between atoms: N_16  and  C_17 
REMARK    3  A    between atoms: C_17  and  C_18 
REMARK       I    between atoms: C_18  and  N_19 
REMARK    4  A    between atoms: N_19  and  C_20 
ROOT
HETATM    1  C   UNL     1      -5.611   2.761 -31.261  1.00  0.00     0.054 C 
HETATM    2  C   UNL     1      -6.959   2.240 -31.765  1.00  0.00     0.140 A 
HETATM    3  N   UNL     1      -7.890   2.186 -30.654  1.00  0.00    -0.321 N 
HETATM    4  C   UNL     1      -8.990   2.987 -30.842  1.00  0.00     0.326 A 
HETATM    5  O   UNL     1      -9.950   3.008 -30.093  1.00  0.00    -0.247 OA
HETATM    6  N   UNL     1      -8.827   3.682 -31.999  1.00  0.00    -0.259 N 
HETATM    7  C   UNL     1      -7.643   3.354 -32.597  1.00  0.00     0.261 A 
HETATM    8  O   UNL     1      -7.206   3.891 -33.610  1.00  0.00    -0.270 OA
HETATM    9  H   UNL     1      -7.868   1.502 -29.909  1.00  0.00     0.165 HD
ENDROOT
BRANCH   6  10
HETATM   10  C   UNL     1      -9.792   4.621 -32.527  1.00  0.00     0.240 C 
BRANCH  10  11
HETATM   11  C   UNL     1     -10.863   3.889 -33.330  1.00  0.00     0.240 C 
HETATM   12  N   UNL     1     -11.584   2.967 -32.579  1.00  0.00    -0.325 N 
HETATM   13  H   UNL     1     -11.391   2.959 -31.582  1.00  0.00     0.169 HD
HETATM   14  O   UNL     1     -11.082   4.194 -34.499  1.00  0.00    -0.271 OA
BRANCH  12  15
HETATM   15  C   UNL     1     -12.635   2.128 -33.041  1.00  0.00     0.047 A 
HETATM   16  C   UNL     1     -13.996   2.462 -32.749  1.00  0.00     0.019 A 
HETATM   17  C   UNL     1     -15.031   1.611 -33.211  1.00  0.00     0.069 A 
HETATM   18  C   UNL     1     -14.422   3.614 -32.044  1.00  0.00     0.017 A 
HETATM   19  N   UNL     1     -16.337   1.851 -33.005  1.00  0.00    -0.260 NA
HETATM   20  C   UNL     1     -14.705   0.469 -33.923  1.00  0.00     0.032 A 
HETATM   21  C   UNL     1     -16.686   2.964 -32.333  1.00  0.00     0.117 A 
HETATM   22  C   UNL     1     -15.775   3.869 -31.837  1.00  0.00     0.020 A 
HETATM   23  C   UNL     1     -13.384   0.135 -34.201  1.00  0.00     0.005 A 
HETATM   24  C   UNL     1     -12.356   0.961 -33.762  1.00  0.00     0.030 A 
ENDBRANCH  12  15
ENDBRANCH  10  11
ENDBRANCH   6  10
BRANCH   2  25
HETATM   25  C   UNL     1      -6.935   0.903 -32.505  1.00  0.00    -0.020 A 
HETATM   26  C   UNL     1      -5.722   0.197 -32.669  1.00  0.00     0.022 A 
HETATM   27  C   UNL     1      -5.648  -1.018 -33.376  1.00  0.00    -0.025 A 
HETATM   28  C   UNL     1      -6.821  -1.562 -33.933  1.00  0.00    -0.026 A 
HETATM   29  C   UNL     1      -4.428  -1.694 -33.546  1.00  0.00     0.012 A 
HETATM   30  C   UNL     1      -8.034  -0.881 -33.761  1.00  0.00     0.013 A 
HETATM   31  C   UNL     1      -6.748  -2.771 -34.648  1.00  0.00     0.012 A 
HETATM   32  C   UNL     1      -8.090   0.330 -33.059  1.00  0.00     0.011 A 
HETATM   33  C   UNL     1      -5.529  -3.431 -34.810  1.00  0.00     0.001 A 
HETATM   34  C   UNL     1      -4.369  -2.892 -34.259  1.00  0.00     0.001 A 
ENDBRANCH   2  25
TORSDOF 4
ENDMDL
MODEL 5
REMARK VINA RESULT:     -10.3      1.974      3.436
REMARK  4 active torsions:
REMARK  status: ('A' for Active; 'I' for Inactive)
REMARK    1  A    between atoms: C_2  and  C_3 
REMARK    2  A    between atoms: N_16  and  C_17 
REMARK    3  A    between atoms: C_17  and  C_18 
REMARK       I    between atoms: C_18  and  N_19 
REMARK    4  A    between atoms: N_19  and  C_20 
ROOT
HETATM    1  C   UNL     1      -3.404   1.275 -32.522  1.00  0.00     0.054 C 
HETATM    2  C   UNL     1      -4.914   1.051 -32.410  1.00  0.00     0.140 A 
HETATM    3  N   UNL     1      -5.294   1.090 -31.010  1.00  0.00    -0.321 N 
HETATM    4  C   UNL     1      -6.191   2.092 -30.730  1.00  0.00     0.326 A 
HETATM    5  O   UNL     1      -6.731   2.235 -29.648  1.00  0.00    -0.247 OA
HETATM    6  N   UNL     1      -6.386   2.826 -31.857  1.00  0.00    -0.259 N 
HETATM    7  C   UNL     1      -5.644   2.330 -32.892  1.00  0.00     0.261 A 
HETATM    8  O   UNL     1      -5.566   2.849 -34.001  1.00  0.00    -0.270 OA
HETATM    9  H   UNL     1      -5.103   0.361 -30.335  1.00  0.00     0.165 HD
ENDROOT
BRANCH   6  10
HETATM   10  C   UNL     1      -7.274   3.964 -31.944  1.00  0.00     0.240 C 
BRANCH  10  11
HETATM   11  C   UNL     1      -6.487   5.231 -32.265  1.00  0.00     0.240 C 
HETATM   12  N   UNL     1      -5.185   5.210 -31.781  1.00  0.00    -0.325 N 
HETATM   13  H   UNL     1      -4.878   4.334 -31.368  1.00  0.00     0.169 HD
HETATM   14  O   UNL     1      -6.981   6.109 -32.967  1.00  0.00    -0.271 OA
BRANCH  12  15
HETATM   15  C   UNL     1      -4.211   6.239 -31.911  1.00  0.00     0.047 A 
HETATM   16  C   UNL     1      -3.137   6.093 -32.845  1.00  0.00     0.019 A 
HETATM   17  C   UNL     1      -2.172   7.125 -32.956  1.00  0.00     0.069 A 
HETATM   18  C   UNL     1      -2.957   4.992 -33.718  1.00  0.00     0.017 A 
HETATM   19  N   UNL     1      -1.141   7.088 -33.818  1.00  0.00    -0.260 NA
HETATM   20  C   UNL     1      -2.280   8.246 -32.151  1.00  0.00     0.032 A 
HETATM   21  C   UNL     1      -1.021   6.020 -34.629  1.00  0.00     0.117 A 
HETATM   22  C   UNL     1      -1.895   4.956 -34.617  1.00  0.00     0.020 A 
HETATM   23  C   UNL     1      -3.316   8.389 -31.235  1.00  0.00     0.005 A 
HETATM   24  C   UNL     1      -4.276   7.391 -31.116  1.00  0.00     0.030 A 
ENDBRANCH  12  15
ENDBRANCH  10  11
ENDBRANCH   6  10
BRANCH   2  25
HETATM   25  C   UNL     1      -5.464  -0.211 -33.076  1.00  0.00    -0.020 A 
HETATM   26  C   UNL     1      -4.652  -1.360 -33.211  1.00  0.00     0.022 A 
HETATM   27  C   UNL     1      -5.104  -2.528 -33.852  1.00  0.00    -0.025 A 
HETATM   28  C   UNL     1      -6.414  -2.568 -34.368  1.00  0.00    -0.026 A 
HETATM   29  C   UNL     1      -4.275  -3.654 -33.995  1.00  0.00     0.012 A 
HETATM   30  C   UNL     1      -7.234  -1.440 -34.224  1.00  0.00     0.013 A 
HETATM   31  C   UNL     1      -6.865  -3.730 -35.017  1.00  0.00     0.012 A 
HETATM   32  C   UNL     1      -6.768  -0.283 -33.588  1.00  0.00     0.011 A 
HETATM   33  C   UNL     1      -6.029  -4.840 -35.153  1.00  0.00     0.001 A 
HETATM   34  C   UNL     1      -4.735  -4.802 -34.643  1.00  0.00     0.001 A 
ENDBRANCH   2  25
TORSDOF 4
ENDMDL
MODEL 6
REMARK VINA RESULT:     -10.3      1.702      3.198
REMARK  4 active torsions:
REMARK  status: ('A' for Active; 'I' for Inactive)
REMARK    1  A    between atoms: C_2  and  C_3 
REMARK    2  A    between atoms: N_16  and  C_17 
REMARK    3  A    between atoms: C_17  and  C_18 
REMARK       I    between atoms: C_18  and  N_19 
REMARK    4  A    between atoms: N_19  and  C_20 
ROOT
HETATM    1  C   UNL     1      -5.806   3.245 -31.074  1.00  0.00     0.054 C 
HETATM    2  C   UNL     1      -5.166   2.950 -32.432  1.00  0.00     0.140 A 
HETATM    3  N   UNL     1      -5.479   4.032 -33.346  1.00  0.00    -0.321 N 
HETATM    4  C   UNL     1      -4.358   4.675 -33.813  1.00  0.00     0.326 A 
HETATM    5  O   UNL     1      -4.379   5.534 -34.675  1.00  0.00    -0.247 OA
HETATM    6  N   UNL     1      -3.269   4.155 -33.188  1.00  0.00    -0.259 N 
HETATM    7  C   UNL     1      -3.636   3.166 -32.318  1.00  0.00     0.261 A 
HETATM    8  O   UNL     1      -2.864   2.584 -31.564  1.00  0.00    -0.270 OA
HETATM    9  H   UNL     1      -6.383   4.192 -33.771  1.00  0.00     0.165 HD
ENDROOT
BRANCH   6  10
HETATM   10  C   UNL     1      -1.909   4.582 -33.432  1.00  0.00     0.240 C 
BRANCH  10  11
HETATM   11  C   UNL     1      -1.580   5.817 -32.598  1.00  0.00     0.240 C 
HETATM   12  N   UNL     1      -1.286   5.525 -31.272  1.00  0.00    -0.325 N 
HETATM   13  H   UNL     1      -1.222   4.539 -31.037  1.00  0.00     0.169 HD
HETATM   14  O   UNL     1      -1.509   6.923 -33.126  1.00  0.00    -0.271 OA
BRANCH  12  15
HETATM   15  C   UNL     1      -0.951   6.455 -30.249  1.00  0.00     0.047 A 
HETATM   16  C   UNL     1      -1.987   7.084 -29.488  1.00  0.00     0.019 A 
HETATM   17  C   UNL     1      -1.636   8.013 -28.478  1.00  0.00     0.069 A 
HETATM   18  C   UNL     1      -3.374   6.836 -29.634  1.00  0.00     0.017 A 
HETATM   19  N   UNL     1      -2.536   8.639 -27.698  1.00  0.00    -0.260 NA
HETATM   20  C   UNL     1      -0.301   8.305 -28.256  1.00  0.00     0.032 A 
HETATM   21  C   UNL     1      -3.841   8.361 -27.877  1.00  0.00     0.117 A 
HETATM   22  C   UNL     1      -4.307   7.476 -28.823  1.00  0.00     0.020 A 
HETATM   23  C   UNL     1       0.709   7.704 -28.999  1.00  0.00     0.005 A 
HETATM   24  C   UNL     1       0.385   6.785 -29.989  1.00  0.00     0.030 A 
ENDBRANCH  12  15
ENDBRANCH  10  11
ENDBRANCH   6  10
BRANCH   2  25
HETATM   25  C   UNL     1      -5.511   1.601 -33.065  1.00  0.00    -0.020 A 
HETATM   26  C   UNL     1      -4.678   0.479 -32.855  1.00  0.00     0.022 A 
HETATM   27  C   UNL     1      -4.936  -0.770 -33.450  1.00  0.00    -0.025 A 
HETATM   28  C   UNL     1      -6.068  -0.919 -34.275  1.00  0.00    -0.026 A 
HETATM   29  C   UNL     1      -4.085  -1.870 -33.246  1.00  0.00     0.012 A 
HETATM   30  C   UNL     1      -6.911   0.183 -34.475  1.00  0.00     0.013 A 
HETATM   31  C   UNL     1      -6.323  -2.163 -34.877  1.00  0.00     0.012 A 
HETATM   32  C   UNL     1      -6.638   1.420 -33.881  1.00  0.00     0.011 A 
HETATM   33  C   UNL     1      -5.467  -3.246 -34.667  1.00  0.00     0.001 A 
HETATM   34  C   UNL     1      -4.349  -3.099 -33.852  1.00  0.00     0.001 A 
ENDBRANCH   2  25
TORSDOF 4
ENDMDL
MODEL 7
REMARK VINA RESULT:     -10.2      1.794      9.553
REMARK  4 active torsions:
REMARK  status: ('A' for Active; 'I' for Inactive)
REMARK    1  A    between atoms: C_2  and  C_3 
REMARK    2  A    between atoms: N_16  and  C_17 
REMARK    3  A    between atoms: C_17  and  C_18 
REMARK       I    between atoms: C_18  and  N_19 
REMARK    4  A    between atoms: N_19  and  C_20 
ROOT
HETATM    1  C   UNL     1      -1.070   5.420 -33.278  1.00  0.00     0.054 C 
HETATM    2  C   UNL     1      -1.864   5.663 -31.992  1.00  0.00     0.140 A 
HETATM    3  N   UNL     1      -2.871   6.676 -32.244  1.00  0.00    -0.321 N 
HETATM    4  C   UNL     1      -4.150   6.216 -32.043  1.00  0.00     0.326 A 
HETATM    5  O   UNL     1      -5.140   6.923 -32.084  1.00  0.00    -0.247 OA
HETATM    6  N   UNL     1      -4.092   4.889 -31.754  1.00  0.00    -0.259 N 
HETATM    7  C   UNL     1      -2.797   4.451 -31.747  1.00  0.00     0.261 A 
HETATM    8  O   UNL     1      -2.461   3.281 -31.597  1.00  0.00    -0.270 OA
HETATM    9  H   UNL     1      -2.688   7.664 -32.356  1.00  0.00     0.165 HD
ENDROOT
BRANCH   6  10
HETATM   10  C   UNL     1      -5.247   4.065 -31.474  1.00  0.00     0.240 C 
BRANCH  10  11
HETATM   11  C   UNL     1      -5.602   3.214 -32.690  1.00  0.00     0.240 C 
HETATM   12  N   UNL     1      -5.911   1.897 -32.371  1.00  0.00    -0.325 N 
HETATM   13  H   UNL     1      -5.966   1.681 -31.380  1.00  0.00     0.169 HD
HETATM   14  O   UNL     1      -5.679   3.723 -33.805  1.00  0.00    -0.271 OA
BRANCH  12  15
HETATM   15  C   UNL     1      -6.271   0.863 -33.278  1.00  0.00     0.047 A 
HETATM   16  C   UNL     1      -5.500  -0.342 -33.331  1.00  0.00     0.019 A 
HETATM   17  C   UNL     1      -5.868  -1.359 -34.246  1.00  0.00     0.069 A 
HETATM   18  C   UNL     1      -4.385  -0.635 -32.508  1.00  0.00     0.017 A 
HETATM   19  N   UNL     1      -5.219  -2.532 -34.354  1.00  0.00    -0.260 NA
HETATM   20  C   UNL     1      -6.956  -1.163 -35.079  1.00  0.00     0.032 A 
HETATM   21  C   UNL     1      -4.169  -2.760 -33.543  1.00  0.00     0.117 A 
HETATM   22  C   UNL     1      -3.716  -1.852 -32.613  1.00  0.00     0.020 A 
HETATM   23  C   UNL     1      -7.703   0.009 -35.039  1.00  0.00     0.005 A 
HETATM   24  C   UNL     1      -7.362   1.015 -34.143  1.00  0.00     0.030 A 
ENDBRANCH  12  15
ENDBRANCH  10  11
ENDBRANCH   6  10
BRANCH   2  25
HETATM   25  C   UNL     1      -1.048   6.021 -30.750  1.00  0.00    -0.020 A 
HETATM   26  C   UNL     1      -1.232   7.266 -30.107  1.00  0.00     0.022 A 
HETATM   27  C   UNL     1      -0.476   7.652 -28.984  1.00  0.00    -0.025 A 
HETATM   28  C   UNL     1       0.492   6.768 -28.470  1.00  0.00    -0.026 A 
HETATM   29  C   UNL     1      -0.660   8.903 -28.371  1.00  0.00     0.012 A 
HETATM   30  C   UNL     1       0.671   5.523 -29.088  1.00  0.00     0.013 A 
HETATM   31  C   UNL     1       1.255   7.156 -27.354  1.00  0.00     0.012 A 
HETATM   32  C   UNL     1      -0.086   5.155 -30.207  1.00  0.00     0.011 A 
HETATM   33  C   UNL     1       1.063   8.402 -26.757  1.00  0.00     0.001 A 
HETATM   34  C   UNL     1       0.106   9.275 -27.265  1.00  0.00     0.001 A 
ENDBRANCH   2  25
TORSDOF 4
ENDMDL
MODEL 8
REMARK VINA RESULT:     -10.2      2.778      7.113
REMARK  4 active torsions:
REMARK  status: ('A' for Active; 'I' for Inactive)
REMARK    1  A    between atoms: C_2  and  C_3 
REMARK    2  A    between atoms: N_16  and  C_17 
REMARK    3  A    between atoms: C_17  and  C_18 
REMARK       I    between atoms: C_18  and  N_19 
REMARK    4  A    between atoms: N_19  and  C_20 
ROOT
HETATM    1  C   UNL     1      -2.849   3.713 -32.541  1.00  0.00     0.054 C 
HETATM    2  C   UNL     1      -4.167   3.025 -32.176  1.00  0.00     0.140 A 
HETATM    3  N   UNL     1      -4.363   3.113 -30.741  1.00  0.00    -0.321 N 
HETATM    4  C   UNL     1      -5.506   3.795 -30.401  1.00  0.00     0.326 A 
HETATM    5  O   UNL     1      -5.926   3.890 -29.262  1.00  0.00    -0.247 OA
HETATM    6  N   UNL     1      -6.075   4.279 -31.536  1.00  0.00    -0.259 N 
HETATM    7  C   UNL     1      -5.341   3.926 -32.634  1.00  0.00     0.261 A 
HETATM    8  O   UNL     1      -5.581   4.299 -33.778  1.00  0.00    -0.270 OA
HETATM    9  H   UNL     1      -3.854   2.577 -30.050  1.00  0.00     0.165 HD
ENDROOT
BRANCH   6  10
HETATM   10  C   UNL     1      -7.301   5.045 -31.570  1.00  0.00     0.240 C 
BRANCH  10  11
HETATM   11  C   UNL     1      -8.509   4.114 -31.642  1.00  0.00     0.240 C 
HETATM   12  N   UNL     1      -8.486   3.266 -32.743  1.00  0.00    -0.325 N 
HETATM   13  H   UNL     1      -7.640   3.288 -33.304  1.00  0.00     0.169 HD
HETATM   14  O   UNL     1      -9.338   4.099 -30.737  1.00  0.00    -0.271 OA
BRANCH  12  15
HETATM   15  C   UNL     1      -9.467   2.296 -33.090  1.00  0.00     0.047 A 
HETATM   16  C   UNL     1     -10.493   2.623 -34.032  1.00  0.00     0.019 A 
HETATM   17  C   UNL     1     -11.466   1.647 -34.362  1.00  0.00     0.069 A 
HETATM   18  C   UNL     1     -10.616   3.861 -34.710  1.00  0.00     0.017 A 
HETATM   19  N   UNL     1     -12.455   1.854 -35.249  1.00  0.00    -0.260 NA
HETATM   20  C   UNL     1     -11.413   0.403 -33.758  1.00  0.00     0.032 A 
HETATM   21  C   UNL     1     -12.521   3.048 -35.868  1.00  0.00     0.117 A 
HETATM   22  C   UNL     1     -11.634   4.075 -35.635  1.00  0.00     0.020 A 
HETATM   23  C   UNL     1     -10.423   0.082 -32.835  1.00  0.00     0.005 A 
HETATM   24  C   UNL     1      -9.456   1.024 -32.504  1.00  0.00     0.030 A 
ENDBRANCH  12  15
ENDBRANCH  10  11
ENDBRANCH   6  10
BRANCH   2  25
HETATM   25  C   UNL     1      -4.331   1.580 -32.648  1.00  0.00    -0.020 A 
HETATM   26  C   UNL     1      -5.504   1.179 -33.326  1.00  0.00     0.022 A 
HETATM   27  C   UNL     1      -5.714  -0.149 -33.744  1.00  0.00    -0.025 A 
HETATM   28  C   UNL     1      -4.720  -1.114 -33.493  1.00  0.00    -0.026 A 
HETATM   29  C   UNL     1      -6.897  -0.533 -34.398  1.00  0.00     0.012 A 
HETATM   30  C   UNL     1      -3.544  -0.723 -32.837  1.00  0.00     0.013 A 
HETATM   31  C   UNL     1      -4.932  -2.443 -33.901  1.00  0.00     0.012 A 
HETATM   32  C   UNL     1      -3.353   0.600 -32.423  1.00  0.00     0.011 A 
HETATM   33  C   UNL     1      -6.112  -2.811 -34.548  1.00  0.00     0.001 A 
HETATM   34  C   UNL     1      -7.094  -1.856 -34.796  1.00  0.00     0.001 A 
ENDBRANCH   2  25
TORSDOF 4
ENDMDL
MODEL 9
REMARK VINA RESULT:     -10.2      2.778      6.989
REMARK  4 active torsions:
REMARK  status: ('A' for Active; 'I' for Inactive)
REMARK    1  A    between atoms: C_2  and  C_3 
REMARK    2  A    between atoms: N_16  and  C_17 
REMARK    3  A    between atoms: C_17  and  C_18 
REMARK       I    between atoms: C_18  and  N_19 
REMARK    4  A    between atoms: N_19  and  C_20 
ROOT
HETATM    1  C   UNL     1      -2.587   3.749 -31.594  1.00  0.00     0.054 C 
HETATM    2  C   UNL     1      -4.044   3.301 -31.726  1.00  0.00     0.140 A 
HETATM    3  N   UNL     1      -4.696   3.430 -30.436  1.00  0.00    -0.321 N 
HETATM    4  C   UNL     1      -5.759   4.301 -30.462  1.00  0.00     0.326 A 
HETATM    5  O   UNL     1      -6.517   4.473 -29.525  1.00  0.00    -0.247 OA
HETATM    6  N   UNL     1      -5.823   4.869 -31.695  1.00  0.00    -0.259 N 
HETATM    7  C   UNL     1      -4.830   4.388 -32.502  1.00  0.00     0.261 A 
HETATM    8  O   UNL     1      -4.605   4.789 -33.639  1.00  0.00    -0.270 OA
HETATM    9  H   UNL     1      -4.546   2.818 -29.645  1.00  0.00     0.165 HD
ENDROOT
BRANCH   6  10
HETATM   10  C   UNL     1      -6.822   5.835 -32.095  1.00  0.00     0.240 C 
BRANCH  10  11
HETATM   11  C   UNL     1      -7.844   5.189 -33.027  1.00  0.00     0.240 C 
HETATM   12  N   UNL     1      -8.909   4.600 -32.356  1.00  0.00    -0.325 N 
HETATM   13  H   UNL     1      -8.941   4.752 -31.352  1.00  0.00     0.169 HD
HETATM   14  O   UNL     1      -7.728   5.292 -34.245  1.00  0.00    -0.271 OA
BRANCH  12  15
HETATM   15  C   UNL     1     -10.010   3.916 -32.941  1.00  0.00     0.047 A 
HETATM   16  C   UNL     1     -10.086   2.489 -32.865  1.00  0.00     0.019 A 
HETATM   17  C   UNL     1     -11.187   1.822 -33.459  1.00  0.00     0.069 A 
HETATM   18  C   UNL     1      -9.150   1.654 -32.206  1.00  0.00     0.017 A 
HETATM   19  N   UNL     1     -11.356   0.489 -33.422  1.00  0.00    -0.260 NA
HETATM   20  C   UNL     1     -12.158   2.562 -34.111  1.00  0.00     0.032 A 
HETATM   21  C   UNL     1     -10.437  -0.256 -32.778  1.00  0.00     0.117 A 
HETATM   22  C   UNL     1      -9.327   0.274 -32.160  1.00  0.00     0.020 A 
HETATM   23  C   UNL     1     -12.085   3.948 -34.196  1.00  0.00     0.005 A 
HETATM   24  C   UNL     1     -11.017   4.620 -33.613  1.00  0.00     0.030 A 
ENDBRANCH  12  15
ENDBRANCH  10  11
ENDBRANCH   6  10
BRANCH   2  25
HETATM   25  C   UNL     1      -4.275   1.903 -32.302  1.00  0.00    -0.020 A 
HETATM   26  C   UNL     1      -5.384   1.649 -33.140  1.00  0.00     0.022 A 
HETATM   27  C   UNL     1      -5.655   0.370 -33.660  1.00  0.00    -0.025 A 
HETATM   28  C   UNL     1      -4.791  -0.698 -33.349  1.00  0.00    -0.026 A 
HETATM   29  C   UNL     1      -6.775   0.132 -34.475  1.00  0.00     0.012 A 
HETATM   30  C   UNL     1      -3.677  -0.453 -32.533  1.00  0.00     0.013 A 
HETATM   31  C   UNL     1      -5.065  -1.978 -33.859  1.00  0.00     0.012 A 
HETATM   32  C   UNL     1      -3.423   0.824 -32.020  1.00  0.00     0.011 A 
HETATM   33  C   UNL     1      -6.182  -2.200 -34.667  1.00  0.00     0.001 A 
HETATM   34  C   UNL     1      -7.037  -1.145 -34.974  1.00  0.00     0.001 A 
ENDBRANCH   2  25
TORSDOF 4
ENDMDL
MODEL 10
REMARK VINA RESULT:     -10.1      2.675      9.861
REMARK  4 active torsions:
REMARK  status: ('A' for Active; 'I' for Inactive)
REMARK    1  A    between atoms: C_2  and  C_3 
REMARK    2  A    between atoms: N_16  and  C_17 
REMARK    3  A    between atoms: C_17  and  C_18 
REMARK       I    between atoms: C_18  and  N_19 
REMARK    4  A    between atoms: N_19  and  C_20 
ROOT
HETATM    1  C   UNL     1      -0.196   5.048 -30.930  1.00  0.00     0.054 C 
HETATM    2  C   UNL     1      -0.967   6.361 -31.086  1.00  0.00     0.140 A 
HETATM    3  N   UNL     1      -0.657   6.940 -32.380  1.00  0.00    -0.321 N 
HETATM    4  C   UNL     1      -1.765   7.078 -33.180  1.00  0.00     0.326 A 
HETATM    5  O   UNL     1      -1.757   7.644 -34.258  1.00  0.00    -0.247 OA
HETATM    6  N   UNL     1      -2.832   6.529 -32.541  1.00  0.00    -0.259 N 
HETATM    7  C   UNL     1      -2.463   6.034 -31.322  1.00  0.00     0.261 A 
HETATM    8  O   UNL     1      -3.208   5.412 -30.572  1.00  0.00    -0.270 OA
HETATM    9  H   UNL     1       0.217   7.387 -32.623  1.00  0.00     0.165 HD
ENDROOT
BRANCH   6  10
HETATM   10  C   UNL     1      -4.174   6.497 -33.078  1.00  0.00     0.240 C 
BRANCH  10  11
HETATM   11  C   UNL     1      -4.448   5.152 -33.747  1.00  0.00     0.240 C 
HETATM   12  N   UNL     1      -5.043   4.225 -32.900  1.00  0.00    -0.325 N 
HETATM   13  H   UNL     1      -5.316   4.570 -31.984  1.00  0.00     0.169 HD
HETATM   14  O   UNL     1      -4.227   4.997 -34.945  1.00  0.00    -0.271 OA
BRANCH  12  15
HETATM   15  C   UNL     1      -5.411   2.890 -33.223  1.00  0.00     0.047 A 
HETATM   16  C   UNL     1      -4.730   1.792 -32.606  1.00  0.00     0.019 A 
HETATM   17  C   UNL     1      -5.105   0.468 -32.944  1.00  0.00     0.069 A 
HETATM   18  C   UNL     1      -3.704   1.907 -31.636  1.00  0.00     0.017 A 
HETATM   19  N   UNL     1      -4.540  -0.626 -32.404  1.00  0.00    -0.260 NA
HETATM   20  C   UNL     1      -6.111   0.263 -33.873  1.00  0.00     0.032 A 
HETATM   21  C   UNL     1      -3.572  -0.458 -31.483  1.00  0.00     0.117 A 
HETATM   22  C   UNL     1      -3.123   0.776 -31.069  1.00  0.00     0.020 A 
HETATM   23  C   UNL     1      -6.769   1.325 -34.482  1.00  0.00     0.005 A 
HETATM   24  C   UNL     1      -6.420   2.631 -34.158  1.00  0.00     0.030 A 
ENDBRANCH  12  15
ENDBRANCH  10  11
ENDBRANCH   6  10
BRANCH   2  25
HETATM   25  C   UNL     1      -0.773   7.397 -29.979  1.00  0.00    -0.020 A 
HETATM   26  C   UNL     1       0.364   7.345 -29.142  1.00  0.00     0.022 A 
HETATM   27  C   UNL     1       0.564   8.255 -28.086  1.00  0.00    -0.025 A 
HETATM   28  C   UNL     1      -0.392   9.263 -27.857  1.00  0.00    -0.026 A 
HETATM   29  C   UNL     1       1.691   8.173 -27.251  1.00  0.00     0.012 A 
HETATM   30  C   UNL     1      -1.515   9.336 -28.693  1.00  0.00     0.013 A 
HETATM   31  C   UNL     1      -0.200  10.167 -26.798  1.00  0.00     0.012 A 
HETATM   32  C   UNL     1      -1.702   8.421 -29.736  1.00  0.00     0.011 A 
HETATM   33  C   UNL     1       0.924  10.073 -25.975  1.00  0.00     0.001 A 
HETATM   34  C   UNL     1       1.869   9.077 -26.202  1.00  0.00     0.001 A 
ENDBRANCH   2  25
TORSDOF 4
ENDMDL
