MODEL 1
REMARK VINA RESULT:      -7.4      0.000      0.000
REMARK  9 active torsions:
REMARK  status: ('A' for Active; 'I' for Inactive)
REMARK    1  A    between atoms: O_2  and  C_3 
REMARK    2  A    between atoms: C_3  and  C_4 
REMARK    3  A    between atoms: C_4  and  S_5 
REMARK    4  A    between atoms: S_5  and  C_6 
REMARK    5  A    between atoms: C_7  and  C_8 
REMARK       I    between atoms: C_8  and  N_9 
REMARK    6  A    between atoms: N_9  and  C_10 
REMARK    7  A    between atoms: C_11  and  C_12 
REMARK       I    between atoms: C_12  and  N_13 
REMARK    8  A    between atoms: N_13  and  C_14 
REMARK    9  A    between atoms: C_14  and  C_15 
ROOT
HETATM    1  C   UNL     1      -8.160   0.714 -33.069  1.00  0.00     0.050 A 
HETATM    2  C   UNL     1      -7.738   2.048 -32.956  1.00  0.00     0.058 A 
HETATM    3  C   UNL     1      -8.669   3.073 -32.721  1.00  0.00     0.019 A 
HETATM    4  C   UNL     1     -10.025   2.775 -32.614  1.00  0.00     0.001 A 
HETATM    5  C   UNL     1     -10.458   1.461 -32.774  1.00  0.00     0.002 A 
HETATM    6  C   UNL     1      -9.533   0.440 -33.013  1.00  0.00     0.030 A 
ENDROOT
BRANCH   1   7
HETATM    7  N   UNL     1      -7.302  -0.392 -33.259  1.00  0.00    -0.322 N 
HETATM    8  C   UNL     1      -6.946  -0.907 -34.498  1.00  0.00     0.257 C 
HETATM    9  O   UNL     1      -7.155  -0.346 -35.566  1.00  0.00    -0.267 OA
HETATM   10  H   UNL     1      -6.732  -0.672 -32.472  1.00  0.00     0.169 HD
BRANCH   8  11
HETATM   11  C   UNL     1      -6.175  -2.180 -34.427  1.00  0.00     0.049 A 
HETATM   12  C   UNL     1      -4.826  -2.245 -34.031  1.00  0.00     0.016 A 
HETATM   13  C   UNL     1      -4.192  -3.501 -34.016  1.00  0.00     0.019 A 
HETATM   14  C   UNL     1      -4.875  -4.665 -34.377  1.00  0.00     0.001 A 
HETATM   15  C   UNL     1      -6.203  -4.593 -34.778  1.00  0.00     0.001 A 
HETATM   16  C   UNL     1      -6.848  -3.358 -34.811  1.00  0.00     0.018 A 
BRANCH  12  17
HETATM   17  S   UNL     1      -3.789  -0.868 -33.546  1.00  0.00    -0.127 SA
BRANCH  17  18
HETATM   18  C   UNL     1      -3.565  -1.180 -31.756  1.00  0.00     0.106 C 
BRANCH  18  19
HETATM   19  C   UNL     1      -4.022  -0.028 -30.862  1.00  0.00     0.177 C 
BRANCH  19  20
HETATM   20  O   UNL     1      -5.445   0.081 -30.869  1.00  0.00    -0.395 OA
HETATM   21  C   UNL     1      -5.937   0.639 -29.659  1.00  0.00     0.201 C 
ENDBRANCH  19  20
ENDBRANCH  18  19
ENDBRANCH  17  18
ENDBRANCH  12  17
ENDBRANCH   8  11
ENDBRANCH   1   7
BRANCH   2  22
HETATM   22  C   UNL     1      -6.369   2.493 -33.300  1.00  0.00     0.254 C 
HETATM   23  N   UNL     1      -5.641   2.964 -32.232  1.00  0.00    -0.354 N 
HETATM   24  H   UNL     1      -5.875   2.500 -31.357  1.00  0.00     0.162 HD
HETATM   25  O   UNL     1      -5.998   2.470 -34.466  1.00  0.00    -0.268 OA
BRANCH  23  26
HETATM   26  C   UNL     1      -4.245   3.334 -32.381  1.00  0.00     0.155 C 
BRANCH  26  27
HETATM   27  C   UNL     1      -4.099   4.696 -33.058  1.00  0.00     0.139 C 
HETATM   28  O   UNL     1      -4.052   5.759 -32.088  1.00  0.00    -0.384 OA
HETATM   29  C   UNL     1      -3.123   6.750 -32.553  1.00  0.00     0.168 C 
HETATM   30  C   UNL     1      -2.660   6.325 -33.930  1.00  0.00     0.029 C 
HETATM   31  C   UNL     1      -2.823   4.827 -33.874  1.00  0.00     0.035 C 
ENDBRANCH  26  27
ENDBRANCH  23  26
ENDBRANCH   2  22
TORSDOF 9
ENDMDL
MODEL 2
REMARK VINA RESULT:      -7.1      1.916      5.379
REMARK  9 active torsions:
REMARK  status: ('A' for Active; 'I' for Inactive)
REMARK    1  A    between atoms: O_2  and  C_3 
REMARK    2  A    between atoms: C_3  and  C_4 
REMARK    3  A    between atoms: C_4  and  S_5 
REMARK    4  A    between atoms: S_5  and  C_6 
REMARK    5  A    between atoms: C_7  and  C_8 
REMARK       I    between atoms: C_8  and  N_9 
REMARK    6  A    between atoms: N_9  and  C_10 
REMARK    7  A    between atoms: C_11  and  C_12 
REMARK       I    between atoms: C_12  and  N_13 
REMARK    8  A    between atoms: N_13  and  C_14 
REMARK    9  A    between atoms: C_14  and  C_15 
ROOT
HETATM    1  C   UNL     1      -6.657  -1.439 -33.782  1.00  0.00     0.050 A 
HETATM    2  C   UNL     1      -5.397  -1.220 -33.205  1.00  0.00     0.058 A 
HETATM    3  C   UNL     1      -4.317  -2.064 -33.507  1.00  0.00     0.019 A 
HETATM    4  C   UNL     1      -4.492  -3.142 -34.373  1.00  0.00     0.001 A 
HETATM    5  C   UNL     1      -5.751  -3.396 -34.913  1.00  0.00     0.002 A 
HETATM    6  C   UNL     1      -6.829  -2.558 -34.609  1.00  0.00     0.030 A 
ENDROOT
BRANCH   1   7
HETATM    7  N   UNL     1      -7.792  -0.624 -33.580  1.00  0.00    -0.322 N 
HETATM    8  C   UNL     1      -8.019   0.583 -34.227  1.00  0.00     0.257 C 
HETATM    9  O   UNL     1      -7.381   0.980 -35.193  1.00  0.00    -0.267 OA
HETATM   10  H   UNL     1      -8.590  -1.050 -33.125  1.00  0.00     0.169 HD
BRANCH   8  11
HETATM   11  C   UNL     1      -9.197   1.336 -33.711  1.00  0.00     0.049 A 
HETATM   12  C   UNL     1      -9.117   2.277 -32.667  1.00  0.00     0.016 A 
HETATM   13  C   UNL     1     -10.298   2.917 -32.251  1.00  0.00     0.019 A 
HETATM   14  C   UNL     1     -11.527   2.641 -32.854  1.00  0.00     0.001 A 
HETATM   15  C   UNL     1     -11.603   1.703 -33.877  1.00  0.00     0.001 A 
HETATM   16  C   UNL     1     -10.446   1.048 -34.298  1.00  0.00     0.018 A 
BRANCH  12  17
HETATM   17  S   UNL     1      -7.642   2.752 -31.771  1.00  0.00    -0.127 SA
BRANCH  17  18
HETATM   18  C   UNL     1      -7.672   4.575 -31.941  1.00  0.00     0.106 C 
BRANCH  18  19
HETATM   19  C   UNL     1      -6.957   5.095 -33.188  1.00  0.00     0.177 C 
BRANCH  19  20
HETATM   20  O   UNL     1      -7.828   5.059 -34.318  1.00  0.00    -0.395 OA
HETATM   21  C   UNL     1      -9.047   5.742 -34.066  1.00  0.00     0.201 C 
ENDBRANCH  19  20
ENDBRANCH  18  19
ENDBRANCH  17  18
ENDBRANCH  12  17
ENDBRANCH   8  11
ENDBRANCH   1   7
BRANCH   2  22
HETATM   22  C   UNL     1      -5.174  -0.268 -32.094  1.00  0.00     0.254 C 
HETATM   23  N   UNL     1      -4.108   0.581 -32.280  1.00  0.00    -0.354 N 
HETATM   24  H   UNL     1      -3.956   0.818 -33.258  1.00  0.00     0.162 HD
HETATM   25  O   UNL     1      -5.881  -0.323 -31.095  1.00  0.00    -0.268 OA
BRANCH  23  26
HETATM   26  C   UNL     1      -3.823   1.647 -31.336  1.00  0.00     0.155 C 
BRANCH  26  27
HETATM   27  C   UNL     1      -4.011   3.022 -31.974  1.00  0.00     0.139 C 
HETATM   28  O   UNL     1      -4.275   4.027 -30.978  1.00  0.00    -0.384 OA
HETATM   29  C   UNL     1      -3.619   5.240 -31.379  1.00  0.00     0.168 C 
HETATM   30  C   UNL     1      -3.013   4.996 -32.745  1.00  0.00     0.029 C 
HETATM   31  C   UNL     1      -2.785   3.505 -32.731  1.00  0.00     0.035 C 
ENDBRANCH  26  27
ENDBRANCH  23  26
ENDBRANCH   2  22
TORSDOF 9
ENDMDL
MODEL 3
REMARK VINA RESULT:      -7.1      2.518      6.180
REMARK  9 active torsions:
REMARK  status: ('A' for Active; 'I' for Inactive)
REMARK    1  A    between atoms: O_2  and  C_3 
REMARK    2  A    between atoms: C_3  and  C_4 
REMARK    3  A    between atoms: C_4  and  S_5 
REMARK    4  A    between atoms: S_5  and  C_6 
REMARK    5  A    between atoms: C_7  and  C_8 
REMARK       I    between atoms: C_8  and  N_9 
REMARK    6  A    between atoms: N_9  and  C_10 
REMARK    7  A    between atoms: C_11  and  C_12 
REMARK       I    between atoms: C_12  and  N_13 
REMARK    8  A    between atoms: N_13  and  C_14 
REMARK    9  A    between atoms: C_14  and  C_15 
ROOT
HETATM    1  C   UNL     1      -6.342  -1.065 -33.362  1.00  0.00     0.050 A 
HETATM    2  C   UNL     1      -4.951  -1.124 -33.180  1.00  0.00     0.058 A 
HETATM    3  C   UNL     1      -4.184  -2.087 -33.855  1.00  0.00     0.019 A 
HETATM    4  C   UNL     1      -4.801  -3.006 -34.700  1.00  0.00     0.001 A 
HETATM    5  C   UNL     1      -6.186  -2.986 -34.849  1.00  0.00     0.002 A 
HETATM    6  C   UNL     1      -6.952  -2.031 -34.174  1.00  0.00     0.030 A 
ENDROOT
BRANCH   1   7
HETATM    7  N   UNL     1      -7.195  -0.109 -32.768  1.00  0.00    -0.322 N 
HETATM    8  C   UNL     1      -7.471   1.141 -33.305  1.00  0.00     0.257 C 
HETATM    9  O   UNL     1      -7.185   1.481 -34.445  1.00  0.00    -0.267 OA
HETATM   10  H   UNL     1      -7.820  -0.438 -32.043  1.00  0.00     0.169 HD
BRANCH   8  11
HETATM   11  C   UNL     1      -8.257   2.029 -32.403  1.00  0.00     0.049 A 
HETATM   12  C   UNL     1      -9.654   2.176 -32.490  1.00  0.00     0.016 A 
HETATM   13  C   UNL     1     -10.291   3.056 -31.595  1.00  0.00     0.019 A 
HETATM   14  C   UNL     1      -9.568   3.767 -30.635  1.00  0.00     0.001 A 
HETATM   15  C   UNL     1      -8.188   3.626 -30.561  1.00  0.00     0.001 A 
HETATM   16  C   UNL     1      -7.534   2.769 -31.445  1.00  0.00     0.018 A 
BRANCH  12  17
HETATM   17  S   UNL     1     -10.743   1.361 -33.654  1.00  0.00    -0.127 SA
BRANCH  17  18
HETATM   18  C   UNL     1     -11.536   2.787 -34.484  1.00  0.00     0.106 C 
BRANCH  18  19
HETATM   19  C   UNL     1     -13.063   2.721 -34.510  1.00  0.00     0.177 C 
BRANCH  19  20
HETATM   20  O   UNL     1     -13.503   1.493 -35.089  1.00  0.00    -0.395 OA
HETATM   21  C   UNL     1     -14.537   0.890 -34.325  1.00  0.00     0.201 C 
ENDBRANCH  19  20
ENDBRANCH  18  19
ENDBRANCH  17  18
ENDBRANCH  12  17
ENDBRANCH   8  11
ENDBRANCH   1   7
BRANCH   2  22
HETATM   22  C   UNL     1      -4.243  -0.365 -32.125  1.00  0.00     0.254 C 
HETATM   23  N   UNL     1      -4.150   0.986 -32.364  1.00  0.00    -0.354 N 
HETATM   24  H   UNL     1      -4.948   1.354 -32.876  1.00  0.00     0.162 HD
HETATM   25  O   UNL     1      -3.755  -0.961 -31.173  1.00  0.00    -0.268 OA
BRANCH  23  26
HETATM   26  C   UNL     1      -3.584   1.885 -31.374  1.00  0.00     0.155 C 
BRANCH  26  27
HETATM   27  C   UNL     1      -3.567   3.328 -31.878  1.00  0.00     0.139 C 
HETATM   28  O   UNL     1      -2.230   3.753 -32.196  1.00  0.00    -0.384 OA
HETATM   29  C   UNL     1      -2.290   4.598 -33.357  1.00  0.00     0.168 C 
HETATM   30  C   UNL     1      -3.753   4.786 -33.701  1.00  0.00     0.029 C 
HETATM   31  C   UNL     1      -4.376   3.529 -33.149  1.00  0.00     0.035 C 
ENDBRANCH  26  27
ENDBRANCH  23  26
ENDBRANCH   2  22
TORSDOF 9
ENDMDL
MODEL 4
REMARK VINA RESULT:      -7.1      2.705      4.321
REMARK  9 active torsions:
REMARK  status: ('A' for Active; 'I' for Inactive)
REMARK    1  A    between atoms: O_2  and  C_3 
REMARK    2  A    between atoms: C_3  and  C_4 
REMARK    3  A    between atoms: C_4  and  S_5 
REMARK    4  A    between atoms: S_5  and  C_6 
REMARK    5  A    between atoms: C_7  and  C_8 
REMARK       I    between atoms: C_8  and  N_9 
REMARK    6  A    between atoms: N_9  and  C_10 
REMARK    7  A    between atoms: C_11  and  C_12 
REMARK       I    between atoms: C_12  and  N_13 
REMARK    8  A    between atoms: N_13  and  C_14 
REMARK    9  A    between atoms: C_14  and  C_15 
ROOT
HETATM    1  C   UNL     1      -6.558   3.053 -30.820  1.00  0.00     0.050 A 
HETATM    2  C   UNL     1      -5.427   3.797 -30.447  1.00  0.00     0.058 A 
HETATM    3  C   UNL     1      -5.536   4.840 -29.513  1.00  0.00     0.019 A 
HETATM    4  C   UNL     1      -6.774   5.158 -28.960  1.00  0.00     0.001 A 
HETATM    5  C   UNL     1      -7.910   4.457 -29.360  1.00  0.00     0.002 A 
HETATM    6  C   UNL     1      -7.804   3.421 -30.293  1.00  0.00     0.030 A 
ENDROOT
BRANCH   1   7
HETATM    7  N   UNL     1      -6.547   1.959 -31.712  1.00  0.00    -0.322 N 
HETATM    8  C   UNL     1      -6.346   0.639 -31.335  1.00  0.00     0.257 C 
HETATM    9  O   UNL     1      -6.366   0.239 -30.179  1.00  0.00    -0.267 OA
HETATM   10  H   UNL     1      -6.941   2.113 -32.632  1.00  0.00     0.169 HD
BRANCH   8  11
HETATM   11  C   UNL     1      -6.204  -0.305 -32.481  1.00  0.00     0.049 A 
HETATM   12  C   UNL     1      -7.273  -0.663 -33.323  1.00  0.00     0.016 A 
HETATM   13  C   UNL     1      -7.027  -1.576 -34.364  1.00  0.00     0.019 A 
HETATM   14  C   UNL     1      -5.756  -2.116 -34.575  1.00  0.00     0.001 A 
HETATM   15  C   UNL     1      -4.707  -1.766 -33.733  1.00  0.00     0.001 A 
HETATM   16  C   UNL     1      -4.930  -0.872 -32.687  1.00  0.00     0.018 A 
BRANCH  12  17
HETATM   17  S   UNL     1      -8.964  -0.088 -33.204  1.00  0.00    -0.127 SA
BRANCH  17  18
HETATM   18  C   UNL     1      -8.995   1.242 -34.462  1.00  0.00     0.106 C 
BRANCH  18  19
HETATM   19  C   UNL     1      -9.310   2.627 -33.895  1.00  0.00     0.177 C 
BRANCH  19  20
HETATM   20  O   UNL     1      -8.147   3.454 -33.916  1.00  0.00    -0.395 OA
HETATM   21  C   UNL     1      -8.476   4.830 -33.793  1.00  0.00     0.201 C 
ENDBRANCH  19  20
ENDBRANCH  18  19
ENDBRANCH  17  18
ENDBRANCH  12  17
ENDBRANCH   8  11
ENDBRANCH   1   7
BRANCH   2  22
HETATM   22  C   UNL     1      -4.131   3.705 -31.156  1.00  0.00     0.254 C 
HETATM   23  N   UNL     1      -3.724   4.878 -31.747  1.00  0.00    -0.354 N 
HETATM   24  H   UNL     1      -4.023   5.705 -31.235  1.00  0.00     0.162 HD
HETATM   25  O   UNL     1      -3.550   2.629 -31.221  1.00  0.00    -0.268 OA
BRANCH  23  26
HETATM   26  C   UNL     1      -2.425   4.984 -32.386  1.00  0.00     0.155 C 
BRANCH  26  27
HETATM   27  C   UNL     1      -1.392   5.609 -31.449  1.00  0.00     0.139 C 
HETATM   28  O   UNL     1      -0.486   4.616 -30.935  1.00  0.00    -0.384 OA
HETATM   29  C   UNL     1       0.821   5.204 -30.845  1.00  0.00     0.168 C 
HETATM   30  C   UNL     1       0.686   6.665 -31.220  1.00  0.00     0.029 C 
HETATM   31  C   UNL     1      -0.518   6.651 -32.127  1.00  0.00     0.035 C 
ENDBRANCH  26  27
ENDBRANCH  23  26
ENDBRANCH   2  22
TORSDOF 9
ENDMDL
MODEL 5
REMARK VINA RESULT:      -7.1     14.690     16.958
REMARK  9 active torsions:
REMARK  status: ('A' for Active; 'I' for Inactive)
REMARK    1  A    between atoms: O_2  and  C_3 
REMARK    2  A    between atoms: C_3  and  C_4 
REMARK    3  A    between atoms: C_4  and  S_5 
REMARK    4  A    between atoms: S_5  and  C_6 
REMARK    5  A    between atoms: C_7  and  C_8 
REMARK       I    between atoms: C_8  and  N_9 
REMARK    6  A    between atoms: N_9  and  C_10 
REMARK    7  A    between atoms: C_11  and  C_12 
REMARK       I    between atoms: C_12  and  N_13 
REMARK    8  A    between atoms: N_13  and  C_14 
REMARK    9  A    between atoms: C_14  and  C_15 
ROOT
HETATM    1  C   UNL     1      -4.930 -13.731 -36.014  1.00  0.00     0.050 A 
HETATM    2  C   UNL     1      -6.254 -13.894 -36.451  1.00  0.00     0.058 A 
HETATM    3  C   UNL     1      -7.329 -13.582 -35.603  1.00  0.00     0.019 A 
HETATM    4  C   UNL     1      -7.089 -13.123 -34.309  1.00  0.00     0.001 A 
HETATM    5  C   UNL     1      -5.779 -13.005 -33.850  1.00  0.00     0.002 A 
HETATM    6  C   UNL     1      -4.708 -13.320 -34.692  1.00  0.00     0.030 A 
ENDROOT
BRANCH   1   7
HETATM    7  N   UNL     1      -3.783 -13.972 -36.802  1.00  0.00    -0.322 N 
HETATM    8  C   UNL     1      -3.334 -13.135 -37.813  1.00  0.00     0.257 C 
HETATM    9  O   UNL     1      -3.745 -11.998 -38.002  1.00  0.00    -0.267 OA
HETATM   10  H   UNL     1      -3.125 -14.660 -36.457  1.00  0.00     0.169 HD
BRANCH   8  11
HETATM   11  C   UNL     1      -2.208 -13.697 -38.611  1.00  0.00     0.049 A 
HETATM   12  C   UNL     1      -2.395 -14.520 -39.738  1.00  0.00     0.016 A 
HETATM   13  C   UNL     1      -1.257 -15.008 -40.406  1.00  0.00     0.019 A 
HETATM   14  C   UNL     1       0.033 -14.687 -39.978  1.00  0.00     0.001 A 
HETATM   15  C   UNL     1       0.211 -13.882 -38.858  1.00  0.00     0.001 A 
HETATM   16  C   UNL     1      -0.902 -13.397 -38.174  1.00  0.00     0.018 A 
BRANCH  12  17
HETATM   17  S   UNL     1      -3.961 -15.047 -40.426  1.00  0.00    -0.127 SA
BRANCH  17  18
HETATM   18  C   UNL     1      -4.263 -13.761 -41.695  1.00  0.00     0.106 C 
BRANCH  18  19
HETATM   19  C   UNL     1      -5.085 -14.247 -42.889  1.00  0.00     0.177 C 
BRANCH  19  20
HETATM   20  O   UNL     1      -4.279 -14.296 -44.066  1.00  0.00    -0.395 OA
HETATM   21  C   UNL     1      -3.615 -15.545 -44.198  1.00  0.00     0.201 C 
ENDBRANCH  19  20
ENDBRANCH  18  19
ENDBRANCH  17  18
ENDBRANCH  12  17
ENDBRANCH   8  11
ENDBRANCH   1   7
BRANCH   2  22
HETATM   22  C   UNL     1      -6.609 -14.604 -37.700  1.00  0.00     0.254 C 
HETATM   23  N   UNL     1      -7.285 -13.833 -38.617  1.00  0.00    -0.354 N 
HETATM   24  H   UNL     1      -7.012 -12.853 -38.590  1.00  0.00     0.162 HD
HETATM   25  O   UNL     1      -6.345 -15.793 -37.818  1.00  0.00    -0.268 OA
BRANCH  23  26
HETATM   26  C   UNL     1      -7.607 -14.347 -39.937  1.00  0.00     0.155 C 
BRANCH  26  27
HETATM   27  C   UNL     1      -8.727 -13.539 -40.590  1.00  0.00     0.139 C 
HETATM   28  O   UNL     1      -9.970 -14.265 -40.575  1.00  0.00    -0.384 OA
HETATM   29  C   UNL     1     -11.035 -13.328 -40.348  1.00  0.00     0.168 C 
HETATM   30  C   UNL     1     -10.422 -11.944 -40.333  1.00  0.00     0.029 C 
HETATM   31  C   UNL     1      -9.010 -12.224 -39.884  1.00  0.00     0.035 C 
ENDBRANCH  26  27
ENDBRANCH  23  26
ENDBRANCH   2  22
TORSDOF 9
ENDMDL
MODEL 6
REMARK VINA RESULT:      -7.0      2.934      5.870
REMARK  9 active torsions:
REMARK  status: ('A' for Active; 'I' for Inactive)
REMARK    1  A    between atoms: O_2  and  C_3 
REMARK    2  A    between atoms: C_3  and  C_4 
REMARK    3  A    between atoms: C_4  and  S_5 
REMARK    4  A    between atoms: S_5  and  C_6 
REMARK    5  A    between atoms: C_7  and  C_8 
REMARK       I    between atoms: C_8  and  N_9 
REMARK    6  A    between atoms: N_9  and  C_10 
REMARK    7  A    between atoms: C_11  and  C_12 
REMARK       I    between atoms: C_12  and  N_13 
REMARK    8  A    between atoms: N_13  and  C_14 
REMARK    9  A    between atoms: C_14  and  C_15 
ROOT
HETATM    1  C   UNL     1      -7.751   3.038 -31.442  1.00  0.00     0.050 A 
HETATM    2  C   UNL     1      -8.850   3.820 -31.833  1.00  0.00     0.058 A 
HETATM    3  C   UNL     1      -9.258   4.916 -31.055  1.00  0.00     0.019 A 
HETATM    4  C   UNL     1      -8.585   5.226 -29.876  1.00  0.00     0.001 A 
HETATM    5  C   UNL     1      -7.525   4.427 -29.455  1.00  0.00     0.002 A 
HETATM    6  C   UNL     1      -7.120   3.333 -30.225  1.00  0.00     0.030 A 
ENDROOT
BRANCH   1   7
HETATM    7  N   UNL     1      -7.234   1.947 -32.174  1.00  0.00    -0.322 N 
HETATM    8  C   UNL     1      -7.645   0.630 -32.019  1.00  0.00     0.257 C 
HETATM    9  O   UNL     1      -8.639   0.286 -31.393  1.00  0.00    -0.267 OA
HETATM   10  H   UNL     1      -6.715   2.163 -33.015  1.00  0.00     0.169 HD
BRANCH   8  11
HETATM   11  C   UNL     1      -6.825  -0.355 -32.779  1.00  0.00     0.049 A 
HETATM   12  C   UNL     1      -5.479  -0.635 -32.478  1.00  0.00     0.016 A 
HETATM   13  C   UNL     1      -4.797  -1.573 -33.274  1.00  0.00     0.019 A 
HETATM   14  C   UNL     1      -5.429  -2.223 -34.337  1.00  0.00     0.001 A 
HETATM   15  C   UNL     1      -6.755  -1.935 -34.635  1.00  0.00     0.001 A 
HETATM   16  C   UNL     1      -7.447  -1.000 -33.867  1.00  0.00     0.018 A 
BRANCH  12  17
HETATM   17  S   UNL     1      -4.502   0.102 -31.171  1.00  0.00    -0.127 SA
BRANCH  17  18
HETATM   18  C   UNL     1      -3.533   1.355 -32.090  1.00  0.00     0.106 C 
BRANCH  18  19
HETATM   19  C   UNL     1      -3.637   2.766 -31.513  1.00  0.00     0.177 C 
BRANCH  19  20
HETATM   20  O   UNL     1      -2.339   3.329 -31.325  1.00  0.00    -0.395 OA
HETATM   21  C   UNL     1      -2.336   4.733 -31.541  1.00  0.00     0.201 C 
ENDBRANCH  19  20
ENDBRANCH  18  19
ENDBRANCH  17  18
ENDBRANCH  12  17
ENDBRANCH   8  11
ENDBRANCH   1   7
BRANCH   2  22
HETATM   22  C   UNL     1      -9.774   3.427 -32.920  1.00  0.00     0.254 C 
HETATM   23  N   UNL     1     -11.105   3.486 -32.581  1.00  0.00    -0.354 N 
HETATM   24  H   UNL     1     -11.312   4.224 -31.912  1.00  0.00     0.162 HD
HETATM   25  O   UNL     1      -9.322   3.037 -33.989  1.00  0.00    -0.268 OA
BRANCH  23  26
HETATM   26  C   UNL     1     -12.142   3.239 -33.568  1.00  0.00     0.155 C 
BRANCH  26  27
HETATM   27  C   UNL     1     -12.967   2.003 -33.211  1.00  0.00     0.139 C 
HETATM   28  O   UNL     1     -14.259   2.038 -33.845  1.00  0.00    -0.384 OA
HETATM   29  C   UNL     1     -14.605   0.700 -34.233  1.00  0.00     0.168 C 
HETATM   30  C   UNL     1     -13.518  -0.217 -33.713  1.00  0.00     0.029 C 
HETATM   31  C   UNL     1     -12.324   0.701 -33.661  1.00  0.00     0.035 C 
ENDBRANCH  26  27
ENDBRANCH  23  26
ENDBRANCH   2  22
TORSDOF 9
ENDMDL
MODEL 7
REMARK VINA RESULT:      -7.0      2.032      3.626
REMARK  9 active torsions:
REMARK  status: ('A' for Active; 'I' for Inactive)
REMARK    1  A    between atoms: O_2  and  C_3 
REMARK    2  A    between atoms: C_3  and  C_4 
REMARK    3  A    between atoms: C_4  and  S_5 
REMARK    4  A    between atoms: S_5  and  C_6 
REMARK    5  A    between atoms: C_7  and  C_8 
REMARK       I    between atoms: C_8  and  N_9 
REMARK    6  A    between atoms: N_9  and  C_10 
REMARK    7  A    between atoms: C_11  and  C_12 
REMARK       I    between atoms: C_12  and  N_13 
REMARK    8  A    between atoms: N_13  and  C_14 
REMARK    9  A    between atoms: C_14  and  C_15 
ROOT
HETATM    1  C   UNL     1      -8.977   1.738 -32.697  1.00  0.00     0.050 A 
HETATM    2  C   UNL     1      -9.303   3.083 -32.464  1.00  0.00     0.058 A 
HETATM    3  C   UNL     1     -10.605   3.553 -32.700  1.00  0.00     0.019 A 
HETATM    4  C   UNL     1     -11.583   2.688 -33.186  1.00  0.00     0.001 A 
HETATM    5  C   UNL     1     -11.257   1.364 -33.466  1.00  0.00     0.002 A 
HETATM    6  C   UNL     1      -9.960   0.895 -33.236  1.00  0.00     0.030 A 
ENDROOT
BRANCH   1   7
HETATM    7  N   UNL     1      -7.714   1.157 -32.449  1.00  0.00    -0.322 N 
HETATM    8  C   UNL     1      -6.635   1.219 -33.320  1.00  0.00     0.257 C 
HETATM    9  O   UNL     1      -6.578   1.954 -34.297  1.00  0.00    -0.267 OA
HETATM   10  H   UNL     1      -7.510   0.890 -31.494  1.00  0.00     0.169 HD
BRANCH   8  11
HETATM   11  C   UNL     1      -5.474   0.380 -32.909  1.00  0.00     0.049 A 
HETATM   12  C   UNL     1      -5.321  -0.966 -33.290  1.00  0.00     0.016 A 
HETATM   13  C   UNL     1      -4.192  -1.667 -32.830  1.00  0.00     0.019 A 
HETATM   14  C   UNL     1      -3.234  -1.053 -32.020  1.00  0.00     0.001 A 
HETATM   15  C   UNL     1      -3.396   0.273 -31.638  1.00  0.00     0.001 A 
HETATM   16  C   UNL     1      -4.513   0.984 -32.073  1.00  0.00     0.018 A 
BRANCH  12  17
HETATM   17  S   UNL     1      -6.442  -1.921 -34.308  1.00  0.00    -0.127 SA
BRANCH  17  18
HETATM   18  C   UNL     1      -5.312  -3.155 -35.051  1.00  0.00     0.106 C 
BRANCH  18  19
HETATM   19  C   UNL     1      -5.942  -4.533 -35.254  1.00  0.00     0.177 C 
BRANCH  19  20
HETATM   20  O   UNL     1      -5.201  -5.532 -34.553  1.00  0.00    -0.395 OA
HETATM   21  C   UNL     1      -4.073  -4.982 -33.888  1.00  0.00     0.201 C 
ENDBRANCH  19  20
ENDBRANCH  18  19
ENDBRANCH  17  18
ENDBRANCH  12  17
ENDBRANCH   8  11
ENDBRANCH   1   7
BRANCH   2  22
HETATM   22  C   UNL     1      -8.286   4.123 -32.192  1.00  0.00     0.254 C 
HETATM   23  N   UNL     1      -7.623   4.574 -33.309  1.00  0.00    -0.354 N 
HETATM   24  H   UNL     1      -8.204   4.565 -34.146  1.00  0.00     0.162 HD
HETATM   25  O   UNL     1      -8.063   4.468 -31.038  1.00  0.00    -0.268 OA
BRANCH  23  26
HETATM   26  C   UNL     1      -6.675   5.671 -33.228  1.00  0.00     0.155 C 
BRANCH  26  27
HETATM   27  C   UNL     1      -5.243   5.186 -33.446  1.00  0.00     0.139 C 
HETATM   28  O   UNL     1      -4.977   4.956 -34.842  1.00  0.00    -0.384 OA
HETATM   29  C   UNL     1      -3.625   5.358 -35.113  1.00  0.00     0.168 C 
HETATM   30  C   UNL     1      -2.997   5.752 -33.793  1.00  0.00     0.029 C 
HETATM   31  C   UNL     1      -4.194   6.186 -32.987  1.00  0.00     0.035 C 
ENDBRANCH  26  27
ENDBRANCH  23  26
ENDBRANCH   2  22
TORSDOF 9
ENDMDL
MODEL 8
REMARK VINA RESULT:      -6.9      2.229      6.810
REMARK  9 active torsions:
REMARK  status: ('A' for Active; 'I' for Inactive)
REMARK    1  A    between atoms: O_2  and  C_3 
REMARK    2  A    between atoms: C_3  and  C_4 
REMARK    3  A    between atoms: C_4  and  S_5 
REMARK    4  A    between atoms: S_5  and  C_6 
REMARK    5  A    between atoms: C_7  and  C_8 
REMARK       I    between atoms: C_8  and  N_9 
REMARK    6  A    between atoms: N_9  and  C_10 
REMARK    7  A    between atoms: C_11  and  C_12 
REMARK       I    between atoms: C_12  and  N_13 
REMARK    8  A    between atoms: N_13  and  C_14 
REMARK    9  A    between atoms: C_14  and  C_15 
ROOT
HETATM    1  C   UNL     1      -5.376  -1.016 -33.914  1.00  0.00     0.050 A 
HETATM    2  C   UNL     1      -6.738  -1.252 -34.163  1.00  0.00     0.058 A 
HETATM    3  C   UNL     1      -7.188  -2.536 -34.507  1.00  0.00     0.019 A 
HETATM    4  C   UNL     1      -6.282  -3.588 -34.622  1.00  0.00     0.001 A 
HETATM    5  C   UNL     1      -4.924  -3.354 -34.425  1.00  0.00     0.002 A 
HETATM    6  C   UNL     1      -4.472  -2.074 -34.087  1.00  0.00     0.030 A 
ENDROOT
BRANCH   1   7
HETATM    7  N   UNL     1      -4.829   0.224 -33.519  1.00  0.00    -0.322 N 
HETATM    8  C   UNL     1      -5.214   0.928 -32.387  1.00  0.00     0.257 C 
HETATM    9  O   UNL     1      -5.910   0.469 -31.491  1.00  0.00    -0.267 OA
HETATM   10  H   UNL     1      -3.952   0.496 -33.945  1.00  0.00     0.169 HD
BRANCH   8  11
HETATM   11  C   UNL     1      -4.615   2.289 -32.285  1.00  0.00     0.049 A 
HETATM   12  C   UNL     1      -5.231   3.444 -32.801  1.00  0.00     0.016 A 
HETATM   13  C   UNL     1      -4.565   4.676 -32.663  1.00  0.00     0.019 A 
HETATM   14  C   UNL     1      -3.326   4.766 -32.024  1.00  0.00     0.001 A 
HETATM   15  C   UNL     1      -2.718   3.620 -31.526  1.00  0.00     0.001 A 
HETATM   16  C   UNL     1      -3.354   2.387 -31.663  1.00  0.00     0.018 A 
BRANCH  12  17
HETATM   17  S   UNL     1      -6.802   3.525 -33.655  1.00  0.00    -0.127 SA
BRANCH  17  18
HETATM   18  C   UNL     1      -7.667   4.843 -32.723  1.00  0.00     0.106 C 
BRANCH  18  19
HETATM   19  C   UNL     1      -8.545   4.325 -31.584  1.00  0.00     0.177 C 
BRANCH  19  20
HETATM   20  O   UNL     1      -7.994   3.132 -31.028  1.00  0.00    -0.395 OA
HETATM   21  C   UNL     1      -7.491   3.344 -29.717  1.00  0.00     0.201 C 
ENDBRANCH  19  20
ENDBRANCH  18  19
ENDBRANCH  17  18
ENDBRANCH  12  17
ENDBRANCH   8  11
ENDBRANCH   1   7
BRANCH   2  22
HETATM   22  C   UNL     1      -7.730  -0.163 -34.311  1.00  0.00     0.254 C 
HETATM   23  N   UNL     1      -8.608  -0.050 -33.260  1.00  0.00    -0.354 N 
HETATM   24  H   UNL     1      -8.195  -0.311 -32.367  1.00  0.00     0.162 HD
HETATM   25  O   UNL     1      -7.747   0.506 -35.336  1.00  0.00    -0.268 OA
BRANCH  23  26
HETATM   26  C   UNL     1      -9.571   1.035 -33.199  1.00  0.00     0.155 C 
BRANCH  26  27
HETATM   27  C   UNL     1     -10.798   0.740 -34.060  1.00  0.00     0.139 C 
HETATM   28  O   UNL     1     -11.797   0.020 -33.314  1.00  0.00    -0.384 OA
HETATM   29  C   UNL     1     -13.090   0.491 -33.724  1.00  0.00     0.168 C 
HETATM   30  C   UNL     1     -12.875   1.472 -34.858  1.00  0.00     0.029 C 
HETATM   31  C   UNL     1     -11.490   1.994 -34.570  1.00  0.00     0.035 C 
ENDBRANCH  26  27
ENDBRANCH  23  26
ENDBRANCH   2  22
TORSDOF 9
ENDMDL
MODEL 9
REMARK VINA RESULT:      -6.7      2.685      7.459
REMARK  9 active torsions:
REMARK  status: ('A' for Active; 'I' for Inactive)
REMARK    1  A    between atoms: O_2  and  C_3 
REMARK    2  A    between atoms: C_3  and  C_4 
REMARK    3  A    between atoms: C_4  and  S_5 
REMARK    4  A    between atoms: S_5  and  C_6 
REMARK    5  A    between atoms: C_7  and  C_8 
REMARK       I    between atoms: C_8  and  N_9 
REMARK    6  A    between atoms: N_9  and  C_10 
REMARK    7  A    between atoms: C_11  and  C_12 
REMARK       I    between atoms: C_12  and  N_13 
REMARK    8  A    between atoms: N_13  and  C_14 
REMARK    9  A    between atoms: C_14  and  C_15 
ROOT
HETATM    1  C   UNL     1      -6.087   0.719 -33.140  1.00  0.00     0.050 A 
HETATM    2  C   UNL     1      -7.428   0.352 -33.337  1.00  0.00     0.058 A 
HETATM    3  C   UNL     1      -7.752  -0.904 -33.874  1.00  0.00     0.019 A 
HETATM    4  C   UNL     1      -6.742  -1.793 -34.233  1.00  0.00     0.001 A 
HETATM    5  C   UNL     1      -5.408  -1.419 -34.087  1.00  0.00     0.002 A 
HETATM    6  C   UNL     1      -5.083  -0.167 -33.557  1.00  0.00     0.030 A 
ENDROOT
BRANCH   1   7
HETATM    7  N   UNL     1      -5.657   1.936 -32.566  1.00  0.00    -0.322 N 
HETATM    8  C   UNL     1      -5.093   2.054 -31.304  1.00  0.00     0.257 C 
HETATM    9  O   UNL     1      -4.708   1.109 -30.628  1.00  0.00    -0.267 OA
HETATM   10  H   UNL     1      -5.533   2.721 -33.193  1.00  0.00     0.169 HD
BRANCH   8  11
HETATM   11  C   UNL     1      -4.888   3.462 -30.860  1.00  0.00     0.049 A 
HETATM   12  C   UNL     1      -3.899   4.305 -31.400  1.00  0.00     0.016 A 
HETATM   13  C   UNL     1      -3.786   5.613 -30.893  1.00  0.00     0.019 A 
HETATM   14  C   UNL     1      -4.631   6.078 -29.883  1.00  0.00     0.001 A 
HETATM   15  C   UNL     1      -5.598   5.237 -29.347  1.00  0.00     0.001 A 
HETATM   16  C   UNL     1      -5.721   3.934 -29.825  1.00  0.00     0.018 A 
BRANCH  12  17
HETATM   17  S   UNL     1      -2.724   3.886 -32.684  1.00  0.00    -0.127 SA
BRANCH  17  18
HETATM   18  C   UNL     1      -3.092   5.151 -33.955  1.00  0.00     0.106 C 
BRANCH  18  19
HETATM   19  C   UNL     1      -1.850   5.808 -34.557  1.00  0.00     0.177 C 
BRANCH  19  20
HETATM   20  O   UNL     1      -1.826   7.204 -34.261  1.00  0.00    -0.395 OA
HETATM   21  C   UNL     1      -1.267   7.461 -32.980  1.00  0.00     0.201 C 
ENDBRANCH  19  20
ENDBRANCH  18  19
ENDBRANCH  17  18
ENDBRANCH  12  17
ENDBRANCH   8  11
ENDBRANCH   1   7
BRANCH   2  22
HETATM   22  C   UNL     1      -8.550   1.310 -33.225  1.00  0.00     0.254 C 
HETATM   23  N   UNL     1      -9.178   1.590 -34.415  1.00  0.00    -0.354 N 
HETATM   24  H   UNL     1      -9.180   0.800 -35.058  1.00  0.00     0.162 HD
HETATM   25  O   UNL     1      -8.808   1.818 -32.141  1.00  0.00    -0.268 OA
BRANCH  23  26
HETATM   26  C   UNL     1     -10.366   2.423 -34.460  1.00  0.00     0.155 C 
BRANCH  26  27
HETATM   27  C   UNL     1     -11.612   1.638 -34.052  1.00  0.00     0.139 C 
HETATM   28  O   UNL     1     -12.358   2.335 -33.037  1.00  0.00    -0.384 OA
HETATM   29  C   UNL     1     -13.758   2.132 -33.288  1.00  0.00     0.168 C 
HETATM   30  C   UNL     1     -13.872   1.171 -34.453  1.00  0.00     0.029 C 
HETATM   31  C   UNL     1     -12.586   1.418 -35.199  1.00  0.00     0.035 C 
ENDBRANCH  26  27
ENDBRANCH  23  26
ENDBRANCH   2  22
TORSDOF 9
ENDMDL
MODEL 10
REMARK VINA RESULT:      -6.7     14.914     16.592
REMARK  9 active torsions:
REMARK  status: ('A' for Active; 'I' for Inactive)
REMARK    1  A    between atoms: O_2  and  C_3 
REMARK    2  A    between atoms: C_3  and  C_4 
REMARK    3  A    between atoms: C_4  and  S_5 
REMARK    4  A    between atoms: S_5  and  C_6 
REMARK    5  A    between atoms: C_7  and  C_8 
REMARK       I    between atoms: C_8  and  N_9 
REMARK    6  A    between atoms: N_9  and  C_10 
REMARK    7  A    between atoms: C_11  and  C_12 
REMARK       I    between atoms: C_12  and  N_13 
REMARK    8  A    between atoms: N_13  and  C_14 
REMARK    9  A    between atoms: C_14  and  C_15 
ROOT
HETATM    1  C   UNL     1      -5.671 -13.411 -39.003  1.00  0.00     0.050 A 
HETATM    2  C   UNL     1      -6.948 -13.531 -38.432  1.00  0.00     0.058 A 
HETATM    3  C   UNL     1      -8.070 -12.979 -39.070  1.00  0.00     0.019 A 
HETATM    4  C   UNL     1      -7.923 -12.290 -40.272  1.00  0.00     0.001 A 
HETATM    5  C   UNL     1      -6.654 -12.123 -40.821  1.00  0.00     0.002 A 
HETATM    6  C   UNL     1      -5.535 -12.668 -40.184  1.00  0.00     0.030 A 
ENDROOT
BRANCH   1   7
HETATM    7  N   UNL     1      -4.490 -13.967 -38.467  1.00  0.00    -0.322 N 
HETATM    8  C   UNL     1      -3.604 -13.286 -37.643  1.00  0.00     0.257 C 
HETATM    9  O   UNL     1      -3.841 -12.209 -37.114  1.00  0.00    -0.267 OA
HETATM   10  H   UNL     1      -4.407 -14.975 -38.486  1.00  0.00     0.169 HD
BRANCH   8  11
HETATM   11  C   UNL     1      -2.347 -14.034 -37.354  1.00  0.00     0.049 A 
HETATM   12  C   UNL     1      -1.382 -14.328 -38.335  1.00  0.00     0.016 A 
HETATM   13  C   UNL     1      -0.239 -15.055 -37.952  1.00  0.00     0.019 A 
HETATM   14  C   UNL     1      -0.051 -15.474 -36.633  1.00  0.00     0.001 A 
HETATM   15  C   UNL     1      -1.013 -15.189 -35.671  1.00  0.00     0.001 A 
HETATM   16  C   UNL     1      -2.159 -14.481 -36.031  1.00  0.00     0.018 A 
BRANCH  12  17
HETATM   17  S   UNL     1      -1.452 -13.887 -40.069  1.00  0.00    -0.127 SA
BRANCH  17  18
HETATM   18  C   UNL     1      -1.851 -15.496 -40.848  1.00  0.00     0.106 C 
BRANCH  18  19
HETATM   19  C   UNL     1      -2.457 -15.376 -42.246  1.00  0.00     0.177 C 
BRANCH  19  20
HETATM   20  O   UNL     1      -3.257 -14.199 -42.348  1.00  0.00    -0.395 OA
HETATM   21  C   UNL     1      -4.449 -14.433 -43.084  1.00  0.00     0.201 C 
ENDBRANCH  19  20
ENDBRANCH  18  19
ENDBRANCH  17  18
ENDBRANCH  12  17
ENDBRANCH   8  11
ENDBRANCH   1   7
BRANCH   2  22
HETATM   22  C   UNL     1      -7.171 -14.019 -37.053  1.00  0.00     0.254 C 
HETATM   23  N   UNL     1      -6.805 -13.129 -36.071  1.00  0.00    -0.354 N 
HETATM   24  H   UNL     1      -6.933 -12.158 -36.347  1.00  0.00     0.162 HD
HETATM   25  O   UNL     1      -7.596 -15.153 -36.871  1.00  0.00    -0.268 OA
BRANCH  23  26
HETATM   26  C   UNL     1      -7.062 -13.410 -34.669  1.00  0.00     0.155 C 
BRANCH  26  27
HETATM   27  C   UNL     1      -5.807 -13.920 -33.964  1.00  0.00     0.139 C 
HETATM   28  O   UNL     1      -5.782 -13.513 -32.584  1.00  0.00    -0.384 OA
HETATM   29  C   UNL     1      -5.218 -14.583 -31.809  1.00  0.00     0.168 C 
HETATM   30  C   UNL     1      -4.773 -15.657 -32.780  1.00  0.00     0.029 C 
HETATM   31  C   UNL     1      -5.702 -15.437 -33.947  1.00  0.00     0.035 C 
ENDBRANCH  26  27
ENDBRANCH  23  26
ENDBRANCH   2  22
TORSDOF 9
ENDMDL
