MODEL 1
REMARK VINA RESULT:      -9.0      0.000      0.000
REMARK  7 active torsions:
REMARK  status: ('A' for Active; 'I' for Inactive)
REMARK    1  A    between atoms: O_2  and  C_3 
REMARK    2  A    between atoms: C_6  and  C_7 
REMARK    3  A    between atoms: C_7  and  C_8 
REMARK    4  A    between atoms: C_7  and  C_14 
REMARK    5  A    between atoms: C_14  and  C_15 
REMARK       I    between atoms: C_15  and  N_16 
REMARK    6  A    between atoms: N_16  and  C_17 
REMARK    7  A    between atoms: C_17  and  C_18 
ROOT
HETATM    1  C   UNL     1      -5.824  -0.738 -33.442  1.00  0.00     0.060 C 
ENDROOT
BRANCH   1   2
HETATM    2  C   UNL     1      -7.239  -0.136 -33.449  1.00  0.00    -0.049 A 
HETATM    3  C   UNL     1      -7.778   0.537 -34.557  1.00  0.00     0.010 A 
HETATM    4  C   UNL     1      -9.065   1.084 -34.515  1.00  0.00     0.037 A 
HETATM    5  C   UNL     1      -9.847   0.989 -33.365  1.00  0.00     0.068 A 
HETATM    6  C   UNL     1      -9.319   0.355 -32.246  1.00  0.00     0.037 A 
HETATM    7  C   UNL     1      -8.029  -0.191 -32.286  1.00  0.00     0.010 A 
BRANCH   5   8
HETATM    8  O   UNL     1     -11.086   1.560 -33.461  1.00  0.00    -0.356 OA
HETATM    9  C   UNL     1     -11.397   2.216 -34.683  1.00  0.00     0.210 C 
ENDBRANCH   5   8
ENDBRANCH   1   2
BRANCH   1  10
HETATM   10  C   UNL     1      -5.722  -2.162 -33.991  1.00  0.00    -0.049 A 
HETATM   11  C   UNL     1      -6.827  -2.813 -34.568  1.00  0.00     0.008 A 
HETATM   12  C   UNL     1      -6.714  -4.119 -35.046  1.00  0.00     0.001 A 
HETATM   13  C   UNL     1      -5.499  -4.794 -34.955  1.00  0.00     0.000 A 
HETATM   14  C   UNL     1      -4.395  -4.163 -34.385  1.00  0.00     0.001 A 
HETATM   15  C   UNL     1      -4.504  -2.856 -33.908  1.00  0.00     0.008 A 
ENDBRANCH   1  10
BRANCH   1  16
HETATM   16  C   UNL     1      -5.153  -0.628 -32.052  1.00  0.00     0.116 C 
BRANCH  16  17
HETATM   17  C   UNL     1      -4.378   0.656 -31.829  1.00  0.00     0.218 C 
HETATM   18  N   UNL     1      -5.063   1.651 -31.185  1.00  0.00    -0.355 N 
HETATM   19  H   UNL     1      -6.069   1.616 -31.069  1.00  0.00     0.162 HD
HETATM   20  O   UNL     1      -3.193   0.759 -32.138  1.00  0.00    -0.274 OA
BRANCH  18  21
HETATM   21  C   UNL     1      -4.504   2.974 -31.045  1.00  0.00     0.184 C 
BRANCH  21  22
HETATM   22  C   UNL     1      -4.684   3.715 -32.333  1.00  0.00     0.080 A 
HETATM   23  N   UNL     1      -5.919   3.965 -32.838  1.00  0.00    -0.177 NA
HETATM   24  N   UNL     1      -5.687   4.641 -33.992  1.00  0.00    -0.281 N 
HETATM   25  H   UNL     1      -6.480   4.937 -34.554  1.00  0.00     0.189 HD
HETATM   26  C   UNL     1      -4.370   4.816 -34.205  1.00  0.00     0.036 A 
HETATM   27  C   UNL     1      -3.698   4.240 -33.173  1.00  0.00    -0.006 A 
HETATM   28  C   UNL     1      -3.533   5.453 -35.229  1.00  0.00     0.059 C 
HETATM   29  C   UNL     1      -2.242   4.388 -33.317  1.00  0.00     0.043 C 
HETATM   30  C   UNL     1      -2.117   4.940 -34.784  1.00  0.00     0.011 C 
ENDBRANCH  21  22
ENDBRANCH  18  21
ENDBRANCH  16  17
ENDBRANCH   1  16
TORSDOF 7
ENDMDL
MODEL 2
REMARK VINA RESULT:      -9.0      1.188      1.767
REMARK  7 active torsions:
REMARK  status: ('A' for Active; 'I' for Inactive)
REMARK    1  A    between atoms: O_2  and  C_3 
REMARK    2  A    between atoms: C_6  and  C_7 
REMARK    3  A    between atoms: C_7  and  C_8 
REMARK    4  A    between atoms: C_7  and  C_14 
REMARK    5  A    between atoms: C_14  and  C_15 
REMARK       I    between atoms: C_15  and  N_16 
REMARK    6  A    between atoms: N_16  and  C_17 
REMARK    7  A    between atoms: C_17  and  C_18 
ROOT
HETATM    1  C   UNL     1      -6.076  -0.328 -33.839  1.00  0.00     0.060 C 
ENDROOT
BRANCH   1   2
HETATM    2  C   UNL     1      -7.559   0.068 -33.748  1.00  0.00    -0.049 A 
HETATM    3  C   UNL     1      -8.208   0.832 -34.730  1.00  0.00     0.010 A 
HETATM    4  C   UNL     1      -9.556   1.185 -34.599  1.00  0.00     0.037 A 
HETATM    5  C   UNL     1     -10.292   0.798 -33.481  1.00  0.00     0.068 A 
HETATM    6  C   UNL     1      -9.659   0.068 -32.480  1.00  0.00     0.037 A 
HETATM    7  C   UNL     1      -8.308  -0.283 -32.610  1.00  0.00     0.010 A 
BRANCH   5   8
HETATM    8  O   UNL     1     -11.598   1.203 -33.482  1.00  0.00    -0.356 OA
HETATM    9  C   UNL     1     -12.150   1.584 -34.736  1.00  0.00     0.210 C 
ENDBRANCH   5   8
ENDBRANCH   1   2
BRANCH   1  10
HETATM   10  C   UNL     1      -5.817  -1.807 -34.132  1.00  0.00    -0.049 A 
HETATM   11  C   UNL     1      -4.562  -2.398 -33.901  1.00  0.00     0.008 A 
HETATM   12  C   UNL     1      -4.345  -3.745 -34.191  1.00  0.00     0.001 A 
HETATM   13  C   UNL     1      -5.375  -4.521 -34.717  1.00  0.00     0.000 A 
HETATM   14  C   UNL     1      -6.624  -3.951 -34.953  1.00  0.00     0.001 A 
HETATM   15  C   UNL     1      -6.845  -2.604 -34.661  1.00  0.00     0.008 A 
ENDBRANCH   1  10
BRANCH   1  16
HETATM   16  C   UNL     1      -5.272   0.143 -32.604  1.00  0.00     0.116 C 
BRANCH  16  17
HETATM   17  C   UNL     1      -5.535   1.578 -32.193  1.00  0.00     0.218 C 
HETATM   18  N   UNL     1      -5.467   2.499 -33.203  1.00  0.00    -0.355 N 
HETATM   19  H   UNL     1      -5.057   2.276 -34.102  1.00  0.00     0.162 HD
HETATM   20  O   UNL     1      -5.862   1.875 -31.046  1.00  0.00    -0.274 OA
BRANCH  18  21
HETATM   21  C   UNL     1      -5.542   3.916 -32.931  1.00  0.00     0.184 C 
BRANCH  21  22
HETATM   22  C   UNL     1      -4.457   4.612 -33.689  1.00  0.00     0.080 A 
HETATM   23  N   UNL     1      -4.639   5.023 -34.970  1.00  0.00    -0.177 NA
HETATM   24  N   UNL     1      -3.460   5.600 -35.317  1.00  0.00    -0.281 N 
HETATM   25  H   UNL     1      -3.360   5.986 -36.251  1.00  0.00     0.189 HD
HETATM   26  C   UNL     1      -2.575   5.561 -34.303  1.00  0.00     0.036 A 
HETATM   27  C   UNL     1      -3.170   4.940 -33.250  1.00  0.00    -0.006 A 
HETATM   28  C   UNL     1      -1.198   6.014 -34.076  1.00  0.00     0.059 C 
HETATM   29  C   UNL     1      -2.275   4.857 -32.086  1.00  0.00     0.043 C 
HETATM   30  C   UNL     1      -0.901   5.313 -32.702  1.00  0.00     0.011 C 
ENDBRANCH  21  22
ENDBRANCH  18  21
ENDBRANCH  16  17
ENDBRANCH   1  16
TORSDOF 7
ENDMDL
MODEL 3
REMARK VINA RESULT:      -9.0      2.074      2.725
REMARK  7 active torsions:
REMARK  status: ('A' for Active; 'I' for Inactive)
REMARK    1  A    between atoms: O_2  and  C_3 
REMARK    2  A    between atoms: C_6  and  C_7 
REMARK    3  A    between atoms: C_7  and  C_8 
REMARK    4  A    between atoms: C_7  and  C_14 
REMARK    5  A    between atoms: C_14  and  C_15 
REMARK       I    between atoms: C_15  and  N_16 
REMARK    6  A    between atoms: N_16  and  C_17 
REMARK    7  A    between atoms: C_17  and  C_18 
ROOT
HETATM    1  C   UNL     1      -5.605  -0.700 -33.700  1.00  0.00     0.060 C 
ENDROOT
BRANCH   1   2
HETATM    2  C   UNL     1      -7.012  -0.092 -33.582  1.00  0.00    -0.049 A 
HETATM    3  C   UNL     1      -7.784  -0.171 -32.412  1.00  0.00     0.010 A 
HETATM    4  C   UNL     1      -9.068   0.382 -32.353  1.00  0.00     0.037 A 
HETATM    5  C   UNL     1      -9.625   1.018 -33.460  1.00  0.00     0.068 A 
HETATM    6  C   UNL     1      -8.890   1.080 -34.639  1.00  0.00     0.037 A 
HETATM    7  C   UNL     1      -7.605   0.523 -34.700  1.00  0.00     0.010 A 
BRANCH   5   8
HETATM    8  O   UNL     1     -10.882   1.520 -33.265  1.00  0.00    -0.356 OA
HETATM    9  C   UNL     1     -11.586   1.954 -34.422  1.00  0.00     0.210 C 
ENDBRANCH   5   8
ENDBRANCH   1   2
BRANCH   1  10
HETATM   10  C   UNL     1      -5.568  -2.175 -34.105  1.00  0.00    -0.049 A 
HETATM   11  C   UNL     1      -6.691  -2.820 -34.651  1.00  0.00     0.008 A 
HETATM   12  C   UNL     1      -6.638  -4.171 -34.999  1.00  0.00     0.001 A 
HETATM   13  C   UNL     1      -5.465  -4.896 -34.805  1.00  0.00     0.000 A 
HETATM   14  C   UNL     1      -4.343  -4.272 -34.264  1.00  0.00     0.001 A 
HETATM   15  C   UNL     1      -4.392  -2.920 -33.918  1.00  0.00     0.008 A 
ENDBRANCH   1  10
BRANCH   1  16
HETATM   16  C   UNL     1      -4.757  -0.452 -32.429  1.00  0.00     0.116 C 
BRANCH  16  17
HETATM   17  C   UNL     1      -4.649   1.005 -32.022  1.00  0.00     0.218 C 
HETATM   18  N   UNL     1      -5.168   1.310 -30.793  1.00  0.00    -0.355 N 
HETATM   19  H   UNL     1      -5.772   0.668 -30.295  1.00  0.00     0.162 HD
HETATM   20  O   UNL     1      -4.065   1.831 -32.720  1.00  0.00    -0.274 OA
BRANCH  18  21
HETATM   21  C   UNL     1      -5.273   2.679 -30.345  1.00  0.00     0.184 C 
BRANCH  21  22
HETATM   22  C   UNL     1      -6.655   3.176 -30.630  1.00  0.00     0.080 A 
HETATM   23  N   UNL     1      -7.631   3.135 -29.687  1.00  0.00    -0.177 NA
HETATM   24  N   UNL     1      -8.723   3.660 -30.299  1.00  0.00    -0.281 N 
HETATM   25  H   UNL     1      -9.591   3.729 -29.777  1.00  0.00     0.189 HD
HETATM   26  C   UNL     1      -8.451   4.021 -31.567  1.00  0.00     0.036 A 
HETATM   27  C   UNL     1      -7.147   3.728 -31.816  1.00  0.00    -0.006 A 
HETATM   28  C   UNL     1      -9.189   4.629 -32.681  1.00  0.00     0.059 C 
HETATM   29  C   UNL     1      -6.756   4.097 -33.185  1.00  0.00     0.043 C 
HETATM   30  C   UNL     1      -8.146   4.436 -33.839  1.00  0.00     0.011 C 
ENDBRANCH  21  22
ENDBRANCH  18  21
ENDBRANCH  16  17
ENDBRANCH   1  16
TORSDOF 7
ENDMDL
MODEL 4
REMARK VINA RESULT:      -8.9      1.444      2.079
REMARK  7 active torsions:
REMARK  status: ('A' for Active; 'I' for Inactive)
REMARK    1  A    between atoms: O_2  and  C_3 
REMARK    2  A    between atoms: C_6  and  C_7 
REMARK    3  A    between atoms: C_7  and  C_8 
REMARK    4  A    between atoms: C_7  and  C_14 
REMARK    5  A    between atoms: C_14  and  C_15 
REMARK       I    between atoms: C_15  and  N_16 
REMARK    6  A    between atoms: N_16  and  C_17 
REMARK    7  A    between atoms: C_17  and  C_18 
ROOT
HETATM    1  C   UNL     1      -5.117  -1.055 -33.460  1.00  0.00     0.060 C 
ENDROOT
BRANCH   1   2
HETATM    2  C   UNL     1      -6.478  -0.368 -33.656  1.00  0.00    -0.049 A 
HETATM    3  C   UNL     1      -6.778   0.432 -34.769  1.00  0.00     0.010 A 
HETATM    4  C   UNL     1      -8.025   1.053 -34.900  1.00  0.00     0.037 A 
HETATM    5  C   UNL     1      -9.005   0.904 -33.921  1.00  0.00     0.068 A 
HETATM    6  C   UNL     1      -8.717   0.142 -32.794  1.00  0.00     0.037 A 
HETATM    7  C   UNL     1      -7.467  -0.478 -32.661  1.00  0.00     0.010 A 
BRANCH   5   8
HETATM    8  O   UNL     1     -10.179   1.558 -34.176  1.00  0.00    -0.356 OA
HETATM    9  C   UNL     1     -11.363   0.980 -33.642  1.00  0.00     0.210 C 
ENDBRANCH   5   8
ENDBRANCH   1   2
BRANCH   1  10
HETATM   10  C   UNL     1      -5.055  -2.515 -33.913  1.00  0.00    -0.049 A 
HETATM   11  C   UNL     1      -6.091  -3.101 -34.661  1.00  0.00     0.008 A 
HETATM   12  C   UNL     1      -6.021  -4.440 -35.049  1.00  0.00     0.001 A 
HETATM   13  C   UNL     1      -4.917  -5.212 -34.695  1.00  0.00     0.000 A 
HETATM   14  C   UNL     1      -3.882  -4.646 -33.954  1.00  0.00     0.001 A 
HETATM   15  C   UNL     1      -3.948  -3.307 -33.566  1.00  0.00     0.008 A 
ENDBRANCH   1  10
BRANCH   1  16
HETATM   16  C   UNL     1      -4.590  -0.900 -32.013  1.00  0.00     0.116 C 
BRANCH  16  17
HETATM   17  C   UNL     1      -4.411   0.536 -31.562  1.00  0.00     0.218 C 
HETATM   18  N   UNL     1      -3.781   1.359 -32.456  1.00  0.00    -0.355 N 
HETATM   19  H   UNL     1      -3.278   0.992 -33.255  1.00  0.00     0.162 HD
HETATM   20  O   UNL     1      -4.871   0.943 -30.497  1.00  0.00    -0.274 OA
BRANCH  18  21
HETATM   21  C   UNL     1      -3.406   2.706 -32.098  1.00  0.00     0.184 C 
BRANCH  21  22
HETATM   22  C   UNL     1      -4.282   3.666 -32.840  1.00  0.00     0.080 A 
HETATM   23  N   UNL     1      -3.765   4.558 -33.723  1.00  0.00    -0.177 NA
HETATM   24  N   UNL     1      -4.841   5.244 -34.187  1.00  0.00    -0.281 N 
HETATM   25  H   UNL     1      -4.694   5.980 -34.872  1.00  0.00     0.189 HD
HETATM   26  C   UNL     1      -5.984   4.805 -33.630  1.00  0.00     0.036 A 
HETATM   27  C   UNL     1      -5.671   3.802 -32.766  1.00  0.00    -0.006 A 
HETATM   28  C   UNL     1      -7.411   5.130 -33.733  1.00  0.00     0.059 C 
HETATM   29  C   UNL     1      -6.867   3.252 -32.109  1.00  0.00     0.043 C 
HETATM   30  C   UNL     1      -7.973   4.288 -32.532  1.00  0.00     0.011 C 
ENDBRANCH  21  22
ENDBRANCH  18  21
ENDBRANCH  16  17
ENDBRANCH   1  16
TORSDOF 7
ENDMDL
MODEL 5
REMARK VINA RESULT:      -8.8      1.504      1.923
REMARK  7 active torsions:
REMARK  status: ('A' for Active; 'I' for Inactive)
REMARK    1  A    between atoms: O_2  and  C_3 
REMARK    2  A    between atoms: C_6  and  C_7 
REMARK    3  A    between atoms: C_7  and  C_8 
REMARK    4  A    between atoms: C_7  and  C_14 
REMARK    5  A    between atoms: C_14  and  C_15 
REMARK       I    between atoms: C_15  and  N_16 
REMARK    6  A    between atoms: N_16  and  C_17 
REMARK    7  A    between atoms: C_17  and  C_18 
ROOT
HETATM    1  C   UNL     1      -5.982  -0.284 -32.988  1.00  0.00     0.060 C 
ENDROOT
BRANCH   1   2
HETATM    2  C   UNL     1      -7.356   0.382 -33.171  1.00  0.00    -0.049 A 
HETATM    3  C   UNL     1      -7.601   1.381 -34.127  1.00  0.00     0.010 A 
HETATM    4  C   UNL     1      -8.862   1.973 -34.248  1.00  0.00     0.037 A 
HETATM    5  C   UNL     1      -9.913   1.598 -33.413  1.00  0.00     0.068 A 
HETATM    6  C   UNL     1      -9.683   0.634 -32.438  1.00  0.00     0.037 A 
HETATM    7  C   UNL     1      -8.419   0.042 -32.314  1.00  0.00     0.010 A 
BRANCH   5   8
HETATM    8  O   UNL     1     -11.093   2.250 -33.643  1.00  0.00    -0.356 OA
HETATM    9  C   UNL     1     -11.205   2.960 -34.869  1.00  0.00     0.210 C 
ENDBRANCH   5   8
ENDBRANCH   1   2
BRANCH   1  10
HETATM   10  C   UNL     1      -5.827  -1.646 -33.668  1.00  0.00    -0.049 A 
HETATM   11  C   UNL     1      -4.576  -2.277 -33.781  1.00  0.00     0.008 A 
HETATM   12  C   UNL     1      -4.456  -3.512 -34.420  1.00  0.00     0.001 A 
HETATM   13  C   UNL     1      -5.582  -4.134 -34.955  1.00  0.00     0.000 A 
HETATM   14  C   UNL     1      -6.829  -3.522 -34.850  1.00  0.00     0.001 A 
HETATM   15  C   UNL     1      -6.953  -2.287 -34.210  1.00  0.00     0.008 A 
ENDBRANCH   1  10
BRANCH   1  16
HETATM   16  C   UNL     1      -5.564  -0.355 -31.500  1.00  0.00     0.116 C 
BRANCH  16  17
HETATM   17  C   UNL     1      -5.385   0.995 -30.834  1.00  0.00     0.218 C 
HETATM   18  N   UNL     1      -4.568   1.872 -31.495  1.00  0.00    -0.355 N 
HETATM   19  H   UNL     1      -3.958   1.571 -32.245  1.00  0.00     0.162 HD
HETATM   20  O   UNL     1      -5.996   1.300 -29.811  1.00  0.00    -0.274 OA
BRANCH  18  21
HETATM   21  C   UNL     1      -4.185   3.131 -30.901  1.00  0.00     0.184 C 
BRANCH  21  22
HETATM   22  C   UNL     1      -3.220   3.823 -31.812  1.00  0.00     0.080 A 
HETATM   23  N   UNL     1      -1.944   4.081 -31.427  1.00  0.00    -0.177 NA
HETATM   24  N   UNL     1      -1.383   4.706 -32.494  1.00  0.00    -0.281 N 
HETATM   25  H   UNL     1      -0.413   5.000 -32.435  1.00  0.00     0.189 HD
HETATM   26  C   UNL     1      -2.260   4.833 -33.508  1.00  0.00     0.036 A 
HETATM   27  C   UNL     1      -3.440   4.285 -33.113  1.00  0.00    -0.006 A 
HETATM   28  C   UNL     1      -2.241   5.386 -34.867  1.00  0.00     0.059 C 
HETATM   29  C   UNL     1      -4.463   4.372 -34.166  1.00  0.00     0.043 C 
HETATM   30  C   UNL     1      -3.773   5.325 -35.209  1.00  0.00     0.011 C 
ENDBRANCH  21  22
ENDBRANCH  18  21
ENDBRANCH  16  17
ENDBRANCH   1  16
TORSDOF 7
ENDMDL
MODEL 6
REMARK VINA RESULT:      -8.6      2.301      4.841
REMARK  7 active torsions:
REMARK  status: ('A' for Active; 'I' for Inactive)
REMARK    1  A    between atoms: O_2  and  C_3 
REMARK    2  A    between atoms: C_6  and  C_7 
REMARK    3  A    between atoms: C_7  and  C_8 
REMARK    4  A    between atoms: C_7  and  C_14 
REMARK    5  A    between atoms: C_14  and  C_15 
REMARK       I    between atoms: C_15  and  N_16 
REMARK    6  A    between atoms: N_16  and  C_17 
REMARK    7  A    between atoms: C_17  and  C_18 
ROOT
HETATM    1  C   UNL     1      -7.280  -0.551 -33.297  1.00  0.00     0.060 C 
ENDROOT
BRANCH   1   2
HETATM    2  C   UNL     1      -6.468   0.602 -32.686  1.00  0.00    -0.049 A 
HETATM    3  C   UNL     1      -6.183   0.695 -31.315  1.00  0.00     0.010 A 
HETATM    4  C   UNL     1      -5.453   1.771 -30.798  1.00  0.00     0.037 A 
HETATM    5  C   UNL     1      -4.997   2.792 -31.629  1.00  0.00     0.068 A 
HETATM    6  C   UNL     1      -5.296   2.736 -32.986  1.00  0.00     0.037 A 
HETATM    7  C   UNL     1      -6.029   1.660 -33.504  1.00  0.00     0.010 A 
BRANCH   5   8
HETATM    8  O   UNL     1      -4.292   3.779 -30.997  1.00  0.00    -0.356 OA
HETATM    9  C   UNL     1      -3.028   4.119 -31.551  1.00  0.00     0.210 C 
ENDBRANCH   5   8
ENDBRANCH   1   2
BRANCH   1  10
HETATM   10  C   UNL     1      -6.450  -1.732 -33.805  1.00  0.00    -0.049 A 
HETATM   11  C   UNL     1      -5.054  -1.776 -33.647  1.00  0.00     0.008 A 
HETATM   12  C   UNL     1      -4.317  -2.856 -34.134  1.00  0.00     0.001 A 
HETATM   13  C   UNL     1      -4.961  -3.905 -34.785  1.00  0.00     0.000 A 
HETATM   14  C   UNL     1      -6.344  -3.876 -34.950  1.00  0.00     0.001 A 
HETATM   15  C   UNL     1      -7.085  -2.798 -34.462  1.00  0.00     0.008 A 
ENDBRANCH   1  10
BRANCH   1  16
HETATM   16  C   UNL     1      -8.265  -0.056 -34.383  1.00  0.00     0.116 C 
BRANCH  16  17
HETATM   17  C   UNL     1      -9.229   1.016 -33.914  1.00  0.00     0.218 C 
HETATM   18  N   UNL     1      -9.291   2.135 -34.701  1.00  0.00    -0.355 N 
HETATM   19  H   UNL     1      -8.592   2.328 -35.408  1.00  0.00     0.162 HD
HETATM   20  O   UNL     1      -9.958   0.851 -32.938  1.00  0.00    -0.274 OA
BRANCH  18  21
HETATM   21  C   UNL     1     -10.047   3.295 -34.293  1.00  0.00     0.184 C 
BRANCH  21  22
HETATM   22  C   UNL     1      -9.121   4.268 -33.632  1.00  0.00     0.080 A 
HETATM   23  N   UNL     1      -8.514   5.257 -34.335  1.00  0.00    -0.177 NA
HETATM   24  N   UNL     1      -7.766   5.922 -33.417  1.00  0.00    -0.281 N 
HETATM   25  H   UNL     1      -7.212   6.717 -33.721  1.00  0.00     0.189 HD
HETATM   26  C   UNL     1      -7.897   5.383 -32.191  1.00  0.00     0.036 A 
HETATM   27  C   UNL     1      -8.749   4.328 -32.285  1.00  0.00    -0.006 A 
HETATM   28  C   UNL     1      -7.372   5.655 -30.848  1.00  0.00     0.059 C 
HETATM   29  C   UNL     1      -8.959   3.676 -30.984  1.00  0.00     0.043 C 
HETATM   30  C   UNL     1      -7.861   4.367 -30.095  1.00  0.00     0.011 C 
ENDBRANCH  21  22
ENDBRANCH  18  21
ENDBRANCH  16  17
ENDBRANCH   1  16
TORSDOF 7
ENDMDL
MODEL 7
REMARK VINA RESULT:      -8.4      2.058      5.075
REMARK  7 active torsions:
REMARK  status: ('A' for Active; 'I' for Inactive)
REMARK    1  A    between atoms: O_2  and  C_3 
REMARK    2  A    between atoms: C_6  and  C_7 
REMARK    3  A    between atoms: C_7  and  C_8 
REMARK    4  A    between atoms: C_7  and  C_14 
REMARK    5  A    between atoms: C_14  and  C_15 
REMARK       I    between atoms: C_15  and  N_16 
REMARK    6  A    between atoms: N_16  and  C_17 
REMARK    7  A    between atoms: C_17  and  C_18 
ROOT
HETATM    1  C   UNL     1      -9.159   1.813 -33.326  1.00  0.00     0.060 C 
ENDROOT
BRANCH   1   2
HETATM    2  C   UNL     1      -8.111   0.714 -33.567  1.00  0.00    -0.049 A 
HETATM    3  C   UNL     1      -7.890   0.130 -34.824  1.00  0.00     0.010 A 
HETATM    4  C   UNL     1      -6.937  -0.880 -34.995  1.00  0.00     0.037 A 
HETATM    5  C   UNL     1      -6.186  -1.347 -33.919  1.00  0.00     0.068 A 
HETATM    6  C   UNL     1      -6.412  -0.804 -32.658  1.00  0.00     0.037 A 
HETATM    7  C   UNL     1      -7.368   0.206 -32.485  1.00  0.00     0.010 A 
BRANCH   5   8
HETATM    8  O   UNL     1      -5.287  -2.330 -34.226  1.00  0.00    -0.356 OA
HETATM    9  C   UNL     1      -5.768  -3.420 -35.001  1.00  0.00     0.210 C 
ENDBRANCH   5   8
ENDBRANCH   1   2
BRANCH   1  10
HETATM   10  C   UNL     1     -10.577   1.470 -33.787  1.00  0.00    -0.049 A 
HETATM   11  C   UNL     1     -11.255   2.254 -34.736  1.00  0.00     0.008 A 
HETATM   12  C   UNL     1     -12.554   1.930 -35.129  1.00  0.00     0.001 A 
HETATM   13  C   UNL     1     -13.195   0.822 -34.580  1.00  0.00     0.000 A 
HETATM   14  C   UNL     1     -12.536   0.035 -33.637  1.00  0.00     0.001 A 
HETATM   15  C   UNL     1     -11.236   0.355 -33.244  1.00  0.00     0.008 A 
ENDBRANCH   1  10
BRANCH   1  16
HETATM   16  C   UNL     1      -8.706   3.181 -33.891  1.00  0.00     0.116 C 
BRANCH  16  17
HETATM   17  C   UNL     1      -7.793   3.969 -32.973  1.00  0.00     0.218 C 
HETATM   18  N   UNL     1      -6.969   4.868 -33.594  1.00  0.00    -0.355 N 
HETATM   19  H   UNL     1      -6.820   4.850 -34.596  1.00  0.00     0.162 HD
HETATM   20  O   UNL     1      -7.851   3.857 -31.750  1.00  0.00    -0.274 OA
BRANCH  18  21
HETATM   21  C   UNL     1      -5.943   5.572 -32.862  1.00  0.00     0.184 C 
BRANCH  21  22
HETATM   22  C   UNL     1      -4.692   5.593 -33.683  1.00  0.00     0.080 A 
HETATM   23  N   UNL     1      -4.689   5.189 -34.980  1.00  0.00    -0.177 NA
HETATM   24  N   UNL     1      -3.403   5.348 -35.386  1.00  0.00    -0.281 N 
HETATM   25  H   UNL     1      -3.158   5.102 -36.340  1.00  0.00     0.189 HD
HETATM   26  C   UNL     1      -2.630   5.833 -34.397  1.00  0.00     0.036 A 
HETATM   27  C   UNL     1      -3.412   6.001 -33.297  1.00  0.00    -0.006 A 
HETATM   28  C   UNL     1      -1.221   6.210 -34.236  1.00  0.00     0.059 C 
HETATM   29  C   UNL     1      -2.649   6.538 -32.160  1.00  0.00     0.043 C 
HETATM   30  C   UNL     1      -1.169   6.424 -32.681  1.00  0.00     0.011 C 
ENDBRANCH  21  22
ENDBRANCH  18  21
ENDBRANCH  16  17
ENDBRANCH   1  16
TORSDOF 7
ENDMDL
MODEL 8
REMARK VINA RESULT:      -8.4      2.276      5.585
REMARK  7 active torsions:
REMARK  status: ('A' for Active; 'I' for Inactive)
REMARK    1  A    between atoms: O_2  and  C_3 
REMARK    2  A    between atoms: C_6  and  C_7 
REMARK    3  A    between atoms: C_7  and  C_8 
REMARK    4  A    between atoms: C_7  and  C_14 
REMARK    5  A    between atoms: C_14  and  C_15 
REMARK       I    between atoms: C_15  and  N_16 
REMARK    6  A    between atoms: N_16  and  C_17 
REMARK    7  A    between atoms: C_17  and  C_18 
ROOT
HETATM    1  C   UNL     1      -9.972   1.980 -33.436  1.00  0.00     0.060 C 
ENDROOT
BRANCH   1   2
HETATM    2  C   UNL     1      -8.809   0.988 -33.601  1.00  0.00    -0.049 A 
HETATM    3  C   UNL     1      -8.095   0.458 -32.515  1.00  0.00     0.010 A 
HETATM    4  C   UNL     1      -7.031  -0.430 -32.712  1.00  0.00     0.037 A 
HETATM    5  C   UNL     1      -6.640  -0.806 -33.995  1.00  0.00     0.068 A 
HETATM    6  C   UNL     1      -7.313  -0.268 -35.086  1.00  0.00     0.037 A 
HETATM    7  C   UNL     1      -8.377   0.624 -34.890  1.00  0.00     0.010 A 
BRANCH   5   8
HETATM    8  O   UNL     1      -5.593  -1.684 -34.045  1.00  0.00    -0.356 OA
HETATM    9  C   UNL     1      -5.708  -2.769 -34.956  1.00  0.00     0.210 C 
ENDBRANCH   5   8
ENDBRANCH   1   2
BRANCH   1  10
HETATM   10  C   UNL     1     -11.357   1.415 -33.759  1.00  0.00    -0.049 A 
HETATM   11  C   UNL     1     -12.310   2.161 -34.474  1.00  0.00     0.008 A 
HETATM   12  C   UNL     1     -13.572   1.631 -34.743  1.00  0.00     0.001 A 
HETATM   13  C   UNL     1     -13.902   0.352 -34.301  1.00  0.00     0.000 A 
HETATM   14  C   UNL     1     -12.969  -0.399 -33.590  1.00  0.00     0.001 A 
HETATM   15  C   UNL     1     -11.704   0.127 -33.322  1.00  0.00     0.008 A 
ENDBRANCH   1  10
BRANCH   1  16
HETATM   16  C   UNL     1      -9.719   3.303 -34.197  1.00  0.00     0.116 C 
BRANCH  16  17
HETATM   17  C   UNL     1      -8.623   4.168 -33.606  1.00  0.00     0.218 C 
HETATM   18  N   UNL     1      -8.525   4.139 -32.242  1.00  0.00    -0.355 N 
HETATM   19  H   UNL     1      -9.260   3.752 -31.662  1.00  0.00     0.162 HD
HETATM   20  O   UNL     1      -7.833   4.788 -34.316  1.00  0.00    -0.274 OA
BRANCH  18  21
HETATM   21  C   UNL     1      -7.632   5.029 -31.537  1.00  0.00     0.184 C 
BRANCH  21  22
HETATM   22  C   UNL     1      -6.531   4.224 -30.922  1.00  0.00     0.080 A 
HETATM   23  N   UNL     1      -6.291   4.257 -29.587  1.00  0.00    -0.177 NA
HETATM   24  N   UNL     1      -5.239   3.418 -29.406  1.00  0.00    -0.281 N 
HETATM   25  H   UNL     1      -4.876   3.283 -28.467  1.00  0.00     0.189 HD
HETATM   26  C   UNL     1      -4.835   2.876 -30.570  1.00  0.00     0.036 A 
HETATM   27  C   UNL     1      -5.631   3.364 -31.559  1.00  0.00    -0.006 A 
HETATM   28  C   UNL     1      -3.801   1.928 -31.000  1.00  0.00     0.059 C 
HETATM   29  C   UNL     1      -5.266   2.818 -32.875  1.00  0.00     0.043 C 
HETATM   30  C   UNL     1      -3.908   2.091 -32.558  1.00  0.00     0.011 C 
ENDBRANCH  21  22
ENDBRANCH  18  21
ENDBRANCH  16  17
ENDBRANCH   1  16
TORSDOF 7
ENDMDL
MODEL 9
REMARK VINA RESULT:      -8.3     14.850     16.565
REMARK  7 active torsions:
REMARK  status: ('A' for Active; 'I' for Inactive)
REMARK    1  A    between atoms: O_2  and  C_3 
REMARK    2  A    between atoms: C_6  and  C_7 
REMARK    3  A    between atoms: C_7  and  C_8 
REMARK    4  A    between atoms: C_7  and  C_14 
REMARK    5  A    between atoms: C_14  and  C_15 
REMARK       I    between atoms: C_15  and  N_16 
REMARK    6  A    between atoms: N_16  and  C_17 
REMARK    7  A    between atoms: C_17  and  C_18 
ROOT
HETATM    1  C   UNL     1      -7.684 -14.376 -38.615  1.00  0.00     0.060 C 
ENDROOT
BRANCH   1   2
HETATM    2  C   UNL     1      -6.409 -14.249 -39.464  1.00  0.00    -0.049 A 
HETATM    3  C   UNL     1      -5.373 -15.196 -39.434  1.00  0.00     0.010 A 
HETATM    4  C   UNL     1      -4.221 -15.033 -40.211  1.00  0.00     0.037 A 
HETATM    5  C   UNL     1      -4.061 -13.918 -41.031  1.00  0.00     0.068 A 
HETATM    6  C   UNL     1      -5.062 -12.951 -41.051  1.00  0.00     0.037 A 
HETATM    7  C   UNL     1      -6.215 -13.113 -40.270  1.00  0.00     0.010 A 
BRANCH   5   8
HETATM    8  O   UNL     1      -2.893 -13.886 -41.741  1.00  0.00    -0.356 OA
HETATM    9  C   UNL     1      -2.080 -15.050 -41.690  1.00  0.00     0.210 C 
ENDBRANCH   5   8
ENDBRANCH   1   2
BRANCH   1  10
HETATM   10  C   UNL     1      -8.993 -14.142 -39.371  1.00  0.00    -0.049 A 
HETATM   11  C   UNL     1      -9.585 -15.149 -40.153  1.00  0.00     0.008 A 
HETATM   12  C   UNL     1     -10.771 -14.907 -40.847  1.00  0.00     0.001 A 
HETATM   13  C   UNL     1     -11.382 -13.657 -40.773  1.00  0.00     0.000 A 
HETATM   14  C   UNL     1     -10.807 -12.648 -40.003  1.00  0.00     0.001 A 
HETATM   15  C   UNL     1      -9.622 -12.888 -39.305  1.00  0.00     0.008 A 
ENDBRANCH   1  10
BRANCH   1  16
HETATM   16  C   UNL     1      -7.619 -13.507 -37.336  1.00  0.00     0.116 C 
BRANCH  16  17
HETATM   17  C   UNL     1      -6.372 -13.715 -36.499  1.00  0.00     0.218 C 
HETATM   18  N   UNL     1      -5.355 -12.829 -36.730  1.00  0.00    -0.355 N 
HETATM   19  H   UNL     1      -5.348 -12.227 -37.544  1.00  0.00     0.162 HD
HETATM   20  O   UNL     1      -6.316 -14.575 -35.622  1.00  0.00    -0.274 OA
BRANCH  18  21
HETATM   21  C   UNL     1      -4.058 -13.002 -36.119  1.00  0.00     0.184 C 
BRANCH  21  22
HETATM   22  C   UNL     1      -3.008 -12.915 -37.182  1.00  0.00     0.080 A 
HETATM   23  N   UNL     1      -3.079 -11.989 -38.173  1.00  0.00    -0.177 NA
HETATM   24  N   UNL     1      -1.975 -12.213 -38.931  1.00  0.00    -0.281 N 
HETATM   25  H   UNL     1      -1.815 -11.629 -39.746  1.00  0.00     0.189 HD
HETATM   26  C   UNL     1      -1.238 -13.227 -38.441  1.00  0.00     0.036 A 
HETATM   27  C   UNL     1      -1.862 -13.701 -37.330  1.00  0.00    -0.006 A 
HETATM   28  C   UNL     1       0.016 -13.900 -38.800  1.00  0.00     0.059 C 
HETATM   29  C   UNL     1      -1.120 -14.814 -36.719  1.00  0.00     0.043 C 
HETATM   30  C   UNL     1      -0.039 -15.125 -37.819  1.00  0.00     0.011 C 
ENDBRANCH  21  22
ENDBRANCH  18  21
ENDBRANCH  16  17
ENDBRANCH   1  16
TORSDOF 7
ENDMDL
MODEL 10
REMARK VINA RESULT:      -8.3      2.809      3.633
REMARK  7 active torsions:
REMARK  status: ('A' for Active; 'I' for Inactive)
REMARK    1  A    between atoms: O_2  and  C_3 
REMARK    2  A    between atoms: C_6  and  C_7 
REMARK    3  A    between atoms: C_7  and  C_8 
REMARK    4  A    between atoms: C_7  and  C_14 
REMARK    5  A    between atoms: C_14  and  C_15 
REMARK       I    between atoms: C_15  and  N_16 
REMARK    6  A    between atoms: N_16  and  C_17 
REMARK    7  A    between atoms: C_17  and  C_18 
ROOT
HETATM    1  C   UNL     1      -6.642   0.036 -32.960  1.00  0.00     0.060 C 
ENDROOT
BRANCH   1   2
HETATM    2  C   UNL     1      -8.087   0.466 -33.262  1.00  0.00    -0.049 A 
HETATM    3  C   UNL     1      -9.206  -0.162 -32.694  1.00  0.00     0.010 A 
HETATM    4  C   UNL     1     -10.506   0.250 -33.009  1.00  0.00     0.037 A 
HETATM    5  C   UNL     1     -10.728   1.291 -33.908  1.00  0.00     0.068 A 
HETATM    6  C   UNL     1      -9.634   1.906 -34.508  1.00  0.00     0.037 A 
HETATM    7  C   UNL     1      -8.332   1.491 -34.194  1.00  0.00     0.010 A 
BRANCH   5   8
HETATM    8  O   UNL     1     -12.044   1.598 -34.122  1.00  0.00    -0.356 OA
HETATM    9  C   UNL     1     -12.363   2.230 -35.354  1.00  0.00     0.210 C 
ENDBRANCH   5   8
ENDBRANCH   1   2
BRANCH   1  10
HETATM   10  C   UNL     1      -6.205  -1.277 -33.615  1.00  0.00    -0.049 A 
HETATM   11  C   UNL     1      -7.131  -2.142 -34.224  1.00  0.00     0.008 A 
HETATM   12  C   UNL     1      -6.711  -3.342 -34.800  1.00  0.00     0.001 A 
HETATM   13  C   UNL     1      -5.363  -3.695 -34.777  1.00  0.00     0.000 A 
HETATM   14  C   UNL     1      -4.434  -2.847 -34.177  1.00  0.00     0.001 A 
HETATM   15  C   UNL     1      -4.850  -1.645 -33.602  1.00  0.00     0.008 A 
ENDBRANCH   1  10
BRANCH   1  16
HETATM   16  C   UNL     1      -6.344   0.024 -31.442  1.00  0.00     0.116 C 
BRANCH  16  17
HETATM   17  C   UNL     1      -6.184   1.399 -30.823  1.00  0.00     0.218 C 
HETATM   18  N   UNL     1      -7.294   1.891 -30.191  1.00  0.00    -0.355 N 
HETATM   19  H   UNL     1      -8.208   1.474 -30.317  1.00  0.00     0.162 HD
HETATM   20  O   UNL     1      -5.106   1.990 -30.828  1.00  0.00    -0.274 OA
BRANCH  18  21
HETATM   21  C   UNL     1      -7.333   3.247 -29.695  1.00  0.00     0.184 C 
BRANCH  21  22
HETATM   22  C   UNL     1      -7.844   4.144 -30.778  1.00  0.00     0.080 A 
HETATM   23  N   UNL     1      -7.039   5.055 -31.380  1.00  0.00    -0.177 NA
HETATM   24  N   UNL     1      -7.837   5.671 -32.290  1.00  0.00    -0.281 N 
HETATM   25  H   UNL     1      -7.443   6.406 -32.869  1.00  0.00     0.189 HD
HETATM   26  C   UNL     1      -9.086   5.170 -32.269  1.00  0.00     0.036 A 
HETATM   27  C   UNL     1      -9.132   4.197 -31.319  1.00  0.00    -0.006 A 
HETATM   28  C   UNL     1     -10.340   5.407 -32.994  1.00  0.00     0.059 C 
HETATM   29  C   UNL     1     -10.465   3.584 -31.228  1.00  0.00     0.043 C 
HETATM   30  C   UNL     1     -11.326   4.547 -32.125  1.00  0.00     0.011 C 
ENDBRANCH  21  22
ENDBRANCH  18  21
ENDBRANCH  16  17
ENDBRANCH   1  16
TORSDOF 7
ENDMDL
