MODEL 1
REMARK VINA RESULT:     -11.6      0.000      0.000
REMARK  6 active torsions:
REMARK  status: ('A' for Active; 'I' for Inactive)
REMARK    1  A    between atoms: C_2  and  N_3 
REMARK    2  A    between atoms: C_2  and  C_32 
REMARK       I    between atoms: N_3  and  C_4 
REMARK    3  A    between atoms: C_4  and  C_5 
REMARK    4  A    between atoms: C_6  and  N_7 
REMARK       I    between atoms: N_7  and  C_8 
REMARK    5  A    between atoms: C_8  and  C_9 
REMARK    6  A    between atoms: C_9  and  N_10 
ROOT
HETATM    1  N   UNL     1      -4.103   4.348 -33.388  1.00  0.00    -0.325 N 
HETATM    2  C   UNL     1      -3.325   5.003 -34.332  1.00  0.00     0.240 C 
HETATM    3  O   UNL     1      -3.724   5.524 -35.369  1.00  0.00    -0.271 OA
HETATM    4  H   UNL     1      -3.603   3.806 -32.689  1.00  0.00     0.169 HD
ENDROOT
BRANCH   1   5
HETATM    5  C   UNL     1      -5.509   4.199 -33.358  1.00  0.00     0.050 A 
HETATM    6  C   UNL     1      -6.067   3.007 -32.842  1.00  0.00     0.058 A 
HETATM    7  C   UNL     1      -7.458   2.876 -32.703  1.00  0.00     0.019 A 
HETATM    8  C   UNL     1      -8.303   3.908 -33.102  1.00  0.00     0.001 A 
HETATM    9  C   UNL     1      -7.762   5.073 -33.638  1.00  0.00     0.002 A 
HETATM   10  C   UNL     1      -6.376   5.219 -33.763  1.00  0.00     0.030 A 
BRANCH   6  11
HETATM   11  C   UNL     1      -5.246   1.850 -32.388  1.00  0.00     0.254 C 
HETATM   12  N   UNL     1      -5.247   0.735 -33.206  1.00  0.00    -0.349 N 
HETATM   13  H   UNL     1      -5.975   0.651 -33.914  1.00  0.00     0.163 HD
HETATM   14  O   UNL     1      -4.615   1.927 -31.340  1.00  0.00    -0.268 OA
BRANCH  12  15
HETATM   15  C   UNL     1      -4.574  -0.495 -32.811  1.00  0.00     0.114 C 
HETATM   16  C   UNL     1      -3.063  -0.362 -33.004  1.00  0.00     0.037 C 
BRANCH  15  17
HETATM   17  C   UNL     1      -5.131  -1.692 -33.561  1.00  0.00    -0.036 A 
HETATM   18  C   UNL     1      -6.480  -1.706 -33.949  1.00  0.00     0.009 A 
HETATM   19  C   UNL     1      -7.021  -2.808 -34.615  1.00  0.00     0.001 A 
HETATM   20  C   UNL     1      -6.221  -3.909 -34.908  1.00  0.00     0.000 A 
HETATM   21  C   UNL     1      -4.878  -3.909 -34.541  1.00  0.00     0.001 A 
HETATM   22  C   UNL     1      -4.337  -2.808 -33.872  1.00  0.00     0.009 A 
ENDBRANCH  15  17
ENDBRANCH  12  15
ENDBRANCH   6  11
ENDBRANCH   1   5
BRANCH   2  23
HETATM   23  C   UNL     1      -1.834   4.916 -34.004  1.00  0.00     0.240 C 
BRANCH  23  24
HETATM   24  N   UNL     1      -1.500   5.785 -32.897  1.00  0.00    -0.259 N 
HETATM   25  C   UNL     1      -1.453   7.140 -33.003  1.00  0.00     0.326 C 
HETATM   26  O   UNL     1      -1.524   7.808 -34.021  1.00  0.00    -0.247 OA
HETATM   27  N   UNL     1      -1.392   7.674 -31.740  1.00  0.00    -0.324 N 
HETATM   28  C   UNL     1      -1.405   6.665 -30.701  1.00  0.00     0.120 C 
HETATM   29  H   UNL     1      -1.306   8.673 -31.596  1.00  0.00     0.165 HD
HETATM   30  C   UNL     1      -0.081   6.608 -29.938  1.00  0.00     0.080 C 
HETATM   31  C   UNL     1      -2.588   6.808 -29.746  1.00  0.00     0.046 C 
HETATM   32  C   UNL     1      -1.594   5.421 -31.582  1.00  0.00     0.257 C 
HETATM   33  C   UNL     1       0.035   7.718 -28.913  1.00  0.00    -0.049 A 
HETATM   34  C   UNL     1      -1.103   8.377 -28.410  1.00  0.00    -0.052 A 
HETATM   35  C   UNL     1       1.303   8.062 -28.421  1.00  0.00     0.007 A 
HETATM   36  C   UNL     1      -2.491   8.088 -28.923  1.00  0.00     0.042 C 
HETATM   37  C   UNL     1      -0.944   9.387 -27.447  1.00  0.00     0.007 A 
HETATM   38  C   UNL     1       0.322   9.728 -26.976  1.00  0.00     0.001 A 
HETATM   39  C   UNL     1       1.446   9.065 -27.462  1.00  0.00     0.001 A 
HETATM   40  O   UNL     1      -1.818   4.288 -31.172  1.00  0.00    -0.270 OA
ENDBRANCH  23  24
ENDBRANCH   2  23
TORSDOF 6
ENDMDL
MODEL 2
REMARK VINA RESULT:     -11.1      1.630      2.812
REMARK  6 active torsions:
REMARK  status: ('A' for Active; 'I' for Inactive)
REMARK    1  A    between atoms: C_2  and  N_3 
REMARK    2  A    between atoms: C_2  and  C_32 
REMARK       I    between atoms: N_3  and  C_4 
REMARK    3  A    between atoms: C_4  and  C_5 
REMARK    4  A    between atoms: C_6  and  N_7 
REMARK       I    between atoms: N_7  and  C_8 
REMARK    5  A    between atoms: C_8  and  C_9 
REMARK    6  A    between atoms: C_9  and  N_10 
ROOT
HETATM    1  N   UNL     1      -5.511   3.421 -32.568  1.00  0.00    -0.325 N 
HETATM    2  C   UNL     1      -5.179   4.369 -33.525  1.00  0.00     0.240 C 
HETATM    3  O   UNL     1      -5.964   5.043 -34.184  1.00  0.00    -0.271 OA
HETATM    4  H   UNL     1      -4.758   2.815 -32.253  1.00  0.00     0.169 HD
ENDROOT
BRANCH   1   5
HETATM    5  C   UNL     1      -6.793   3.073 -32.081  1.00  0.00     0.050 A 
HETATM    6  C   UNL     1      -7.436   1.921 -32.588  1.00  0.00     0.058 A 
HETATM    7  C   UNL     1      -8.658   1.495 -32.047  1.00  0.00     0.019 A 
HETATM    8  C   UNL     1      -9.267   2.223 -31.027  1.00  0.00     0.001 A 
HETATM    9  C   UNL     1      -8.653   3.374 -30.543  1.00  0.00     0.002 A 
HETATM   10  C   UNL     1      -7.424   3.796 -31.064  1.00  0.00     0.030 A 
BRANCH   6  11
HETATM   11  C   UNL     1      -6.864   1.078 -33.676  1.00  0.00     0.254 C 
HETATM   12  N   UNL     1      -6.501  -0.209 -33.330  1.00  0.00    -0.349 N 
HETATM   13  H   UNL     1      -6.397  -0.438 -32.343  1.00  0.00     0.163 HD
HETATM   14  O   UNL     1      -6.744   1.543 -34.804  1.00  0.00    -0.268 OA
BRANCH  12  15
HETATM   15  C   UNL     1      -5.828  -1.087 -34.279  1.00  0.00     0.114 C 
HETATM   16  C   UNL     1      -6.851  -1.899 -35.074  1.00  0.00     0.037 C 
BRANCH  15  17
HETATM   17  C   UNL     1      -4.822  -1.984 -33.580  1.00  0.00    -0.036 A 
HETATM   18  C   UNL     1      -4.606  -3.289 -34.051  1.00  0.00     0.009 A 
HETATM   19  C   UNL     1      -3.707  -4.142 -33.406  1.00  0.00     0.001 A 
HETATM   20  C   UNL     1      -3.007  -3.702 -32.287  1.00  0.00     0.000 A 
HETATM   21  C   UNL     1      -3.200  -2.407 -31.811  1.00  0.00     0.001 A 
HETATM   22  C   UNL     1      -4.101  -1.555 -32.453  1.00  0.00     0.009 A 
ENDBRANCH  15  17
ENDBRANCH  12  15
ENDBRANCH   6  11
ENDBRANCH   1   5
BRANCH   2  23
HETATM   23  C   UNL     1      -3.672   4.422 -33.780  1.00  0.00     0.240 C 
BRANCH  23  24
HETATM   24  N   UNL     1      -2.981   5.011 -32.655  1.00  0.00    -0.259 N 
HETATM   25  C   UNL     1      -2.480   4.280 -31.623  1.00  0.00     0.326 C 
HETATM   26  O   UNL     1      -2.653   3.094 -31.402  1.00  0.00    -0.247 OA
HETATM   27  N   UNL     1      -1.652   5.084 -30.880  1.00  0.00    -0.324 N 
HETATM   28  C   UNL     1      -1.553   6.430 -31.407  1.00  0.00     0.120 C 
HETATM   29  H   UNL     1      -1.208   4.743 -30.036  1.00  0.00     0.165 HD
HETATM   30  C   UNL     1      -2.175   7.462 -30.465  1.00  0.00     0.080 C 
HETATM   31  C   UNL     1      -0.127   6.818 -31.788  1.00  0.00     0.046 C 
HETATM   32  C   UNL     1      -2.402   6.250 -32.675  1.00  0.00     0.257 C 
HETATM   33  C   UNL     1      -1.258   7.806 -29.309  1.00  0.00    -0.049 A 
HETATM   34  C   UNL     1       0.130   7.582 -29.378  1.00  0.00    -0.052 A 
HETATM   35  C   UNL     1      -1.802   8.404 -28.162  1.00  0.00     0.007 A 
HETATM   36  C   UNL     1       0.776   6.906 -30.562  1.00  0.00     0.042 C 
HETATM   37  C   UNL     1       0.939   7.934 -28.287  1.00  0.00     0.007 A 
HETATM   38  C   UNL     1       0.385   8.516 -27.148  1.00  0.00     0.001 A 
HETATM   39  C   UNL     1      -0.986   8.750 -27.086  1.00  0.00     0.001 A 
HETATM   40  O   UNL     1      -2.520   7.076 -33.573  1.00  0.00    -0.270 OA
ENDBRANCH  23  24
ENDBRANCH   2  23
TORSDOF 6
ENDMDL
MODEL 3
REMARK VINA RESULT:     -11.0      2.085     10.408
REMARK  6 active torsions:
REMARK  status: ('A' for Active; 'I' for Inactive)
REMARK    1  A    between atoms: C_2  and  N_3 
REMARK    2  A    between atoms: C_2  and  C_32 
REMARK       I    between atoms: N_3  and  C_4 
REMARK    3  A    between atoms: C_4  and  C_5 
REMARK    4  A    between atoms: C_6  and  N_7 
REMARK       I    between atoms: N_7  and  C_8 
REMARK    5  A    between atoms: C_8  and  C_9 
REMARK    6  A    between atoms: C_9  and  N_10 
ROOT
HETATM    1  N   UNL     1      -3.820   4.421 -32.117  1.00  0.00    -0.325 N 
HETATM    2  C   UNL     1      -3.590   3.338 -31.281  1.00  0.00     0.240 C 
HETATM    3  O   UNL     1      -2.502   2.828 -31.032  1.00  0.00    -0.271 OA
HETATM    4  H   UNL     1      -4.788   4.598 -32.370  1.00  0.00     0.169 HD
ENDROOT
BRANCH   1   5
HETATM    5  C   UNL     1      -2.874   5.222 -32.799  1.00  0.00     0.050 A 
HETATM    6  C   UNL     1      -2.320   6.346 -32.145  1.00  0.00     0.058 A 
HETATM    7  C   UNL     1      -1.304   7.094 -32.759  1.00  0.00     0.019 A 
HETATM    8  C   UNL     1      -0.854   6.756 -34.033  1.00  0.00     0.001 A 
HETATM    9  C   UNL     1      -1.416   5.668 -34.694  1.00  0.00     0.002 A 
HETATM   10  C   UNL     1      -2.417   4.905 -34.082  1.00  0.00     0.030 A 
BRANCH   6  11
HETATM   11  C   UNL     1      -2.734   6.785 -30.783  1.00  0.00     0.254 C 
HETATM   12  N   UNL     1      -1.757   7.373 -30.002  1.00  0.00    -0.349 N 
HETATM   13  H   UNL     1      -0.782   7.254 -30.271  1.00  0.00     0.163 HD
HETATM   14  O   UNL     1      -3.892   6.617 -30.417  1.00  0.00    -0.268 OA
BRANCH  12  15
HETATM   15  C   UNL     1      -2.014   7.739 -28.615  1.00  0.00     0.114 C 
HETATM   16  C   UNL     1      -2.843   9.022 -28.546  1.00  0.00     0.037 C 
BRANCH  15  17
HETATM   17  C   UNL     1      -0.720   7.866 -27.831  1.00  0.00    -0.036 A 
HETATM   18  C   UNL     1       0.438   8.336 -28.469  1.00  0.00     0.009 A 
HETATM   19  C   UNL     1       1.647   8.434 -27.776  1.00  0.00     0.001 A 
HETATM   20  C   UNL     1       1.714   8.069 -26.435  1.00  0.00     0.000 A 
HETATM   21  C   UNL     1       0.573   7.610 -25.782  1.00  0.00     0.001 A 
HETATM   22  C   UNL     1      -0.635   7.509 -26.476  1.00  0.00     0.009 A 
ENDBRANCH  15  17
ENDBRANCH  12  15
ENDBRANCH   6  11
ENDBRANCH   1   5
BRANCH   2  23
HETATM   23  C   UNL     1      -4.893   2.732 -30.758  1.00  0.00     0.240 C 
BRANCH  23  24
HETATM   24  N   UNL     1      -5.151   1.452 -31.378  1.00  0.00    -0.259 N 
HETATM   25  C   UNL     1      -5.654   0.385 -30.702  1.00  0.00     0.326 C 
HETATM   26  O   UNL     1      -5.817   0.279 -29.498  1.00  0.00    -0.247 OA
HETATM   27  N   UNL     1      -6.045  -0.564 -31.613  1.00  0.00    -0.324 N 
HETATM   28  C   UNL     1      -5.820  -0.154 -32.984  1.00  0.00     0.120 C 
HETATM   29  H   UNL     1      -6.409  -1.461 -31.314  1.00  0.00     0.165 HD
HETATM   30  C   UNL     1      -4.749  -1.005 -33.670  1.00  0.00     0.080 C 
HETATM   31  C   UNL     1      -7.102  -0.108 -33.811  1.00  0.00     0.046 C 
HETATM   32  C   UNL     1      -5.315   1.273 -32.724  1.00  0.00     0.257 C 
HETATM   33  C   UNL     1      -5.288  -2.348 -34.119  1.00  0.00    -0.049 A 
HETATM   34  C   UNL     1      -6.666  -2.560 -34.315  1.00  0.00    -0.052 A 
HETATM   35  C   UNL     1      -4.386  -3.388 -34.389  1.00  0.00     0.007 A 
HETATM   36  C   UNL     1      -7.694  -1.501 -34.005  1.00  0.00     0.042 C 
HETATM   37  C   UNL     1      -7.114  -3.818 -34.749  1.00  0.00     0.007 A 
HETATM   38  C   UNL     1      -6.209  -4.847 -35.002  1.00  0.00     0.001 A 
HETATM   39  C   UNL     1      -4.845  -4.632 -34.822  1.00  0.00     0.001 A 
HETATM   40  O   UNL     1      -5.116   2.123 -33.585  1.00  0.00    -0.270 OA
ENDBRANCH  23  24
ENDBRANCH   2  23
TORSDOF 6
ENDMDL
MODEL 4
REMARK VINA RESULT:     -10.9      1.618      2.626
REMARK  6 active torsions:
REMARK  status: ('A' for Active; 'I' for Inactive)
REMARK    1  A    between atoms: C_2  and  N_3 
REMARK    2  A    between atoms: C_2  and  C_32 
REMARK       I    between atoms: N_3  and  C_4 
REMARK    3  A    between atoms: C_4  and  C_5 
REMARK    4  A    between atoms: C_6  and  N_7 
REMARK       I    between atoms: N_7  and  C_8 
REMARK    5  A    between atoms: C_8  and  C_9 
REMARK    6  A    between atoms: C_9  and  N_10 
ROOT
HETATM    1  N   UNL     1      -6.310   3.075 -33.586  1.00  0.00    -0.325 N 
HETATM    2  C   UNL     1      -5.672   3.941 -32.711  1.00  0.00     0.240 C 
HETATM    3  O   UNL     1      -6.118   4.361 -31.647  1.00  0.00    -0.271 OA
HETATM    4  H   UNL     1      -5.895   2.977 -34.508  1.00  0.00     0.169 HD
ENDROOT
BRANCH   1   5
HETATM    5  C   UNL     1      -7.557   2.425 -33.428  1.00  0.00     0.050 A 
HETATM    6  C   UNL     1      -7.607   1.175 -32.769  1.00  0.00     0.058 A 
HETATM    7  C   UNL     1      -8.840   0.560 -32.506  1.00  0.00     0.019 A 
HETATM    8  C   UNL     1     -10.027   1.161 -32.920  1.00  0.00     0.001 A 
HETATM    9  C   UNL     1      -9.984   2.378 -33.594  1.00  0.00     0.002 A 
HETATM   10  C   UNL     1      -8.759   3.006 -33.845  1.00  0.00     0.030 A 
BRANCH   6  11
HETATM   11  C   UNL     1      -6.394   0.456 -32.288  1.00  0.00     0.254 C 
HETATM   12  N   UNL     1      -5.692  -0.269 -33.234  1.00  0.00    -0.349 N 
HETATM   13  H   UNL     1      -6.150  -0.488 -34.117  1.00  0.00     0.163 HD
HETATM   14  O   UNL     1      -6.070   0.534 -31.108  1.00  0.00    -0.268 OA
BRANCH  12  15
HETATM   15  C   UNL     1      -4.558  -1.102 -32.859  1.00  0.00     0.114 C 
HETATM   16  C   UNL     1      -3.243  -0.409 -33.220  1.00  0.00     0.037 C 
BRANCH  15  17
HETATM   17  C   UNL     1      -4.655  -2.480 -33.492  1.00  0.00    -0.036 A 
HETATM   18  C   UNL     1      -5.719  -2.775 -34.359  1.00  0.00     0.009 A 
HETATM   19  C   UNL     1      -5.845  -4.044 -34.930  1.00  0.00     0.001 A 
HETATM   20  C   UNL     1      -4.908  -5.033 -34.647  1.00  0.00     0.000 A 
HETATM   21  C   UNL     1      -3.840  -4.755 -33.798  1.00  0.00     0.001 A 
HETATM   22  C   UNL     1      -3.715  -3.488 -33.224  1.00  0.00     0.009 A 
ENDBRANCH  15  17
ENDBRANCH  12  15
ENDBRANCH   6  11
ENDBRANCH   1   5
BRANCH   2  23
HETATM   23  C   UNL     1      -4.340   4.443 -33.271  1.00  0.00     0.240 C 
BRANCH  23  24
HETATM   24  N   UNL     1      -3.474   4.898 -32.207  1.00  0.00    -0.259 N 
HETATM   25  C   UNL     1      -2.653   4.067 -31.510  1.00  0.00     0.326 C 
HETATM   26  O   UNL     1      -2.622   2.850 -31.549  1.00  0.00    -0.247 OA
HETATM   27  N   UNL     1      -1.772   4.833 -30.785  1.00  0.00    -0.324 N 
HETATM   28  C   UNL     1      -1.968   6.254 -30.981  1.00  0.00     0.120 C 
HETATM   29  H   UNL     1      -1.099   4.407 -30.159  1.00  0.00     0.165 HD
HETATM   30  C   UNL     1      -2.463   6.947 -29.711  1.00  0.00     0.080 C 
HETATM   31  C   UNL     1      -0.735   6.954 -31.547  1.00  0.00     0.046 C 
HETATM   32  C   UNL     1      -3.071   6.195 -32.049  1.00  0.00     0.257 C 
HETATM   33  C   UNL     1      -1.342   7.198 -28.724  1.00  0.00    -0.049 A 
HETATM   34  C   UNL     1       0.005   7.237 -29.133  1.00  0.00    -0.052 A 
HETATM   35  C   UNL     1      -1.659   7.443 -27.379  1.00  0.00     0.007 A 
HETATM   36  C   UNL     1       0.421   6.942 -30.553  1.00  0.00     0.042 C 
HETATM   37  C   UNL     1       1.006   7.491 -28.183  1.00  0.00     0.007 A 
HETATM   38  C   UNL     1       0.679   7.721 -26.848  1.00  0.00     0.001 A 
HETATM   39  C   UNL     1      -0.654   7.697 -26.446  1.00  0.00     0.001 A 
HETATM   40  O   UNL     1      -3.503   7.156 -32.677  1.00  0.00    -0.270 OA
ENDBRANCH  23  24
ENDBRANCH   2  23
TORSDOF 6
ENDMDL
MODEL 5
REMARK VINA RESULT:     -10.9      3.501      8.791
REMARK  6 active torsions:
REMARK  status: ('A' for Active; 'I' for Inactive)
REMARK    1  A    between atoms: C_2  and  N_3 
REMARK    2  A    between atoms: C_2  and  C_32 
REMARK       I    between atoms: N_3  and  C_4 
REMARK    3  A    between atoms: C_4  and  C_5 
REMARK    4  A    between atoms: C_6  and  N_7 
REMARK       I    between atoms: N_7  and  C_8 
REMARK    5  A    between atoms: C_8  and  C_9 
REMARK    6  A    between atoms: C_9  and  N_10 
ROOT
HETATM    1  N   UNL     1      -5.591   6.106 -32.338  1.00  0.00    -0.325 N 
HETATM    2  C   UNL     1      -6.591   5.675 -33.197  1.00  0.00     0.240 C 
HETATM    3  O   UNL     1      -6.444   4.968 -34.189  1.00  0.00    -0.271 OA
HETATM    4  H   UNL     1      -5.844   6.839 -31.682  1.00  0.00     0.169 HD
ENDROOT
BRANCH   1   5
HETATM    5  C   UNL     1      -4.215   5.776 -32.354  1.00  0.00     0.050 A 
HETATM    6  C   UNL     1      -3.806   4.492 -31.929  1.00  0.00     0.058 A 
HETATM    7  C   UNL     1      -2.462   4.104 -32.034  1.00  0.00     0.019 A 
HETATM    8  C   UNL     1      -1.511   4.993 -32.530  1.00  0.00     0.001 A 
HETATM    9  C   UNL     1      -1.902   6.269 -32.924  1.00  0.00     0.002 A 
HETATM   10  C   UNL     1      -3.244   6.658 -32.839  1.00  0.00     0.030 A 
BRANCH   6  11
HETATM   11  C   UNL     1      -4.748   3.473 -31.386  1.00  0.00     0.254 C 
HETATM   12  N   UNL     1      -4.770   2.251 -32.031  1.00  0.00    -0.349 N 
HETATM   13  H   UNL     1      -4.359   2.183 -32.961  1.00  0.00     0.163 HD
HETATM   14  O   UNL     1      -5.445   3.746 -30.416  1.00  0.00    -0.268 OA
BRANCH  12  15
HETATM   15  C   UNL     1      -5.730   1.218 -31.663  1.00  0.00     0.114 C 
HETATM   16  C   UNL     1      -5.084   0.201 -30.721  1.00  0.00     0.037 C 
BRANCH  15  17
HETATM   17  C   UNL     1      -6.315   0.547 -32.894  1.00  0.00    -0.036 A 
HETATM   18  C   UNL     1      -6.679  -0.808 -32.843  1.00  0.00     0.009 A 
HETATM   19  C   UNL     1      -7.192  -1.453 -33.971  1.00  0.00     0.001 A 
HETATM   20  C   UNL     1      -7.355  -0.752 -35.162  1.00  0.00     0.000 A 
HETATM   21  C   UNL     1      -7.009   0.595 -35.229  1.00  0.00     0.001 A 
HETATM   22  C   UNL     1      -6.492   1.240 -34.103  1.00  0.00     0.009 A 
ENDBRANCH  15  17
ENDBRANCH  12  15
ENDBRANCH   6  11
ENDBRANCH   1   5
BRANCH   2  23
HETATM   23  C   UNL     1      -7.949   6.284 -32.845  1.00  0.00     0.240 C 
BRANCH  23  24
HETATM   24  N   UNL     1      -9.018   5.348 -33.116  1.00  0.00    -0.259 N 
HETATM   25  C   UNL     1      -9.558   5.173 -34.352  1.00  0.00     0.326 C 
HETATM   26  O   UNL     1      -9.359   5.843 -35.350  1.00  0.00    -0.247 OA
HETATM   27  N   UNL     1     -10.330   4.038 -34.333  1.00  0.00    -0.324 N 
HETATM   28  C   UNL     1     -10.331   3.379 -33.043  1.00  0.00     0.120 C 
HETATM   29  H   UNL     1     -10.860   3.750 -35.147  1.00  0.00     0.165 HD
HETATM   30  C   UNL     1     -11.705   3.430 -32.372  1.00  0.00     0.080 C 
HETATM   31  C   UNL     1      -9.799   1.949 -33.103  1.00  0.00     0.046 C 
HETATM   32  C   UNL     1      -9.322   4.281 -32.316  1.00  0.00     0.257 C 
HETATM   33  C   UNL     1     -12.657   2.400 -32.943  1.00  0.00    -0.049 A 
HETATM   34  C   UNL     1     -12.188   1.261 -33.624  1.00  0.00    -0.052 A 
HETATM   35  C   UNL     1     -14.037   2.564 -32.746  1.00  0.00     0.007 A 
HETATM   36  C   UNL     1     -10.723   1.041 -33.907  1.00  0.00     0.042 C 
HETATM   37  C   UNL     1     -13.111   0.326 -34.118  1.00  0.00     0.007 A 
HETATM   38  C   UNL     1     -14.480   0.507 -33.927  1.00  0.00     0.001 A 
HETATM   39  C   UNL     1     -14.943   1.626 -33.241  1.00  0.00     0.001 A 
HETATM   40  O   UNL     1      -8.848   4.065 -31.207  1.00  0.00    -0.270 OA
ENDBRANCH  23  24
ENDBRANCH   2  23
TORSDOF 6
ENDMDL
MODEL 6
REMARK VINA RESULT:     -10.5      3.464      5.362
REMARK  6 active torsions:
REMARK  status: ('A' for Active; 'I' for Inactive)
REMARK    1  A    between atoms: C_2  and  N_3 
REMARK    2  A    between atoms: C_2  and  C_32 
REMARK       I    between atoms: N_3  and  C_4 
REMARK    3  A    between atoms: C_4  and  C_5 
REMARK    4  A    between atoms: C_6  and  N_7 
REMARK       I    between atoms: N_7  and  C_8 
REMARK    5  A    between atoms: C_8  and  C_9 
REMARK    6  A    between atoms: C_9  and  N_10 
ROOT
HETATM    1  N   UNL     1      -9.275   3.911 -31.963  1.00  0.00    -0.325 N 
HETATM    2  C   UNL     1      -9.555   4.075 -30.614  1.00  0.00     0.240 C 
HETATM    3  O   UNL     1     -10.519   3.615 -30.009  1.00  0.00    -0.271 OA
HETATM    4  H   UNL     1      -8.552   4.511 -32.350  1.00  0.00     0.169 HD
ENDROOT
BRANCH   1   5
HETATM    5  C   UNL     1      -9.970   3.131 -32.917  1.00  0.00     0.050 A 
HETATM    6  C   UNL     1      -9.563   1.798 -33.150  1.00  0.00     0.058 A 
HETATM    7  C   UNL     1     -10.299   0.971 -34.011  1.00  0.00     0.019 A 
HETATM    8  C   UNL     1     -11.421   1.466 -34.672  1.00  0.00     0.001 A 
HETATM    9  C   UNL     1     -11.811   2.787 -34.469  1.00  0.00     0.002 A 
HETATM   10  C   UNL     1     -11.093   3.613 -33.597  1.00  0.00     0.030 A 
BRANCH   6  11
HETATM   11  C   UNL     1      -8.379   1.178 -32.490  1.00  0.00     0.254 C 
HETATM   12  N   UNL     1      -7.324   0.837 -33.315  1.00  0.00    -0.349 N 
HETATM   13  H   UNL     1      -7.488   0.781 -34.319  1.00  0.00     0.163 HD
HETATM   14  O   UNL     1      -8.382   1.003 -31.277  1.00  0.00    -0.268 OA
BRANCH  12  15
HETATM   15  C   UNL     1      -6.162   0.123 -32.802  1.00  0.00     0.114 C 
HETATM   16  C   UNL     1      -4.927   1.024 -32.827  1.00  0.00     0.037 C 
BRANCH  15  17
HETATM   17  C   UNL     1      -5.928  -1.168 -33.567  1.00  0.00    -0.036 A 
HETATM   18  C   UNL     1      -7.023  -1.899 -34.053  1.00  0.00     0.009 A 
HETATM   19  C   UNL     1      -6.834  -3.104 -34.734  1.00  0.00     0.001 A 
HETATM   20  C   UNL     1      -5.548  -3.592 -34.945  1.00  0.00     0.000 A 
HETATM   21  C   UNL     1      -4.448  -2.876 -34.479  1.00  0.00     0.001 A 
HETATM   22  C   UNL     1      -4.637  -1.673 -33.794  1.00  0.00     0.009 A 
ENDBRANCH  15  17
ENDBRANCH  12  15
ENDBRANCH   6  11
ENDBRANCH   1   5
BRANCH   2  23
HETATM   23  C   UNL     1      -8.565   5.023 -29.936  1.00  0.00     0.240 C 
BRANCH  23  24
HETATM   24  N   UNL     1      -7.320   5.076 -30.668  1.00  0.00    -0.259 N 
HETATM   25  C   UNL     1      -6.372   4.103 -30.594  1.00  0.00     0.326 C 
HETATM   26  O   UNL     1      -6.338   3.156 -29.826  1.00  0.00    -0.247 OA
HETATM   27  N   UNL     1      -5.462   4.303 -31.603  1.00  0.00    -0.324 N 
HETATM   28  C   UNL     1      -5.779   5.451 -32.427  1.00  0.00     0.120 C 
HETATM   29  H   UNL     1      -4.646   3.711 -31.699  1.00  0.00     0.165 HD
HETATM   30  C   UNL     1      -4.745   6.568 -32.279  1.00  0.00     0.080 C 
HETATM   31  C   UNL     1      -5.996   5.090 -33.894  1.00  0.00     0.046 C 
HETATM   32  C   UNL     1      -7.118   5.842 -31.782  1.00  0.00     0.257 C 
HETATM   33  C   UNL     1      -3.488   6.292 -33.078  1.00  0.00    -0.049 A 
HETATM   34  C   UNL     1      -3.489   5.399 -34.166  1.00  0.00    -0.052 A 
HETATM   35  C   UNL     1      -2.309   6.980 -32.753  1.00  0.00     0.007 A 
HETATM   36  C   UNL     1      -4.708   4.596 -34.545  1.00  0.00     0.042 C 
HETATM   37  C   UNL     1      -2.302   5.191 -34.887  1.00  0.00     0.007 A 
HETATM   38  C   UNL     1      -1.134   5.871 -34.546  1.00  0.00     0.001 A 
HETATM   39  C   UNL     1      -1.138   6.765 -33.479  1.00  0.00     0.001 A 
HETATM   40  O   UNL     1      -7.893   6.689 -32.213  1.00  0.00    -0.270 OA
ENDBRANCH  23  24
ENDBRANCH   2  23
TORSDOF 6
ENDMDL
MODEL 7
REMARK VINA RESULT:     -10.5      2.612      4.421
REMARK  6 active torsions:
REMARK  status: ('A' for Active; 'I' for Inactive)
REMARK    1  A    between atoms: C_2  and  N_3 
REMARK    2  A    between atoms: C_2  and  C_32 
REMARK       I    between atoms: N_3  and  C_4 
REMARK    3  A    between atoms: C_4  and  C_5 
REMARK    4  A    between atoms: C_6  and  N_7 
REMARK       I    between atoms: N_7  and  C_8 
REMARK    5  A    between atoms: C_8  and  C_9 
REMARK    6  A    between atoms: C_9  and  N_10 
ROOT
HETATM    1  N   UNL     1      -9.657   3.740 -31.783  1.00  0.00    -0.325 N 
HETATM    2  C   UNL     1      -8.473   4.385 -32.109  1.00  0.00     0.240 C 
HETATM    3  O   UNL     1      -7.815   4.225 -33.133  1.00  0.00    -0.271 OA
HETATM    4  H   UNL     1      -9.973   3.835 -30.821  1.00  0.00     0.169 HD
ENDROOT
BRANCH   1   5
HETATM    5  C   UNL     1     -10.407   2.830 -32.564  1.00  0.00     0.050 A 
HETATM    6  C   UNL     1      -9.936   1.508 -32.730  1.00  0.00     0.058 A 
HETATM    7  C   UNL     1     -10.713   0.558 -33.411  1.00  0.00     0.019 A 
HETATM    8  C   UNL     1     -11.943   0.918 -33.957  1.00  0.00     0.001 A 
HETATM    9  C   UNL     1     -12.400   2.225 -33.822  1.00  0.00     0.002 A 
HETATM   10  C   UNL     1     -11.640   3.174 -33.129  1.00  0.00     0.030 A 
BRANCH   6  11
HETATM   11  C   UNL     1      -8.636   1.029 -32.182  1.00  0.00     0.254 C 
HETATM   12  N   UNL     1      -7.578   0.969 -33.070  1.00  0.00    -0.349 N 
HETATM   13  H   UNL     1      -7.778   1.001 -34.069  1.00  0.00     0.163 HD
HETATM   14  O   UNL     1      -8.553   0.718 -30.999  1.00  0.00    -0.268 OA
BRANCH  12  15
HETATM   15  C   UNL     1      -6.291   0.411 -32.678  1.00  0.00     0.114 C 
HETATM   16  C   UNL     1      -5.176   1.434 -32.897  1.00  0.00     0.037 C 
BRANCH  15  17
HETATM   17  C   UNL     1      -6.009  -0.889 -33.411  1.00  0.00    -0.036 A 
HETATM   18  C   UNL     1      -4.689  -1.351 -33.530  1.00  0.00     0.009 A 
HETATM   19  C   UNL     1      -4.404  -2.529 -34.225  1.00  0.00     0.001 A 
HETATM   20  C   UNL     1      -5.433  -3.264 -34.805  1.00  0.00     0.000 A 
HETATM   21  C   UNL     1      -6.750  -2.827 -34.689  1.00  0.00     0.001 A 
HETATM   22  C   UNL     1      -7.036  -1.648 -33.997  1.00  0.00     0.009 A 
ENDBRANCH  15  17
ENDBRANCH  12  15
ENDBRANCH   6  11
ENDBRANCH   1   5
BRANCH   2  23
HETATM   23  C   UNL     1      -7.975   5.277 -30.971  1.00  0.00     0.240 C 
BRANCH  23  24
HETATM   24  N   UNL     1      -6.531   5.251 -30.892  1.00  0.00    -0.259 N 
HETATM   25  C   UNL     1      -5.831   4.191 -30.406  1.00  0.00     0.326 C 
HETATM   26  O   UNL     1      -6.274   3.206 -29.841  1.00  0.00    -0.247 OA
HETATM   27  N   UNL     1      -4.507   4.359 -30.727  1.00  0.00    -0.324 N 
HETATM   28  C   UNL     1      -4.259   5.574 -31.474  1.00  0.00     0.120 C 
HETATM   29  H   UNL     1      -3.804   3.699 -30.417  1.00  0.00     0.165 HD
HETATM   30  C   UNL     1      -3.427   6.580 -30.677  1.00  0.00     0.080 C 
HETATM   31  C   UNL     1      -3.644   5.315 -32.848  1.00  0.00     0.046 C 
HETATM   32  C   UNL     1      -5.709   6.054 -31.634  1.00  0.00     0.257 C 
HETATM   33  C   UNL     1      -1.952   6.231 -30.680  1.00  0.00    -0.049 A 
HETATM   34  C   UNL     1      -1.394   5.402 -31.672  1.00  0.00    -0.052 A 
HETATM   35  C   UNL     1      -1.118   6.786 -29.698  1.00  0.00     0.007 A 
HETATM   36  C   UNL     1      -2.237   4.738 -32.732  1.00  0.00     0.042 C 
HETATM   37  C   UNL     1      -0.019   5.122 -31.641  1.00  0.00     0.007 A 
HETATM   38  C   UNL     1       0.797   5.669 -30.652  1.00  0.00     0.001 A 
HETATM   39  C   UNL     1       0.247   6.501 -29.681  1.00  0.00     0.001 A 
HETATM   40  O   UNL     1      -6.074   6.992 -32.335  1.00  0.00    -0.270 OA
ENDBRANCH  23  24
ENDBRANCH   2  23
TORSDOF 6
ENDMDL
MODEL 8
REMARK VINA RESULT:     -10.1      1.575      2.181
REMARK  6 active torsions:
REMARK  status: ('A' for Active; 'I' for Inactive)
REMARK    1  A    between atoms: C_2  and  N_3 
REMARK    2  A    between atoms: C_2  and  C_32 
REMARK       I    between atoms: N_3  and  C_4 
REMARK    3  A    between atoms: C_4  and  C_5 
REMARK    4  A    between atoms: C_6  and  N_7 
REMARK       I    between atoms: N_7  and  C_8 
REMARK    5  A    between atoms: C_8  and  C_9 
REMARK    6  A    between atoms: C_9  and  N_10 
ROOT
HETATM    1  N   UNL     1      -5.346   4.402 -32.206  1.00  0.00    -0.325 N 
HETATM    2  C   UNL     1      -4.979   5.579 -32.840  1.00  0.00     0.240 C 
HETATM    3  O   UNL     1      -5.729   6.491 -33.174  1.00  0.00    -0.271 OA
HETATM    4  H   UNL     1      -4.643   3.668 -32.173  1.00  0.00     0.169 HD
ENDROOT
BRANCH   1   5
HETATM    5  C   UNL     1      -6.623   4.018 -31.734  1.00  0.00     0.050 A 
HETATM    6  C   UNL     1      -7.253   2.881 -32.291  1.00  0.00     0.058 A 
HETATM    7  C   UNL     1      -8.470   2.418 -31.769  1.00  0.00     0.019 A 
HETATM    8  C   UNL     1      -9.086   3.093 -30.718  1.00  0.00     0.001 A 
HETATM    9  C   UNL     1      -8.486   4.229 -30.184  1.00  0.00     0.002 A 
HETATM   10  C   UNL     1      -7.263   4.688 -30.687  1.00  0.00     0.030 A 
BRANCH   6  11
HETATM   11  C   UNL     1      -6.673   2.094 -33.415  1.00  0.00     0.254 C 
HETATM   12  N   UNL     1      -6.646   0.721 -33.254  1.00  0.00    -0.349 N 
HETATM   13  H   UNL     1      -6.774   0.337 -32.320  1.00  0.00     0.163 HD
HETATM   14  O   UNL     1      -6.255   2.674 -34.411  1.00  0.00    -0.268 OA
BRANCH  12  15
HETATM   15  C   UNL     1      -6.000  -0.143 -34.234  1.00  0.00     0.114 C 
HETATM   16  C   UNL     1      -7.048  -0.889 -35.061  1.00  0.00     0.037 C 
BRANCH  15  17
HETATM   17  C   UNL     1      -5.029  -1.101 -33.567  1.00  0.00    -0.036 A 
HETATM   18  C   UNL     1      -4.817  -2.375 -34.116  1.00  0.00     0.009 A 
HETATM   19  C   UNL     1      -3.951  -3.283 -33.503  1.00  0.00     0.001 A 
HETATM   20  C   UNL     1      -3.279  -2.929 -32.337  1.00  0.00     0.000 A 
HETATM   21  C   UNL     1      -3.468  -1.666 -31.783  1.00  0.00     0.001 A 
HETATM   22  C   UNL     1      -4.338  -0.758 -32.393  1.00  0.00     0.009 A 
ENDBRANCH  15  17
ENDBRANCH  12  15
ENDBRANCH   6  11
ENDBRANCH   1   5
BRANCH   2  23
HETATM   23  C   UNL     1      -3.494   5.592 -33.207  1.00  0.00     0.240 C 
BRANCH  23  24
HETATM   24  N   UNL     1      -2.735   6.370 -32.253  1.00  0.00    -0.259 N 
HETATM   25  C   UNL     1      -2.076   7.513 -32.582  1.00  0.00     0.326 C 
HETATM   26  O   UNL     1      -1.889   7.968 -33.697  1.00  0.00    -0.247 OA
HETATM   27  N   UNL     1      -1.705   8.150 -31.423  1.00  0.00    -0.324 N 
HETATM   28  C   UNL     1      -2.122   7.440 -30.232  1.00  0.00     0.120 C 
HETATM   29  H   UNL     1      -1.160   9.004 -31.445  1.00  0.00     0.165 HD
HETATM   30  C   UNL     1      -0.932   6.898 -29.439  1.00  0.00     0.080 C 
HETATM   31  C   UNL     1      -3.050   8.263 -29.342  1.00  0.00     0.046 C 
HETATM   32  C   UNL     1      -2.912   6.304 -30.898  1.00  0.00     0.257 C 
HETATM   33  C   UNL     1      -0.261   7.974 -28.610  1.00  0.00    -0.049 A 
HETATM   34  C   UNL     1      -0.936   9.155 -28.250  1.00  0.00    -0.052 A 
HETATM   35  C   UNL     1       1.049   7.764 -28.152  1.00  0.00     0.007 A 
HETATM   36  C   UNL     1      -2.328   9.465 -28.741  1.00  0.00     0.042 C 
HETATM   37  C   UNL     1      -0.276  10.114 -27.465  1.00  0.00     0.007 A 
HETATM   38  C   UNL     1       1.029   9.899 -27.028  1.00  0.00     0.001 A 
HETATM   39  C   UNL     1       1.692   8.724 -27.371  1.00  0.00     0.001 A 
HETATM   40  O   UNL     1      -3.609   5.484 -30.311  1.00  0.00    -0.270 OA
ENDBRANCH  23  24
ENDBRANCH   2  23
TORSDOF 6
ENDMDL
MODEL 9
REMARK VINA RESULT:     -10.0      2.780      9.742
REMARK  6 active torsions:
REMARK  status: ('A' for Active; 'I' for Inactive)
REMARK    1  A    between atoms: C_2  and  N_3 
REMARK    2  A    between atoms: C_2  and  C_32 
REMARK       I    between atoms: N_3  and  C_4 
REMARK    3  A    between atoms: C_4  and  C_5 
REMARK    4  A    between atoms: C_6  and  N_7 
REMARK       I    between atoms: N_7  and  C_8 
REMARK    5  A    between atoms: C_8  and  C_9 
REMARK    6  A    between atoms: C_9  and  N_10 
ROOT
HETATM    1  N   UNL     1      -5.815   4.039 -29.381  1.00  0.00    -0.325 N 
HETATM    2  C   UNL     1      -5.483   3.466 -30.600  1.00  0.00     0.240 C 
HETATM    3  O   UNL     1      -6.040   3.667 -31.675  1.00  0.00    -0.271 OA
HETATM    4  H   UNL     1      -5.387   3.626 -28.557  1.00  0.00     0.169 HD
ENDROOT
BRANCH   1   5
HETATM    5  C   UNL     1      -6.795   5.021 -29.109  1.00  0.00     0.050 A 
HETATM    6  C   UNL     1      -6.429   6.183 -28.392  1.00  0.00     0.058 A 
HETATM    7  C   UNL     1      -7.355   7.220 -28.201  1.00  0.00     0.019 A 
HETATM    8  C   UNL     1      -8.655   7.100 -28.688  1.00  0.00     0.001 A 
HETATM    9  C   UNL     1      -9.030   5.946 -29.369  1.00  0.00     0.002 A 
HETATM   10  C   UNL     1      -8.107   4.915 -29.580  1.00  0.00     0.030 A 
BRANCH   6  11
HETATM   11  C   UNL     1      -5.065   6.404 -27.835  1.00  0.00     0.254 C 
HETATM   12  N   UNL     1      -4.205   7.171 -28.597  1.00  0.00    -0.349 N 
HETATM   13  H   UNL     1      -4.433   7.330 -29.578  1.00  0.00     0.163 HD
HETATM   14  O   UNL     1      -4.765   5.914 -26.751  1.00  0.00    -0.268 OA
BRANCH  12  15
HETATM   15  C   UNL     1      -2.813   7.360 -28.210  1.00  0.00     0.114 C 
HETATM   16  C   UNL     1      -2.634   8.701 -27.498  1.00  0.00     0.037 C 
BRANCH  15  17
HETATM   17  C   UNL     1      -1.887   7.235 -29.408  1.00  0.00    -0.036 A 
HETATM   18  C   UNL     1      -2.418   7.279 -30.706  1.00  0.00     0.009 A 
HETATM   19  C   UNL     1      -1.590   7.137 -31.823  1.00  0.00     0.001 A 
HETATM   20  C   UNL     1      -0.220   6.954 -31.657  1.00  0.00     0.000 A 
HETATM   21  C   UNL     1       0.326   6.918 -30.376  1.00  0.00     0.001 A 
HETATM   22  C   UNL     1      -0.502   7.057 -29.260  1.00  0.00     0.009 A 
ENDBRANCH  15  17
ENDBRANCH  12  15
ENDBRANCH   6  11
ENDBRANCH   1   5
BRANCH   2  23
HETATM   23  C   UNL     1      -4.373   2.422 -30.459  1.00  0.00     0.240 C 
BRANCH  23  24
HETATM   24  N   UNL     1      -4.719   1.207 -31.161  1.00  0.00    -0.259 N 
HETATM   25  C   UNL     1      -5.647   0.323 -30.706  1.00  0.00     0.326 C 
HETATM   26  O   UNL     1      -6.199   0.320 -29.620  1.00  0.00    -0.247 OA
HETATM   27  N   UNL     1      -5.945  -0.556 -31.718  1.00  0.00    -0.324 N 
HETATM   28  C   UNL     1      -5.211  -0.282 -32.936  1.00  0.00     0.120 C 
HETATM   29  H   UNL     1      -6.586  -1.326 -31.572  1.00  0.00     0.165 HD
HETATM   30  C   UNL     1      -4.213  -1.392 -33.268  1.00  0.00     0.080 C 
HETATM   31  C   UNL     1      -6.119   0.018 -34.126  1.00  0.00     0.046 C 
HETATM   32  C   UNL     1      -4.490   1.001 -32.494  1.00  0.00     0.257 C 
HETATM   33  C   UNL     1      -4.886  -2.595 -33.898  1.00  0.00    -0.049 A 
HETATM   34  C   UNL     1      -6.141  -2.491 -34.526  1.00  0.00    -0.052 A 
HETATM   35  C   UNL     1      -4.218  -3.829 -33.894  1.00  0.00     0.007 A 
HETATM   36  C   UNL     1      -6.932  -1.207 -34.532  1.00  0.00     0.042 C 
HETATM   37  C   UNL     1      -6.714  -3.631 -35.111  1.00  0.00     0.007 A 
HETATM   38  C   UNL     1      -6.047  -4.854 -35.090  1.00  0.00     0.001 A 
HETATM   39  C   UNL     1      -4.799  -4.953 -34.481  1.00  0.00     0.001 A 
HETATM   40  O   UNL     1      -3.835   1.735 -33.225  1.00  0.00    -0.270 OA
ENDBRANCH  23  24
ENDBRANCH   2  23
TORSDOF 6
ENDMDL
MODEL 10
REMARK VINA RESULT:      -9.9      3.225      4.929
REMARK  6 active torsions:
REMARK  status: ('A' for Active; 'I' for Inactive)
REMARK    1  A    between atoms: C_2  and  N_3 
REMARK    2  A    between atoms: C_2  and  C_32 
REMARK       I    between atoms: N_3  and  C_4 
REMARK    3  A    between atoms: C_4  and  C_5 
REMARK    4  A    between atoms: C_6  and  N_7 
REMARK       I    between atoms: N_7  and  C_8 
REMARK    5  A    between atoms: C_8  and  C_9 
REMARK    6  A    between atoms: C_9  and  N_10 
ROOT
HETATM    1  N   UNL     1      -9.028   3.912 -31.812  1.00  0.00    -0.325 N 
HETATM    2  C   UNL     1      -9.495   4.233 -30.546  1.00  0.00     0.240 C 
HETATM    3  O   UNL     1     -10.615   4.000 -30.102  1.00  0.00    -0.271 OA
HETATM    4  H   UNL     1      -8.151   4.342 -32.092  1.00  0.00     0.169 HD
ENDROOT
BRANCH   1   5
HETATM    5  C   UNL     1      -9.686   3.190 -32.835  1.00  0.00     0.050 A 
HETATM    6  C   UNL     1      -9.275   1.869 -33.124  1.00  0.00     0.058 A 
HETATM    7  C   UNL     1      -9.978   1.095 -34.060  1.00  0.00     0.019 A 
HETATM    8  C   UNL     1     -11.070   1.634 -34.738  1.00  0.00     0.001 A 
HETATM    9  C   UNL     1     -11.462   2.944 -34.479  1.00  0.00     0.002 A 
HETATM   10  C   UNL     1     -10.777   3.716 -33.534  1.00  0.00     0.030 A 
BRANCH   6  11
HETATM   11  C   UNL     1      -8.122   1.207 -32.451  1.00  0.00     0.254 C 
HETATM   12  N   UNL     1      -7.095   0.778 -33.271  1.00  0.00    -0.349 N 
HETATM   13  H   UNL     1      -7.270   0.698 -34.271  1.00  0.00     0.163 HD
HETATM   14  O   UNL     1      -8.125   1.073 -31.233  1.00  0.00    -0.268 OA
BRANCH  12  15
HETATM   15  C   UNL     1      -5.971   0.018 -32.740  1.00  0.00     0.114 C 
HETATM   16  C   UNL     1      -4.696   0.862 -32.765  1.00  0.00     0.037 C 
BRANCH  15  17
HETATM   17  C   UNL     1      -5.790  -1.290 -33.490  1.00  0.00    -0.036 A 
HETATM   18  C   UNL     1      -6.895  -1.902 -34.102  1.00  0.00     0.009 A 
HETATM   19  C   UNL     1      -6.758  -3.120 -34.773  1.00  0.00     0.001 A 
HETATM   20  C   UNL     1      -5.515  -3.741 -34.846  1.00  0.00     0.000 A 
HETATM   21  C   UNL     1      -4.404  -3.144 -34.254  1.00  0.00     0.001 A 
HETATM   22  C   UNL     1      -4.541  -1.928 -33.580  1.00  0.00     0.009 A 
ENDBRANCH  15  17
ENDBRANCH  12  15
ENDBRANCH   6  11
ENDBRANCH   1   5
BRANCH   2  23
HETATM   23  C   UNL     1      -8.474   5.046 -29.748  1.00  0.00     0.240 C 
BRANCH  23  24
HETATM   24  N   UNL     1      -7.299   5.319 -30.545  1.00  0.00    -0.259 N 
HETATM   25  C   UNL     1      -7.229   6.341 -31.441  1.00  0.00     0.326 C 
HETATM   26  O   UNL     1      -8.137   7.061 -31.818  1.00  0.00    -0.247 OA
HETATM   27  N   UNL     1      -5.917   6.505 -31.813  1.00  0.00    -0.324 N 
HETATM   28  C   UNL     1      -5.025   5.575 -31.153  1.00  0.00     0.120 C 
HETATM   29  H   UNL     1      -5.651   7.190 -32.510  1.00  0.00     0.165 HD
HETATM   30  C   UNL     1      -4.405   4.578 -32.134  1.00  0.00     0.080 C 
HETATM   31  C   UNL     1      -3.951   6.268 -30.318  1.00  0.00     0.046 C 
HETATM   32  C   UNL     1      -6.041   4.887 -30.229  1.00  0.00     0.257 C 
HETATM   33  C   UNL     1      -3.258   5.186 -32.916  1.00  0.00    -0.049 A 
HETATM   34  C   UNL     1      -2.566   6.319 -32.447  1.00  0.00    -0.052 A 
HETATM   35  C   UNL     1      -2.847   4.574 -34.110  1.00  0.00     0.007 A 
HETATM   36  C   UNL     1      -2.979   7.051 -31.195  1.00  0.00     0.042 C 
HETATM   37  C   UNL     1      -1.498   6.833 -33.199  1.00  0.00     0.007 A 
HETATM   38  C   UNL     1      -1.108   6.224 -34.391  1.00  0.00     0.001 A 
HETATM   39  C   UNL     1      -1.783   5.095 -34.846  1.00  0.00     0.001 A 
HETATM   40  O   UNL     1      -5.764   4.096 -29.334  1.00  0.00    -0.270 OA
ENDBRANCH  23  24
ENDBRANCH   2  23
TORSDOF 6
ENDMDL
