MODEL 1
REMARK VINA RESULT:      -8.0      0.000      0.000
REMARK  4 active torsions:
REMARK  status: ('A' for Active; 'I' for Inactive)
REMARK    1  A    between atoms: C_6  and  N_7 
REMARK       I    between atoms: N_7  and  C_8 
REMARK    2  A    between atoms: C_8  and  C_9 
REMARK    3  A    between atoms: C_9  and  O_10 
REMARK    4  A    between atoms: O_10  and  C_11 
ROOT
HETATM    1  N   UNL     1     -10.671   1.292 -33.895  1.00  0.00    -0.323 N 
HETATM    2  C   UNL     1      -9.817   0.392 -33.279  1.00  0.00     0.256 C 
HETATM    3  O   UNL     1     -10.164  -0.496 -32.505  1.00  0.00    -0.270 OA
HETATM    4  H   UNL     1     -10.255   1.935 -34.565  1.00  0.00     0.169 HD
ENDROOT
BRANCH   2   5
HETATM    5  C   UNL     1      -8.328   0.578 -33.692  1.00  0.00     0.141 C 
HETATM    6  C   UNL     1      -8.117   0.391 -35.204  1.00  0.00     0.057 C 
HETATM    7  C   UNL     1      -7.945   2.040 -33.371  1.00  0.00     0.057 C 
BRANCH   5   8
HETATM    8  O   UNL     1      -7.412  -0.211 -32.922  1.00  0.00    -0.331 OA
BRANCH   8   9
HETATM    9  C   UNL     1      -6.618  -1.163 -33.493  1.00  0.00     0.072 A 
HETATM   10  C   UNL     1      -7.035  -2.311 -34.164  1.00  0.00     0.060 A 
HETATM   11  C   UNL     1      -6.086  -3.188 -34.699  1.00  0.00     0.036 A 
HETATM   12 CL   UNL     1      -6.610  -4.595 -35.542  1.00  0.00    -0.084 Cl
HETATM   13  C   UNL     1      -4.723  -2.938 -34.563  1.00  0.00     0.024 A 
HETATM   14  C   UNL     1      -4.300  -1.803 -33.877  1.00  0.00     0.004 A 
HETATM   15  C   UNL     1      -5.246  -0.925 -33.343  1.00  0.00     0.037 A 
ENDBRANCH   8   9
ENDBRANCH   5   8
ENDBRANCH   2   5
BRANCH   1  16
HETATM   16  C   UNL     1     -12.080   1.378 -33.771  1.00  0.00     0.060 A 
HETATM   17  C   UNL     1     -12.944   0.453 -34.352  1.00  0.00     0.050 A 
HETATM   18  C   UNL     1     -14.307   0.621 -34.179  1.00  0.00     0.119 A 
HETATM   19  N   UNL     1     -14.859   1.642 -33.490  1.00  0.00    -0.264 NA
HETATM   20  C   UNL     1     -14.019   2.545 -32.923  1.00  0.00     0.054 A 
HETATM   21  C   UNL     1     -14.681   3.684 -32.204  1.00  0.00     0.072 C 
HETATM   22  C   UNL     1     -12.628   2.439 -33.028  1.00  0.00     0.085 A 
HETATM   23 CL   UNL     1     -11.584   3.615 -32.294  1.00  0.00    -0.080 Cl
ENDBRANCH   1  16
TORSDOF 4
ENDMDL
MODEL 2
REMARK VINA RESULT:      -7.8      5.016      7.338
REMARK  4 active torsions:
REMARK  status: ('A' for Active; 'I' for Inactive)
REMARK    1  A    between atoms: C_6  and  N_7 
REMARK       I    between atoms: N_7  and  C_8 
REMARK    2  A    between atoms: C_8  and  C_9 
REMARK    3  A    between atoms: C_9  and  O_10 
REMARK    4  A    between atoms: O_10  and  C_11 
ROOT
HETATM    1  N   UNL     1      -4.489   2.702 -32.670  1.00  0.00    -0.323 N 
HETATM    2  C   UNL     1      -4.358   1.383 -32.265  1.00  0.00     0.256 C 
HETATM    3  O   UNL     1      -3.415   0.932 -31.620  1.00  0.00    -0.270 OA
HETATM    4  H   UNL     1      -5.354   2.953 -33.142  1.00  0.00     0.169 HD
ENDROOT
BRANCH   2   5
HETATM    5  C   UNL     1      -5.567   0.493 -32.673  1.00  0.00     0.141 C 
HETATM    6  C   UNL     1      -5.911  -0.549 -31.596  1.00  0.00     0.057 C 
HETATM    7  C   UNL     1      -6.796   1.422 -32.797  1.00  0.00     0.057 C 
BRANCH   5   8
HETATM    8  O   UNL     1      -5.434  -0.101 -33.971  1.00  0.00    -0.331 OA
BRANCH   8   9
HETATM    9  C   UNL     1      -5.440  -1.453 -34.153  1.00  0.00     0.072 A 
HETATM   10  C   UNL     1      -4.378  -2.331 -33.947  1.00  0.00     0.060 A 
HETATM   11  C   UNL     1      -4.551  -3.700 -34.176  1.00  0.00     0.036 A 
HETATM   12 CL   UNL     1      -3.239  -4.781 -33.903  1.00  0.00    -0.084 Cl
HETATM   13  C   UNL     1      -5.772  -4.203 -34.619  1.00  0.00     0.024 A 
HETATM   14  C   UNL     1      -6.831  -3.328 -34.845  1.00  0.00     0.004 A 
HETATM   15  C   UNL     1      -6.660  -1.960 -34.616  1.00  0.00     0.037 A 
ENDBRANCH   8   9
ENDBRANCH   5   8
ENDBRANCH   2   5
BRANCH   1  16
HETATM   16  C   UNL     1      -3.595   3.776 -32.435  1.00  0.00     0.060 A 
HETATM   17  C   UNL     1      -2.462   3.997 -33.215  1.00  0.00     0.050 A 
HETATM   18  C   UNL     1      -1.645   5.070 -32.906  1.00  0.00     0.119 A 
HETATM   19  N   UNL     1      -1.869   5.917 -31.879  1.00  0.00    -0.264 NA
HETATM   20  C   UNL     1      -2.972   5.704 -31.117  1.00  0.00     0.054 A 
HETATM   21  C   UNL     1      -3.155   6.646 -29.962  1.00  0.00     0.072 C 
HETATM   22  C   UNL     1      -3.864   4.657 -31.372  1.00  0.00     0.085 A 
HETATM   23 CL   UNL     1      -5.262   4.411 -30.374  1.00  0.00    -0.080 Cl
ENDBRANCH   1  16
TORSDOF 4
ENDMDL
MODEL 3
REMARK VINA RESULT:      -7.7      1.678      2.064
REMARK  4 active torsions:
REMARK  status: ('A' for Active; 'I' for Inactive)
REMARK    1  A    between atoms: C_6  and  N_7 
REMARK       I    between atoms: N_7  and  C_8 
REMARK    2  A    between atoms: C_8  and  C_9 
REMARK    3  A    between atoms: C_9  and  O_10 
REMARK    4  A    between atoms: O_10  and  C_11 
ROOT
HETATM    1  N   UNL     1      -9.353   1.978 -34.497  1.00  0.00    -0.323 N 
HETATM    2  C   UNL     1      -8.508   1.722 -33.429  1.00  0.00     0.256 C 
HETATM    3  O   UNL     1      -8.729   2.035 -32.262  1.00  0.00    -0.270 OA
HETATM    4  H   UNL     1      -9.076   1.605 -35.401  1.00  0.00     0.169 HD
ENDROOT
BRANCH   2   5
HETATM    5  C   UNL     1      -7.224   0.943 -33.837  1.00  0.00     0.141 C 
HETATM    6  C   UNL     1      -7.198   0.612 -35.338  1.00  0.00     0.057 C 
HETATM    7  C   UNL     1      -6.021   1.876 -33.570  1.00  0.00     0.057 C 
BRANCH   5   8
HETATM    8  O   UNL     1      -6.969  -0.212 -33.028  1.00  0.00    -0.331 OA
BRANCH   8   9
HETATM    9  C   UNL     1      -6.305  -1.303 -33.512  1.00  0.00     0.072 A 
HETATM   10  C   UNL     1      -6.837  -2.336 -34.279  1.00  0.00     0.060 A 
HETATM   11  C   UNL     1      -6.015  -3.385 -34.701  1.00  0.00     0.036 A 
HETATM   12 CL   UNL     1      -6.676  -4.651 -35.664  1.00  0.00    -0.084 Cl
HETATM   13  C   UNL     1      -4.665  -3.420 -34.359  1.00  0.00     0.024 A 
HETATM   14  C   UNL     1      -4.132  -2.399 -33.576  1.00  0.00     0.004 A 
HETATM   15  C   UNL     1      -4.952  -1.350 -33.154  1.00  0.00     0.037 A 
ENDBRANCH   8   9
ENDBRANCH   5   8
ENDBRANCH   2   5
BRANCH   1  16
HETATM   16  C   UNL     1     -10.611   2.630 -34.472  1.00  0.00     0.060 A 
HETATM   17  C   UNL     1     -10.789   3.939 -34.913  1.00  0.00     0.050 A 
HETATM   18  C   UNL     1     -12.055   4.494 -34.847  1.00  0.00     0.119 A 
HETATM   19  N   UNL     1     -13.137   3.846 -34.364  1.00  0.00    -0.264 NA
HETATM   20  C   UNL     1     -12.966   2.571 -33.932  1.00  0.00     0.054 A 
HETATM   21  C   UNL     1     -14.188   1.909 -33.365  1.00  0.00     0.072 C 
HETATM   22  C   UNL     1     -11.727   1.925 -33.985  1.00  0.00     0.085 A 
HETATM   23 CL   UNL     1     -11.544   0.295 -33.420  1.00  0.00    -0.080 Cl
ENDBRANCH   1  16
TORSDOF 4
ENDMDL
MODEL 4
REMARK VINA RESULT:      -7.6      2.098      2.580
REMARK  4 active torsions:
REMARK  status: ('A' for Active; 'I' for Inactive)
REMARK    1  A    between atoms: C_6  and  N_7 
REMARK       I    between atoms: N_7  and  C_8 
REMARK    2  A    between atoms: C_8  and  C_9 
REMARK    3  A    between atoms: C_9  and  O_10 
REMARK    4  A    between atoms: O_10  and  C_11 
ROOT
HETATM    1  N   UNL     1      -9.130   2.233 -33.887  1.00  0.00    -0.323 N 
HETATM    2  C   UNL     1      -8.603   2.647 -32.675  1.00  0.00     0.256 C 
HETATM    3  O   UNL     1      -9.262   3.012 -31.705  1.00  0.00    -0.270 OA
HETATM    4  H   UNL     1      -8.471   1.895 -34.583  1.00  0.00     0.169 HD
ENDROOT
BRANCH   2   5
HETATM    5  C   UNL     1      -7.049   2.575 -32.625  1.00  0.00     0.141 C 
HETATM    6  C   UNL     1      -6.416   2.721 -34.019  1.00  0.00     0.057 C 
HETATM    7  C   UNL     1      -6.563   3.781 -31.791  1.00  0.00     0.057 C 
BRANCH   5   8
HETATM    8  O   UNL     1      -6.547   1.429 -31.926  1.00  0.00    -0.331 OA
BRANCH   8   9
HETATM    9  C   UNL     1      -6.041   0.344 -32.582  1.00  0.00     0.072 A 
HETATM   10  C   UNL     1      -6.763  -0.685 -33.182  1.00  0.00     0.060 A 
HETATM   11  C   UNL     1      -6.088  -1.729 -33.823  1.00  0.00     0.036 A 
HETATM   12 CL   UNL     1      -6.987  -2.988 -34.578  1.00  0.00    -0.084 Cl
HETATM   13  C   UNL     1      -4.695  -1.762 -33.864  1.00  0.00     0.024 A 
HETATM   14  C   UNL     1      -3.969  -0.747 -33.249  1.00  0.00     0.004 A 
HETATM   15  C   UNL     1      -4.642   0.297 -32.609  1.00  0.00     0.037 A 
ENDBRANCH   8   9
ENDBRANCH   5   8
ENDBRANCH   2   5
BRANCH   1  16
HETATM   16  C   UNL     1     -10.496   2.142 -34.255  1.00  0.00     0.060 A 
HETATM   17  C   UNL     1     -11.134   3.113 -35.023  1.00  0.00     0.050 A 
HETATM   18  C   UNL     1     -12.473   2.940 -35.329  1.00  0.00     0.119 A 
HETATM   19  N   UNL     1     -13.210   1.888 -34.915  1.00  0.00    -0.264 NA
HETATM   20  C   UNL     1     -12.591   0.941 -34.166  1.00  0.00     0.054 A 
HETATM   21  C   UNL     1     -13.463  -0.186 -33.694  1.00  0.00     0.072 C 
HETATM   22  C   UNL     1     -11.236   1.024 -33.829  1.00  0.00     0.085 A 
HETATM   23 CL   UNL     1     -10.477  -0.203 -32.865  1.00  0.00    -0.080 Cl
ENDBRANCH   1  16
TORSDOF 4
ENDMDL
MODEL 5
REMARK VINA RESULT:      -7.5      2.146      3.152
REMARK  4 active torsions:
REMARK  status: ('A' for Active; 'I' for Inactive)
REMARK    1  A    between atoms: C_6  and  N_7 
REMARK       I    between atoms: N_7  and  C_8 
REMARK    2  A    between atoms: C_8  and  C_9 
REMARK    3  A    between atoms: C_9  and  O_10 
REMARK    4  A    between atoms: O_10  and  C_11 
ROOT
HETATM    1  N   UNL     1      -8.035   1.362 -33.711  1.00  0.00    -0.323 N 
HETATM    2  C   UNL     1      -7.328   1.362 -32.519  1.00  0.00     0.256 C 
HETATM    3  O   UNL     1      -7.727   1.842 -31.461  1.00  0.00    -0.270 OA
HETATM    4  H   UNL     1      -7.613   0.871 -34.495  1.00  0.00     0.169 HD
ENDROOT
BRANCH   2   5
HETATM    5  C   UNL     1      -5.952   0.644 -32.623  1.00  0.00     0.141 C 
HETATM    6  C   UNL     1      -4.793   1.540 -32.151  1.00  0.00     0.057 C 
HETATM    7  C   UNL     1      -5.994  -0.564 -31.661  1.00  0.00     0.057 C 
BRANCH   5   8
HETATM    8  O   UNL     1      -5.695   0.070 -33.910  1.00  0.00    -0.331 OA
BRANCH   8   9
HETATM    9  C   UNL     1      -5.632  -1.280 -34.103  1.00  0.00     0.072 A 
HETATM   10  C   UNL     1      -4.533  -2.107 -33.885  1.00  0.00     0.060 A 
HETATM   11  C   UNL     1      -4.636  -3.481 -34.128  1.00  0.00     0.036 A 
HETATM   12 CL   UNL     1      -3.279  -4.500 -33.839  1.00  0.00    -0.084 Cl
HETATM   13  C   UNL     1      -5.824  -4.038 -34.596  1.00  0.00     0.024 A 
HETATM   14  C   UNL     1      -6.919  -3.213 -34.834  1.00  0.00     0.004 A 
HETATM   15  C   UNL     1      -6.818  -1.841 -34.591  1.00  0.00     0.037 A 
ENDBRANCH   8   9
ENDBRANCH   5   8
ENDBRANCH   2   5
BRANCH   1  16
HETATM   16  C   UNL     1      -9.326   1.894 -33.956  1.00  0.00     0.060 A 
HETATM   17  C   UNL     1      -9.526   3.157 -34.507  1.00  0.00     0.050 A 
HETATM   18  C   UNL     1     -10.824   3.594 -34.706  1.00  0.00     0.119 A 
HETATM   19  N   UNL     1     -11.919   2.874 -34.384  1.00  0.00    -0.264 NA
HETATM   20  C   UNL     1     -11.727   1.643 -33.846  1.00  0.00     0.054 A 
HETATM   21  C   UNL     1     -12.974   0.899 -33.465  1.00  0.00     0.072 C 
HETATM   22  C   UNL     1     -10.450   1.114 -33.632  1.00  0.00     0.085 A 
HETATM   23 CL   UNL     1     -10.241  -0.463 -32.937  1.00  0.00    -0.080 Cl
ENDBRANCH   1  16
TORSDOF 4
ENDMDL
MODEL 6
REMARK VINA RESULT:      -7.5      3.186      7.523
REMARK  4 active torsions:
REMARK  status: ('A' for Active; 'I' for Inactive)
REMARK    1  A    between atoms: C_6  and  N_7 
REMARK       I    between atoms: N_7  and  C_8 
REMARK    2  A    between atoms: C_8  and  C_9 
REMARK    3  A    between atoms: C_9  and  O_10 
REMARK    4  A    between atoms: O_10  and  C_11 
ROOT
HETATM    1  N   UNL     1      -6.077  -0.755 -33.918  1.00  0.00    -0.323 N 
HETATM    2  C   UNL     1      -6.273  -0.133 -32.695  1.00  0.00     0.256 C 
HETATM    3  O   UNL     1      -6.340  -0.709 -31.612  1.00  0.00    -0.270 OA
HETATM    4  H   UNL     1      -5.976  -0.150 -34.729  1.00  0.00     0.169 HD
ENDROOT
BRANCH   2   5
HETATM    5  C   UNL     1      -6.368   1.416 -32.802  1.00  0.00     0.141 C 
HETATM    6  C   UNL     1      -5.117   2.115 -32.243  1.00  0.00     0.057 C 
HETATM    7  C   UNL     1      -6.433   1.766 -34.306  1.00  0.00     0.057 C 
BRANCH   5   8
HETATM    8  O   UNL     1      -7.576   1.960 -32.255  1.00  0.00    -0.331 OA
BRANCH   8   9
HETATM    9  C   UNL     1      -8.779   1.833 -32.885  1.00  0.00     0.072 A 
HETATM   10  C   UNL     1      -9.379   2.753 -33.742  1.00  0.00     0.060 A 
HETATM   11  C   UNL     1     -10.622   2.466 -34.314  1.00  0.00     0.036 A 
HETATM   12 CL   UNL     1     -11.349   3.601 -35.386  1.00  0.00    -0.084 Cl
HETATM   13  C   UNL     1     -11.281   1.271 -34.032  1.00  0.00     0.024 A 
HETATM   14  C   UNL     1     -10.695   0.356 -33.162  1.00  0.00     0.004 A 
HETATM   15  C   UNL     1      -9.453   0.641 -32.590  1.00  0.00     0.037 A 
ENDBRANCH   8   9
ENDBRANCH   5   8
ENDBRANCH   2   5
BRANCH   1  16
HETATM   16  C   UNL     1      -5.914  -2.139 -34.173  1.00  0.00     0.060 A 
HETATM   17  C   UNL     1      -6.922  -2.926 -34.725  1.00  0.00     0.050 A 
HETATM   18  C   UNL     1      -6.672  -4.271 -34.934  1.00  0.00     0.119 A 
HETATM   19  N   UNL     1      -5.508  -4.878 -34.621  1.00  0.00    -0.264 NA
HETATM   20  C   UNL     1      -4.524  -4.114 -34.083  1.00  0.00     0.054 A 
HETATM   21  C   UNL     1      -3.265  -4.843 -33.713  1.00  0.00     0.072 C 
HETATM   22  C   UNL     1      -4.683  -2.743 -33.859  1.00  0.00     0.085 A 
HETATM   23 CL   UNL     1      -3.405  -1.796 -33.164  1.00  0.00    -0.080 Cl
ENDBRANCH   1  16
TORSDOF 4
ENDMDL
MODEL 7
REMARK VINA RESULT:      -7.4      3.372      7.454
REMARK  4 active torsions:
REMARK  status: ('A' for Active; 'I' for Inactive)
REMARK    1  A    between atoms: C_6  and  N_7 
REMARK       I    between atoms: N_7  and  C_8 
REMARK    2  A    between atoms: C_8  and  C_9 
REMARK    3  A    between atoms: C_9  and  O_10 
REMARK    4  A    between atoms: O_10  and  C_11 
ROOT
HETATM    1  N   UNL     1      -5.384  -0.242 -33.071  1.00  0.00    -0.323 N 
HETATM    2  C   UNL     1      -5.935   0.217 -31.886  1.00  0.00     0.256 C 
HETATM    3  O   UNL     1      -6.212  -0.484 -30.916  1.00  0.00    -0.270 OA
HETATM    4  H   UNL     1      -5.144   0.459 -33.768  1.00  0.00     0.169 HD
ENDROOT
BRANCH   2   5
HETATM    5  C   UNL     1      -6.150   1.759 -31.866  1.00  0.00     0.141 C 
HETATM    6  C   UNL     1      -5.104   2.479 -30.998  1.00  0.00     0.057 C 
HETATM    7  C   UNL     1      -5.948   2.265 -33.312  1.00  0.00     0.057 C 
BRANCH   5   8
HETATM    8  O   UNL     1      -7.487   2.151 -31.531  1.00  0.00    -0.331 OA
BRANCH   8   9
HETATM    9  C   UNL     1      -8.529   1.989 -32.397  1.00  0.00     0.072 A 
HETATM   10  C   UNL     1      -9.019   2.925 -33.305  1.00  0.00     0.060 A 
HETATM   11  C   UNL     1     -10.098   2.596 -34.131  1.00  0.00     0.036 A 
HETATM   12 CL   UNL     1     -10.686   3.753 -35.263  1.00  0.00    -0.084 Cl
HETATM   13  C   UNL     1     -10.703   1.344 -34.055  1.00  0.00     0.024 A 
HETATM   14  C   UNL     1     -10.230   0.411 -33.137  1.00  0.00     0.004 A 
HETATM   15  C   UNL     1      -9.151   0.737 -32.311  1.00  0.00     0.037 A 
ENDBRANCH   8   9
ENDBRANCH   5   8
ENDBRANCH   2   5
BRANCH   1  16
HETATM   16  C   UNL     1      -5.030  -1.573 -33.406  1.00  0.00     0.060 A 
HETATM   17  C   UNL     1      -3.877  -2.188 -32.926  1.00  0.00     0.050 A 
HETATM   18  C   UNL     1      -3.611  -3.490 -33.312  1.00  0.00     0.119 A 
HETATM   19  N   UNL     1      -4.398  -4.204 -34.144  1.00  0.00    -0.264 NA
HETATM   20  C   UNL     1      -5.522  -3.607 -34.615  1.00  0.00     0.054 A 
HETATM   21  C   UNL     1      -6.341  -4.426 -35.569  1.00  0.00     0.072 C 
HETATM   22  C   UNL     1      -5.879  -2.302 -34.258  1.00  0.00     0.085 A 
HETATM   23 CL   UNL     1      -7.321  -1.567 -34.883  1.00  0.00    -0.080 Cl
ENDBRANCH   1  16
TORSDOF 4
ENDMDL
MODEL 8
REMARK VINA RESULT:      -7.3      4.318      6.880
REMARK  4 active torsions:
REMARK  status: ('A' for Active; 'I' for Inactive)
REMARK    1  A    between atoms: C_6  and  N_7 
REMARK       I    between atoms: N_7  and  C_8 
REMARK    2  A    between atoms: C_8  and  C_9 
REMARK    3  A    between atoms: C_9  and  O_10 
REMARK    4  A    between atoms: O_10  and  C_11 
ROOT
HETATM    1  N   UNL     1      -5.338   2.789 -33.215  1.00  0.00    -0.323 N 
HETATM    2  C   UNL     1      -6.499   2.521 -32.508  1.00  0.00     0.256 C 
HETATM    3  O   UNL     1      -6.960   3.224 -31.613  1.00  0.00    -0.270 OA
HETATM    4  H   UNL     1      -5.107   2.156 -33.976  1.00  0.00     0.169 HD
ENDROOT
BRANCH   2   5
HETATM    5  C   UNL     1      -7.221   1.227 -32.984  1.00  0.00     0.141 C 
HETATM    6  C   UNL     1      -7.338   0.182 -31.862  1.00  0.00     0.057 C 
HETATM    7  C   UNL     1      -8.664   1.625 -33.367  1.00  0.00     0.057 C 
BRANCH   5   8
HETATM    8  O   UNL     1      -6.672   0.667 -34.183  1.00  0.00    -0.331 OA
BRANCH   8   9
HETATM    9  C   UNL     1      -6.128  -0.585 -34.216  1.00  0.00     0.072 A 
HETATM   10  C   UNL     1      -6.730  -1.748 -34.691  1.00  0.00     0.060 A 
HETATM   11  C   UNL     1      -6.029  -2.958 -34.659  1.00  0.00     0.036 A 
HETATM   12 CL   UNL     1      -6.772  -4.388 -35.264  1.00  0.00    -0.084 Cl
HETATM   13  C   UNL     1      -4.735  -3.023 -34.146  1.00  0.00     0.024 A 
HETATM   14  C   UNL     1      -4.137  -1.867 -33.652  1.00  0.00     0.004 A 
HETATM   15  C   UNL     1      -4.835  -0.658 -33.685  1.00  0.00     0.037 A 
ENDBRANCH   8   9
ENDBRANCH   5   8
ENDBRANCH   2   5
BRANCH   1  16
HETATM   16  C   UNL     1      -4.464   3.895 -33.064  1.00  0.00     0.060 A 
HETATM   17  C   UNL     1      -4.633   5.088 -33.763  1.00  0.00     0.050 A 
HETATM   18  C   UNL     1      -3.727   6.112 -33.554  1.00  0.00     0.119 A 
HETATM   19  N   UNL     1      -2.670   6.023 -32.718  1.00  0.00    -0.264 NA
HETATM   20  C   UNL     1      -2.502   4.862 -32.036  1.00  0.00     0.054 A 
HETATM   21  C   UNL     1      -1.291   4.797 -31.153  1.00  0.00     0.072 C 
HETATM   22  C   UNL     1      -3.384   3.784 -32.170  1.00  0.00     0.085 A 
HETATM   23 CL   UNL     1      -3.137   2.311 -31.287  1.00  0.00    -0.080 Cl
ENDBRANCH   1  16
TORSDOF 4
ENDMDL
MODEL 9
REMARK VINA RESULT:      -7.3      2.853      7.600
REMARK  4 active torsions:
REMARK  status: ('A' for Active; 'I' for Inactive)
REMARK    1  A    between atoms: C_6  and  N_7 
REMARK       I    between atoms: N_7  and  C_8 
REMARK    2  A    between atoms: C_8  and  C_9 
REMARK    3  A    between atoms: C_9  and  O_10 
REMARK    4  A    between atoms: O_10  and  C_11 
ROOT
HETATM    1  N   UNL     1      -6.352   0.968 -33.036  1.00  0.00    -0.323 N 
HETATM    2  C   UNL     1      -7.581   1.107 -32.412  1.00  0.00     0.256 C 
HETATM    3  O   UNL     1      -8.046   0.327 -31.585  1.00  0.00    -0.270 OA
HETATM    4  H   UNL     1      -6.061   1.723 -33.652  1.00  0.00     0.169 HD
ENDROOT
BRANCH   2   5
HETATM    5  C   UNL     1      -8.338   2.401 -32.830  1.00  0.00     0.141 C 
HETATM    6  C   UNL     1      -9.290   2.898 -31.729  1.00  0.00     0.057 C 
HETATM    7  C   UNL     1      -7.276   3.506 -33.027  1.00  0.00     0.057 C 
BRANCH   5   8
HETATM    8  O   UNL     1      -8.993   2.302 -34.100  1.00  0.00    -0.331 OA
BRANCH   8   9
HETATM    9  C   UNL     1     -10.338   2.091 -34.208  1.00  0.00     0.072 A 
HETATM   10  C   UNL     1     -11.040   0.948 -33.833  1.00  0.00     0.060 A 
HETATM   11  C   UNL     1     -12.427   0.894 -34.006  1.00  0.00     0.036 A 
HETATM   12 CL   UNL     1     -13.290  -0.515 -33.524  1.00  0.00    -0.084 Cl
HETATM   13  C   UNL     1     -13.122   1.967 -34.560  1.00  0.00     0.024 A 
HETATM   14  C   UNL     1     -12.422   3.104 -34.954  1.00  0.00     0.004 A 
HETATM   15  C   UNL     1     -11.037   3.160 -34.781  1.00  0.00     0.037 A 
ENDBRANCH   8   9
ENDBRANCH   5   8
ENDBRANCH   2   5
BRANCH   1  16
HETATM   16  C   UNL     1      -5.400  -0.067 -32.859  1.00  0.00     0.060 A 
HETATM   17  C   UNL     1      -4.441  -0.042 -31.849  1.00  0.00     0.050 A 
HETATM   18  C   UNL     1      -3.549  -1.096 -31.757  1.00  0.00     0.119 A 
HETATM   19  N   UNL     1      -3.539  -2.150 -32.600  1.00  0.00    -0.264 NA
HETATM   20  C   UNL     1      -4.471  -2.176 -33.586  1.00  0.00     0.054 A 
HETATM   21  C   UNL     1      -4.392  -3.346 -34.523  1.00  0.00     0.072 C 
HETATM   22  C   UNL     1      -5.425  -1.165 -33.738  1.00  0.00     0.085 A 
HETATM   23 CL   UNL     1      -6.600  -1.228 -35.013  1.00  0.00    -0.080 Cl
ENDBRANCH   1  16
TORSDOF 4
ENDMDL
MODEL 10
REMARK VINA RESULT:      -7.0      4.680      6.667
REMARK  4 active torsions:
REMARK  status: ('A' for Active; 'I' for Inactive)
REMARK    1  A    between atoms: C_6  and  N_7 
REMARK       I    between atoms: N_7  and  C_8 
REMARK    2  A    between atoms: C_8  and  C_9 
REMARK    3  A    between atoms: C_9  and  O_10 
REMARK    4  A    between atoms: O_10  and  C_11 
ROOT
HETATM    1  N   UNL     1      -5.315   2.267 -31.375  1.00  0.00    -0.323 N 
HETATM    2  C   UNL     1      -6.222   1.935 -32.369  1.00  0.00     0.256 C 
HETATM    3  O   UNL     1      -6.878   2.741 -33.024  1.00  0.00    -0.270 OA
HETATM    4  H   UNL     1      -4.791   1.502 -30.958  1.00  0.00     0.169 HD
ENDROOT
BRANCH   2   5
HETATM    5  C   UNL     1      -6.320   0.403 -32.624  1.00  0.00     0.141 C 
HETATM    6  C   UNL     1      -6.146  -0.413 -31.331  1.00  0.00     0.057 C 
HETATM    7  C   UNL     1      -7.749   0.117 -33.137  1.00  0.00     0.057 C 
BRANCH   5   8
HETATM    8  O   UNL     1      -5.461  -0.064 -33.672  1.00  0.00    -0.331 OA
BRANCH   8   9
HETATM    9  C   UNL     1      -5.232  -1.392 -33.884  1.00  0.00     0.072 A 
HETATM   10  C   UNL     1      -6.024  -2.273 -34.617  1.00  0.00     0.060 A 
HETATM   11  C   UNL     1      -5.643  -3.613 -34.743  1.00  0.00     0.036 A 
HETATM   12 CL   UNL     1      -6.617  -4.691 -35.666  1.00  0.00    -0.084 Cl
HETATM   13  C   UNL     1      -4.482  -4.087 -34.135  1.00  0.00     0.024 A 
HETATM   14  C   UNL     1      -3.698  -3.216 -33.385  1.00  0.00     0.004 A 
HETATM   15  C   UNL     1      -4.077  -1.877 -33.259  1.00  0.00     0.037 A 
ENDBRANCH   8   9
ENDBRANCH   5   8
ENDBRANCH   2   5
BRANCH   1  16
HETATM   16  C   UNL     1      -4.959   3.561 -30.920  1.00  0.00     0.060 A 
HETATM   17  C   UNL     1      -5.659   4.224 -29.915  1.00  0.00     0.050 A 
HETATM   18  C   UNL     1      -5.240   5.488 -29.540  1.00  0.00     0.119 A 
HETATM   19  N   UNL     1      -4.195   6.132 -30.100  1.00  0.00    -0.264 NA
HETATM   20  C   UNL     1      -3.511   5.489 -31.081  1.00  0.00     0.054 A 
HETATM   21  C   UNL     1      -2.385   6.264 -31.702  1.00  0.00     0.072 C 
HETATM   22  C   UNL     1      -3.852   4.201 -31.506  1.00  0.00     0.085 A 
HETATM   23 CL   UNL     1      -2.959   3.410 -32.766  1.00  0.00    -0.080 Cl
ENDBRANCH   1  16
TORSDOF 4
ENDMDL
