MODEL 1
REMARK VINA RESULT:      -9.5      0.000      0.000
REMARK  2 active torsions:
REMARK  status: ('A' for Active; 'I' for Inactive)
REMARK    1  A    between atoms: C_9  and  C_10 
REMARK       I    between atoms: C_10  and  N_11 
REMARK    2  A    between atoms: N_11  and  C_12 
ROOT
HETATM    1  C   UNL     1      -4.256   0.259 -32.652  1.00  0.00     0.277 C 
HETATM    2  N   UNL     1      -3.429   1.165 -32.011  1.00  0.00    -0.322 N 
HETATM    3  O   UNL     1      -5.259   0.531 -33.301  1.00  0.00    -0.266 OA
HETATM    4  H   UNL     1      -2.634   0.722 -31.553  1.00  0.00     0.169 HD
ENDROOT
BRANCH   2   5
HETATM    5  C   UNL     1      -3.538   2.563 -31.953  1.00  0.00     0.037 A 
HETATM    6  C   UNL     1      -2.772   3.435 -32.731  1.00  0.00     0.062 A 
HETATM    7  C   UNL     1      -2.938   4.818 -32.603  1.00  0.00     0.070 A 
HETATM    8  C   UNL     1      -3.866   5.340 -31.700  1.00  0.00     0.096 A 
HETATM    9  N   UNL     1      -2.186   5.673 -33.408  1.00  0.00    -0.323 N 
HETATM   10  O   UNL     1      -4.107   6.676 -31.544  1.00  0.00    -0.340 OA
HETATM   11  C   UNL     1      -4.643   4.476 -30.936  1.00  0.00     0.041 A 
HETATM   12  C   UNL     1      -3.133   7.529 -32.128  1.00  0.00     0.278 C 
HETATM   13  C   UNL     1      -2.265   7.032 -33.282  1.00  0.00     0.246 C 
HETATM   14  O   UNL     1      -1.625   7.783 -34.013  1.00  0.00    -0.271 OA
HETATM   15  C   UNL     1      -4.479   3.093 -31.061  1.00  0.00     0.032 A 
HETATM   16  H   UNL     1      -1.567   5.309 -34.121  1.00  0.00     0.169 HD
ENDBRANCH   2   5
BRANCH   1  17
HETATM   17  C   UNL     1      -3.776  -1.126 -32.484  1.00  0.00     0.157 A 
HETATM   18  C   UNL     1      -4.221  -2.288 -33.181  1.00  0.00     0.029 A 
HETATM   19  C   UNL     1      -5.168  -2.570 -34.187  1.00  0.00     0.023 A 
HETATM   20  C   UNL     1      -3.461  -3.332 -32.667  1.00  0.00     0.063 A 
HETATM   21  C   UNL     1      -5.317  -3.889 -34.649  1.00  0.00    -0.061 A 
HETATM   22  C   UNL     1      -6.312  -4.210 -35.726  1.00  0.00     0.048 C 
HETATM   23  C   UNL     1      -4.535  -4.912 -34.097  1.00  0.00     0.009 A 
HETATM   24  C   UNL     1      -3.592  -4.655 -33.095  1.00  0.00     0.032 A 
HETATM   25  N   UNL     1      -2.646  -2.756 -31.733  1.00  0.00    -0.277 N 
HETATM   26  H   UNL     1      -1.957  -3.223 -31.153  1.00  0.00     0.189 HD
HETATM   27  N   UNL     1      -2.794  -1.425 -31.605  1.00  0.00    -0.168 NA
ENDBRANCH   1  17
TORSDOF 2
ENDMDL
MODEL 2
REMARK VINA RESULT:      -9.4      4.484      5.706
REMARK  2 active torsions:
REMARK  status: ('A' for Active; 'I' for Inactive)
REMARK    1  A    between atoms: C_9  and  C_10 
REMARK       I    between atoms: C_10  and  N_11 
REMARK    2  A    between atoms: N_11  and  C_12 
ROOT
HETATM    1  C   UNL     1      -5.562   0.304 -32.756  1.00  0.00     0.277 C 
HETATM    2  N   UNL     1      -6.889  -0.062 -32.603  1.00  0.00    -0.322 N 
HETATM    3  O   UNL     1      -5.147   1.429 -33.007  1.00  0.00    -0.266 OA
HETATM    4  H   UNL     1      -7.005  -1.046 -32.368  1.00  0.00     0.169 HD
ENDROOT
BRANCH   2   5
HETATM    5  C   UNL     1      -8.036   0.742 -32.695  1.00  0.00     0.037 A 
HETATM    6  C   UNL     1      -8.890   0.754 -33.800  1.00  0.00     0.062 A 
HETATM    7  C   UNL     1     -10.007   1.595 -33.815  1.00  0.00     0.070 A 
HETATM    8  C   UNL     1     -10.280   2.429 -32.730  1.00  0.00     0.096 A 
HETATM    9  N   UNL     1     -10.865   1.572 -34.914  1.00  0.00    -0.323 N 
HETATM   10  O   UNL     1     -11.368   3.252 -32.657  1.00  0.00    -0.340 OA
HETATM   11  C   UNL     1      -9.441   2.409 -31.619  1.00  0.00     0.041 A 
HETATM   12  C   UNL     1     -12.048   3.450 -33.888  1.00  0.00     0.278 C 
HETATM   13  C   UNL     1     -11.937   2.415 -35.006  1.00  0.00     0.246 C 
HETATM   14  O   UNL     1     -12.709   2.372 -35.960  1.00  0.00    -0.271 OA
HETATM   15  C   UNL     1      -8.324   1.570 -31.603  1.00  0.00     0.032 A 
HETATM   16  H   UNL     1     -10.725   0.917 -35.672  1.00  0.00     0.169 HD
ENDBRANCH   2   5
BRANCH   1  17
HETATM   17  C   UNL     1      -4.657  -0.845 -32.559  1.00  0.00     0.157 A 
HETATM   18  C   UNL     1      -4.714  -2.114 -33.206  1.00  0.00     0.029 A 
HETATM   19  C   UNL     1      -5.536  -2.726 -34.174  1.00  0.00     0.023 A 
HETATM   20  C   UNL     1      -3.648  -2.835 -32.683  1.00  0.00     0.063 A 
HETATM   21  C   UNL     1      -5.258  -4.039 -34.590  1.00  0.00    -0.061 A 
HETATM   22  C   UNL     1      -6.114  -4.706 -35.627  1.00  0.00     0.048 C 
HETATM   23  C   UNL     1      -4.177  -4.732 -34.030  1.00  0.00     0.009 A 
HETATM   24  C   UNL     1      -3.350  -4.145 -33.065  1.00  0.00     0.032 A 
HETATM   25  N   UNL     1      -3.046  -1.992 -31.791  1.00  0.00    -0.277 N 
HETATM   26  H   UNL     1      -2.233  -2.187 -31.217  1.00  0.00     0.189 HD
HETATM   27  N   UNL     1      -3.615  -0.776 -31.700  1.00  0.00    -0.168 NA
ENDBRANCH   1  17
TORSDOF 2
ENDMDL
MODEL 3
REMARK VINA RESULT:      -9.0      2.652      3.607
REMARK  2 active torsions:
REMARK  status: ('A' for Active; 'I' for Inactive)
REMARK    1  A    between atoms: C_9  and  C_10 
REMARK       I    between atoms: C_10  and  N_11 
REMARK    2  A    between atoms: N_11  and  C_12 
ROOT
HETATM    1  C   UNL     1      -3.881   1.636 -32.367  1.00  0.00     0.277 C 
HETATM    2  N   UNL     1      -3.770   2.950 -32.789  1.00  0.00    -0.322 N 
HETATM    3  O   UNL     1      -3.093   1.041 -31.642  1.00  0.00    -0.266 OA
HETATM    4  H   UNL     1      -4.554   3.250 -33.364  1.00  0.00     0.169 HD
ENDROOT
BRANCH   2   5
HETATM    5  C   UNL     1      -2.761   3.881 -32.498  1.00  0.00     0.037 A 
HETATM    6  C   UNL     1      -2.232   4.079 -31.220  1.00  0.00     0.062 A 
HETATM    7  C   UNL     1      -1.235   5.037 -31.015  1.00  0.00     0.070 A 
HETATM    8  C   UNL     1      -0.758   5.804 -32.079  1.00  0.00     0.096 A 
HETATM    9  N   UNL     1      -0.697   5.201 -29.738  1.00  0.00    -0.323 N 
HETATM   10  O   UNL     1       0.236   6.734 -31.963  1.00  0.00    -0.340 OA
HETATM   11  C   UNL     1      -1.270   5.599 -33.357  1.00  0.00     0.041 A 
HETATM   12  C   UNL     1       0.548   7.108 -30.629  1.00  0.00     0.278 C 
HETATM   13  C   UNL     1       0.236   6.163 -29.470  1.00  0.00     0.246 C 
HETATM   14  O   UNL     1       0.731   6.285 -28.352  1.00  0.00    -0.271 OA
HETATM   15  C   UNL     1      -2.267   4.642 -33.564  1.00  0.00     0.032 A 
HETATM   16  H   UNL     1      -0.975   4.600 -28.973  1.00  0.00     0.169 HD
ENDBRANCH   2   5
BRANCH   1  17
HETATM   17  C   UNL     1      -5.109   1.003 -32.884  1.00  0.00     0.157 A 
HETATM   18  C   UNL     1      -5.252  -0.320 -33.398  1.00  0.00     0.029 A 
HETATM   19  C   UNL     1      -4.406  -1.429 -33.599  1.00  0.00     0.023 A 
HETATM   20  C   UNL     1      -6.592  -0.430 -33.747  1.00  0.00     0.063 A 
HETATM   21  C   UNL     1      -4.934  -2.616 -34.136  1.00  0.00    -0.061 A 
HETATM   22  C   UNL     1      -4.053  -3.813 -34.348  1.00  0.00     0.048 C 
HETATM   23  C   UNL     1      -6.290  -2.681 -34.480  1.00  0.00     0.009 A 
HETATM   24  C   UNL     1      -7.147  -1.590 -34.294  1.00  0.00     0.032 A 
HETATM   25  N   UNL     1      -7.146   0.781 -33.436  1.00  0.00    -0.277 N 
HETATM   26  H   UNL     1      -8.112   1.061 -33.562  1.00  0.00     0.189 HD
HETATM   27  N   UNL     1      -6.287   1.667 -32.899  1.00  0.00    -0.168 NA
ENDBRANCH   1  17
TORSDOF 2
ENDMDL
MODEL 4
REMARK VINA RESULT:      -8.9      1.836      2.351
REMARK  2 active torsions:
REMARK  status: ('A' for Active; 'I' for Inactive)
REMARK    1  A    between atoms: C_9  and  C_10 
REMARK       I    between atoms: C_10  and  N_11 
REMARK    2  A    between atoms: N_11  and  C_12 
ROOT
HETATM    1  C   UNL     1      -4.965   0.647 -32.839  1.00  0.00     0.277 C 
HETATM    2  N   UNL     1      -5.381   1.946 -33.073  1.00  0.00    -0.322 N 
HETATM    3  O   UNL     1      -4.020   0.307 -32.136  1.00  0.00    -0.266 OA
HETATM    4  H   UNL     1      -6.207   1.998 -33.666  1.00  0.00     0.169 HD
ENDROOT
BRANCH   2   5
HETATM    5  C   UNL     1      -4.839   3.143 -32.578  1.00  0.00     0.037 A 
HETATM    6  C   UNL     1      -4.094   4.037 -33.352  1.00  0.00     0.062 A 
HETATM    7  C   UNL     1      -3.581   5.203 -32.776  1.00  0.00     0.070 A 
HETATM    8  C   UNL     1      -3.805   5.486 -31.428  1.00  0.00     0.096 A 
HETATM    9  N   UNL     1      -2.864   6.098 -33.569  1.00  0.00    -0.323 N 
HETATM   10  O   UNL     1      -3.365   6.619 -30.804  1.00  0.00    -0.340 OA
HETATM   11  C   UNL     1      -4.560   4.607 -30.657  1.00  0.00     0.041 A 
HETATM   12  C   UNL     1      -2.389   7.355 -31.526  1.00  0.00     0.278 C 
HETATM   13  C   UNL     1      -2.290   7.223 -33.045  1.00  0.00     0.246 C 
HETATM   14  O   UNL     1      -1.686   8.025 -33.751  1.00  0.00    -0.271 OA
HETATM   15  C   UNL     1      -5.075   3.441 -31.230  1.00  0.00     0.032 A 
HETATM   16  H   UNL     1      -2.760   5.946 -34.564  1.00  0.00     0.169 HD
ENDBRANCH   2   5
BRANCH   1  17
HETATM   17  C   UNL     1      -5.822  -0.331 -33.535  1.00  0.00     0.157 A 
HETATM   18  C   UNL     1      -5.509  -1.685 -33.856  1.00  0.00     0.029 A 
HETATM   19  C   UNL     1      -4.408  -2.545 -33.669  1.00  0.00     0.023 A 
HETATM   20  C   UNL     1      -6.638  -2.175 -34.500  1.00  0.00     0.063 A 
HETATM   21  C   UNL     1      -4.480  -3.872 -34.128  1.00  0.00    -0.061 A 
HETATM   22  C   UNL     1      -3.323  -4.808 -33.930  1.00  0.00     0.048 C 
HETATM   23  C   UNL     1      -5.636  -4.322 -34.778  1.00  0.00     0.009 A 
HETATM   24  C   UNL     1      -6.738  -3.483 -34.979  1.00  0.00     0.032 A 
HETATM   25  N   UNL     1      -7.520  -1.130 -34.526  1.00  0.00    -0.277 N 
HETATM   26  H   UNL     1      -8.451  -1.126 -34.926  1.00  0.00     0.189 HD
HETATM   27  N   UNL     1      -7.071  -0.005 -33.940  1.00  0.00    -0.168 NA
ENDBRANCH   1  17
TORSDOF 2
ENDMDL
MODEL 5
REMARK VINA RESULT:      -8.7      4.588      5.783
REMARK  2 active torsions:
REMARK  status: ('A' for Active; 'I' for Inactive)
REMARK    1  A    between atoms: C_9  and  C_10 
REMARK       I    between atoms: C_10  and  N_11 
REMARK    2  A    between atoms: N_11  and  C_12 
ROOT
HETATM    1  C   UNL     1      -5.951   0.541 -33.103  1.00  0.00     0.277 C 
HETATM    2  N   UNL     1      -7.254   0.128 -32.879  1.00  0.00    -0.322 N 
HETATM    3  O   UNL     1      -5.597   1.666 -33.438  1.00  0.00    -0.266 OA
HETATM    4  H   UNL     1      -7.317  -0.843 -32.580  1.00  0.00     0.169 HD
ENDROOT
BRANCH   2   5
HETATM    5  C   UNL     1      -8.439   0.874 -32.978  1.00  0.00     0.037 A 
HETATM    6  C   UNL     1      -8.874   1.775 -32.002  1.00  0.00     0.062 A 
HETATM    7  C   UNL     1     -10.074   2.470 -32.175  1.00  0.00     0.070 A 
HETATM    8  C   UNL     1     -10.849   2.274 -33.319  1.00  0.00     0.096 A 
HETATM    9  N   UNL     1     -10.479   3.387 -31.205  1.00  0.00    -0.323 N 
HETATM   10  O   UNL     1     -12.014   2.940 -33.574  1.00  0.00    -0.340 OA
HETATM   11  C   UNL     1     -10.411   1.391 -34.302  1.00  0.00     0.041 A 
HETATM   12  C   UNL     1     -12.565   3.622 -32.458  1.00  0.00     0.278 C 
HETATM   13  C   UNL     1     -11.671   4.049 -31.295  1.00  0.00     0.246 C 
HETATM   14  O   UNL     1     -12.011   4.878 -30.455  1.00  0.00    -0.271 OA
HETATM   15  C   UNL     1      -9.212   0.694 -34.131  1.00  0.00     0.032 A 
HETATM   16  H   UNL     1      -9.891   3.598 -30.409  1.00  0.00     0.169 HD
ENDBRANCH   2   5
BRANCH   1  17
HETATM   17  C   UNL     1      -4.988  -0.552 -32.870  1.00  0.00     0.157 A 
HETATM   18  C   UNL     1      -5.007  -1.860 -33.439  1.00  0.00     0.029 A 
HETATM   19  C   UNL     1      -5.830  -2.565 -34.339  1.00  0.00     0.023 A 
HETATM   20  C   UNL     1      -3.893  -2.500 -32.910  1.00  0.00     0.063 A 
HETATM   21  C   UNL     1      -5.505  -3.887 -34.686  1.00  0.00    -0.061 A 
HETATM   22  C   UNL     1      -6.363  -4.653 -35.652  1.00  0.00     0.048 C 
HETATM   23  C   UNL     1      -4.376  -4.497 -34.124  1.00  0.00     0.009 A 
HETATM   24  C   UNL     1      -3.547  -3.816 -33.224  1.00  0.00     0.032 A 
HETATM   25  N   UNL     1      -3.302  -1.578 -32.092  1.00  0.00    -0.277 N 
HETATM   26  H   UNL     1      -2.463  -1.702 -31.536  1.00  0.00     0.189 HD
HETATM   27  N   UNL     1      -3.924  -0.385 -32.053  1.00  0.00    -0.168 NA
ENDBRANCH   1  17
TORSDOF 2
ENDMDL
MODEL 6
REMARK VINA RESULT:      -8.6      2.109      2.594
REMARK  2 active torsions:
REMARK  status: ('A' for Active; 'I' for Inactive)
REMARK    1  A    between atoms: C_9  and  C_10 
REMARK       I    between atoms: C_10  and  N_11 
REMARK    2  A    between atoms: N_11  and  C_12 
ROOT
HETATM    1  C   UNL     1      -4.895   0.631 -32.436  1.00  0.00     0.277 C 
HETATM    2  N   UNL     1      -5.073   1.960 -32.777  1.00  0.00    -0.322 N 
HETATM    3  O   UNL     1      -4.159   0.203 -31.554  1.00  0.00    -0.266 OA
HETATM    4  H   UNL     1      -5.754   2.092 -33.522  1.00  0.00     0.169 HD
ENDROOT
BRANCH   2   5
HETATM    5  C   UNL     1      -4.473   3.097 -32.213  1.00  0.00     0.037 A 
HETATM    6  C   UNL     1      -3.105   3.373 -32.290  1.00  0.00     0.062 A 
HETATM    7  C   UNL     1      -2.588   4.525 -31.690  1.00  0.00     0.070 A 
HETATM    8  C   UNL     1      -3.427   5.409 -31.010  1.00  0.00     0.096 A 
HETATM    9  N   UNL     1      -1.225   4.800 -31.801  1.00  0.00    -0.323 N 
HETATM   10  O   UNL     1      -3.001   6.569 -30.428  1.00  0.00    -0.340 OA
HETATM   11  C   UNL     1      -4.792   5.147 -30.945  1.00  0.00     0.041 A 
HETATM   12  C   UNL     1      -1.594   6.678 -30.278  1.00  0.00     0.278 C 
HETATM   13  C   UNL     1      -0.657   5.879 -31.184  1.00  0.00     0.246 C 
HETATM   14  O   UNL     1       0.537   6.137 -31.309  1.00  0.00    -0.271 OA
HETATM   15  C   UNL     1      -5.312   3.996 -31.544  1.00  0.00     0.032 A 
HETATM   16  H   UNL     1      -0.617   4.212 -32.356  1.00  0.00     0.169 HD
ENDBRANCH   2   5
BRANCH   1  17
HETATM   17  C   UNL     1      -5.732  -0.258 -33.264  1.00  0.00     0.157 A 
HETATM   18  C   UNL     1      -5.438  -1.592 -33.674  1.00  0.00     0.029 A 
HETATM   19  C   UNL     1      -4.379  -2.503 -33.487  1.00  0.00     0.023 A 
HETATM   20  C   UNL     1      -6.536  -1.989 -34.428  1.00  0.00     0.063 A 
HETATM   21  C   UNL     1      -4.458  -3.785 -34.056  1.00  0.00    -0.061 A 
HETATM   22  C   UNL     1      -3.346  -4.775 -33.861  1.00  0.00     0.048 C 
HETATM   23  C   UNL     1      -5.581  -4.142 -34.815  1.00  0.00     0.009 A 
HETATM   24  C   UNL     1      -6.641  -3.251 -35.017  1.00  0.00     0.032 A 
HETATM   25  N   UNL     1      -7.381  -0.915 -34.426  1.00  0.00    -0.277 N 
HETATM   26  H   UNL     1      -8.283  -0.847 -34.884  1.00  0.00     0.189 HD
HETATM   27  N   UNL     1      -6.940   0.143 -33.721  1.00  0.00    -0.168 NA
ENDBRANCH   1  17
TORSDOF 2
ENDMDL
MODEL 7
REMARK VINA RESULT:      -8.4      5.600      7.158
REMARK  2 active torsions:
REMARK  status: ('A' for Active; 'I' for Inactive)
REMARK    1  A    between atoms: C_9  and  C_10 
REMARK       I    between atoms: C_10  and  N_11 
REMARK    2  A    between atoms: N_11  and  C_12 
ROOT
HETATM    1  C   UNL     1      -7.420  -0.409 -34.646  1.00  0.00     0.277 C 
HETATM    2  N   UNL     1      -8.217  -0.159 -33.541  1.00  0.00    -0.322 N 
HETATM    3  O   UNL     1      -7.474   0.175 -35.722  1.00  0.00    -0.266 OA
HETATM    4  H   UNL     1      -7.981  -0.744 -32.742  1.00  0.00     0.169 HD
ENDROOT
BRANCH   2   5
HETATM    5  C   UNL     1      -9.241   0.790 -33.396  1.00  0.00     0.037 A 
HETATM    6  C   UNL     1     -10.602   0.475 -33.425  1.00  0.00     0.062 A 
HETATM    7  C   UNL     1     -11.558   1.485 -33.283  1.00  0.00     0.070 A 
HETATM    8  C   UNL     1     -11.166   2.813 -33.110  1.00  0.00     0.096 A 
HETATM    9  N   UNL     1     -12.912   1.149 -33.285  1.00  0.00    -0.323 N 
HETATM   10  O   UNL     1     -12.040   3.848 -32.932  1.00  0.00    -0.340 OA
HETATM   11  C   UNL     1      -9.812   3.130 -33.064  1.00  0.00     0.041 A 
HETATM   12  C   UNL     1     -13.392   3.547 -33.245  1.00  0.00     0.278 C 
HETATM   13  C   UNL     1     -13.889   2.102 -33.209  1.00  0.00     0.246 C 
HETATM   14  O   UNL     1     -15.079   1.802 -33.180  1.00  0.00    -0.271 OA
HETATM   15  C   UNL     1      -8.854   2.122 -33.206  1.00  0.00     0.032 A 
HETATM   16  H   UNL     1     -13.210   0.183 -33.330  1.00  0.00     0.169 HD
ENDBRANCH   2   5
BRANCH   1  17
HETATM   17  C   UNL     1      -6.445  -1.482 -34.380  1.00  0.00     0.157 A 
HETATM   18  C   UNL     1      -5.313  -1.431 -33.513  1.00  0.00     0.029 A 
HETATM   19  C   UNL     1      -4.730  -0.473 -32.659  1.00  0.00     0.023 A 
HETATM   20  C   UNL     1      -4.726  -2.686 -33.609  1.00  0.00     0.063 A 
HETATM   21  C   UNL     1      -3.581  -0.808 -31.923  1.00  0.00    -0.061 A 
HETATM   22  C   UNL     1      -2.949   0.193 -31.000  1.00  0.00     0.048 C 
HETATM   23  C   UNL     1      -3.017  -2.084 -32.056  1.00  0.00     0.009 A 
HETATM   24  C   UNL     1      -3.577  -3.048 -32.902  1.00  0.00     0.032 A 
HETATM   25  N   UNL     1      -5.506  -3.382 -34.491  1.00  0.00    -0.277 N 
HETATM   26  H   UNL     1      -5.371  -4.337 -34.803  1.00  0.00     0.189 HD
HETATM   27  N   UNL     1      -6.561  -2.696 -34.965  1.00  0.00    -0.168 NA
ENDBRANCH   1  17
TORSDOF 2
ENDMDL
MODEL 8
REMARK VINA RESULT:      -8.4      2.486      8.373
REMARK  2 active torsions:
REMARK  status: ('A' for Active; 'I' for Inactive)
REMARK    1  A    between atoms: C_9  and  C_10 
REMARK       I    between atoms: C_10  and  N_11 
REMARK    2  A    between atoms: N_11  and  C_12 
ROOT
HETATM    1  C   UNL     1      -4.749   2.221 -31.515  1.00  0.00     0.277 C 
HETATM    2  N   UNL     1      -5.295   1.872 -32.738  1.00  0.00    -0.322 N 
HETATM    3  O   UNL     1      -4.411   1.447 -30.627  1.00  0.00    -0.266 OA
HETATM    4  H   UNL     1      -5.476   2.675 -33.337  1.00  0.00     0.169 HD
ENDROOT
BRANCH   2   5
HETATM    5  C   UNL     1      -5.580   0.591 -33.237  1.00  0.00     0.037 A 
HETATM    6  C   UNL     1      -4.677  -0.475 -33.204  1.00  0.00     0.062 A 
HETATM    7  C   UNL     1      -5.039  -1.717 -33.734  1.00  0.00     0.070 A 
HETATM    8  C   UNL     1      -6.301  -1.906 -34.299  1.00  0.00     0.096 A 
HETATM    9  N   UNL     1      -4.136  -2.778 -33.666  1.00  0.00    -0.323 N 
HETATM   10  O   UNL     1      -6.738  -3.098 -34.805  1.00  0.00    -0.340 OA
HETATM   11  C   UNL     1      -7.210  -0.853 -34.318  1.00  0.00     0.041 A 
HETATM   12  C   UNL     1      -5.720  -4.065 -35.013  1.00  0.00     0.278 C 
HETATM   13  C   UNL     1      -4.416  -3.995 -34.220  1.00  0.00     0.246 C 
HETATM   14  O   UNL     1      -3.632  -4.937 -34.133  1.00  0.00    -0.271 OA
HETATM   15  C   UNL     1      -6.851   0.390 -33.790  1.00  0.00     0.032 A 
HETATM   16  H   UNL     1      -3.249  -2.678 -33.190  1.00  0.00     0.169 HD
ENDBRANCH   2   5
BRANCH   1  17
HETATM   17  C   UNL     1      -4.592   3.682 -31.389  1.00  0.00     0.157 A 
HETATM   18  C   UNL     1      -3.751   4.534 -32.163  1.00  0.00     0.029 A 
HETATM   19  C   UNL     1      -2.844   4.370 -33.230  1.00  0.00     0.023 A 
HETATM   20  C   UNL     1      -3.967   5.811 -31.660  1.00  0.00     0.063 A 
HETATM   21  C   UNL     1      -2.189   5.494 -33.762  1.00  0.00    -0.061 A 
HETATM   22  C   UNL     1      -1.226   5.343 -34.905  1.00  0.00     0.048 C 
HETATM   23  C   UNL     1      -2.431   6.762 -33.220  1.00  0.00     0.009 A 
HETATM   24  C   UNL     1      -3.324   6.947 -32.158  1.00  0.00     0.032 A 
HETATM   25  N   UNL     1      -4.882   5.653 -30.658  1.00  0.00    -0.277 N 
HETATM   26  H   UNL     1      -5.271   6.378 -30.065  1.00  0.00     0.189 HD
HETATM   27  N   UNL     1      -5.297   4.386 -30.473  1.00  0.00    -0.168 NA
ENDBRANCH   1  17
TORSDOF 2
ENDMDL
MODEL 9
REMARK VINA RESULT:      -8.3      5.666      6.737
REMARK  2 active torsions:
REMARK  status: ('A' for Active; 'I' for Inactive)
REMARK    1  A    between atoms: C_9  and  C_10 
REMARK       I    between atoms: C_10  and  N_11 
REMARK    2  A    between atoms: N_11  and  C_12 
ROOT
HETATM    1  C   UNL     1      -7.549   1.027 -34.123  1.00  0.00     0.277 C 
HETATM    2  N   UNL     1      -8.534   0.928 -33.155  1.00  0.00    -0.322 N 
HETATM    3  O   UNL     1      -7.636   1.637 -35.183  1.00  0.00    -0.266 OA
HETATM    4  H   UNL     1      -8.237   0.395 -32.340  1.00  0.00     0.169 HD
ENDROOT
BRANCH   2   5
HETATM    5  C   UNL     1      -9.822   1.485 -33.155  1.00  0.00     0.037 A 
HETATM    6  C   UNL     1     -10.109   2.780 -32.718  1.00  0.00     0.062 A 
HETATM    7  C   UNL     1     -11.425   3.253 -32.742  1.00  0.00     0.070 A 
HETATM    8  C   UNL     1     -12.462   2.439 -33.201  1.00  0.00     0.096 A 
HETATM    9  N   UNL     1     -11.689   4.558 -32.330  1.00  0.00    -0.323 N 
HETATM   10  O   UNL     1     -13.765   2.842 -33.286  1.00  0.00    -0.340 OA
HETATM   11  C   UNL     1     -12.179   1.154 -33.654  1.00  0.00     0.041 A 
HETATM   12  C   UNL     1     -14.065   4.038 -32.582  1.00  0.00     0.278 C 
HETATM   13  C   UNL     1     -12.963   5.051 -32.277  1.00  0.00     0.246 C 
HETATM   14  O   UNL     1     -13.191   6.210 -31.943  1.00  0.00    -0.271 OA
HETATM   15  C   UNL     1     -10.865   0.679 -33.630  1.00  0.00     0.032 A 
HETATM   16  H   UNL     1     -10.939   5.185 -32.069  1.00  0.00     0.169 HD
ENDBRANCH   2   5
BRANCH   1  17
HETATM   17  C   UNL     1      -6.324   0.308 -33.726  1.00  0.00     0.157 A 
HETATM   18  C   UNL     1      -5.987  -1.050 -34.001  1.00  0.00     0.029 A 
HETATM   19  C   UNL     1      -6.592  -2.131 -34.676  1.00  0.00     0.023 A 
HETATM   20  C   UNL     1      -4.739  -1.239 -33.422  1.00  0.00     0.063 A 
HETATM   21  C   UNL     1      -5.920  -3.362 -34.754  1.00  0.00    -0.061 A 
HETATM   22  C   UNL     1      -6.540  -4.523 -35.477  1.00  0.00     0.048 C 
HETATM   23  C   UNL     1      -4.665  -3.510 -34.149  1.00  0.00     0.009 A 
HETATM   24  C   UNL     1      -4.049  -2.452 -33.471  1.00  0.00     0.032 A 
HETATM   25  N   UNL     1      -4.418  -0.035 -32.858  1.00  0.00    -0.277 N 
HETATM   26  H   UNL     1      -3.575   0.193 -32.344  1.00  0.00     0.189 HD
HETATM   27  N   UNL     1      -5.341   0.928 -33.034  1.00  0.00    -0.168 NA
ENDBRANCH   1  17
TORSDOF 2
ENDMDL
MODEL 10
REMARK VINA RESULT:      -8.3      4.920      5.978
REMARK  2 active torsions:
REMARK  status: ('A' for Active; 'I' for Inactive)
REMARK    1  A    between atoms: C_9  and  C_10 
REMARK       I    between atoms: C_10  and  N_11 
REMARK    2  A    between atoms: N_11  and  C_12 
ROOT
HETATM    1  C   UNL     1      -7.853   2.330 -31.916  1.00  0.00     0.277 C 
HETATM    2  N   UNL     1      -6.803   2.274 -32.817  1.00  0.00    -0.322 N 
HETATM    3  O   UNL     1      -7.848   2.909 -30.836  1.00  0.00    -0.266 OA
HETATM    4  H   UNL     1      -7.035   1.762 -33.666  1.00  0.00     0.169 HD
ENDROOT
BRANCH   2   5
HETATM    5  C   UNL     1      -5.527   2.850 -32.713  1.00  0.00     0.037 A 
HETATM    6  C   UNL     1      -5.156   4.037 -33.349  1.00  0.00     0.062 A 
HETATM    7  C   UNL     1      -3.858   4.535 -33.200  1.00  0.00     0.070 A 
HETATM    8  C   UNL     1      -2.923   3.856 -32.417  1.00  0.00     0.096 A 
HETATM    9  N   UNL     1      -3.513   5.737 -33.818  1.00  0.00    -0.323 N 
HETATM   10  O   UNL     1      -1.649   4.298 -32.198  1.00  0.00    -0.340 OA
HETATM   11  C   UNL     1      -3.293   2.683 -31.768  1.00  0.00     0.041 A 
HETATM   12  C   UNL     1      -1.220   5.334 -33.069  1.00  0.00     0.278 C 
HETATM   13  C   UNL     1      -2.243   6.239 -33.755  1.00  0.00     0.246 C 
HETATM   14  O   UNL     1      -1.949   7.312 -34.274  1.00  0.00    -0.271 OA
HETATM   15  C   UNL     1      -4.589   2.182 -31.916  1.00  0.00     0.032 A 
HETATM   16  H   UNL     1      -4.200   6.281 -34.323  1.00  0.00     0.169 HD
ENDBRANCH   2   5
BRANCH   1  17
HETATM   17  C   UNL     1      -9.036   1.605 -32.417  1.00  0.00     0.157 A 
HETATM   18  C   UNL     1     -10.054   2.100 -33.284  1.00  0.00     0.029 A 
HETATM   19  C   UNL     1     -10.325   3.317 -33.942  1.00  0.00     0.023 A 
HETATM   20  C   UNL     1     -10.932   1.037 -33.456  1.00  0.00     0.063 A 
HETATM   21  C   UNL     1     -11.464   3.425 -34.758  1.00  0.00    -0.061 A 
HETATM   22  C   UNL     1     -11.766   4.708 -35.477  1.00  0.00     0.048 C 
HETATM   23  C   UNL     1     -12.326   2.330 -34.898  1.00  0.00     0.009 A 
HETATM   24  C   UNL     1     -12.079   1.114 -34.250  1.00  0.00     0.032 A 
HETATM   25  N   UNL     1     -10.410   0.015 -32.713  1.00  0.00    -0.277 N 
HETATM   26  H   UNL     1     -10.793  -0.917 -32.602  1.00  0.00     0.189 HD
HETATM   27  N   UNL     1      -9.258   0.313 -32.084  1.00  0.00    -0.168 NA
ENDBRANCH   1  17
TORSDOF 2
ENDMDL
