MODEL 1
REMARK VINA RESULT:      -8.9      0.000      0.000
REMARK  7 active torsions:
REMARK  status: ('A' for Active; 'I' for Inactive)
REMARK    1  A    between atoms: O_2  and  C_3 
REMARK    2  A    between atoms: C_6  and  N_7 
REMARK       I    between atoms: N_7  and  C_8 
REMARK    3  A    between atoms: C_8  and  C_9 
REMARK    4  A    between atoms: C_9  and  C_10 
REMARK    5  A    between atoms: C_10  and  N_11 
REMARK    6  A    between atoms: C_10  and  C_20 
REMARK       I    between atoms: N_11  and  C_12 
REMARK    7  A    between atoms: C_12  and  C_13 
ROOT
HETATM    1  C   UNL     1      -5.229   1.130 -31.778  1.00  0.00     0.126 C 
ENDROOT
BRANCH   1   2
HETATM    2  C   UNL     1      -4.675  -0.069 -30.985  1.00  0.00     0.133 C 
BRANCH   2   3
HETATM    3  C   UNL     1      -3.210  -0.286 -31.268  1.00  0.00     0.224 C 
HETATM    4  N   UNL     1      -2.749  -1.329 -32.014  1.00  0.00    -0.326 N 
HETATM    5  H   UNL     1      -1.741  -1.260 -32.096  1.00  0.00     0.169 HD
HETATM    6  O   UNL     1      -2.346   0.456 -30.783  1.00  0.00    -0.273 OA
BRANCH   4   7
HETATM    7  C   UNL     1      -3.343  -2.386 -32.724  1.00  0.00     0.052 A 
HETATM    8  C   UNL     1      -3.244  -3.747 -32.462  1.00  0.00     0.149 A 
HETATM    9  N   UNL     1      -3.895  -4.716 -33.161  1.00  0.00    -0.235 NA
HETATM   10  C   UNL     1      -4.677  -4.312 -34.181  1.00  0.00     0.163 A 
HETATM   11  C   UNL     1      -4.801  -2.992 -34.568  1.00  0.00     0.060 A 
HETATM   12  C   UNL     1      -4.127  -2.023 -33.827  1.00  0.00     0.035 A 
BRANCH  10  13
HETATM   13  O   UNL     1      -5.395  -5.236 -34.911  1.00  0.00    -0.339 OA
HETATM   14  C   UNL     1      -6.574  -4.682 -35.487  1.00  0.00     0.211 C 
ENDBRANCH  10  13
ENDBRANCH   4   7
ENDBRANCH   2   3
ENDBRANCH   1   2
BRANCH   1  15
HETATM   15  N   UNL     1      -4.226   2.098 -32.242  1.00  0.00    -0.348 N 
HETATM   16  C   UNL     1      -3.979   3.337 -31.693  1.00  0.00     0.252 C 
HETATM   17  O   UNL     1      -4.566   3.788 -30.716  1.00  0.00    -0.268 OA
HETATM   18  H   UNL     1      -3.555   1.729 -32.899  1.00  0.00     0.163 HD
BRANCH  16  19
HETATM   19  C   UNL     1      -2.918   4.163 -32.339  1.00  0.00     0.032 A 
HETATM   20  C   UNL     1      -2.965   4.527 -33.690  1.00  0.00     0.017 A 
HETATM   21  C   UNL     1      -1.962   5.335 -34.232  1.00  0.00     0.001 A 
HETATM   22  C   UNL     1      -0.917   5.793 -33.428  1.00  0.00     0.000 A 
HETATM   23  C   UNL     1      -0.873   5.448 -32.079  1.00  0.00     0.001 A 
HETATM   24  C   UNL     1      -1.871   4.638 -31.535  1.00  0.00     0.017 A 
ENDBRANCH  16  19
ENDBRANCH   1  15
BRANCH   1  25
HETATM   25  C   UNL     1      -6.166   0.688 -32.894  1.00  0.00    -0.035 A 
HETATM   26  C   UNL     1      -7.029  -0.400 -32.670  1.00  0.00     0.009 A 
HETATM   27  C   UNL     1      -7.890  -0.853 -33.672  1.00  0.00     0.001 A 
HETATM   28  C   UNL     1      -7.901  -0.224 -34.914  1.00  0.00     0.000 A 
HETATM   29  C   UNL     1      -7.045   0.849 -35.155  1.00  0.00     0.001 A 
HETATM   30  C   UNL     1      -6.179   1.298 -34.155  1.00  0.00     0.009 A 
ENDBRANCH   1  25
TORSDOF 7
ENDMDL
MODEL 2
REMARK VINA RESULT:      -8.4      3.022      7.816
REMARK  7 active torsions:
REMARK  status: ('A' for Active; 'I' for Inactive)
REMARK    1  A    between atoms: O_2  and  C_3 
REMARK    2  A    between atoms: C_6  and  N_7 
REMARK       I    between atoms: N_7  and  C_8 
REMARK    3  A    between atoms: C_8  and  C_9 
REMARK    4  A    between atoms: C_9  and  C_10 
REMARK    5  A    between atoms: C_10  and  N_11 
REMARK    6  A    between atoms: C_10  and  C_20 
REMARK       I    between atoms: N_11  and  C_12 
REMARK    7  A    between atoms: C_12  and  C_13 
ROOT
HETATM    1  C   UNL     1      -6.998  -0.304 -33.099  1.00  0.00     0.126 C 
ENDROOT
BRANCH   1   2
HETATM    2  C   UNL     1      -6.030   0.894 -33.147  1.00  0.00     0.133 C 
BRANCH   2   3
HETATM    3  C   UNL     1      -5.773   1.448 -31.767  1.00  0.00     0.224 C 
HETATM    4  N   UNL     1      -5.135   2.632 -31.555  1.00  0.00    -0.326 N 
HETATM    5  H   UNL     1      -5.099   2.818 -30.559  1.00  0.00     0.169 HD
HETATM    6  O   UNL     1      -6.091   0.815 -30.753  1.00  0.00    -0.273 OA
BRANCH   4   7
HETATM    7  C   UNL     1      -4.607   3.642 -32.377  1.00  0.00     0.052 A 
HETATM    8  C   UNL     1      -5.297   4.671 -33.008  1.00  0.00     0.149 A 
HETATM    9  N   UNL     1      -4.712   5.652 -33.747  1.00  0.00    -0.235 NA
HETATM   10  C   UNL     1      -3.372   5.603 -33.874  1.00  0.00     0.163 A 
HETATM   11  C   UNL     1      -2.593   4.594 -33.341  1.00  0.00     0.060 A 
HETATM   12  C   UNL     1      -3.222   3.607 -32.584  1.00  0.00     0.035 A 
BRANCH  10  13
HETATM   13  O   UNL     1      -2.706   6.585 -34.578  1.00  0.00    -0.339 OA
HETATM   14  C   UNL     1      -1.758   7.285 -33.780  1.00  0.00     0.211 C 
ENDBRANCH  10  13
ENDBRANCH   4   7
ENDBRANCH   2   3
ENDBRANCH   1   2
BRANCH   1  15
HETATM   15  N   UNL     1      -8.366  -0.029 -33.557  1.00  0.00    -0.348 N 
HETATM   16  C   UNL     1      -9.408   0.424 -32.778  1.00  0.00     0.252 C 
HETATM   17  O   UNL     1      -9.314   0.676 -31.582  1.00  0.00    -0.268 OA
HETATM   18  H   UNL     1      -8.479  -0.002 -34.560  1.00  0.00     0.163 HD
BRANCH  16  19
HETATM   19  C   UNL     1     -10.723   0.622 -33.454  1.00  0.00     0.032 A 
HETATM   20  C   UNL     1     -11.837  -0.181 -33.182  1.00  0.00     0.017 A 
HETATM   21  C   UNL     1     -13.055   0.075 -33.818  1.00  0.00     0.001 A 
HETATM   22  C   UNL     1     -13.169   1.137 -34.716  1.00  0.00     0.000 A 
HETATM   23  C   UNL     1     -12.068   1.950 -34.980  1.00  0.00     0.001 A 
HETATM   24  C   UNL     1     -10.849   1.694 -34.349  1.00  0.00     0.017 A 
ENDBRANCH  16  19
ENDBRANCH   1  15
BRANCH   1  25
HETATM   25  C   UNL     1      -6.403  -1.540 -33.761  1.00  0.00    -0.035 A 
HETATM   26  C   UNL     1      -7.268  -2.520 -34.281  1.00  0.00     0.009 A 
HETATM   27  C   UNL     1      -6.766  -3.679 -34.877  1.00  0.00     0.001 A 
HETATM   28  C   UNL     1      -5.391  -3.875 -34.962  1.00  0.00     0.000 A 
HETATM   29  C   UNL     1      -4.520  -2.919 -34.443  1.00  0.00     0.001 A 
HETATM   30  C   UNL     1      -5.022  -1.763 -33.840  1.00  0.00     0.009 A 
ENDBRANCH   1  25
TORSDOF 7
ENDMDL
MODEL 3
REMARK VINA RESULT:      -8.2      3.222      6.922
REMARK  7 active torsions:
REMARK  status: ('A' for Active; 'I' for Inactive)
REMARK    1  A    between atoms: O_2  and  C_3 
REMARK    2  A    between atoms: C_6  and  N_7 
REMARK       I    between atoms: N_7  and  C_8 
REMARK    3  A    between atoms: C_8  and  C_9 
REMARK    4  A    between atoms: C_9  and  C_10 
REMARK    5  A    between atoms: C_10  and  N_11 
REMARK    6  A    between atoms: C_10  and  C_20 
REMARK       I    between atoms: N_11  and  C_12 
REMARK    7  A    between atoms: C_12  and  C_13 
ROOT
HETATM    1  C   UNL     1      -5.202   2.735 -32.324  1.00  0.00     0.126 C 
ENDROOT
BRANCH   1   2
HETATM    2  C   UNL     1      -6.470   3.459 -31.831  1.00  0.00     0.133 C 
BRANCH   2   3
HETATM    3  C   UNL     1      -7.092   2.742 -30.659  1.00  0.00     0.224 C 
HETATM    4  N   UNL     1      -8.329   2.173 -30.715  1.00  0.00    -0.326 N 
HETATM    5  H   UNL     1      -8.530   1.725 -29.827  1.00  0.00     0.169 HD
HETATM    6  O   UNL     1      -6.518   2.684 -29.564  1.00  0.00    -0.273 OA
BRANCH   4   7
HETATM    7  C   UNL     1      -9.309   2.011 -31.709  1.00  0.00     0.052 A 
HETATM    8  C   UNL     1     -10.205   2.963 -32.181  1.00  0.00     0.149 A 
HETATM    9  N   UNL     1     -11.093   2.752 -33.189  1.00  0.00    -0.235 NA
HETATM   10  C   UNL     1     -11.098   1.528 -33.752  1.00  0.00     0.163 A 
HETATM   11  C   UNL     1     -10.295   0.490 -33.322  1.00  0.00     0.060 A 
HETATM   12  C   UNL     1      -9.391   0.740 -32.291  1.00  0.00     0.035 A 
BRANCH  10  13
HETATM   13  O   UNL     1     -11.947   1.253 -34.804  1.00  0.00    -0.339 OA
HETATM   14  C   UNL     1     -13.267   0.938 -34.375  1.00  0.00     0.211 C 
ENDBRANCH  10  13
ENDBRANCH   4   7
ENDBRANCH   2   3
ENDBRANCH   1   2
BRANCH   1  15
HETATM   15  N   UNL     1      -5.426   1.431 -32.962  1.00  0.00    -0.348 N 
HETATM   16  C   UNL     1      -5.057   0.205 -32.456  1.00  0.00     0.252 C 
HETATM   17  O   UNL     1      -4.500   0.044 -31.376  1.00  0.00    -0.268 OA
HETATM   18  H   UNL     1      -6.064   1.448 -33.744  1.00  0.00     0.163 HD
BRANCH  16  19
HETATM   19  C   UNL     1      -5.374  -0.993 -33.286  1.00  0.00     0.032 A 
HETATM   20  C   UNL     1      -6.669  -1.275 -33.738  1.00  0.00     0.017 A 
HETATM   21  C   UNL     1      -6.900  -2.392 -34.545  1.00  0.00     0.001 A 
HETATM   22  C   UNL     1      -5.842  -3.223 -34.915  1.00  0.00     0.000 A 
HETATM   23  C   UNL     1      -4.548  -2.939 -34.483  1.00  0.00     0.001 A 
HETATM   24  C   UNL     1      -4.314  -1.827 -33.673  1.00  0.00     0.017 A 
ENDBRANCH  16  19
ENDBRANCH   1  15
BRANCH   1  25
HETATM   25  C   UNL     1      -4.318   3.647 -33.164  1.00  0.00    -0.035 A 
HETATM   26  C   UNL     1      -2.946   3.735 -32.866  1.00  0.00     0.009 A 
HETATM   27  C   UNL     1      -2.104   4.574 -33.597  1.00  0.00     0.001 A 
HETATM   28  C   UNL     1      -2.620   5.340 -34.638  1.00  0.00     0.000 A 
HETATM   29  C   UNL     1      -3.979   5.273 -34.940  1.00  0.00     0.001 A 
HETATM   30  C   UNL     1      -4.823   4.438 -34.204  1.00  0.00     0.009 A 
ENDBRANCH   1  25
TORSDOF 7
ENDMDL
MODEL 4
REMARK VINA RESULT:      -8.2      2.472      7.187
REMARK  7 active torsions:
REMARK  status: ('A' for Active; 'I' for Inactive)
REMARK    1  A    between atoms: O_2  and  C_3 
REMARK    2  A    between atoms: C_6  and  N_7 
REMARK       I    between atoms: N_7  and  C_8 
REMARK    3  A    between atoms: C_8  and  C_9 
REMARK    4  A    between atoms: C_9  and  C_10 
REMARK    5  A    between atoms: C_10  and  N_11 
REMARK    6  A    between atoms: C_10  and  C_20 
REMARK       I    between atoms: N_11  and  C_12 
REMARK    7  A    between atoms: C_12  and  C_13 
ROOT
HETATM    1  C   UNL     1      -7.607   0.988 -32.979  1.00  0.00     0.126 C 
ENDROOT
BRANCH   1   2
HETATM    2  C   UNL     1      -7.337   1.607 -31.593  1.00  0.00     0.133 C 
BRANCH   2   3
HETATM    3  C   UNL     1      -6.171   0.937 -30.910  1.00  0.00     0.224 C 
HETATM    4  N   UNL     1      -4.928   1.492 -30.859  1.00  0.00    -0.326 N 
HETATM    5  H   UNL     1      -4.313   0.884 -30.328  1.00  0.00     0.169 HD
HETATM    6  O   UNL     1      -6.284  -0.187 -30.404  1.00  0.00    -0.273 OA
BRANCH   4   7
HETATM    7  C   UNL     1      -4.356   2.700 -31.292  1.00  0.00     0.052 A 
HETATM    8  C   UNL     1      -4.619   3.981 -30.821  1.00  0.00     0.149 A 
HETATM    9  N   UNL     1      -3.983   5.105 -31.250  1.00  0.00    -0.235 NA
HETATM   10  C   UNL     1      -3.044   4.949 -32.203  1.00  0.00     0.163 A 
HETATM   11  C   UNL     1      -2.746   3.733 -32.785  1.00  0.00     0.060 A 
HETATM   12  C   UNL     1      -3.410   2.599 -32.319  1.00  0.00     0.035 A 
BRANCH  10  13
HETATM   13  O   UNL     1      -2.334   6.040 -32.661  1.00  0.00    -0.339 OA
HETATM   14  C   UNL     1      -1.780   5.829 -33.955  1.00  0.00     0.211 C 
ENDBRANCH  10  13
ENDBRANCH   4   7
ENDBRANCH   2   3
ENDBRANCH   1   2
BRANCH   1  15
HETATM   15  N   UNL     1      -6.975  -0.316 -33.222  1.00  0.00    -0.348 N 
HETATM   16  C   UNL     1      -6.622  -0.831 -34.450  1.00  0.00     0.252 C 
HETATM   17  O   UNL     1      -6.778  -0.243 -35.514  1.00  0.00    -0.268 OA
HETATM   18  H   UNL     1      -6.616  -0.771 -32.396  1.00  0.00     0.163 HD
BRANCH  16  19
HETATM   19  C   UNL     1      -6.004  -2.188 -34.462  1.00  0.00     0.032 A 
HETATM   20  C   UNL     1      -4.689  -2.419 -34.040  1.00  0.00     0.017 A 
HETATM   21  C   UNL     1      -4.175  -3.719 -34.037  1.00  0.00     0.001 A 
HETATM   22  C   UNL     1      -4.971  -4.791 -34.441  1.00  0.00     0.000 A 
HETATM   23  C   UNL     1      -6.285  -4.570 -34.847  1.00  0.00     0.001 A 
HETATM   24  C   UNL     1      -6.801  -3.273 -34.855  1.00  0.00     0.017 A 
ENDBRANCH  16  19
ENDBRANCH   1  15
BRANCH   1  25
HETATM   25  C   UNL     1      -9.091   0.985 -33.318  1.00  0.00    -0.035 A 
HETATM   26  C   UNL     1      -9.618   2.034 -34.093  1.00  0.00     0.009 A 
HETATM   27  C   UNL     1     -10.976   2.083 -34.410  1.00  0.00     0.001 A 
HETATM   28  C   UNL     1     -11.830   1.081 -33.958  1.00  0.00     0.000 A 
HETATM   29  C   UNL     1     -11.327   0.040 -33.181  1.00  0.00     0.001 A 
HETATM   30  C   UNL     1      -9.969  -0.005 -32.857  1.00  0.00     0.009 A 
ENDBRANCH   1  25
TORSDOF 7
ENDMDL
MODEL 5
REMARK VINA RESULT:      -8.1      2.683      7.320
REMARK  7 active torsions:
REMARK  status: ('A' for Active; 'I' for Inactive)
REMARK    1  A    between atoms: O_2  and  C_3 
REMARK    2  A    between atoms: C_6  and  N_7 
REMARK       I    between atoms: N_7  and  C_8 
REMARK    3  A    between atoms: C_8  and  C_9 
REMARK    4  A    between atoms: C_9  and  C_10 
REMARK    5  A    between atoms: C_10  and  N_11 
REMARK    6  A    between atoms: C_10  and  C_20 
REMARK       I    between atoms: N_11  and  C_12 
REMARK    7  A    between atoms: C_12  and  C_13 
ROOT
HETATM    1  C   UNL     1      -7.161   0.959 -32.763  1.00  0.00     0.126 C 
ENDROOT
BRANCH   1   2
HETATM    2  C   UNL     1      -6.918   1.452 -31.324  1.00  0.00     0.133 C 
BRANCH   2   3
HETATM    3  C   UNL     1      -7.511   2.821 -31.104  1.00  0.00     0.224 C 
HETATM    4  N   UNL     1      -7.014   3.944 -31.693  1.00  0.00    -0.326 N 
HETATM    5  H   UNL     1      -7.583   4.740 -31.427  1.00  0.00     0.169 HD
HETATM    6  O   UNL     1      -8.458   2.992 -30.325  1.00  0.00    -0.273 OA
BRANCH   4   7
HETATM    7  C   UNL     1      -5.982   4.217 -32.607  1.00  0.00     0.052 A 
HETATM    8  C   UNL     1      -6.098   4.470 -33.969  1.00  0.00     0.149 A 
HETATM    9  N   UNL     1      -5.057   4.785 -34.785  1.00  0.00    -0.235 NA
HETATM   10  C   UNL     1      -3.834   4.842 -34.222  1.00  0.00     0.163 A 
HETATM   11  C   UNL     1      -3.595   4.550 -32.893  1.00  0.00     0.060 A 
HETATM   12  C   UNL     1      -4.684   4.238 -32.081  1.00  0.00     0.035 A 
BRANCH  10  13
HETATM   13  O   UNL     1      -2.736   5.190 -34.982  1.00  0.00    -0.339 OA
HETATM   14  C   UNL     1      -1.575   5.424 -34.191  1.00  0.00     0.211 C 
ENDBRANCH  10  13
ENDBRANCH   4   7
ENDBRANCH   2   3
ENDBRANCH   1   2
BRANCH   1  15
HETATM   15  N   UNL     1      -6.620  -0.370 -33.076  1.00  0.00    -0.348 N 
HETATM   16  C   UNL     1      -6.431  -0.894 -34.336  1.00  0.00     0.252 C 
HETATM   17  O   UNL     1      -6.679  -0.294 -35.376  1.00  0.00    -0.268 OA
HETATM   18  H   UNL     1      -6.191  -0.845 -32.297  1.00  0.00     0.163 HD
BRANCH  16  19
HETATM   19  C   UNL     1      -5.879  -2.277 -34.418  1.00  0.00     0.032 A 
HETATM   20  C   UNL     1      -4.561  -2.584 -34.057  1.00  0.00     0.017 A 
HETATM   21  C   UNL     1      -4.110  -3.905 -34.118  1.00  0.00     0.001 A 
HETATM   22  C   UNL     1      -4.971  -4.924 -34.525  1.00  0.00     0.000 A 
HETATM   23  C   UNL     1      -6.288  -4.628 -34.870  1.00  0.00     0.001 A 
HETATM   24  C   UNL     1      -6.741  -3.310 -34.815  1.00  0.00     0.017 A 
ENDBRANCH  16  19
ENDBRANCH   1  15
BRANCH   1  25
HETATM   25  C   UNL     1      -8.622   1.101 -33.171  1.00  0.00    -0.035 A 
HETATM   26  C   UNL     1      -9.556   0.156 -32.708  1.00  0.00     0.009 A 
HETATM   27  C   UNL     1     -10.900   0.235 -33.074  1.00  0.00     0.001 A 
HETATM   28  C   UNL     1     -11.333   1.262 -33.909  1.00  0.00     0.000 A 
HETATM   29  C   UNL     1     -10.419   2.200 -34.384  1.00  0.00     0.001 A 
HETATM   30  C   UNL     1      -9.072   2.117 -34.024  1.00  0.00     0.009 A 
ENDBRANCH   1  25
TORSDOF 7
ENDMDL
MODEL 6
REMARK VINA RESULT:      -8.0      3.194      8.087
REMARK  7 active torsions:
REMARK  status: ('A' for Active; 'I' for Inactive)
REMARK    1  A    between atoms: O_2  and  C_3 
REMARK    2  A    between atoms: C_6  and  N_7 
REMARK       I    between atoms: N_7  and  C_8 
REMARK    3  A    between atoms: C_8  and  C_9 
REMARK    4  A    between atoms: C_9  and  C_10 
REMARK    5  A    between atoms: C_10  and  N_11 
REMARK    6  A    between atoms: C_10  and  C_20 
REMARK       I    between atoms: N_11  and  C_12 
REMARK    7  A    between atoms: C_12  and  C_13 
ROOT
HETATM    1  C   UNL     1      -7.143   1.001 -33.593  1.00  0.00     0.126 C 
ENDROOT
BRANCH   1   2
HETATM    2  C   UNL     1      -6.367   2.180 -34.212  1.00  0.00     0.133 C 
BRANCH   2   3
HETATM    3  C   UNL     1      -6.857   3.502 -33.676  1.00  0.00     0.224 C 
HETATM    4  N   UNL     1      -6.027   4.422 -33.109  1.00  0.00    -0.326 N 
HETATM    5  H   UNL     1      -6.566   5.241 -32.848  1.00  0.00     0.169 HD
HETATM    6  O   UNL     1      -8.061   3.789 -33.681  1.00  0.00    -0.273 OA
BRANCH   4   7
HETATM    7  C   UNL     1      -4.643   4.513 -32.887  1.00  0.00     0.052 A 
HETATM    8  C   UNL     1      -3.725   5.310 -33.562  1.00  0.00     0.149 A 
HETATM    9  N   UNL     1      -2.403   5.391 -33.255  1.00  0.00    -0.235 NA
HETATM   10  C   UNL     1      -1.966   4.633 -32.230  1.00  0.00     0.163 A 
HETATM   11  C   UNL     1      -2.777   3.761 -31.530  1.00  0.00     0.060 A 
HETATM   12  C   UNL     1      -4.128   3.706 -31.865  1.00  0.00     0.035 A 
BRANCH  10  13
HETATM   13  O   UNL     1      -0.644   4.691 -31.839  1.00  0.00    -0.339 OA
HETATM   14  C   UNL     1      -0.309   5.930 -31.223  1.00  0.00     0.211 C 
ENDBRANCH  10  13
ENDBRANCH   4   7
ENDBRANCH   2   3
ENDBRANCH   1   2
BRANCH   1  15
HETATM   15  N   UNL     1      -8.578   0.958 -33.902  1.00  0.00    -0.348 N 
HETATM   16  C   UNL     1      -9.587   0.616 -33.029  1.00  0.00     0.252 C 
HETATM   17  O   UNL     1      -9.409   0.318 -31.854  1.00  0.00    -0.268 OA
HETATM   18  H   UNL     1      -8.835   1.392 -34.776  1.00  0.00     0.163 HD
BRANCH  16  19
HETATM   19  C   UNL     1     -10.979   0.626 -33.565  1.00  0.00     0.032 A 
HETATM   20  C   UNL     1     -11.944  -0.308 -33.170  1.00  0.00     0.017 A 
HETATM   21  C   UNL     1     -13.244  -0.227 -33.678  1.00  0.00     0.001 A 
HETATM   22  C   UNL     1     -13.588   0.790 -34.569  1.00  0.00     0.000 A 
HETATM   23  C   UNL     1     -12.636   1.732 -34.954  1.00  0.00     0.001 A 
HETATM   24  C   UNL     1     -11.337   1.652 -34.453  1.00  0.00     0.017 A 
ENDBRANCH  16  19
ENDBRANCH   1  15
BRANCH   1  25
HETATM   25  C   UNL     1      -6.453  -0.331 -33.856  1.00  0.00    -0.035 A 
HETATM   26  C   UNL     1      -5.115  -0.499 -33.455  1.00  0.00     0.009 A 
HETATM   27  C   UNL     1      -4.438  -1.696 -33.695  1.00  0.00     0.001 A 
HETATM   28  C   UNL     1      -5.088  -2.744 -34.339  1.00  0.00     0.000 A 
HETATM   29  C   UNL     1      -6.411  -2.591 -34.751  1.00  0.00     0.001 A 
HETATM   30  C   UNL     1      -7.086  -1.391 -34.517  1.00  0.00     0.009 A 
ENDBRANCH   1  25
TORSDOF 7
ENDMDL
MODEL 7
REMARK VINA RESULT:      -7.8      3.853      5.954
REMARK  7 active torsions:
REMARK  status: ('A' for Active; 'I' for Inactive)
REMARK    1  A    between atoms: O_2  and  C_3 
REMARK    2  A    between atoms: C_6  and  N_7 
REMARK       I    between atoms: N_7  and  C_8 
REMARK    3  A    between atoms: C_8  and  C_9 
REMARK    4  A    between atoms: C_9  and  C_10 
REMARK    5  A    between atoms: C_10  and  N_11 
REMARK    6  A    between atoms: C_10  and  C_20 
REMARK       I    between atoms: N_11  and  C_12 
REMARK    7  A    between atoms: C_12  and  C_13 
ROOT
HETATM    1  C   UNL     1      -6.387   3.018 -34.163  1.00  0.00     0.126 C 
ENDROOT
BRANCH   1   2
HETATM    2  C   UNL     1      -7.672   3.673 -33.620  1.00  0.00     0.133 C 
BRANCH   2   3
HETATM    3  C   UNL     1      -8.022   3.143 -32.251  1.00  0.00     0.224 C 
HETATM    4  N   UNL     1      -9.247   2.629 -31.951  1.00  0.00    -0.326 N 
HETATM    5  H   UNL     1      -9.248   2.310 -30.988  1.00  0.00     0.169 HD
HETATM    6  O   UNL     1      -7.215   3.204 -31.315  1.00  0.00    -0.273 OA
BRANCH   4   7
HETATM    7  C   UNL     1     -10.430   2.383 -32.669  1.00  0.00     0.052 A 
HETATM    8  C   UNL     1     -11.463   3.274 -32.934  1.00  0.00     0.149 A 
HETATM    9  N   UNL     1     -12.557   2.982 -33.688  1.00  0.00    -0.235 NA
HETATM   10  C   UNL     1     -12.634   1.737 -34.197  1.00  0.00     0.163 A 
HETATM   11  C   UNL     1     -11.695   0.755 -33.949  1.00  0.00     0.060 A 
HETATM   12  C   UNL     1     -10.583   1.087 -33.178  1.00  0.00     0.035 A 
BRANCH  10  13
HETATM   13  O   UNL     1     -13.697   1.382 -35.002  1.00  0.00    -0.339 OA
HETATM   14  C   UNL     1     -14.731   0.719 -34.281  1.00  0.00     0.211 C 
ENDBRANCH  10  13
ENDBRANCH   4   7
ENDBRANCH   2   3
ENDBRANCH   1   2
BRANCH   1  15
HETATM   15  N   UNL     1      -5.133   3.500 -33.568  1.00  0.00    -0.348 N 
HETATM   16  C   UNL     1      -4.399   4.587 -33.990  1.00  0.00     0.252 C 
HETATM   17  O   UNL     1      -4.720   5.314 -34.922  1.00  0.00    -0.268 OA
HETATM   18  H   UNL     1      -4.909   3.096 -32.671  1.00  0.00     0.163 HD
BRANCH  16  19
HETATM   19  C   UNL     1      -3.143   4.885 -33.243  1.00  0.00     0.032 A 
HETATM   20  C   UNL     1      -2.864   4.331 -31.988  1.00  0.00     0.017 A 
HETATM   21  C   UNL     1      -1.652   4.617 -31.352  1.00  0.00     0.001 A 
HETATM   22  C   UNL     1      -0.713   5.444 -31.969  1.00  0.00     0.000 A 
HETATM   23  C   UNL     1      -0.978   5.986 -33.224  1.00  0.00     0.001 A 
HETATM   24  C   UNL     1      -2.188   5.706 -33.861  1.00  0.00     0.017 A 
ENDBRANCH  16  19
ENDBRANCH   1  15
BRANCH   1  25
HETATM   25  C   UNL     1      -6.482   1.498 -34.164  1.00  0.00    -0.035 A 
HETATM   26  C   UNL     1      -7.407   0.871 -35.018  1.00  0.00     0.009 A 
HETATM   27  C   UNL     1      -7.543  -0.518 -35.036  1.00  0.00     0.001 A 
HETATM   28  C   UNL     1      -6.754  -1.303 -34.200  1.00  0.00     0.000 A 
HETATM   29  C   UNL     1      -5.839  -0.697 -33.340  1.00  0.00     0.001 A 
HETATM   30  C   UNL     1      -5.709   0.693 -33.317  1.00  0.00     0.009 A 
ENDBRANCH   1  25
TORSDOF 7
ENDMDL
MODEL 8
REMARK VINA RESULT:      -7.8      3.649      7.771
REMARK  7 active torsions:
REMARK  status: ('A' for Active; 'I' for Inactive)
REMARK    1  A    between atoms: O_2  and  C_3 
REMARK    2  A    between atoms: C_6  and  N_7 
REMARK       I    between atoms: N_7  and  C_8 
REMARK    3  A    between atoms: C_8  and  C_9 
REMARK    4  A    between atoms: C_9  and  C_10 
REMARK    5  A    between atoms: C_10  and  N_11 
REMARK    6  A    between atoms: C_10  and  C_20 
REMARK       I    between atoms: N_11  and  C_12 
REMARK    7  A    between atoms: C_12  and  C_13 
ROOT
HETATM    1  C   UNL     1      -6.183   1.582 -33.330  1.00  0.00     0.126 C 
ENDROOT
BRANCH   1   2
HETATM    2  C   UNL     1      -5.700   1.935 -31.909  1.00  0.00     0.133 C 
BRANCH   2   3
HETATM    3  C   UNL     1      -6.484   1.184 -30.861  1.00  0.00     0.224 C 
HETATM    4  N   UNL     1      -7.496   1.753 -30.149  1.00  0.00    -0.326 N 
HETATM    5  H   UNL     1      -7.896   1.060 -29.526  1.00  0.00     0.169 HD
HETATM    6  O   UNL     1      -6.201   0.017 -30.563  1.00  0.00    -0.273 OA
BRANCH   4   7
HETATM    7  C   UNL     1      -8.129   3.008 -30.143  1.00  0.00     0.052 A 
HETATM    8  C   UNL     1      -7.575   4.237 -29.803  1.00  0.00     0.149 A 
HETATM    9  N   UNL     1      -8.235   5.425 -29.875  1.00  0.00    -0.235 NA
HETATM   10  C   UNL     1      -9.514   5.389 -30.297  1.00  0.00     0.163 A 
HETATM   11  C   UNL     1     -10.181   4.219 -30.602  1.00  0.00     0.060 A 
HETATM   12  C   UNL     1      -9.476   3.019 -30.525  1.00  0.00     0.035 A 
BRANCH  10  13
HETATM   13  O   UNL     1     -10.233   6.559 -30.429  1.00  0.00    -0.339 OA
HETATM   14  C   UNL     1     -10.021   7.193 -31.687  1.00  0.00     0.211 C 
ENDBRANCH  10  13
ENDBRANCH   4   7
ENDBRANCH   2   3
ENDBRANCH   1   2
BRANCH   1  15
HETATM   15  N   UNL     1      -6.228   0.148 -33.644  1.00  0.00    -0.348 N 
HETATM   16  C   UNL     1      -5.143  -0.694 -33.752  1.00  0.00     0.252 C 
HETATM   17  O   UNL     1      -3.981  -0.347 -33.577  1.00  0.00    -0.268 OA
HETATM   18  H   UNL     1      -7.146  -0.267 -33.592  1.00  0.00     0.163 HD
BRANCH  16  19
HETATM   19  C   UNL     1      -5.423  -2.118 -34.096  1.00  0.00     0.032 A 
HETATM   20  C   UNL     1      -6.679  -2.552 -34.539  1.00  0.00     0.017 A 
HETATM   21  C   UNL     1      -6.873  -3.892 -34.883  1.00  0.00     0.001 A 
HETATM   22  C   UNL     1      -5.817  -4.800 -34.800  1.00  0.00     0.000 A 
HETATM   23  C   UNL     1      -4.561  -4.372 -34.375  1.00  0.00     0.001 A 
HETATM   24  C   UNL     1      -4.364  -3.035 -34.026  1.00  0.00     0.017 A 
ENDBRANCH  16  19
ENDBRANCH   1  15
BRANCH   1  25
HETATM   25  C   UNL     1      -7.483   2.293 -33.680  1.00  0.00    -0.035 A 
HETATM   26  C   UNL     1      -7.515   3.700 -33.680  1.00  0.00     0.009 A 
HETATM   27  C   UNL     1      -8.691   4.392 -33.973  1.00  0.00     0.001 A 
HETATM   28  C   UNL     1      -9.854   3.689 -34.272  1.00  0.00     0.000 A 
HETATM   29  C   UNL     1      -9.842   2.295 -34.267  1.00  0.00     0.001 A 
HETATM   30  C   UNL     1      -8.668   1.602 -33.966  1.00  0.00     0.009 A 
ENDBRANCH   1  25
TORSDOF 7
ENDMDL
MODEL 9
REMARK VINA RESULT:      -7.8      4.323      7.600
REMARK  7 active torsions:
REMARK  status: ('A' for Active; 'I' for Inactive)
REMARK    1  A    between atoms: O_2  and  C_3 
REMARK    2  A    between atoms: C_6  and  N_7 
REMARK       I    between atoms: N_7  and  C_8 
REMARK    3  A    between atoms: C_8  and  C_9 
REMARK    4  A    between atoms: C_9  and  C_10 
REMARK    5  A    between atoms: C_10  and  N_11 
REMARK    6  A    between atoms: C_10  and  C_20 
REMARK       I    between atoms: N_11  and  C_12 
REMARK    7  A    between atoms: C_12  and  C_13 
ROOT
HETATM    1  C   UNL     1     -10.798   3.102 -34.585  1.00  0.00     0.126 C 
ENDROOT
BRANCH   1   2
HETATM    2  C   UNL     1     -10.459   4.414 -33.850  1.00  0.00     0.133 C 
BRANCH   2   3
HETATM    3  C   UNL     1      -9.452   5.231 -34.621  1.00  0.00     0.224 C 
HETATM    4  N   UNL     1      -8.124   5.239 -34.319  1.00  0.00    -0.326 N 
HETATM    5  H   UNL     1      -7.636   5.833 -34.982  1.00  0.00     0.169 HD
HETATM    6  O   UNL     1      -9.804   5.981 -35.540  1.00  0.00    -0.273 OA
BRANCH   4   7
HETATM    7  C   UNL     1      -7.308   4.578 -33.386  1.00  0.00     0.052 A 
HETATM    8  C   UNL     1      -7.387   4.634 -31.999  1.00  0.00     0.149 A 
HETATM    9  N   UNL     1      -6.597   3.919 -31.153  1.00  0.00    -0.235 NA
HETATM   10  C   UNL     1      -5.674   3.114 -31.714  1.00  0.00     0.163 A 
HETATM   11  C   UNL     1      -5.468   3.026 -33.077  1.00  0.00     0.060 A 
HETATM   12  C   UNL     1      -6.298   3.766 -33.917  1.00  0.00     0.035 A 
BRANCH  10  13
HETATM   13  O   UNL     1      -4.862   2.332 -30.918  1.00  0.00    -0.339 OA
HETATM   14  C   UNL     1      -3.786   1.746 -31.644  1.00  0.00     0.211 C 
ENDBRANCH  10  13
ENDBRANCH   4   7
ENDBRANCH   2   3
ENDBRANCH   1   2
BRANCH   1  15
HETATM   15  N   UNL     1      -9.738   2.085 -34.582  1.00  0.00    -0.348 N 
HETATM   16  C   UNL     1      -9.198   1.479 -33.469  1.00  0.00     0.252 C 
HETATM   17  O   UNL     1      -9.557   1.704 -32.319  1.00  0.00    -0.268 OA
HETATM   18  H   UNL     1      -9.535   1.684 -35.485  1.00  0.00     0.163 HD
BRANCH  16  19
HETATM   19  C   UNL     1      -8.116   0.479 -33.701  1.00  0.00     0.032 A 
HETATM   20  C   UNL     1      -7.768   0.032 -34.981  1.00  0.00     0.017 A 
HETATM   21  C   UNL     1      -6.718  -0.878 -35.142  1.00  0.00     0.001 A 
HETATM   22  C   UNL     1      -6.006  -1.333 -34.032  1.00  0.00     0.000 A 
HETATM   23  C   UNL     1      -6.337  -0.879 -32.757  1.00  0.00     0.001 A 
HETATM   24  C   UNL     1      -7.387   0.026 -32.592  1.00  0.00     0.017 A 
ENDBRANCH  16  19
ENDBRANCH   1  15
BRANCH   1  25
HETATM   25  C   UNL     1     -12.143   2.539 -34.147  1.00  0.00    -0.035 A 
HETATM   26  C   UNL     1     -12.688   1.448 -34.848  1.00  0.00     0.009 A 
HETATM   27  C   UNL     1     -13.929   0.913 -34.495  1.00  0.00     0.001 A 
HETATM   28  C   UNL     1     -14.644   1.462 -33.434  1.00  0.00     0.000 A 
HETATM   29  C   UNL     1     -14.123   2.549 -32.736  1.00  0.00     0.001 A 
HETATM   30  C   UNL     1     -12.885   3.089 -33.094  1.00  0.00     0.009 A 
ENDBRANCH   1  25
TORSDOF 7
ENDMDL
MODEL 10
REMARK VINA RESULT:      -7.4     14.212     16.350
REMARK  7 active torsions:
REMARK  status: ('A' for Active; 'I' for Inactive)
REMARK    1  A    between atoms: O_2  and  C_3 
REMARK    2  A    between atoms: C_6  and  N_7 
REMARK       I    between atoms: N_7  and  C_8 
REMARK    3  A    between atoms: C_8  and  C_9 
REMARK    4  A    between atoms: C_9  and  C_10 
REMARK    5  A    between atoms: C_10  and  N_11 
REMARK    6  A    between atoms: C_10  and  C_20 
REMARK       I    between atoms: N_11  and  C_12 
REMARK    7  A    between atoms: C_12  and  C_13 
ROOT
HETATM    1  C   UNL     1      -6.905 -13.708 -38.742  1.00  0.00     0.126 C 
ENDROOT
BRANCH   1   2
HETATM    2  C   UNL     1      -6.903 -14.502 -37.421  1.00  0.00     0.133 C 
BRANCH   2   3
HETATM    3  C   UNL     1      -6.629 -13.604 -36.240  1.00  0.00     0.224 C 
HETATM    4  N   UNL     1      -5.382 -13.149 -35.933  1.00  0.00    -0.326 N 
HETATM    5  H   UNL     1      -5.439 -12.543 -35.122  1.00  0.00     0.169 HD
HETATM    6  O   UNL     1      -7.532 -13.280 -35.458  1.00  0.00    -0.273 OA
BRANCH   4   7
HETATM    7  C   UNL     1      -4.107 -13.268 -36.510  1.00  0.00     0.052 A 
HETATM    8  C   UNL     1      -3.107 -14.176 -36.182  1.00  0.00     0.149 A 
HETATM    9  N   UNL     1      -1.912 -14.271 -36.825  1.00  0.00    -0.235 NA
HETATM   10  C   UNL     1      -1.694 -13.413 -37.840  1.00  0.00     0.163 A 
HETATM   11  C   UNL     1      -2.592 -12.431 -38.212  1.00  0.00     0.060 A 
HETATM   12  C   UNL     1      -3.810 -12.364 -37.538  1.00  0.00     0.035 A 
BRANCH  10  13
HETATM   13  O   UNL     1      -0.519 -13.475 -38.560  1.00  0.00    -0.339 OA
HETATM   14  C   UNL     1       0.201 -14.681 -38.330  1.00  0.00     0.211 C 
ENDBRANCH  10  13
ENDBRANCH   4   7
ENDBRANCH   2   3
ENDBRANCH   1   2
BRANCH   1  15
HETATM   15  N   UNL     1      -5.996 -14.209 -39.781  1.00  0.00    -0.348 N 
HETATM   16  C   UNL     1      -5.315 -13.444 -40.703  1.00  0.00     0.252 C 
HETATM   17  O   UNL     1      -5.369 -12.221 -40.757  1.00  0.00    -0.268 OA
HETATM   18  H   UNL     1      -5.726 -15.175 -39.675  1.00  0.00     0.163 HD
BRANCH  16  19
HETATM   19  C   UNL     1      -4.455 -14.171 -41.681  1.00  0.00     0.032 A 
HETATM   20  C   UNL     1      -3.241 -14.768 -41.318  1.00  0.00     0.017 A 
HETATM   21  C   UNL     1      -2.495 -15.468 -42.269  1.00  0.00     0.001 A 
HETATM   22  C   UNL     1      -2.960 -15.587 -43.579  1.00  0.00     0.000 A 
HETATM   23  C   UNL     1      -4.175 -15.009 -43.944  1.00  0.00     0.001 A 
HETATM   24  C   UNL     1      -4.921 -14.305 -42.997  1.00  0.00     0.017 A 
ENDBRANCH  16  19
ENDBRANCH   1  15
BRANCH   1  25
HETATM   25  C   UNL     1      -8.317 -13.482 -39.265  1.00  0.00    -0.035 A 
HETATM   26  C   UNL     1      -9.142 -14.594 -39.507  1.00  0.00     0.009 A 
HETATM   27  C   UNL     1     -10.436 -14.435 -40.007  1.00  0.00     0.001 A 
HETATM   28  C   UNL     1     -10.925 -13.158 -40.272  1.00  0.00     0.000 A 
HETATM   29  C   UNL     1     -10.116 -12.046 -40.048  1.00  0.00     0.001 A 
HETATM   30  C   UNL     1      -8.819 -12.206 -39.554  1.00  0.00     0.009 A 
ENDBRANCH   1  25
TORSDOF 7
ENDMDL
