MODEL 1
REMARK VINA RESULT:      -8.8      0.000      0.000
REMARK  5 active torsions:
REMARK  status: ('A' for Active; 'I' for Inactive)
REMARK    1  A    between atoms: C_4  and  N_5 
REMARK    2  A    between atoms: C_8  and  C_9 
REMARK    3  A    between atoms: C_9  and  N_10 
REMARK       I    between atoms: N_10  and  C_11 
REMARK       I    between atoms: C_11  and  N_12 
REMARK    4  A    between atoms: N_12  and  C_13 
REMARK    5  A    between atoms: C_13  and  C_14 
ROOT
HETATM    1  N   UNL     1      -2.737   5.781 -32.658  1.00  0.00    -0.319 N 
HETATM    2  C   UNL     1      -4.068   5.436 -32.406  1.00  0.00     0.021 A 
HETATM    3  C   UNL     1      -4.699   5.496 -31.050  1.00  0.00     0.069 C 
HETATM    4  C   UNL     1      -4.680   5.108 -33.615  1.00  0.00    -0.016 A 
HETATM    5  C   UNL     1      -3.705   5.285 -34.624  1.00  0.00     0.035 A 
HETATM    6  C   UNL     1      -2.521   5.672 -34.030  1.00  0.00     0.014 A 
HETATM    7  C   UNL     1      -1.198   5.832 -34.701  1.00  0.00     0.068 C 
ENDROOT
BRANCH   4   8
HETATM    8  C   UNL     1      -6.087   4.645 -33.840  1.00  0.00     0.165 C 
BRANCH   8   9
HETATM    9  N   UNL     1      -6.065   3.256 -34.233  1.00  0.00    -0.339 N 
HETATM   10  C   UNL     1      -6.151   2.273 -33.286  1.00  0.00     0.316 C 
HETATM   11  N   UNL     1      -6.417   1.056 -33.852  1.00  0.00    -0.339 N 
HETATM   12  O   UNL     1      -6.063   2.462 -32.082  1.00  0.00    -0.247 OA
HETATM   13  H   UNL     1      -6.056   0.898 -34.780  1.00  0.00     0.164 HD
HETATM   14  H   UNL     1      -6.415   3.040 -35.154  1.00  0.00     0.164 HD
BRANCH  11  15
HETATM   15  C   UNL     1      -6.621  -0.108 -33.019  1.00  0.00     0.162 C 
BRANCH  15  16
HETATM   16  C   UNL     1      -6.192  -1.375 -33.714  1.00  0.00    -0.040 A 
HETATM   17  C   UNL     1      -4.834  -1.715 -33.789  1.00  0.00     0.009 A 
HETATM   18  C   UNL     1      -4.433  -2.911 -34.389  1.00  0.00     0.001 A 
HETATM   19  C   UNL     1      -5.385  -3.783 -34.913  1.00  0.00     0.000 A 
HETATM   20  C   UNL     1      -6.739  -3.466 -34.833  1.00  0.00     0.001 A 
HETATM   21  C   UNL     1      -7.141  -2.273 -34.229  1.00  0.00     0.009 A 
ENDBRANCH  15  16
ENDBRANCH  11  15
ENDBRANCH   8   9
ENDBRANCH   4   8
BRANCH   1  22
HETATM   22  C   UNL     1      -1.769   6.176 -31.684  1.00  0.00     0.040 A 
HETATM   23  C   UNL     1      -0.878   5.234 -31.151  1.00  0.00     0.036 A 
HETATM   24  C   UNL     1       0.051   5.606 -30.168  1.00  0.00    -0.060 A 
HETATM   25  C   UNL     1       1.013   4.597 -29.613  1.00  0.00     0.048 C 
HETATM   26  C   UNL     1       0.106   6.941 -29.753  1.00  0.00     0.007 A 
HETATM   27  C   UNL     1      -0.770   7.884 -30.289  1.00  0.00     0.003 A 
HETATM   28  C   UNL     1      -1.709   7.504 -31.249  1.00  0.00     0.030 A 
ENDBRANCH   1  22
TORSDOF 5
ENDMDL
MODEL 2
REMARK VINA RESULT:      -8.7      1.832      9.224
REMARK  5 active torsions:
REMARK  status: ('A' for Active; 'I' for Inactive)
REMARK    1  A    between atoms: C_4  and  N_5 
REMARK    2  A    between atoms: C_8  and  C_9 
REMARK    3  A    between atoms: C_9  and  N_10 
REMARK       I    between atoms: N_10  and  C_11 
REMARK       I    between atoms: C_11  and  N_12 
REMARK    4  A    between atoms: N_12  and  C_13 
REMARK    5  A    between atoms: C_13  and  C_14 
ROOT
HETATM    1  N   UNL     1      -5.560  -0.437 -33.586  1.00  0.00    -0.319 N 
HETATM    2  C   UNL     1      -4.819   0.109 -32.534  1.00  0.00     0.021 A 
HETATM    3  C   UNL     1      -3.906  -0.691 -31.658  1.00  0.00     0.069 C 
HETATM    4  C   UNL     1      -5.032   1.486 -32.507  1.00  0.00    -0.016 A 
HETATM    5  C   UNL     1      -5.900   1.784 -33.584  1.00  0.00     0.035 A 
HETATM    6  C   UNL     1      -6.233   0.605 -34.220  1.00  0.00     0.014 A 
HETATM    7  C   UNL     1      -7.231   0.435 -35.315  1.00  0.00     0.068 C 
ENDROOT
BRANCH   4   8
HETATM    8  C   UNL     1      -4.478   2.487 -31.539  1.00  0.00     0.165 C 
BRANCH   8   9
HETATM    9  N   UNL     1      -3.218   2.978 -32.045  1.00  0.00    -0.339 N 
HETATM   10  C   UNL     1      -2.934   4.315 -31.999  1.00  0.00     0.316 C 
HETATM   11  N   UNL     1      -1.607   4.552 -32.234  1.00  0.00    -0.339 N 
HETATM   12  O   UNL     1      -3.746   5.186 -31.725  1.00  0.00    -0.247 OA
HETATM   13  H   UNL     1      -1.132   3.908 -32.846  1.00  0.00     0.164 HD
HETATM   14  H   UNL     1      -2.437   2.341 -32.012  1.00  0.00     0.164 HD
BRANCH  11  15
HETATM   15  C   UNL     1      -1.081   5.897 -32.158  1.00  0.00     0.162 C 
BRANCH  15  16
HETATM   16  C   UNL     1      -0.417   6.163 -30.830  1.00  0.00    -0.040 A 
HETATM   17  C   UNL     1      -0.450   7.446 -30.268  1.00  0.00     0.009 A 
HETATM   18  C   UNL     1       0.122   7.688 -29.016  1.00  0.00     0.001 A 
HETATM   19  C   UNL     1       0.726   6.648 -28.311  1.00  0.00     0.000 A 
HETATM   20  C   UNL     1       0.754   5.364 -28.852  1.00  0.00     0.001 A 
HETATM   21  C   UNL     1       0.178   5.121 -30.100  1.00  0.00     0.009 A 
ENDBRANCH  15  16
ENDBRANCH  11  15
ENDBRANCH   8   9
ENDBRANCH   4   8
BRANCH   1  22
HETATM   22  C   UNL     1      -5.617  -1.818 -33.951  1.00  0.00     0.040 A 
HETATM   23  C   UNL     1      -4.480  -2.628 -33.828  1.00  0.00     0.036 A 
HETATM   24  C   UNL     1      -4.516  -3.975 -34.219  1.00  0.00    -0.060 A 
HETATM   25  C   UNL     1      -3.301  -4.842 -34.069  1.00  0.00     0.048 C 
HETATM   26  C   UNL     1      -5.716  -4.513 -34.696  1.00  0.00     0.007 A 
HETATM   27  C   UNL     1      -6.854  -3.714 -34.808  1.00  0.00     0.003 A 
HETATM   28  C   UNL     1      -6.805  -2.368 -34.442  1.00  0.00     0.030 A 
ENDBRANCH   1  22
TORSDOF 5
ENDMDL
MODEL 3
REMARK VINA RESULT:      -8.5      1.513      8.626
REMARK  5 active torsions:
REMARK  status: ('A' for Active; 'I' for Inactive)
REMARK    1  A    between atoms: C_4  and  N_5 
REMARK    2  A    between atoms: C_8  and  C_9 
REMARK    3  A    between atoms: C_9  and  N_10 
REMARK       I    between atoms: N_10  and  C_11 
REMARK       I    between atoms: C_11  and  N_12 
REMARK    4  A    between atoms: N_12  and  C_13 
REMARK    5  A    between atoms: C_13  and  C_14 
ROOT
HETATM    1  N   UNL     1      -5.709  -0.308 -33.518  1.00  0.00    -0.319 N 
HETATM    2  C   UNL     1      -6.275   0.754 -34.230  1.00  0.00     0.021 A 
HETATM    3  C   UNL     1      -7.077   0.579 -35.482  1.00  0.00     0.069 C 
HETATM    4  C   UNL     1      -6.017   1.939 -33.544  1.00  0.00    -0.016 A 
HETATM    5  C   UNL     1      -5.303   1.584 -32.375  1.00  0.00     0.035 A 
HETATM    6  C   UNL     1      -5.102   0.219 -32.380  1.00  0.00     0.014 A 
HETATM    7  C   UNL     1      -4.276  -0.563 -31.414  1.00  0.00     0.068 C 
ENDROOT
BRANCH   4   8
HETATM    8  C   UNL     1      -6.396   3.334 -33.939  1.00  0.00     0.165 C 
BRANCH   8   9
HETATM    9  N   UNL     1      -5.228   4.006 -34.456  1.00  0.00    -0.339 N 
HETATM   10  C   UNL     1      -4.796   5.172 -33.885  1.00  0.00     0.316 C 
HETATM   11  N   UNL     1      -3.532   5.493 -34.299  1.00  0.00    -0.339 N 
HETATM   12  O   UNL     1      -5.431   5.816 -33.063  1.00  0.00    -0.247 OA
HETATM   13  H   UNL     1      -3.273   5.206 -35.229  1.00  0.00     0.164 HD
HETATM   14  H   UNL     1      -4.532   3.428 -34.902  1.00  0.00     0.164 HD
BRANCH  11  15
HETATM   15  C   UNL     1      -2.859   6.652 -33.756  1.00  0.00     0.162 C 
BRANCH  15  16
HETATM   16  C   UNL     1      -1.798   6.264 -32.757  1.00  0.00    -0.040 A 
HETATM   17  C   UNL     1      -0.773   7.163 -32.429  1.00  0.00     0.009 A 
HETATM   18  C   UNL     1       0.185   6.828 -31.469  1.00  0.00     0.001 A 
HETATM   19  C   UNL     1       0.124   5.596 -30.821  1.00  0.00     0.000 A 
HETATM   20  C   UNL     1      -0.897   4.699 -31.126  1.00  0.00     0.001 A 
HETATM   21  C   UNL     1      -1.858   5.034 -32.082  1.00  0.00     0.009 A 
ENDBRANCH  15  16
ENDBRANCH  11  15
ENDBRANCH   8   9
ENDBRANCH   4   8
BRANCH   1  22
HETATM   22  C   UNL     1      -5.748  -1.688 -33.886  1.00  0.00     0.040 A 
HETATM   23  C   UNL     1      -4.585  -2.468 -33.822  1.00  0.00     0.036 A 
HETATM   24  C   UNL     1      -4.605  -3.814 -34.218  1.00  0.00    -0.060 A 
HETATM   25  C   UNL     1      -3.361  -4.649 -34.131  1.00  0.00     0.048 C 
HETATM   26  C   UNL     1      -5.812  -4.382 -34.640  1.00  0.00     0.007 A 
HETATM   27  C   UNL     1      -6.974  -3.613 -34.693  1.00  0.00     0.003 A 
HETATM   28  C   UNL     1      -6.943  -2.268 -34.322  1.00  0.00     0.030 A 
ENDBRANCH   1  22
TORSDOF 5
ENDMDL
MODEL 4
REMARK VINA RESULT:      -8.5      2.072      8.096
REMARK  5 active torsions:
REMARK  status: ('A' for Active; 'I' for Inactive)
REMARK    1  A    between atoms: C_4  and  N_5 
REMARK    2  A    between atoms: C_8  and  C_9 
REMARK    3  A    between atoms: C_9  and  N_10 
REMARK       I    between atoms: N_10  and  C_11 
REMARK       I    between atoms: C_11  and  N_12 
REMARK    4  A    between atoms: N_12  and  C_13 
REMARK    5  A    between atoms: C_13  and  C_14 
ROOT
HETATM    1  N   UNL     1      -6.500  -0.107 -33.200  1.00  0.00    -0.319 N 
HETATM    2  C   UNL     1      -6.660   0.371 -31.896  1.00  0.00     0.021 A 
HETATM    3  C   UNL     1      -6.108  -0.316 -30.686  1.00  0.00     0.069 C 
HETATM    4  C   UNL     1      -7.339   1.587 -31.948  1.00  0.00    -0.016 A 
HETATM    5  C   UNL     1      -7.571   1.865 -33.316  1.00  0.00     0.035 A 
HETATM    6  C   UNL     1      -7.077   0.818 -34.067  1.00  0.00     0.014 A 
HETATM    7  C   UNL     1      -7.231   0.628 -35.539  1.00  0.00     0.068 C 
ENDROOT
BRANCH   4   8
HETATM    8  C   UNL     1      -7.766   2.455 -30.803  1.00  0.00     0.165 C 
BRANCH   8   9
HETATM    9  N   UNL     1      -7.247   3.786 -31.007  1.00  0.00    -0.339 N 
HETATM   10  C   UNL     1      -5.933   4.059 -30.746  1.00  0.00     0.316 C 
HETATM   11  N   UNL     1      -5.558   5.264 -31.276  1.00  0.00    -0.339 N 
HETATM   12  O   UNL     1      -5.171   3.300 -30.166  1.00  0.00    -0.247 OA
HETATM   13  H   UNL     1      -6.269   5.976 -31.331  1.00  0.00     0.164 HD
HETATM   14  H   UNL     1      -7.702   4.347 -31.711  1.00  0.00     0.164 HD
BRANCH  11  15
HETATM   15  C   UNL     1      -4.186   5.709 -31.177  1.00  0.00     0.162 C 
BRANCH  15  16
HETATM   16  C   UNL     1      -3.450   5.545 -32.483  1.00  0.00    -0.040 A 
HETATM   17  C   UNL     1      -2.068   5.311 -32.491  1.00  0.00     0.009 A 
HETATM   18  C   UNL     1      -1.389   5.110 -33.695  1.00  0.00     0.001 A 
HETATM   19  C   UNL     1      -2.085   5.133 -34.903  1.00  0.00     0.000 A 
HETATM   20  C   UNL     1      -3.461   5.351 -34.909  1.00  0.00     0.001 A 
HETATM   21  C   UNL     1      -4.141   5.546 -33.705  1.00  0.00     0.009 A 
ENDBRANCH  15  16
ENDBRANCH  11  15
ENDBRANCH   8   9
ENDBRANCH   4   8
BRANCH   1  22
HETATM   22  C   UNL     1      -5.857  -1.326 -33.579  1.00  0.00     0.040 A 
HETATM   23  C   UNL     1      -6.566  -2.308 -34.284  1.00  0.00     0.036 A 
HETATM   24  C   UNL     1      -5.955  -3.523 -34.628  1.00  0.00    -0.060 A 
HETATM   25  C   UNL     1      -6.713  -4.564 -35.397  1.00  0.00     0.048 C 
HETATM   26  C   UNL     1      -4.611  -3.727 -34.293  1.00  0.00     0.007 A 
HETATM   27  C   UNL     1      -3.898  -2.748 -33.603  1.00  0.00     0.003 A 
HETATM   28  C   UNL     1      -4.519  -1.551 -33.242  1.00  0.00     0.030 A 
ENDBRANCH   1  22
TORSDOF 5
ENDMDL
MODEL 5
REMARK VINA RESULT:      -8.4      2.299      9.448
REMARK  5 active torsions:
REMARK  status: ('A' for Active; 'I' for Inactive)
REMARK    1  A    between atoms: C_4  and  N_5 
REMARK    2  A    between atoms: C_8  and  C_9 
REMARK    3  A    between atoms: C_9  and  N_10 
REMARK       I    between atoms: N_10  and  C_11 
REMARK       I    between atoms: C_11  and  N_12 
REMARK    4  A    between atoms: N_12  and  C_13 
REMARK    5  A    between atoms: C_13  and  C_14 
ROOT
HETATM    1  N   UNL     1      -5.846   1.637 -31.995  1.00  0.00    -0.319 N 
HETATM    2  C   UNL     1      -5.524   2.904 -32.491  1.00  0.00     0.021 A 
HETATM    3  C   UNL     1      -5.573   3.264 -33.943  1.00  0.00     0.069 C 
HETATM    4  C   UNL     1      -5.230   3.742 -31.417  1.00  0.00    -0.016 A 
HETATM    5  C   UNL     1      -5.405   2.972 -30.242  1.00  0.00     0.035 A 
HETATM    6  C   UNL     1      -5.758   1.688 -30.605  1.00  0.00     0.014 A 
HETATM    7  C   UNL     1      -5.902   0.514 -29.697  1.00  0.00     0.068 C 
ENDROOT
BRANCH   4   8
HETATM    8  C   UNL     1      -4.800   5.177 -31.457  1.00  0.00     0.165 C 
BRANCH   8   9
HETATM    9  N   UNL     1      -3.772   5.384 -30.465  1.00  0.00    -0.339 N 
HETATM   10  C   UNL     1      -2.516   5.766 -30.847  1.00  0.00     0.316 C 
HETATM   11  N   UNL     1      -1.779   6.202 -29.779  1.00  0.00    -0.339 N 
HETATM   12  O   UNL     1      -2.117   5.777 -32.003  1.00  0.00    -0.247 OA
HETATM   13  H   UNL     1      -1.979   5.777 -28.887  1.00  0.00     0.164 HD
HETATM   14  H   UNL     1      -4.078   5.665 -29.546  1.00  0.00     0.164 HD
BRANCH  11  15
HETATM   15  C   UNL     1      -0.444   6.722 -29.977  1.00  0.00     0.162 C 
BRANCH  15  16
HETATM   16  C   UNL     1       0.182   7.162 -28.678  1.00  0.00    -0.040 A 
HETATM   17  C   UNL     1      -0.110   6.483 -27.487  1.00  0.00     0.009 A 
HETATM   18  C   UNL     1       0.503   6.855 -26.288  1.00  0.00     0.001 A 
HETATM   19  C   UNL     1       1.420   7.905 -26.269  1.00  0.00     0.000 A 
HETATM   20  C   UNL     1       1.730   8.580 -27.447  1.00  0.00     0.001 A 
HETATM   21  C   UNL     1       1.122   8.205 -28.646  1.00  0.00     0.009 A 
ENDBRANCH  15  16
ENDBRANCH  11  15
ENDBRANCH   8   9
ENDBRANCH   4   8
BRANCH   1  22
HETATM   22  C   UNL     1      -6.205   0.492 -32.771  1.00  0.00     0.040 A 
HETATM   23  C   UNL     1      -5.232  -0.452 -33.128  1.00  0.00     0.036 A 
HETATM   24  C   UNL     1      -5.567  -1.559 -33.921  1.00  0.00    -0.060 A 
HETATM   25  C   UNL     1      -4.526  -2.575 -34.286  1.00  0.00     0.048 C 
HETATM   26  C   UNL     1      -6.897  -1.733 -34.320  1.00  0.00     0.007 A 
HETATM   27  C   UNL     1      -7.871  -0.803 -33.957  1.00  0.00     0.003 A 
HETATM   28  C   UNL     1      -7.527   0.311 -33.189  1.00  0.00     0.030 A 
ENDBRANCH   1  22
TORSDOF 5
ENDMDL
MODEL 6
REMARK VINA RESULT:      -8.4      4.800      8.644
REMARK  5 active torsions:
REMARK  status: ('A' for Active; 'I' for Inactive)
REMARK    1  A    between atoms: C_4  and  N_5 
REMARK    2  A    between atoms: C_8  and  C_9 
REMARK    3  A    between atoms: C_9  and  N_10 
REMARK       I    between atoms: N_10  and  C_11 
REMARK       I    between atoms: C_11  and  N_12 
REMARK    4  A    between atoms: N_12  and  C_13 
REMARK    5  A    between atoms: C_13  and  C_14 
ROOT
HETATM    1  N   UNL     1     -11.152   2.930 -33.952  1.00  0.00    -0.319 N 
HETATM    2  C   UNL     1      -9.949   2.580 -33.333  1.00  0.00     0.021 A 
HETATM    3  C   UNL     1      -9.772   1.349 -32.500  1.00  0.00     0.069 C 
HETATM    4  C   UNL     1      -8.978   3.516 -33.684  1.00  0.00    -0.016 A 
HETATM    5  C   UNL     1      -9.601   4.439 -34.557  1.00  0.00     0.035 A 
HETATM    6  C   UNL     1     -10.928   4.087 -34.695  1.00  0.00     0.014 A 
HETATM    7  C   UNL     1     -11.985   4.862 -35.409  1.00  0.00     0.068 C 
ENDROOT
BRANCH   4   8
HETATM    8  C   UNL     1      -7.549   3.574 -33.238  1.00  0.00     0.165 C 
BRANCH   8   9
HETATM    9  N   UNL     1      -6.814   2.512 -33.884  1.00  0.00    -0.339 N 
HETATM   10  C   UNL     1      -6.056   1.650 -33.141  1.00  0.00     0.316 C 
HETATM   11  N   UNL     1      -5.689   0.552 -33.870  1.00  0.00    -0.339 N 
HETATM   12  O   UNL     1      -5.788   1.807 -31.959  1.00  0.00    -0.247 OA
HETATM   13  H   UNL     1      -5.559   0.688 -34.861  1.00  0.00     0.164 HD
HETATM   14  H   UNL     1      -7.193   2.162 -34.750  1.00  0.00     0.164 HD
BRANCH  11  15
HETATM   15  C   UNL     1      -4.944  -0.520 -33.250  1.00  0.00     0.162 C 
BRANCH  15  16
HETATM   16  C   UNL     1      -5.289  -1.860 -33.849  1.00  0.00    -0.040 A 
HETATM   17  C   UNL     1      -4.330  -2.882 -33.896  1.00  0.00     0.009 A 
HETATM   18  C   UNL     1      -4.658  -4.140 -34.406  1.00  0.00     0.001 A 
HETATM   19  C   UNL     1      -5.949  -4.393 -34.867  1.00  0.00     0.000 A 
HETATM   20  C   UNL     1      -6.916  -3.392 -34.813  1.00  0.00     0.001 A 
HETATM   21  C   UNL     1      -6.591  -2.135 -34.299  1.00  0.00     0.009 A 
ENDBRANCH  15  16
ENDBRANCH  11  15
ENDBRANCH   8   9
ENDBRANCH   4   8
BRANCH   1  22
HETATM   22  C   UNL     1     -12.393   2.229 -33.845  1.00  0.00     0.040 A 
HETATM   23  C   UNL     1     -13.366   2.652 -32.930  1.00  0.00     0.036 A 
HETATM   24  C   UNL     1     -14.571   1.947 -32.791  1.00  0.00    -0.060 A 
HETATM   25  C   UNL     1     -15.617   2.413 -31.822  1.00  0.00     0.048 C 
HETATM   26  C   UNL     1     -14.809   0.836 -33.609  1.00  0.00     0.007 A 
HETATM   27  C   UNL     1     -13.848   0.420 -34.531  1.00  0.00     0.003 A 
HETATM   28  C   UNL     1     -12.640   1.110 -34.647  1.00  0.00     0.030 A 
ENDBRANCH   1  22
TORSDOF 5
ENDMDL
MODEL 7
REMARK VINA RESULT:      -8.3      1.713      3.003
REMARK  5 active torsions:
REMARK  status: ('A' for Active; 'I' for Inactive)
REMARK    1  A    between atoms: C_4  and  N_5 
REMARK    2  A    between atoms: C_8  and  C_9 
REMARK    3  A    between atoms: C_9  and  N_10 
REMARK       I    between atoms: N_10  and  C_11 
REMARK       I    between atoms: C_11  and  N_12 
REMARK    4  A    between atoms: N_12  and  C_13 
REMARK    5  A    between atoms: C_13  and  C_14 
ROOT
HETATM    1  N   UNL     1      -4.198   4.741 -31.582  1.00  0.00    -0.319 N 
HETATM    2  C   UNL     1      -4.349   3.405 -31.202  1.00  0.00     0.021 A 
HETATM    3  C   UNL     1      -3.292   2.363 -31.393  1.00  0.00     0.069 C 
HETATM    4  C   UNL     1      -5.586   3.255 -30.578  1.00  0.00    -0.016 A 
HETATM    5  C   UNL     1      -6.187   4.536 -30.556  1.00  0.00     0.035 A 
HETATM    6  C   UNL     1      -5.344   5.428 -31.189  1.00  0.00     0.014 A 
HETATM    7  C   UNL     1      -5.640   6.853 -31.517  1.00  0.00     0.068 C 
ENDROOT
BRANCH   4   8
HETATM    8  C   UNL     1      -6.200   2.001 -30.034  1.00  0.00     0.165 C 
BRANCH   8   9
HETATM    9  N   UNL     1      -5.761   0.882 -30.834  1.00  0.00    -0.339 N 
HETATM   10  C   UNL     1      -6.471   0.507 -31.941  1.00  0.00     0.316 C 
HETATM   11  N   UNL     1      -5.755  -0.355 -32.726  1.00  0.00    -0.339 N 
HETATM   12  O   UNL     1      -7.580   0.932 -32.227  1.00  0.00    -0.247 OA
HETATM   13  H   UNL     1      -5.106  -0.965 -32.254  1.00  0.00     0.164 HD
HETATM   14  H   UNL     1      -4.771   0.686 -30.834  1.00  0.00     0.164 HD
BRANCH  11  15
HETATM   15  C   UNL     1      -6.296  -0.816 -33.985  1.00  0.00     0.162 C 
BRANCH  15  16
HETATM   16  C   UNL     1      -5.913  -2.247 -34.267  1.00  0.00    -0.040 A 
HETATM   17  C   UNL     1      -4.599  -2.683 -34.049  1.00  0.00     0.009 A 
HETATM   18  C   UNL     1      -4.249  -4.019 -34.263  1.00  0.00     0.001 A 
HETATM   19  C   UNL     1      -5.211  -4.933 -34.689  1.00  0.00     0.000 A 
HETATM   20  C   UNL     1      -6.524  -4.517 -34.897  1.00  0.00     0.001 A 
HETATM   21  C   UNL     1      -6.875  -3.183 -34.678  1.00  0.00     0.009 A 
ENDBRANCH  15  16
ENDBRANCH  11  15
ENDBRANCH   8   9
ENDBRANCH   4   8
BRANCH   1  22
HETATM   22  C   UNL     1      -3.070   5.306 -32.253  1.00  0.00     0.040 A 
HETATM   23  C   UNL     1      -1.986   5.802 -31.516  1.00  0.00     0.036 A 
HETATM   24  C   UNL     1      -0.891   6.393 -32.164  1.00  0.00    -0.060 A 
HETATM   25  C   UNL     1       0.274   6.907 -31.371  1.00  0.00     0.048 C 
HETATM   26  C   UNL     1      -0.874   6.444 -33.563  1.00  0.00     0.007 A 
HETATM   27  C   UNL     1      -1.945   5.939 -34.301  1.00  0.00     0.003 A 
HETATM   28  C   UNL     1      -3.043   5.376 -33.650  1.00  0.00     0.030 A 
ENDBRANCH   1  22
TORSDOF 5
ENDMDL
MODEL 8
REMARK VINA RESULT:      -8.2      2.414      3.656
REMARK  5 active torsions:
REMARK  status: ('A' for Active; 'I' for Inactive)
REMARK    1  A    between atoms: C_4  and  N_5 
REMARK    2  A    between atoms: C_8  and  C_9 
REMARK    3  A    between atoms: C_9  and  N_10 
REMARK       I    between atoms: N_10  and  C_11 
REMARK       I    between atoms: C_11  and  N_12 
REMARK    4  A    between atoms: N_12  and  C_13 
REMARK    5  A    between atoms: C_13  and  C_14 
ROOT
HETATM    1  N   UNL     1      -4.294   4.209 -31.660  1.00  0.00    -0.319 N 
HETATM    2  C   UNL     1      -5.493   4.808 -31.265  1.00  0.00     0.021 A 
HETATM    3  C   UNL     1      -5.888   6.202 -31.642  1.00  0.00     0.069 C 
HETATM    4  C   UNL     1      -6.241   3.878 -30.546  1.00  0.00    -0.016 A 
HETATM    5  C   UNL     1      -5.489   2.679 -30.529  1.00  0.00     0.035 A 
HETATM    6  C   UNL     1      -4.297   2.898 -31.190  1.00  0.00     0.014 A 
HETATM    7  C   UNL     1      -3.148   1.952 -31.289  1.00  0.00     0.068 C 
ENDROOT
BRANCH   4   8
HETATM    8  C   UNL     1      -7.577   4.072 -29.895  1.00  0.00     0.165 C 
BRANCH   8   9
HETATM    9  N   UNL     1      -8.330   2.845 -29.998  1.00  0.00    -0.339 N 
HETATM   10  C   UNL     1      -8.839   2.450 -31.204  1.00  0.00     0.316 C 
HETATM   11  N   UNL     1      -9.248   1.145 -31.171  1.00  0.00    -0.339 N 
HETATM   12  O   UNL     1      -8.872   3.152 -32.204  1.00  0.00    -0.247 OA
HETATM   13  H   UNL     1      -9.589   0.799 -30.288  1.00  0.00     0.164 HD
HETATM   14  H   UNL     1      -8.107   2.120 -29.334  1.00  0.00     0.164 HD
BRANCH  11  15
HETATM   15  C   UNL     1      -9.751   0.507 -32.367  1.00  0.00     0.162 C 
BRANCH  15  16
HETATM   16  C   UNL     1      -8.632   0.062 -33.276  1.00  0.00    -0.040 A 
HETATM   17  C   UNL     1      -8.606   0.470 -34.616  1.00  0.00     0.009 A 
HETATM   18  C   UNL     1      -7.548   0.101 -35.450  1.00  0.00     0.001 A 
HETATM   19  C   UNL     1      -6.501  -0.672 -34.951  1.00  0.00     0.000 A 
HETATM   20  C   UNL     1      -6.507  -1.073 -33.617  1.00  0.00     0.001 A 
HETATM   21  C   UNL     1      -7.562  -0.700 -32.781  1.00  0.00     0.009 A 
ENDBRANCH  15  16
ENDBRANCH  11  15
ENDBRANCH   8   9
ENDBRANCH   4   8
BRANCH   1  22
HETATM   22  C   UNL     1      -3.249   4.827 -32.414  1.00  0.00     0.040 A 
HETATM   23  C   UNL     1      -2.227   5.529 -31.760  1.00  0.00     0.036 A 
HETATM   24  C   UNL     1      -1.218   6.171 -32.494  1.00  0.00    -0.060 A 
HETATM   25  C   UNL     1      -0.117   6.906 -31.788  1.00  0.00     0.048 C 
HETATM   26  C   UNL     1      -1.220   6.068 -33.889  1.00  0.00     0.007 A 
HETATM   27  C   UNL     1      -2.228   5.360 -34.544  1.00  0.00     0.003 A 
HETATM   28  C   UNL     1      -3.244   4.745 -33.810  1.00  0.00     0.030 A 
ENDBRANCH   1  22
TORSDOF 5
ENDMDL
MODEL 9
REMARK VINA RESULT:      -8.2      2.845      9.738
REMARK  5 active torsions:
REMARK  status: ('A' for Active; 'I' for Inactive)
REMARK    1  A    between atoms: C_4  and  N_5 
REMARK    2  A    between atoms: C_8  and  C_9 
REMARK    3  A    between atoms: C_9  and  N_10 
REMARK       I    between atoms: N_10  and  C_11 
REMARK       I    between atoms: C_11  and  N_12 
REMARK    4  A    between atoms: N_12  and  C_13 
REMARK    5  A    between atoms: C_13  and  C_14 
ROOT
HETATM    1  N   UNL     1      -5.237   2.102 -32.761  1.00  0.00    -0.319 N 
HETATM    2  C   UNL     1      -4.603   3.314 -33.048  1.00  0.00     0.021 A 
HETATM    3  C   UNL     1      -5.143   4.327 -34.009  1.00  0.00     0.069 C 
HETATM    4  C   UNL     1      -3.464   3.422 -32.252  1.00  0.00    -0.016 A 
HETATM    5  C   UNL     1      -3.421   2.260 -31.445  1.00  0.00     0.035 A 
HETATM    6  C   UNL     1      -4.492   1.454 -31.778  1.00  0.00     0.014 A 
HETATM    7  C   UNL     1      -4.756   0.074 -31.278  1.00  0.00     0.068 C 
ENDROOT
BRANCH   4   8
HETATM    8  C   UNL     1      -2.452   4.527 -32.233  1.00  0.00     0.165 C 
BRANCH   8   9
HETATM    9  N   UNL     1      -2.042   4.761 -30.868  1.00  0.00    -0.339 N 
HETATM   10  C   UNL     1      -0.728   5.004 -30.578  1.00  0.00     0.316 C 
HETATM   11  N   UNL     1      -0.579   5.494 -29.309  1.00  0.00    -0.339 N 
HETATM   12  O   UNL     1       0.193   4.861 -31.369  1.00  0.00    -0.247 OA
HETATM   13  H   UNL     1      -1.247   5.183 -28.622  1.00  0.00     0.164 HD
HETATM   14  H   UNL     1      -2.731   5.161 -30.250  1.00  0.00     0.164 HD
BRANCH  11  15
HETATM   15  C   UNL     1       0.727   5.887 -28.828  1.00  0.00     0.162 C 
BRANCH  15  16
HETATM   16  C   UNL     1       0.674   7.194 -28.077  1.00  0.00    -0.040 A 
HETATM   17  C   UNL     1      -0.248   8.184 -28.444  1.00  0.00     0.009 A 
HETATM   18  C   UNL     1      -0.334   9.377 -27.723  1.00  0.00     0.001 A 
HETATM   19  C   UNL     1       0.495   9.590 -26.622  1.00  0.00     0.000 A 
HETATM   20  C   UNL     1       1.407   8.610 -26.237  1.00  0.00     0.001 A 
HETATM   21  C   UNL     1       1.490   7.415 -26.955  1.00  0.00     0.009 A 
ENDBRANCH  15  16
ENDBRANCH  11  15
ENDBRANCH   8   9
ENDBRANCH   4   8
BRANCH   1  22
HETATM   22  C   UNL     1      -6.436   1.613 -33.364  1.00  0.00     0.040 A 
HETATM   23  C   UNL     1      -7.686   1.957 -32.831  1.00  0.00     0.036 A 
HETATM   24  C   UNL     1      -8.867   1.451 -33.393  1.00  0.00    -0.060 A 
HETATM   25  C   UNL     1     -10.203   1.837 -32.829  1.00  0.00     0.048 C 
HETATM   26  C   UNL     1      -8.785   0.628 -34.522  1.00  0.00     0.007 A 
HETATM   27  C   UNL     1      -7.545   0.294 -35.064  1.00  0.00     0.003 A 
HETATM   28  C   UNL     1      -6.371   0.779 -34.485  1.00  0.00     0.030 A 
ENDBRANCH   1  22
TORSDOF 5
ENDMDL
MODEL 10
REMARK VINA RESULT:      -8.2      4.949      8.014
REMARK  5 active torsions:
REMARK  status: ('A' for Active; 'I' for Inactive)
REMARK    1  A    between atoms: C_4  and  N_5 
REMARK    2  A    between atoms: C_8  and  C_9 
REMARK    3  A    between atoms: C_9  and  N_10 
REMARK       I    between atoms: N_10  and  C_11 
REMARK       I    between atoms: C_11  and  N_12 
REMARK    4  A    between atoms: N_12  and  C_13 
REMARK    5  A    between atoms: C_13  and  C_14 
ROOT
HETATM    1  N   UNL     1      -9.722   2.522 -32.690  1.00  0.00    -0.319 N 
HETATM    2  C   UNL     1      -8.571   1.743 -32.538  1.00  0.00     0.021 A 
HETATM    3  C   UNL     1      -8.317   0.480 -33.300  1.00  0.00     0.069 C 
HETATM    4  C   UNL     1      -7.719   2.378 -31.636  1.00  0.00    -0.016 A 
HETATM    5  C   UNL     1      -8.357   3.582 -31.254  1.00  0.00     0.035 A 
HETATM    6  C   UNL     1      -9.584   3.649 -31.884  1.00  0.00     0.014 A 
HETATM    7  C   UNL     1     -10.644   4.674 -31.660  1.00  0.00     0.068 C 
ENDROOT
BRANCH   4   8
HETATM    8  C   UNL     1      -6.388   1.906 -31.137  1.00  0.00     0.165 C 
BRANCH   8   9
HETATM    9  N   UNL     1      -5.614   1.422 -32.255  1.00  0.00    -0.339 N 
HETATM   10  C   UNL     1      -4.886   0.271 -32.141  1.00  0.00     0.316 C 
HETATM   11  N   UNL     1      -4.474  -0.185 -33.364  1.00  0.00    -0.339 N 
HETATM   12  O   UNL     1      -4.677  -0.314 -31.088  1.00  0.00    -0.247 OA
HETATM   13  H   UNL     1      -4.298   0.511 -34.071  1.00  0.00     0.164 HD
HETATM   14  H   UNL     1      -5.947   1.666 -33.176  1.00  0.00     0.164 HD
BRANCH  11  15
HETATM   15  C   UNL     1      -3.751  -1.432 -33.472  1.00  0.00     0.162 C 
BRANCH  15  16
HETATM   16  C   UNL     1      -4.640  -2.554 -33.948  1.00  0.00    -0.040 A 
HETATM   17  C   UNL     1      -5.951  -2.287 -34.365  1.00  0.00     0.009 A 
HETATM   18  C   UNL     1      -6.764  -3.314 -34.852  1.00  0.00     0.001 A 
HETATM   19  C   UNL     1      -6.272  -4.616 -34.933  1.00  0.00     0.000 A 
HETATM   20  C   UNL     1      -4.966  -4.893 -34.535  1.00  0.00     0.001 A 
HETATM   21  C   UNL     1      -4.152  -3.866 -34.054  1.00  0.00     0.009 A 
ENDBRANCH  15  16
ENDBRANCH  11  15
ENDBRANCH   8   9
ENDBRANCH   4   8
BRANCH   1  22
HETATM   22  C   UNL     1     -10.842   2.219 -33.525  1.00  0.00     0.040 A 
HETATM   23  C   UNL     1     -11.683   1.142 -33.215  1.00  0.00     0.036 A 
HETATM   24  C   UNL     1     -12.762   0.815 -34.049  1.00  0.00    -0.060 A 
HETATM   25  C   UNL     1     -13.669  -0.330 -33.704  1.00  0.00     0.048 C 
HETATM   26  C   UNL     1     -13.016   1.604 -35.176  1.00  0.00     0.007 A 
HETATM   27  C   UNL     1     -12.190   2.686 -35.481  1.00  0.00     0.003 A 
HETATM   28  C   UNL     1     -11.102   2.991 -34.662  1.00  0.00     0.030 A 
ENDBRANCH   1  22
TORSDOF 5
ENDMDL
