MODEL 1
REMARK VINA RESULT:      -9.0      0.000      0.000
REMARK  7 active torsions:
REMARK  status: ('A' for Active; 'I' for Inactive)
REMARK    1  A    between atoms: C_3  and  C_4 
REMARK    2  A    between atoms: C_9  and  N_10 
REMARK       I    between atoms: N_10  and  C_11 
REMARK       I    between atoms: C_11  and  N_15 
REMARK    3  A    between atoms: N_15  and  CA_16 
REMARK    4  A    between atoms: CA_16  and  C_17 
REMARK    5  A    between atoms: CA_16  and  CB_19 
REMARK    6  A    between atoms: C_17  and  O_18 
REMARK    7  A    between atoms: CB_19  and  CG_20 
ROOT
HETATM    1  N   UNK A   0      -7.079   4.660 -33.866  1.00  0.00    -0.309 N 
HETATM    2  C   UNK A   0      -7.693   3.480 -33.588  1.00  0.00     0.321 C 
HETATM    3  O   UNK A   0      -8.918   3.412 -33.693  1.00  0.00    -0.247 OA
HETATM    4  H   UNK A   0      -7.742   5.303 -34.280  1.00  0.00     0.170 HD
ATOM      5  N   TRP A   1      -6.926   2.407 -33.273  1.00  0.00    -0.336 N 
ATOM      6  H   TRP A   1      -5.959   2.420 -33.564  1.00  0.00     0.164 HD
ENDROOT
BRANCH   5   7
ATOM      7  CA  TRP A   1      -7.484   1.056 -33.235  1.00  0.00     0.114 C 
BRANCH   7   8
ATOM      8  C   TRP A   1      -7.254   0.427 -31.849  1.00  0.00     0.189 C 
BRANCH   8   9
ATOM      9  O   TRP A   1      -7.834   1.219 -30.813  1.00  0.00    -0.399 OA
ATOM     10  H   TRP A   1      -7.535   0.845 -29.967  1.00  0.00     0.209 HD
ENDBRANCH   8   9
ENDBRANCH   7   8
BRANCH   7  11
ATOM     11  CB  TRP A   1      -6.982   0.195 -34.421  1.00  0.00     0.068 C 
BRANCH  11  12
ATOM     12  CG  TRP A   1      -5.868  -0.772 -34.128  1.00  0.00    -0.028 A 
ATOM     13  CD2 TRP A   1      -5.852  -2.194 -34.319  1.00  0.00    -0.002 A 
ATOM     14  CE2 TRP A   1      -4.592  -2.653 -33.932  1.00  0.00     0.042 A 
ATOM     15  CE3 TRP A   1      -6.785  -3.142 -34.790  1.00  0.00     0.014 A 
ATOM     16  CZ2 TRP A   1      -4.209  -3.997 -34.021  1.00  0.00     0.030 A 
ATOM     17  NE1 TRP A   1      -3.886  -1.566 -33.477  1.00  0.00    -0.365 N 
ATOM     18  CH2 TRP A   1      -5.143  -4.906 -34.524  1.00  0.00     0.002 A 
ATOM     19  CZ3 TRP A   1      -6.416  -4.488 -34.901  1.00  0.00     0.001 A 
ATOM     20  HE1 TRP A   1      -2.946  -1.607 -33.112  1.00  0.00     0.165 HD
ATOM     21  CD1 TRP A   1      -4.642  -0.431 -33.586  1.00  0.00     0.096 A 
ENDBRANCH  11  12
ENDBRANCH   7  11
ENDBRANCH   5   7
BRANCH   1  22
HETATM   22  C   UNK A   0      -5.751   5.104 -33.768  1.00  0.00     0.036 A 
HETATM   23  C   UNK A   0      -4.741   4.786 -34.673  1.00  0.00     0.030 A 
HETATM   24  C   UNK A   0      -3.460   5.331 -34.520  1.00  0.00     0.018 A 
HETATM   25  C   UNK A   0      -3.163   6.180 -33.445  1.00  0.00     0.015 A 
HETATM   26  C   UNK A   0      -4.155   6.457 -32.486  1.00  0.00    -0.046 A 
HETATM   27  C   UNK A   0      -3.913   7.344 -31.294  1.00  0.00     0.049 C 
HETATM   28  C   UNK A   0      -5.440   5.910 -32.665  1.00  0.00     0.037 A 
BRANCH  25  29
HETATM   29  C   UNK A   0      -1.802   6.790 -33.356  1.00  0.00     0.156 C 
HETATM   30  C   UNK A   0      -0.754   6.087 -32.534  1.00  0.00     0.097 C 
HETATM   31  O   UNK A   0      -1.540   7.823 -33.967  1.00  0.00    -0.293 OA
ENDBRANCH  25  29
ENDBRANCH   1  22
TORSDOF 7
ENDMDL
MODEL 2
REMARK VINA RESULT:      -8.9      3.120      6.282
REMARK  7 active torsions:
REMARK  status: ('A' for Active; 'I' for Inactive)
REMARK    1  A    between atoms: C_3  and  C_4 
REMARK    2  A    between atoms: C_9  and  N_10 
REMARK       I    between atoms: N_10  and  C_11 
REMARK       I    between atoms: C_11  and  N_15 
REMARK    3  A    between atoms: N_15  and  CA_16 
REMARK    4  A    between atoms: CA_16  and  C_17 
REMARK    5  A    between atoms: CA_16  and  CB_19 
REMARK    6  A    between atoms: C_17  and  O_18 
REMARK    7  A    between atoms: CB_19  and  CG_20 
ROOT
HETATM    1  N   UNK A   0      -8.477   1.747 -30.851  1.00  0.00    -0.309 N 
HETATM    2  C   UNK A   0      -7.121   1.824 -30.864  1.00  0.00     0.321 C 
HETATM    3  O   UNK A   0      -6.530   2.020 -29.802  1.00  0.00    -0.247 OA
HETATM    4  H   UNK A   0      -8.810   1.715 -29.895  1.00  0.00     0.170 HD
ATOM      5  N   TRP A   1      -6.470   1.614 -32.035  1.00  0.00    -0.336 N 
ATOM      6  H   TRP A   1      -6.956   1.103 -32.757  1.00  0.00     0.164 HD
ENDROOT
BRANCH   5   7
ATOM      7  CA  TRP A   1      -5.023   1.408 -32.077  1.00  0.00     0.114 C 
BRANCH   7   8
ATOM      8  C   TRP A   1      -4.295   2.763 -32.100  1.00  0.00     0.189 C 
BRANCH   8   9
ATOM      9  O   TRP A   1      -3.988   3.214 -30.781  1.00  0.00    -0.399 OA
ATOM     10  H   TRP A   1      -3.425   4.002 -30.873  1.00  0.00     0.209 HD
ENDBRANCH   8   9
ENDBRANCH   7   8
BRANCH   7  11
ATOM     11  CB  TRP A   1      -4.615   0.440 -33.217  1.00  0.00     0.068 C 
BRANCH  11  12
ATOM     12  CG  TRP A   1      -4.013  -0.873 -32.801  1.00  0.00    -0.028 A 
ATOM     13  CD2 TRP A   1      -4.270  -2.179 -33.339  1.00  0.00    -0.002 A 
ATOM     14  CE2 TRP A   1      -3.456  -3.081 -32.652  1.00  0.00     0.042 A 
ATOM     15  CE3 TRP A   1      -5.112  -2.686 -34.350  1.00  0.00     0.014 A 
ATOM     16  CZ2 TRP A   1      -3.419  -4.450 -32.944  1.00  0.00     0.030 A 
ATOM     17  NE1 TRP A   1      -2.769  -2.366 -31.701  1.00  0.00    -0.365 N 
ATOM     18  CH2 TRP A   1      -4.239  -4.916 -33.974  1.00  0.00     0.002 A 
ATOM     19  CZ3 TRP A   1      -5.078  -4.050 -34.667  1.00  0.00     0.001 A 
ATOM     20  HE1 TRP A   1      -2.120  -2.769 -31.041  1.00  0.00     0.165 HD
ATOM     21  CD1 TRP A   1      -3.096  -1.041 -31.778  1.00  0.00     0.096 A 
ENDBRANCH  11  12
ENDBRANCH   7  11
ENDBRANCH   5   7
BRANCH   1  22
HETATM   22  C   UNK A   0      -9.448   1.624 -31.858  1.00  0.00     0.036 A 
HETATM   23  C   UNK A   0      -9.775   0.435 -32.503  1.00  0.00     0.030 A 
HETATM   24  C   UNK A   0     -10.803   0.407 -33.453  1.00  0.00     0.018 A 
HETATM   25  C   UNK A   0     -11.502   1.575 -33.791  1.00  0.00     0.015 A 
HETATM   26  C   UNK A   0     -11.138   2.797 -33.195  1.00  0.00    -0.046 A 
HETATM   27  C   UNK A   0     -11.826   4.097 -33.516  1.00  0.00     0.049 C 
HETATM   28  C   UNK A   0     -10.110   2.800 -32.234  1.00  0.00     0.037 A 
BRANCH  25  29
HETATM   29  C   UNK A   0     -12.634   1.488 -34.762  1.00  0.00     0.156 C 
HETATM   30  C   UNK A   0     -13.999   1.118 -34.240  1.00  0.00     0.097 C 
HETATM   31  O   UNK A   0     -12.459   1.745 -35.950  1.00  0.00    -0.293 OA
ENDBRANCH  25  29
ENDBRANCH   1  22
TORSDOF 7
ENDMDL
MODEL 3
REMARK VINA RESULT:      -8.7      3.496      4.930
REMARK  7 active torsions:
REMARK  status: ('A' for Active; 'I' for Inactive)
REMARK    1  A    between atoms: C_3  and  C_4 
REMARK    2  A    between atoms: C_9  and  N_10 
REMARK       I    between atoms: N_10  and  C_11 
REMARK       I    between atoms: C_11  and  N_15 
REMARK    3  A    between atoms: N_15  and  CA_16 
REMARK    4  A    between atoms: CA_16  and  C_17 
REMARK    5  A    between atoms: CA_16  and  CB_19 
REMARK    6  A    between atoms: C_17  and  O_18 
REMARK    7  A    between atoms: CB_19  and  CG_20 
ROOT
HETATM    1  N   UNK A   0      -0.923   5.315 -32.459  1.00  0.00    -0.309 N 
HETATM    2  C   UNK A   0      -1.990   4.612 -32.923  1.00  0.00     0.321 C 
HETATM    3  O   UNK A   0      -2.102   4.443 -34.137  1.00  0.00    -0.247 OA
HETATM    4  H   UNK A   0      -0.267   5.481 -33.211  1.00  0.00     0.170 HD
ATOM      5  N   TRP A   1      -2.849   4.068 -32.026  1.00  0.00    -0.336 N 
ATOM      6  H   TRP A   1      -2.513   3.919 -31.086  1.00  0.00     0.164 HD
ENDROOT
BRANCH   5   7
ATOM      7  CA  TRP A   1      -3.848   3.080 -32.431  1.00  0.00     0.114 C 
BRANCH   7   8
ATOM      8  C   TRP A   1      -5.168   3.780 -32.798  1.00  0.00     0.189 C 
BRANCH   8   9
ATOM      9  O   TRP A   1      -5.211   4.122 -34.184  1.00  0.00    -0.399 OA
ATOM     10  H   TRP A   1      -5.442   3.313 -34.670  1.00  0.00     0.209 HD
ENDBRANCH   8   9
ENDBRANCH   7   8
BRANCH   7  11
ATOM     11  CB  TRP A   1      -3.992   1.948 -31.382  1.00  0.00     0.068 C 
BRANCH  11  12
ATOM     12  CG  TRP A   1      -3.871   0.539 -31.892  1.00  0.00    -0.028 A 
ATOM     13  CD2 TRP A   1      -4.710  -0.140 -32.837  1.00  0.00    -0.002 A 
ATOM     14  CE2 TRP A   1      -4.185  -1.420 -33.018  1.00  0.00     0.042 A 
ATOM     15  CE3 TRP A   1      -5.865   0.209 -33.567  1.00  0.00     0.014 A 
ATOM     16  CZ2 TRP A   1      -4.734  -2.352 -33.908  1.00  0.00     0.030 A 
ATOM     17  NE1 TRP A   1      -3.101  -1.537 -32.181  1.00  0.00    -0.365 N 
ATOM     18  CH2 TRP A   1      -5.858  -1.964 -34.642  1.00  0.00     0.002 A 
ATOM     19  CZ3 TRP A   1      -6.420  -0.702 -34.473  1.00  0.00     0.001 A 
ATOM     20  HE1 TRP A   1      -2.539  -2.370 -32.087  1.00  0.00     0.165 HD
ATOM     21  CD1 TRP A   1      -2.904  -0.369 -31.497  1.00  0.00     0.096 A 
ENDBRANCH  11  12
ENDBRANCH   7  11
ENDBRANCH   5   7
BRANCH   1  22
HETATM   22  C   UNK A   0      -0.541   5.760 -31.183  1.00  0.00     0.036 A 
HETATM   23  C   UNK A   0       0.332   5.082 -30.336  1.00  0.00     0.030 A 
HETATM   24  C   UNK A   0       0.698   5.641 -29.106  1.00  0.00     0.018 A 
HETATM   25  C   UNK A   0       0.176   6.875 -28.693  1.00  0.00     0.015 A 
HETATM   26  C   UNK A   0      -0.758   7.540 -29.508  1.00  0.00    -0.046 A 
HETATM   27  C   UNK A   0      -1.379   8.858 -29.129  1.00  0.00     0.049 C 
HETATM   28  C   UNK A   0      -1.104   6.966 -30.746  1.00  0.00     0.037 A 
BRANCH  25  29
HETATM   29  C   UNK A   0       0.643   7.465 -27.402  1.00  0.00     0.156 C 
HETATM   30  C   UNK A   0       1.677   8.560 -27.448  1.00  0.00     0.097 C 
HETATM   31  O   UNK A   0       0.168   7.087 -26.335  1.00  0.00    -0.293 OA
ENDBRANCH  25  29
ENDBRANCH   1  22
TORSDOF 7
ENDMDL
MODEL 4
REMARK VINA RESULT:      -8.6      2.992      6.637
REMARK  7 active torsions:
REMARK  status: ('A' for Active; 'I' for Inactive)
REMARK    1  A    between atoms: C_3  and  C_4 
REMARK    2  A    between atoms: C_9  and  N_10 
REMARK       I    between atoms: N_10  and  C_11 
REMARK       I    between atoms: C_11  and  N_15 
REMARK    3  A    between atoms: N_15  and  CA_16 
REMARK    4  A    between atoms: CA_16  and  C_17 
REMARK    5  A    between atoms: CA_16  and  CB_19 
REMARK    6  A    between atoms: C_17  and  O_18 
REMARK    7  A    between atoms: CB_19  and  CG_20 
ROOT
HETATM    1  N   UNK A   0      -8.420   2.260 -30.770  1.00  0.00    -0.309 N 
HETATM    2  C   UNK A   0      -7.275   2.992 -30.807  1.00  0.00     0.321 C 
HETATM    3  O   UNK A   0      -6.666   3.189 -29.755  1.00  0.00    -0.247 OA
HETATM    4  H   UNK A   0      -8.530   1.840 -29.855  1.00  0.00     0.170 HD
ATOM      5  N   TRP A   1      -6.815   3.417 -32.009  1.00  0.00    -0.336 N 
ATOM      6  H   TRP A   1      -7.129   2.925 -32.832  1.00  0.00     0.164 HD
ENDROOT
BRANCH   5   7
ATOM      7  CA  TRP A   1      -5.467   3.962 -32.160  1.00  0.00     0.114 C 
BRANCH   7   8
ATOM      8  C   TRP A   1      -5.482   5.154 -33.133  1.00  0.00     0.189 C 
BRANCH   8   9
ATOM      9  O   TRP A   1      -6.448   4.973 -34.168  1.00  0.00    -0.399 OA
ATOM     10  H   TRP A   1      -7.301   4.801 -33.735  1.00  0.00     0.209 HD
ENDBRANCH   8   9
ENDBRANCH   7   8
BRANCH   7  11
ATOM     11  CB  TRP A   1      -4.438   2.858 -32.514  1.00  0.00     0.068 C 
BRANCH  11  12
ATOM     12  CG  TRP A   1      -4.944   1.442 -32.511  1.00  0.00    -0.028 A 
ATOM     13  CD2 TRP A   1      -5.830   0.813 -33.449  1.00  0.00    -0.002 A 
ATOM     14  CE2 TRP A   1      -5.986  -0.515 -33.049  1.00  0.00     0.042 A 
ATOM     15  CE3 TRP A   1      -6.514   1.239 -34.606  1.00  0.00     0.014 A 
ATOM     16  CZ2 TRP A   1      -6.760  -1.440 -33.760  1.00  0.00     0.030 A 
ATOM     17  NE1 TRP A   1      -5.267  -0.677 -31.889  1.00  0.00    -0.365 N 
ATOM     18  CH2 TRP A   1      -7.397  -0.996 -34.922  1.00  0.00     0.002 A 
ATOM     19  CZ3 TRP A   1      -7.280   0.326 -35.340  1.00  0.00     0.001 A 
ATOM     20  HE1 TRP A   1      -5.217  -1.538 -31.364  1.00  0.00     0.165 HD
ATOM     21  CD1 TRP A   1      -4.640   0.490 -31.554  1.00  0.00     0.096 A 
ENDBRANCH  11  12
ENDBRANCH   7  11
ENDBRANCH   5   7
BRANCH   1  22
HETATM   22  C   UNK A   0      -9.384   1.926 -31.734  1.00  0.00     0.036 A 
HETATM   23  C   UNK A   0      -9.492   0.682 -32.349  1.00  0.00     0.030 A 
HETATM   24  C   UNK A   0     -10.529   0.430 -33.255  1.00  0.00     0.018 A 
HETATM   25  C   UNK A   0     -11.459   1.428 -33.579  1.00  0.00     0.015 A 
HETATM   26  C   UNK A   0     -11.323   2.711 -33.016  1.00  0.00    -0.046 A 
HETATM   27  C   UNK A   0     -12.267   3.842 -33.326  1.00  0.00     0.049 C 
HETATM   28  C   UNK A   0     -10.281   2.939 -32.099  1.00  0.00     0.037 A 
BRANCH  25  29
HETATM   29  C   UNK A   0     -12.587   1.097 -34.501  1.00  0.00     0.156 C 
HETATM   30  C   UNK A   0     -13.745   0.299 -33.959  1.00  0.00     0.097 C 
HETATM   31  O   UNK A   0     -12.583   1.497 -35.662  1.00  0.00    -0.293 OA
ENDBRANCH  25  29
ENDBRANCH   1  22
TORSDOF 7
ENDMDL
MODEL 5
REMARK VINA RESULT:      -8.6      1.440      2.157
REMARK  7 active torsions:
REMARK  status: ('A' for Active; 'I' for Inactive)
REMARK    1  A    between atoms: C_3  and  C_4 
REMARK    2  A    between atoms: C_9  and  N_10 
REMARK       I    between atoms: N_10  and  C_11 
REMARK       I    between atoms: C_11  and  N_15 
REMARK    3  A    between atoms: N_15  and  CA_16 
REMARK    4  A    between atoms: CA_16  and  C_17 
REMARK    5  A    between atoms: CA_16  and  CB_19 
REMARK    6  A    between atoms: C_17  and  O_18 
REMARK    7  A    between atoms: CB_19  and  CG_20 
ROOT
HETATM    1  N   UNK A   0      -5.928   3.850 -33.677  1.00  0.00    -0.309 N 
HETATM    2  C   UNK A   0      -6.121   2.554 -33.318  1.00  0.00     0.321 C 
HETATM    3  O   UNK A   0      -7.129   1.972 -33.720  1.00  0.00    -0.247 OA
HETATM    4  H   UNK A   0      -6.607   4.116 -34.380  1.00  0.00     0.170 HD
ATOM      5  N   TRP A   1      -5.161   1.933 -32.588  1.00  0.00    -0.336 N 
ATOM      6  H   TRP A   1      -4.229   2.320 -32.613  1.00  0.00     0.164 HD
ENDROOT
BRANCH   5   7
ATOM      7  CA  TRP A   1      -5.164   0.483 -32.401  1.00  0.00     0.114 C 
BRANCH   7   8
ATOM      8  C   TRP A   1      -5.716   0.128 -31.010  1.00  0.00     0.189 C 
BRANCH   8   9
ATOM      9  O   TRP A   1      -7.136   0.273 -30.957  1.00  0.00    -0.399 OA
ATOM     10  H   TRP A   1      -7.359   1.077 -31.455  1.00  0.00     0.209 HD
ENDBRANCH   8   9
ENDBRANCH   7   8
BRANCH   7  11
ATOM     11  CB  TRP A   1      -3.781  -0.139 -32.720  1.00  0.00     0.068 C 
BRANCH  11  12
ATOM     12  CG  TRP A   1      -3.705  -1.640 -32.732  1.00  0.00    -0.028 A 
ATOM     13  CD2 TRP A   1      -4.422  -2.560 -33.569  1.00  0.00    -0.002 A 
ATOM     14  CE2 TRP A   1      -3.998  -3.847 -33.235  1.00  0.00     0.042 A 
ATOM     15  CE3 TRP A   1      -5.390  -2.427 -34.586  1.00  0.00     0.014 A 
ATOM     16  CZ2 TRP A   1      -4.465  -4.996 -33.882  1.00  0.00     0.030 A 
ATOM     17  NE1 TRP A   1      -3.097  -3.723 -32.204  1.00  0.00    -0.365 N 
ATOM     18  CH2 TRP A   1      -5.398  -4.829 -34.909  1.00  0.00     0.002 A 
ATOM     19  CZ3 TRP A   1      -5.859  -3.563 -35.256  1.00  0.00     0.001 A 
ATOM     20  HE1 TRP A   1      -2.643  -4.499 -31.746  1.00  0.00     0.165 HD
ATOM     21  CD1 TRP A   1      -2.915  -2.404 -31.891  1.00  0.00     0.096 A 
ENDBRANCH  11  12
ENDBRANCH   7  11
ENDBRANCH   5   7
BRANCH   1  22
HETATM   22  C   UNK A   0      -4.966   4.814 -33.337  1.00  0.00     0.036 A 
HETATM   23  C   UNK A   0      -5.107   5.749 -32.316  1.00  0.00     0.030 A 
HETATM   24  C   UNK A   0      -4.061   6.629 -32.015  1.00  0.00     0.018 A 
HETATM   25  C   UNK A   0      -2.867   6.605 -32.751  1.00  0.00     0.015 A 
HETATM   26  C   UNK A   0      -2.735   5.710 -33.828  1.00  0.00    -0.046 A 
HETATM   27  C   UNK A   0      -1.494   5.633 -34.677  1.00  0.00     0.049 C 
HETATM   28  C   UNK A   0      -3.794   4.825 -34.105  1.00  0.00     0.037 A 
BRANCH  25  29
HETATM   29  C   UNK A   0      -1.752   7.518 -32.355  1.00  0.00     0.156 C 
HETATM   30  C   UNK A   0      -0.687   6.989 -31.430  1.00  0.00     0.097 C 
HETATM   31  O   UNK A   0      -1.692   8.660 -32.802  1.00  0.00    -0.293 OA
ENDBRANCH  25  29
ENDBRANCH   1  22
TORSDOF 7
ENDMDL
MODEL 6
REMARK VINA RESULT:      -8.4      2.550      4.405
REMARK  7 active torsions:
REMARK  status: ('A' for Active; 'I' for Inactive)
REMARK    1  A    between atoms: C_3  and  C_4 
REMARK    2  A    between atoms: C_9  and  N_10 
REMARK       I    between atoms: N_10  and  C_11 
REMARK       I    between atoms: C_11  and  N_15 
REMARK    3  A    between atoms: N_15  and  CA_16 
REMARK    4  A    between atoms: CA_16  and  C_17 
REMARK    5  A    between atoms: CA_16  and  CB_19 
REMARK    6  A    between atoms: C_17  and  O_18 
REMARK    7  A    between atoms: CB_19  and  CG_20 
ROOT
HETATM    1  N   UNK A   0      -2.332   6.131 -33.900  1.00  0.00    -0.309 N 
HETATM    2  C   UNK A   0      -3.553   5.618 -34.201  1.00  0.00     0.321 C 
HETATM    3  O   UNK A   0      -3.865   5.490 -35.385  1.00  0.00    -0.247 OA
HETATM    4  H   UNK A   0      -1.772   6.201 -34.740  1.00  0.00     0.170 HD
ATOM      5  N   TRP A   1      -4.352   5.204 -33.187  1.00  0.00    -0.336 N 
ATOM      6  H   TRP A   1      -3.914   4.987 -32.304  1.00  0.00     0.164 HD
ENDROOT
BRANCH   5   7
ATOM      7  CA  TRP A   1      -5.546   4.397 -33.436  1.00  0.00     0.114 C 
BRANCH   7   8
ATOM      8  C   TRP A   1      -6.811   5.201 -33.090  1.00  0.00     0.189 C 
BRANCH   8   9
ATOM      9  O   TRP A   1      -7.651   5.373 -34.231  1.00  0.00    -0.399 OA
ATOM     10  H   TRP A   1      -8.542   5.080 -33.977  1.00  0.00     0.209 HD
ENDBRANCH   8   9
ENDBRANCH   7   8
BRANCH   7  11
ATOM     11  CB  TRP A   1      -5.456   3.012 -32.747  1.00  0.00     0.068 C 
BRANCH  11  12
ATOM     12  CG  TRP A   1      -6.051   1.850 -33.493  1.00  0.00    -0.028 A 
ATOM     13  CD2 TRP A   1      -5.563   0.502 -33.574  1.00  0.00    -0.002 A 
ATOM     14  CE2 TRP A   1      -6.465  -0.222 -34.355  1.00  0.00     0.042 A 
ATOM     15  CE3 TRP A   1      -4.443  -0.180 -33.054  1.00  0.00     0.014 A 
ATOM     16  CZ2 TRP A   1      -6.322  -1.590 -34.615  1.00  0.00     0.030 A 
ATOM     17  NE1 TRP A   1      -7.435   0.656 -34.775  1.00  0.00    -0.365 N 
ATOM     18  CH2 TRP A   1      -5.221  -2.245 -34.057  1.00  0.00     0.002 A 
ATOM     19  CZ3 TRP A   1      -4.291  -1.551 -33.289  1.00  0.00     0.001 A 
ATOM     20  HE1 TRP A   1      -8.207   0.409 -35.377  1.00  0.00     0.165 HD
ATOM     21  CD1 TRP A   1      -7.196   1.903 -34.268  1.00  0.00     0.096 A 
ENDBRANCH  11  12
ENDBRANCH   7  11
ENDBRANCH   5   7
BRANCH   1  22
HETATM   22  C   UNK A   0      -1.704   6.486 -32.696  1.00  0.00     0.036 A 
HETATM   23  C   UNK A   0      -2.007   7.621 -31.948  1.00  0.00     0.030 A 
HETATM   24  C   UNK A   0      -1.365   7.854 -30.726  1.00  0.00     0.018 A 
HETATM   25  C   UNK A   0      -0.390   6.967 -30.246  1.00  0.00     0.015 A 
HETATM   26  C   UNK A   0      -0.027   5.851 -31.021  1.00  0.00    -0.046 A 
HETATM   27  C   UNK A   0       1.022   4.862 -30.586  1.00  0.00     0.049 C 
HETATM   28  C   UNK A   0      -0.693   5.629 -32.241  1.00  0.00     0.037 A 
BRANCH  25  29
HETATM   29  C   UNK A   0       0.223   7.219 -28.907  1.00  0.00     0.156 C 
HETATM   30  C   UNK A   0      -0.314   6.464 -27.719  1.00  0.00     0.097 C 
HETATM   31  O   UNK A   0       1.165   7.999 -28.789  1.00  0.00    -0.293 OA
ENDBRANCH  25  29
ENDBRANCH   1  22
TORSDOF 7
ENDMDL
MODEL 7
REMARK VINA RESULT:      -8.2      4.427      6.062
REMARK  7 active torsions:
REMARK  status: ('A' for Active; 'I' for Inactive)
REMARK    1  A    between atoms: C_3  and  C_4 
REMARK    2  A    between atoms: C_9  and  N_10 
REMARK       I    between atoms: N_10  and  C_11 
REMARK       I    between atoms: C_11  and  N_15 
REMARK    3  A    between atoms: N_15  and  CA_16 
REMARK    4  A    between atoms: CA_16  and  C_17 
REMARK    5  A    between atoms: CA_16  and  CB_19 
REMARK    6  A    between atoms: C_17  and  O_18 
REMARK    7  A    between atoms: CB_19  and  CG_20 
ROOT
HETATM    1  N   UNK A   0     -11.421   1.085 -33.507  1.00  0.00    -0.309 N 
HETATM    2  C   UNK A   0     -10.341   0.454 -32.978  1.00  0.00     0.321 C 
HETATM    3  O   UNK A   0     -10.457  -0.720 -32.625  1.00  0.00    -0.247 OA
HETATM    4  H   UNK A   0     -12.161   0.416 -33.677  1.00  0.00     0.170 HD
ATOM      5  N   TRP A   1      -9.161   1.120 -32.922  1.00  0.00    -0.336 N 
ATOM      6  H   TRP A   1      -9.035   1.904 -33.546  1.00  0.00     0.164 HD
ENDROOT
BRANCH   5   7
ATOM      7  CA  TRP A   1      -7.907   0.428 -32.628  1.00  0.00     0.114 C 
BRANCH   7   8
ATOM      8  C   TRP A   1      -7.195   1.102 -31.442  1.00  0.00     0.189 C 
BRANCH   8   9
ATOM      9  O   TRP A   1      -7.100   0.223 -30.321  1.00  0.00    -0.399 OA
ATOM     10  H   TRP A   1      -6.748   0.744 -29.580  1.00  0.00     0.209 HD
ENDBRANCH   8   9
ENDBRANCH   7   8
BRANCH   7  11
ATOM     11  CB  TRP A   1      -7.030   0.267 -33.896  1.00  0.00     0.068 C 
BRANCH  11  12
ATOM     12  CG  TRP A   1      -5.909  -0.731 -33.816  1.00  0.00    -0.028 A 
ATOM     13  CD2 TRP A   1      -5.931  -2.123 -34.166  1.00  0.00    -0.002 A 
ATOM     14  CE2 TRP A   1      -4.648  -2.628 -33.950  1.00  0.00     0.042 A 
ATOM     15  CE3 TRP A   1      -6.916  -3.007 -34.653  1.00  0.00     0.014 A 
ATOM     16  CZ2 TRP A   1      -4.294  -3.955 -34.223  1.00  0.00     0.030 A 
ATOM     17  NE1 TRP A   1      -3.888  -1.602 -33.442  1.00  0.00    -0.365 N 
ATOM     18  CH2 TRP A   1      -5.283  -4.797 -34.738  1.00  0.00     0.002 A 
ATOM     19  CZ3 TRP A   1      -6.578  -4.334 -34.948  1.00  0.00     0.001 A 
ATOM     20  HE1 TRP A   1      -2.919  -1.689 -33.171  1.00  0.00     0.165 HD
ATOM     21  CD1 TRP A   1      -4.633  -0.460 -33.353  1.00  0.00     0.096 A 
ENDBRANCH  11  12
ENDBRANCH   7  11
ENDBRANCH   5   7
BRANCH   1  22
HETATM   22  C   UNK A   0     -11.661   2.405 -33.920  1.00  0.00     0.036 A 
HETATM   23  C   UNK A   0     -10.999   3.042 -34.966  1.00  0.00     0.030 A 
HETATM   24  C   UNK A   0     -11.356   4.343 -35.340  1.00  0.00     0.018 A 
HETATM   25  C   UNK A   0     -12.364   5.037 -34.655  1.00  0.00     0.015 A 
HETATM   26  C   UNK A   0     -12.997   4.431 -33.554  1.00  0.00    -0.046 A 
HETATM   27  C   UNK A   0     -14.075   5.113 -32.756  1.00  0.00     0.049 C 
HETATM   28  C   UNK A   0     -12.632   3.118 -33.203  1.00  0.00     0.037 A 
BRANCH  25  29
HETATM   29  C   UNK A   0     -12.758   6.398 -35.128  1.00  0.00     0.156 C 
HETATM   30  C   UNK A   0     -13.830   6.509 -36.180  1.00  0.00     0.097 C 
HETATM   31  O   UNK A   0     -12.241   7.401 -34.643  1.00  0.00    -0.293 OA
ENDBRANCH  25  29
ENDBRANCH   1  22
TORSDOF 7
ENDMDL
MODEL 8
REMARK VINA RESULT:      -8.1      5.579      8.561
REMARK  7 active torsions:
REMARK  status: ('A' for Active; 'I' for Inactive)
REMARK    1  A    between atoms: C_3  and  C_4 
REMARK    2  A    between atoms: C_9  and  N_10 
REMARK       I    between atoms: N_10  and  C_11 
REMARK       I    between atoms: C_11  and  N_15 
REMARK    3  A    between atoms: N_15  and  CA_16 
REMARK    4  A    between atoms: CA_16  and  C_17 
REMARK    5  A    between atoms: CA_16  and  CB_19 
REMARK    6  A    between atoms: C_17  and  O_18 
REMARK    7  A    between atoms: CB_19  and  CG_20 
ROOT
HETATM    1  N   UNK A   0      -5.336   5.385 -28.870  1.00  0.00    -0.309 N 
HETATM    2  C   UNK A   0      -4.992   6.022 -27.720  1.00  0.00     0.321 C 
HETATM    3  O   UNK A   0      -5.581   5.723 -26.680  1.00  0.00    -0.247 OA
HETATM    4  H   UNK A   0      -5.959   4.614 -28.663  1.00  0.00     0.170 HD
ATOM      5  N   TRP A   1      -3.969   6.911 -27.751  1.00  0.00    -0.336 N 
ATOM      6  H   TRP A   1      -3.305   6.835 -28.507  1.00  0.00     0.164 HD
ENDROOT
BRANCH   5   7
ATOM      7  CA  TRP A   1      -3.366   7.422 -26.521  1.00  0.00     0.114 C 
BRANCH   7   8
ATOM      8  C   TRP A   1      -4.285   8.475 -25.877  1.00  0.00     0.189 C 
BRANCH   8   9
ATOM      9  O   TRP A   1      -4.879   7.985 -24.674  1.00  0.00    -0.399 OA
ATOM     10  H   TRP A   1      -5.125   8.760 -24.142  1.00  0.00     0.209 HD
ENDBRANCH   8   9
ENDBRANCH   7   8
BRANCH   7  11
ATOM     11  CB  TRP A   1      -1.909   7.897 -26.751  1.00  0.00     0.068 C 
BRANCH  11  12
ATOM     12  CG  TRP A   1      -1.064   7.056 -27.667  1.00  0.00    -0.028 A 
ATOM     13  CD2 TRP A   1      -0.965   7.123 -29.097  1.00  0.00    -0.002 A 
ATOM     14  CE2 TRP A   1      -0.032   6.164 -29.496  1.00  0.00     0.042 A 
ATOM     15  CE3 TRP A   1      -1.572   7.910 -30.097  1.00  0.00     0.014 A 
ATOM     16  CZ2 TRP A   1       0.343   5.975 -30.832  1.00  0.00     0.030 A 
ATOM     17  NE1 TRP A   1       0.383   5.505 -28.364  1.00  0.00    -0.365 N 
ATOM     18  CH2 TRP A   1      -0.250   6.794 -31.795  1.00  0.00     0.002 A 
ATOM     19  CZ3 TRP A   1      -1.199   7.747 -31.436  1.00  0.00     0.001 A 
ATOM     20  HE1 TRP A   1       1.044   4.742 -28.358  1.00  0.00     0.165 HD
ATOM     21  CD1 TRP A   1      -0.231   6.028 -27.260  1.00  0.00     0.096 A 
ENDBRANCH  11  12
ENDBRANCH   7  11
ENDBRANCH   5   7
BRANCH   1  22
HETATM   22  C   UNK A   0      -4.946   5.534 -30.210  1.00  0.00     0.036 A 
HETATM   23  C   UNK A   0      -5.484   6.467 -31.093  1.00  0.00     0.030 A 
HETATM   24  C   UNK A   0      -4.982   6.578 -32.395  1.00  0.00     0.018 A 
HETATM   25  C   UNK A   0      -3.951   5.738 -32.842  1.00  0.00     0.015 A 
HETATM   26  C   UNK A   0      -3.443   4.748 -31.982  1.00  0.00    -0.046 A 
HETATM   27  C   UNK A   0      -2.350   3.796 -32.391  1.00  0.00     0.049 C 
HETATM   28  C   UNK A   0      -3.953   4.661 -30.673  1.00  0.00     0.037 A 
BRANCH  25  29
HETATM   29  C   UNK A   0      -3.402   5.934 -34.218  1.00  0.00     0.156 C 
HETATM   30  C   UNK A   0      -3.948   5.084 -35.335  1.00  0.00     0.097 C 
HETATM   31  O   UNK A   0      -2.549   6.791 -34.433  1.00  0.00    -0.293 OA
ENDBRANCH  25  29
ENDBRANCH   1  22
TORSDOF 7
ENDMDL
MODEL 9
REMARK VINA RESULT:      -8.1      3.414      7.459
REMARK  7 active torsions:
REMARK  status: ('A' for Active; 'I' for Inactive)
REMARK    1  A    between atoms: C_3  and  C_4 
REMARK    2  A    between atoms: C_9  and  N_10 
REMARK       I    between atoms: N_10  and  C_11 
REMARK       I    between atoms: C_11  and  N_15 
REMARK    3  A    between atoms: N_15  and  CA_16 
REMARK    4  A    between atoms: CA_16  and  C_17 
REMARK    5  A    between atoms: CA_16  and  CB_19 
REMARK    6  A    between atoms: C_17  and  O_18 
REMARK    7  A    between atoms: CB_19  and  CG_20 
ROOT
HETATM    1  N   UNK A   0      -6.930   2.714 -34.084  1.00  0.00    -0.309 N 
HETATM    2  C   UNK A   0      -7.280   3.499 -33.031  1.00  0.00     0.321 C 
HETATM    3  O   UNK A   0      -7.282   4.721 -33.180  1.00  0.00    -0.247 OA
HETATM    4  H   UNK A   0      -6.859   3.276 -34.923  1.00  0.00     0.170 HD
ATOM      5  N   TRP A   1      -7.678   2.902 -31.880  1.00  0.00    -0.336 N 
ATOM      6  H   TRP A   1      -8.010   1.951 -31.936  1.00  0.00     0.164 HD
ENDROOT
BRANCH   5   7
ATOM      7  CA  TRP A   1      -8.326   3.662 -30.812  1.00  0.00     0.114 C 
BRANCH   7   8
ATOM      8  C   TRP A   1      -7.483   3.594 -29.527  1.00  0.00     0.189 C 
BRANCH   8   9
ATOM      9  O   TRP A   1      -6.912   2.299 -29.343  1.00  0.00    -0.399 OA
ATOM     10  H   TRP A   1      -7.578   1.651 -29.629  1.00  0.00     0.209 HD
ENDBRANCH   8   9
ENDBRANCH   7   8
BRANCH   7  11
ATOM     11  CB  TRP A   1      -9.808   3.247 -30.630  1.00  0.00     0.068 C 
BRANCH  11  12
ATOM     12  CG  TRP A   1     -10.767   3.689 -31.701  1.00  0.00    -0.028 A 
ATOM     13  CD2 TRP A   1     -11.160   2.984 -32.888  1.00  0.00    -0.002 A 
ATOM     14  CE2 TRP A   1     -12.091   3.780 -33.557  1.00  0.00     0.042 A 
ATOM     15  CE3 TRP A   1     -10.821   1.740 -33.460  1.00  0.00     0.014 A 
ATOM     16  CZ2 TRP A   1     -12.718   3.386 -34.745  1.00  0.00     0.030 A 
ATOM     17  NE1 TRP A   1     -12.222   4.943 -32.838  1.00  0.00    -0.365 N 
ATOM     18  CH2 TRP A   1     -12.388   2.133 -35.268  1.00  0.00     0.002 A 
ATOM     19  CZ3 TRP A   1     -11.450   1.320 -34.639  1.00  0.00     0.001 A 
ATOM     20  HE1 TRP A   1     -12.817   5.715 -33.103  1.00  0.00     0.165 HD
ATOM     21  CD1 TRP A   1     -11.431   4.903 -31.724  1.00  0.00     0.096 A 
ENDBRANCH  11  12
ENDBRANCH   7  11
ENDBRANCH   5   7
BRANCH   1  22
HETATM   22  C   UNK A   0      -6.740   1.332 -34.236  1.00  0.00     0.036 A 
HETATM   23  C   UNK A   0      -7.510   0.511 -35.056  1.00  0.00     0.030 A 
HETATM   24  C   UNK A   0      -7.200  -0.848 -35.186  1.00  0.00     0.018 A 
HETATM   25  C   UNK A   0      -6.129  -1.412 -34.477  1.00  0.00     0.015 A 
HETATM   26  C   UNK A   0      -5.383  -0.610 -33.594  1.00  0.00    -0.046 A 
HETATM   27  C   UNK A   0      -4.232  -1.142 -32.784  1.00  0.00     0.049 C 
HETATM   28  C   UNK A   0      -5.704   0.757 -33.487  1.00  0.00     0.037 A 
BRANCH  25  29
HETATM   29  C   UNK A   0      -5.793  -2.852 -34.695  1.00  0.00     0.156 C 
HETATM   30  C   UNK A   0      -6.903  -3.867 -34.617  1.00  0.00     0.097 C 
HETATM   31  O   UNK A   0      -4.643  -3.190 -34.964  1.00  0.00    -0.293 OA
ENDBRANCH  25  29
ENDBRANCH   1  22
TORSDOF 7
ENDMDL
MODEL 10
REMARK VINA RESULT:      -8.1      2.248      8.078
REMARK  7 active torsions:
REMARK  status: ('A' for Active; 'I' for Inactive)
REMARK    1  A    between atoms: C_3  and  C_4 
REMARK    2  A    between atoms: C_9  and  N_10 
REMARK       I    between atoms: N_10  and  C_11 
REMARK       I    between atoms: C_11  and  N_15 
REMARK    3  A    between atoms: N_15  and  CA_16 
REMARK    4  A    between atoms: CA_16  and  C_17 
REMARK    5  A    between atoms: CA_16  and  CB_19 
REMARK    6  A    between atoms: C_17  and  O_18 
REMARK    7  A    between atoms: CB_19  and  CG_20 
ROOT
HETATM    1  N   UNK A   0      -7.427   1.106 -31.611  1.00  0.00    -0.309 N 
HETATM    2  C   UNK A   0      -7.603   2.433 -31.844  1.00  0.00     0.321 C 
HETATM    3  O   UNK A   0      -8.006   3.147 -30.926  1.00  0.00    -0.247 OA
HETATM    4  H   UNK A   0      -7.521   0.916 -30.621  1.00  0.00     0.170 HD
ATOM      5  N   TRP A   1      -7.262   2.929 -33.060  1.00  0.00    -0.336 N 
ATOM      6  H   TRP A   1      -6.609   2.398 -33.617  1.00  0.00     0.164 HD
ENDROOT
BRANCH   5   7
ATOM      7  CA  TRP A   1      -7.161   4.369 -33.294  1.00  0.00     0.114 C 
BRANCH   7   8
ATOM      8  C   TRP A   1      -8.458   4.895 -33.932  1.00  0.00     0.189 C 
BRANCH   8   9
ATOM      9  O   TRP A   1      -9.518   4.968 -32.978  1.00  0.00    -0.399 OA
ATOM     10  H   TRP A   1      -9.208   5.531 -32.249  1.00  0.00     0.209 HD
ENDBRANCH   8   9
ENDBRANCH   7   8
BRANCH   7  11
ATOM     11  CB  TRP A   1      -5.870   4.734 -34.071  1.00  0.00     0.068 C 
BRANCH  11  12
ATOM     12  CG  TRP A   1      -4.902   5.650 -33.375  1.00  0.00    -0.028 A 
ATOM     13  CD2 TRP A   1      -3.507   5.842 -33.648  1.00  0.00    -0.002 A 
ATOM     14  CE2 TRP A   1      -3.037   6.813 -32.762  1.00  0.00     0.042 A 
ATOM     15  CE3 TRP A   1      -2.591   5.290 -34.568  1.00  0.00     0.014 A 
ATOM     16  CZ2 TRP A   1      -1.717   7.279 -32.770  1.00  0.00     0.030 A 
ATOM     17  NE1 TRP A   1      -4.088   7.163 -31.949  1.00  0.00    -0.365 N 
ATOM     18  CH2 TRP A   1      -0.843   6.738 -33.716  1.00  0.00     0.002 A 
ATOM     19  CZ3 TRP A   1      -1.271   5.754 -34.603  1.00  0.00     0.001 A 
ATOM     20  HE1 TRP A   1      -4.029   7.833 -31.196  1.00  0.00     0.165 HD
ATOM     21  CD1 TRP A   1      -5.212   6.470 -32.303  1.00  0.00     0.096 A 
ENDBRANCH  11  12
ENDBRANCH   7  11
ENDBRANCH   5   7
BRANCH   1  22
HETATM   22  C   UNK A   0      -7.077   0.020 -32.428  1.00  0.00     0.036 A 
HETATM   23  C   UNK A   0      -7.911  -0.554 -33.384  1.00  0.00     0.030 A 
HETATM   24  C   UNK A   0      -7.444  -1.597 -34.193  1.00  0.00     0.018 A 
HETATM   25  C   UNK A   0      -6.143  -2.100 -34.039  1.00  0.00     0.015 A 
HETATM   26  C   UNK A   0      -5.312  -1.574 -33.033  1.00  0.00    -0.046 A 
HETATM   27  C   UNK A   0      -3.911  -2.069 -32.791  1.00  0.00     0.049 C 
HETATM   28  C   UNK A   0      -5.796  -0.517 -32.239  1.00  0.00     0.037 A 
BRANCH  25  29
HETATM   29  C   UNK A   0      -5.664  -3.169 -34.966  1.00  0.00     0.156 C 
HETATM   30  C   UNK A   0      -6.392  -4.488 -34.975  1.00  0.00     0.097 C 
HETATM   31  O   UNK A   0      -4.721  -2.961 -35.724  1.00  0.00    -0.293 OA
ENDBRANCH  25  29
ENDBRANCH   1  22
TORSDOF 7
ENDMDL
