MODEL 1
REMARK VINA RESULT:      -8.9      0.000      0.000
REMARK  6 active torsions:
REMARK  status: ('A' for Active; 'I' for Inactive)
REMARK    1  A    between atoms: N_6  and  C_8 
REMARK    2  A    between atoms: C_8  and  C_9 
REMARK    3  A    between atoms: C_9  and  C_10 
REMARK    4  A    between atoms: C_10  and  N_11 
REMARK       I    between atoms: N_11  and  C_12 
REMARK       I    between atoms: C_12  and  N_13 
REMARK    5  A    between atoms: N_13  and  N_14 
REMARK       I    between atoms: N_14  and  C_15 
REMARK    6  A    between atoms: C_15  and  C_16 
ROOT
HETATM    1  N   UNL     1      -3.216   4.463 -31.752  1.00  0.00    -0.342 N 
HETATM    2  C   UNL     1      -2.100   4.892 -31.085  1.00  0.00     0.334 C 
HETATM    3  N   UNL     1      -2.373   5.873 -30.168  1.00  0.00    -0.249 N 
HETATM    4  O   UNL     1      -0.969   4.498 -31.372  1.00  0.00    -0.246 OA
HETATM    5  H   UNL     1      -4.119   4.764 -31.401  1.00  0.00     0.164 HD
HETATM    6  H   UNL     1      -3.291   5.921 -29.724  1.00  0.00     0.192 HD
ENDROOT
BRANCH   1   7
HETATM    7  C   UNL     1      -3.182   3.387 -32.716  1.00  0.00     0.126 C 
BRANCH   7   8
HETATM    8  C   UNL     1      -4.186   2.270 -32.423  1.00  0.00     0.047 C 
BRANCH   8   9
HETATM    9  C   UNL     1      -3.636   0.844 -32.337  1.00  0.00     0.237 C 
BRANCH   9  10
HETATM   10  N   UNL     1      -4.372  -0.148 -33.195  1.00  0.00    -0.067 N 
HETATM   11  C   UNL     1      -3.848  -1.557 -33.108  1.00  0.00     0.274 C 
HETATM   12  C   UNL     1      -4.702  -2.586 -33.797  1.00  0.00    -0.026 A 
HETATM   13  C   UNL     1      -6.015  -2.293 -34.211  1.00  0.00    -0.049 A 
HETATM   14  C   UNL     1      -4.196  -3.882 -33.984  1.00  0.00     0.009 A 
HETATM   15  C   UNL     1      -6.780  -3.284 -34.840  1.00  0.00     0.007 A 
HETATM   16  C   UNL     1      -6.585  -0.910 -34.033  1.00  0.00     0.067 C 
HETATM   17  C   UNL     1      -6.261  -4.565 -35.027  1.00  0.00     0.001 A 
HETATM   18  C   UNL     1      -4.972  -4.864 -34.596  1.00  0.00     0.001 A 
HETATM   19  C   UNL     1      -5.863  -0.120 -32.943  1.00  0.00     0.240 C 
HETATM   20  H   UNL     1      -4.277   0.186 -34.177  1.00  0.00     0.280 HD
ENDBRANCH   9  10
ENDBRANCH   8   9
ENDBRANCH   7   8
ENDBRANCH   1   7
BRANCH   3  21
HETATM   21  N   UNL     1      -1.333   6.352 -29.359  1.00  0.00    -0.261 N 
HETATM   22  C   UNL     1      -1.511   7.557 -28.701  1.00  0.00     0.277 C 
HETATM   23  O   UNL     1      -2.586   8.154 -28.794  1.00  0.00    -0.265 OA
HETATM   24  H   UNL     1      -0.484   5.800 -29.270  1.00  0.00     0.190 HD
BRANCH  22  25
HETATM   25  C   UNL     1      -0.382   8.049 -27.931  1.00  0.00     0.075 A 
HETATM   26  S   UNL     1      -0.536   8.565 -26.299  1.00  0.00    -0.077 SA
HETATM   27  C   UNL     1       1.119   8.904 -26.188  1.00  0.00     0.052 A 
HETATM   28 BR   UNL     1       1.925   9.554 -24.628  1.00  0.00    -0.043 Br
HETATM   29  C   UNL     1       1.804   8.654 -27.348  1.00  0.00     0.028 A 
HETATM   30  C   UNL     1       0.931   8.158 -28.362  1.00  0.00     0.026 A 
ENDBRANCH  22  25
ENDBRANCH   3  21
TORSDOF 6
ENDMDL
MODEL 2
REMARK VINA RESULT:      -8.7      4.057      5.131
REMARK  6 active torsions:
REMARK  status: ('A' for Active; 'I' for Inactive)
REMARK    1  A    between atoms: N_6  and  C_8 
REMARK    2  A    between atoms: C_8  and  C_9 
REMARK    3  A    between atoms: C_9  and  C_10 
REMARK    4  A    between atoms: C_10  and  N_11 
REMARK       I    between atoms: N_11  and  C_12 
REMARK       I    between atoms: C_12  and  N_13 
REMARK    5  A    between atoms: N_13  and  N_14 
REMARK       I    between atoms: N_14  and  C_15 
REMARK    6  A    between atoms: C_15  and  C_16 
ROOT
HETATM    1  N   UNL     1      -8.161   3.094 -33.834  1.00  0.00    -0.342 N 
HETATM    2  C   UNL     1      -7.008   3.512 -33.224  1.00  0.00     0.334 C 
HETATM    3  N   UNL     1      -6.355   4.485 -33.934  1.00  0.00    -0.249 N 
HETATM    4  O   UNL     1      -6.573   2.979 -32.203  1.00  0.00    -0.246 OA
HETATM    5  H   UNL     1      -8.503   3.638 -34.618  1.00  0.00     0.164 HD
HETATM    6  H   UNL     1      -6.879   5.118 -34.540  1.00  0.00     0.192 HD
ENDROOT
BRANCH   1   7
HETATM    7  C   UNL     1      -9.051   2.125 -33.236  1.00  0.00     0.126 C 
BRANCH   7   8
HETATM    8  C   UNL     1      -9.114   0.800 -33.999  1.00  0.00     0.047 C 
BRANCH   8   9
HETATM    9  C   UNL     1      -7.906   0.439 -34.867  1.00  0.00     0.237 C 
BRANCH   9  10
HETATM   10  N   UNL     1      -6.964  -0.544 -34.227  1.00  0.00    -0.067 N 
HETATM   11  C   UNL     1      -6.867  -1.867 -34.938  1.00  0.00     0.274 C 
HETATM   12  C   UNL     1      -5.779  -2.773 -34.428  1.00  0.00    -0.026 A 
HETATM   13  C   UNL     1      -4.763  -2.295 -33.579  1.00  0.00    -0.049 A 
HETATM   14  C   UNL     1      -5.749  -4.111 -34.849  1.00  0.00     0.009 A 
HETATM   15  C   UNL     1      -3.764  -3.170 -33.135  1.00  0.00     0.007 A 
HETATM   16  C   UNL     1      -4.771  -0.867 -33.101  1.00  0.00     0.067 C 
HETATM   17  C   UNL     1      -3.751  -4.500 -33.555  1.00  0.00     0.001 A 
HETATM   18  C   UNL     1      -4.740  -4.969 -34.414  1.00  0.00     0.001 A 
HETATM   19  C   UNL     1      -5.588   0.047 -34.014  1.00  0.00     0.240 C 
HETATM   20  H   UNL     1      -7.321  -0.705 -33.262  1.00  0.00     0.280 HD
ENDBRANCH   9  10
ENDBRANCH   8   9
ENDBRANCH   7   8
ENDBRANCH   1   7
BRANCH   3  21
HETATM   21  N   UNL     1      -5.198   5.059 -33.388  1.00  0.00    -0.261 N 
HETATM   22  C   UNL     1      -4.143   5.350 -34.237  1.00  0.00     0.277 C 
HETATM   23  O   UNL     1      -4.258   5.151 -35.449  1.00  0.00    -0.265 OA
HETATM   24  H   UNL     1      -5.167   5.252 -32.391  1.00  0.00     0.190 HD
BRANCH  22  25
HETATM   25  C   UNL     1      -2.938   5.876 -33.619  1.00  0.00     0.075 A 
HETATM   26  S   UNL     1      -2.226   5.154 -32.233  1.00  0.00    -0.077 SA
HETATM   27  C   UNL     1      -0.965   6.283 -32.219  1.00  0.00     0.052 A 
HETATM   28 BR   UNL     1       0.415   6.257 -30.953  1.00  0.00    -0.043 Br
HETATM   29  C   UNL     1      -1.055   7.211 -33.224  1.00  0.00     0.028 A 
HETATM   30  C   UNL     1      -2.204   6.974 -34.037  1.00  0.00     0.026 A 
ENDBRANCH  22  25
ENDBRANCH   3  21
TORSDOF 6
ENDMDL
MODEL 3
REMARK VINA RESULT:      -8.5      7.040      8.962
REMARK  6 active torsions:
REMARK  status: ('A' for Active; 'I' for Inactive)
REMARK    1  A    between atoms: N_6  and  C_8 
REMARK    2  A    between atoms: C_8  and  C_9 
REMARK    3  A    between atoms: C_9  and  C_10 
REMARK    4  A    between atoms: C_10  and  N_11 
REMARK       I    between atoms: N_11  and  C_12 
REMARK       I    between atoms: C_12  and  N_13 
REMARK    5  A    between atoms: N_13  and  N_14 
REMARK       I    between atoms: N_14  and  C_15 
REMARK    6  A    between atoms: C_15  and  C_16 
ROOT
HETATM    1  N   UNL     1      -7.091   1.400 -30.250  1.00  0.00    -0.342 N 
HETATM    2  C   UNL     1      -7.921   2.286 -30.885  1.00  0.00     0.334 C 
HETATM    3  N   UNL     1      -9.232   1.887 -30.872  1.00  0.00    -0.249 N 
HETATM    4  O   UNL     1      -7.496   3.273 -31.485  1.00  0.00    -0.246 OA
HETATM    5  H   UNL     1      -7.519   0.662 -29.703  1.00  0.00     0.164 HD
HETATM    6  H   UNL     1      -9.583   1.300 -30.114  1.00  0.00     0.192 HD
ENDROOT
BRANCH   1   7
HETATM    7  C   UNL     1      -5.677   1.645 -30.079  1.00  0.00     0.126 C 
BRANCH   7   8
HETATM    8  C   UNL     1      -4.793   0.790 -30.989  1.00  0.00     0.047 C 
BRANCH   8   9
HETATM    9  C   UNL     1      -4.817   1.114 -32.486  1.00  0.00     0.237 C 
BRANCH   9  10
HETATM   10  N   UNL     1      -5.218  -0.045 -33.356  1.00  0.00    -0.067 N 
HETATM   11  C   UNL     1      -4.429  -1.305 -33.120  1.00  0.00     0.274 C 
HETATM   12  C   UNL     1      -4.958  -2.518 -33.835  1.00  0.00    -0.026 A 
HETATM   13  C   UNL     1      -6.241  -2.528 -34.413  1.00  0.00    -0.049 A 
HETATM   14  C   UNL     1      -4.175  -3.682 -33.880  1.00  0.00     0.009 A 
HETATM   15  C   UNL     1      -6.699  -3.683 -35.061  1.00  0.00     0.007 A 
HETATM   16  C   UNL     1      -7.103  -1.294 -34.390  1.00  0.00     0.067 C 
HETATM   17  C   UNL     1      -5.907  -4.830 -35.105  1.00  0.00     0.001 A 
HETATM   18  C   UNL     1      -4.649  -4.831 -34.513  1.00  0.00     0.001 A 
HETATM   19  C   UNL     1      -6.702  -0.326 -33.278  1.00  0.00     0.240 C 
HETATM   20  H   UNL     1      -5.073   0.265 -34.340  1.00  0.00     0.280 HD
ENDBRANCH   9  10
ENDBRANCH   8   9
ENDBRANCH   7   8
ENDBRANCH   1   7
BRANCH   3  21
HETATM   21  N   UNL     1     -10.203   2.737 -31.420  1.00  0.00    -0.261 N 
HETATM   22  C   UNL     1     -10.598   2.527 -32.731  1.00  0.00     0.277 C 
HETATM   23  O   UNL     1     -10.134   1.578 -33.367  1.00  0.00    -0.265 OA
HETATM   24  H   UNL     1     -10.596   3.474 -30.842  1.00  0.00     0.190 HD
BRANCH  22  25
HETATM   25  C   UNL     1     -11.553   3.474 -33.281  1.00  0.00     0.075 A 
HETATM   26  S   UNL     1     -11.291   4.282 -34.774  1.00  0.00    -0.077 SA
HETATM   27  C   UNL     1     -12.778   5.083 -34.670  1.00  0.00     0.052 A 
HETATM   28 BR   UNL     1     -13.395   6.267 -35.983  1.00  0.00    -0.043 Br
HETATM   29  C   UNL     1     -13.482   4.778 -33.533  1.00  0.00     0.028 A 
HETATM   30  C   UNL     1     -12.768   3.842 -32.725  1.00  0.00     0.026 A 
ENDBRANCH  22  25
ENDBRANCH   3  21
TORSDOF 6
ENDMDL
MODEL 4
REMARK VINA RESULT:      -8.5      1.505      1.653
REMARK  6 active torsions:
REMARK  status: ('A' for Active; 'I' for Inactive)
REMARK    1  A    between atoms: N_6  and  C_8 
REMARK    2  A    between atoms: C_8  and  C_9 
REMARK    3  A    between atoms: C_9  and  C_10 
REMARK    4  A    between atoms: C_10  and  N_11 
REMARK       I    between atoms: N_11  and  C_12 
REMARK       I    between atoms: C_12  and  N_13 
REMARK    5  A    between atoms: N_13  and  N_14 
REMARK       I    between atoms: N_14  and  C_15 
REMARK    6  A    between atoms: C_15  and  C_16 
ROOT
HETATM    1  N   UNL     1      -3.769   3.903 -32.766  1.00  0.00    -0.342 N 
HETATM    2  C   UNL     1      -3.368   4.599 -31.657  1.00  0.00     0.334 C 
HETATM    3  N   UNL     1      -2.004   4.669 -31.539  1.00  0.00    -0.249 N 
HETATM    4  O   UNL     1      -4.165   5.015 -30.816  1.00  0.00    -0.246 OA
HETATM    5  H   UNL     1      -3.064   3.670 -33.457  1.00  0.00     0.164 HD
HETATM    6  H   UNL     1      -1.414   4.636 -32.371  1.00  0.00     0.192 HD
ENDROOT
BRANCH   1   7
HETATM    7  C   UNL     1      -5.160   3.757 -33.133  1.00  0.00     0.126 C 
BRANCH   7   8
HETATM    8  C   UNL     1      -5.745   2.388 -32.785  1.00  0.00     0.047 C 
BRANCH   8   9
HETATM    9  C   UNL     1      -4.765   1.214 -32.698  1.00  0.00     0.237 C 
BRANCH   9  10
HETATM   10  N   UNL     1      -5.179   0.010 -33.499  1.00  0.00    -0.067 N 
HETATM   11  C   UNL     1      -4.372  -1.230 -33.223  1.00  0.00     0.274 C 
HETATM   12  C   UNL     1      -4.910  -2.482 -33.862  1.00  0.00    -0.026 A 
HETATM   13  C   UNL     1      -6.208  -2.531 -34.403  1.00  0.00    -0.049 A 
HETATM   14  C   UNL     1      -4.118  -3.640 -33.872  1.00  0.00     0.009 A 
HETATM   15  C   UNL     1      -6.673  -3.719 -34.980  1.00  0.00     0.007 A 
HETATM   16  C   UNL     1      -7.080  -1.303 -34.417  1.00  0.00     0.067 C 
HETATM   17  C   UNL     1      -5.872  -4.861 -34.989  1.00  0.00     0.001 A 
HETATM   18  C   UNL     1      -4.598  -4.822 -34.433  1.00  0.00     0.001 A 
HETATM   19  C   UNL     1      -6.658  -0.278 -33.366  1.00  0.00     0.240 C 
HETATM   20  H   UNL     1      -5.064   0.272 -34.501  1.00  0.00     0.280 HD
ENDBRANCH   9  10
ENDBRANCH   8   9
ENDBRANCH   7   8
ENDBRANCH   1   7
BRANCH   3  21
HETATM   21  N   UNL     1      -1.454   5.418 -30.489  1.00  0.00    -0.261 N 
HETATM   22  C   UNL     1      -1.156   6.752 -30.717  1.00  0.00     0.277 C 
HETATM   23  O   UNL     1      -1.425   7.263 -31.806  1.00  0.00    -0.265 OA
HETATM   24  H   UNL     1      -1.297   4.968 -29.592  1.00  0.00     0.190 HD
BRANCH  22  25
HETATM   25  C   UNL     1      -0.522   7.470 -29.625  1.00  0.00     0.075 A 
HETATM   26  S   UNL     1      -1.331   8.704 -28.745  1.00  0.00    -0.077 SA
HETATM   27  C   UNL     1       0.006   8.941 -27.733  1.00  0.00     0.052 A 
HETATM   28 BR   UNL     1       0.024  10.194 -26.342  1.00  0.00    -0.043 Br
HETATM   29  C   UNL     1       1.066   8.126 -28.034  1.00  0.00     0.028 A 
HETATM   30  C   UNL     1       0.758   7.271 -29.135  1.00  0.00     0.026 A 
ENDBRANCH  22  25
ENDBRANCH   3  21
TORSDOF 6
ENDMDL
MODEL 5
REMARK VINA RESULT:      -8.5      1.772      2.694
REMARK  6 active torsions:
REMARK  status: ('A' for Active; 'I' for Inactive)
REMARK    1  A    between atoms: N_6  and  C_8 
REMARK    2  A    between atoms: C_8  and  C_9 
REMARK    3  A    between atoms: C_9  and  C_10 
REMARK    4  A    between atoms: C_10  and  N_11 
REMARK       I    between atoms: N_11  and  C_12 
REMARK       I    between atoms: C_12  and  N_13 
REMARK    5  A    between atoms: N_13  and  N_14 
REMARK       I    between atoms: N_14  and  C_15 
REMARK    6  A    between atoms: C_15  and  C_16 
ROOT
HETATM    1  N   UNL     1      -5.001   3.402 -32.759  1.00  0.00    -0.342 N 
HETATM    2  C   UNL     1      -4.492   4.532 -32.178  1.00  0.00     0.334 C 
HETATM    3  N   UNL     1      -3.622   4.257 -31.155  1.00  0.00    -0.249 N 
HETATM    4  O   UNL     1      -4.871   5.661 -32.489  1.00  0.00    -0.246 OA
HETATM    5  H   UNL     1      -4.577   2.514 -32.515  1.00  0.00     0.164 HD
HETATM    6  H   UNL     1      -3.086   3.388 -31.156  1.00  0.00     0.192 HD
ENDROOT
BRANCH   1   7
HETATM    7  C   UNL     1      -5.885   3.444 -33.902  1.00  0.00     0.126 C 
BRANCH   7   8
HETATM    8  C   UNL     1      -6.579   2.112 -34.189  1.00  0.00     0.047 C 
BRANCH   8   9
HETATM    9  C   UNL     1      -6.893   1.218 -32.987  1.00  0.00     0.237 C 
BRANCH   9  10
HETATM   10  N   UNL     1      -6.255  -0.143 -33.054  1.00  0.00    -0.067 N 
HETATM   11  C   UNL     1      -6.964  -1.121 -33.951  1.00  0.00     0.274 C 
HETATM   12  C   UNL     1      -6.222  -2.409 -34.185  1.00  0.00    -0.026 A 
HETATM   13  C   UNL     1      -4.863  -2.546 -33.843  1.00  0.00    -0.049 A 
HETATM   14  C   UNL     1      -6.886  -3.480 -34.803  1.00  0.00     0.009 A 
HETATM   15  C   UNL     1      -4.207  -3.759 -34.086  1.00  0.00     0.007 A 
HETATM   16  C   UNL     1      -4.124  -1.420 -33.169  1.00  0.00     0.067 C 
HETATM   17  C   UNL     1      -4.882  -4.818 -34.695  1.00  0.00     0.001 A 
HETATM   18  C   UNL     1      -6.218  -4.677 -35.056  1.00  0.00     0.001 A 
HETATM   19  C   UNL     1      -4.787  -0.064 -33.410  1.00  0.00     0.240 C 
HETATM   20  H   UNL     1      -6.257  -0.515 -32.081  1.00  0.00     0.280 HD
ENDBRANCH   9  10
ENDBRANCH   8   9
ENDBRANCH   7   8
ENDBRANCH   1   7
BRANCH   3  21
HETATM   21  N   UNL     1      -2.967   5.321 -30.520  1.00  0.00    -0.261 N 
HETATM   22  C   UNL     1      -1.582   5.358 -30.556  1.00  0.00     0.277 C 
HETATM   23  O   UNL     1      -0.962   4.497 -31.183  1.00  0.00    -0.265 OA
HETATM   24  H   UNL     1      -3.521   6.037 -30.060  1.00  0.00     0.190 HD
BRANCH  22  25
HETATM   25  C   UNL     1      -0.943   6.439 -29.825  1.00  0.00     0.075 A 
HETATM   26  S   UNL     1      -1.817   7.480 -28.774  1.00  0.00    -0.077 SA
HETATM   27  C   UNL     1      -0.415   8.332 -28.357  1.00  0.00     0.052 A 
HETATM   28 BR   UNL     1      -0.411   9.760 -27.146  1.00  0.00    -0.043 Br
HETATM   29  C   UNL     1       0.710   7.872 -28.991  1.00  0.00     0.028 A 
HETATM   30  C   UNL     1       0.402   6.771 -29.846  1.00  0.00     0.026 A 
ENDBRANCH  22  25
ENDBRANCH   3  21
TORSDOF 6
ENDMDL
MODEL 6
REMARK VINA RESULT:      -7.8      4.796     11.874
REMARK  6 active torsions:
REMARK  status: ('A' for Active; 'I' for Inactive)
REMARK    1  A    between atoms: N_6  and  C_8 
REMARK    2  A    between atoms: C_8  and  C_9 
REMARK    3  A    between atoms: C_9  and  C_10 
REMARK    4  A    between atoms: C_10  and  N_11 
REMARK       I    between atoms: N_11  and  C_12 
REMARK       I    between atoms: C_12  and  N_13 
REMARK    5  A    between atoms: N_13  and  N_14 
REMARK       I    between atoms: N_14  and  C_15 
REMARK    6  A    between atoms: C_15  and  C_16 
ROOT
HETATM    1  N   UNL     1      -1.576   5.016 -31.291  1.00  0.00    -0.342 N 
HETATM    2  C   UNL     1      -2.382   4.154 -31.986  1.00  0.00     0.334 C 
HETATM    3  N   UNL     1      -3.065   3.292 -31.170  1.00  0.00    -0.249 N 
HETATM    4  O   UNL     1      -2.392   4.110 -33.217  1.00  0.00    -0.246 OA
HETATM    5  H   UNL     1      -1.687   5.057 -30.284  1.00  0.00     0.164 HD
HETATM    6  H   UNL     1      -3.302   3.566 -30.215  1.00  0.00     0.192 HD
ENDROOT
BRANCH   1   7
HETATM    7  C   UNL     1      -0.813   6.061 -31.937  1.00  0.00     0.126 C 
BRANCH   7   8
HETATM    8  C   UNL     1      -1.036   7.447 -31.330  1.00  0.00     0.047 C 
BRANCH   8   9
HETATM    9  C   UNL     1      -1.637   7.501 -29.922  1.00  0.00     0.237 C 
BRANCH   9  10
HETATM   10  N   UNL     1      -0.774   8.211 -28.915  1.00  0.00    -0.067 N 
HETATM   11  C   UNL     1      -1.414   8.393 -27.565  1.00  0.00     0.274 C 
HETATM   12  C   UNL     1      -0.487   8.912 -26.499  1.00  0.00    -0.026 A 
HETATM   13  C   UNL     1       0.908   8.928 -26.682  1.00  0.00    -0.049 A 
HETATM   14  C   UNL     1      -1.024   9.342 -25.275  1.00  0.00     0.009 A 
HETATM   15  C   UNL     1       1.735   9.411 -25.660  1.00  0.00     0.007 A 
HETATM   16  C   UNL     1       1.516   8.482 -27.986  1.00  0.00     0.067 C 
HETATM   17  C   UNL     1       1.188   9.843 -24.453  1.00  0.00     0.001 A 
HETATM   18  C   UNL     1      -0.189   9.805 -24.259  1.00  0.00     0.001 A 
HETATM   19  C   UNL     1       0.586   7.563 -28.777  1.00  0.00     0.240 C 
HETATM   20  H   UNL     1      -0.566   9.149 -29.318  1.00  0.00     0.280 HD
ENDBRANCH   9  10
ENDBRANCH   8   9
ENDBRANCH   7   8
ENDBRANCH   1   7
BRANCH   3  21
HETATM   21  N   UNL     1      -3.986   2.403 -31.744  1.00  0.00    -0.261 N 
HETATM   22  C   UNL     1      -3.713   1.046 -31.690  1.00  0.00     0.277 C 
HETATM   23  O   UNL     1      -2.707   0.645 -31.101  1.00  0.00    -0.265 OA
HETATM   24  H   UNL     1      -4.827   2.776 -32.173  1.00  0.00     0.190 HD
BRANCH  22  25
HETATM   25  C   UNL     1      -4.657   0.168 -32.359  1.00  0.00     0.075 A 
HETATM   26  S   UNL     1      -4.152  -1.109 -33.392  1.00  0.00    -0.077 SA
HETATM   27  C   UNL     1      -5.750  -1.590 -33.676  1.00  0.00     0.052 A 
HETATM   28 BR   UNL     1      -6.200  -3.042 -34.770  1.00  0.00    -0.043 Br
HETATM   29  C   UNL     1      -6.675  -0.815 -33.026  1.00  0.00     0.028 A 
HETATM   30  C   UNL     1      -6.039   0.208 -32.261  1.00  0.00     0.026 A 
ENDBRANCH  22  25
ENDBRANCH   3  21
TORSDOF 6
ENDMDL
MODEL 7
REMARK VINA RESULT:      -7.7      7.963     10.428
REMARK  6 active torsions:
REMARK  status: ('A' for Active; 'I' for Inactive)
REMARK    1  A    between atoms: N_6  and  C_8 
REMARK    2  A    between atoms: C_8  and  C_9 
REMARK    3  A    between atoms: C_9  and  C_10 
REMARK    4  A    between atoms: C_10  and  N_11 
REMARK       I    between atoms: N_11  and  C_12 
REMARK       I    between atoms: C_12  and  N_13 
REMARK    5  A    between atoms: N_13  and  N_14 
REMARK       I    between atoms: N_14  and  C_15 
REMARK    6  A    between atoms: C_15  and  C_16 
ROOT
HETATM    1  N   UNL     1      -8.441   3.635 -31.724  1.00  0.00    -0.342 N 
HETATM    2  C   UNL     1      -9.730   3.470 -31.291  1.00  0.00     0.334 C 
HETATM    3  N   UNL     1     -10.641   3.489 -32.314  1.00  0.00    -0.249 N 
HETATM    4  O   UNL     1     -10.021   3.419 -30.095  1.00  0.00    -0.246 OA
HETATM    5  H   UNL     1      -8.269   3.579 -32.722  1.00  0.00     0.164 HD
HETATM    6  H   UNL     1     -10.367   3.189 -33.251  1.00  0.00     0.192 HD
ENDROOT
BRANCH   1   7
HETATM    7  C   UNL     1      -7.306   3.581 -30.831  1.00  0.00     0.126 C 
BRANCH   7   8
HETATM    8  C   UNL     1      -6.649   2.201 -30.760  1.00  0.00     0.047 C 
BRANCH   8   9
HETATM    9  C   UNL     1      -5.512   1.920 -31.746  1.00  0.00     0.237 C 
BRANCH   9  10
HETATM   10  N   UNL     1      -5.798   0.799 -32.707  1.00  0.00    -0.067 N 
HETATM   11  C   UNL     1      -4.754  -0.285 -32.729  1.00  0.00     0.274 C 
HETATM   12  C   UNL     1      -5.132  -1.502 -33.528  1.00  0.00    -0.026 A 
HETATM   13  C   UNL     1      -6.457  -1.721 -33.950  1.00  0.00    -0.049 A 
HETATM   14  C   UNL     1      -4.152  -2.465 -33.815  1.00  0.00     0.009 A 
HETATM   15  C   UNL     1      -6.768  -2.873 -34.684  1.00  0.00     0.007 A 
HETATM   16  C   UNL     1      -7.530  -0.704 -33.667  1.00  0.00     0.067 C 
HETATM   17  C   UNL     1      -5.782  -3.818 -34.968  1.00  0.00     0.001 A 
HETATM   18  C   UNL     1      -4.477  -3.616 -34.531  1.00  0.00     0.001 A 
HETATM   19  C   UNL     1      -7.174   0.207 -32.493  1.00  0.00     0.240 C 
HETATM   20  H   UNL     1      -5.855   1.232 -33.652  1.00  0.00     0.280 HD
ENDBRANCH   9  10
ENDBRANCH   8   9
ENDBRANCH   7   8
ENDBRANCH   1   7
BRANCH   3  21
HETATM   21  N   UNL     1     -11.992   3.255 -32.021  1.00  0.00    -0.261 N 
HETATM   22  C   UNL     1     -12.921   3.398 -33.039  1.00  0.00     0.277 C 
HETATM   23  O   UNL     1     -12.544   3.673 -34.180  1.00  0.00    -0.265 OA
HETATM   24  H   UNL     1     -12.251   2.980 -31.078  1.00  0.00     0.190 HD
BRANCH  22  25
HETATM   25  C   UNL     1     -14.315   3.216 -32.674  1.00  0.00     0.075 A 
HETATM   26  S   UNL     1     -15.292   4.508 -32.100  1.00  0.00    -0.077 SA
HETATM   27  C   UNL     1     -16.648   3.504 -31.971  1.00  0.00     0.052 A 
HETATM   28 BR   UNL     1     -18.319   4.115 -31.387  1.00  0.00    -0.043 Br
HETATM   29  C   UNL     1     -16.401   2.206 -32.336  1.00  0.00     0.028 A 
HETATM   30  C   UNL     1     -15.043   2.039 -32.745  1.00  0.00     0.026 A 
ENDBRANCH  22  25
ENDBRANCH   3  21
TORSDOF 6
ENDMDL
MODEL 8
REMARK VINA RESULT:      -7.6     18.278     19.355
REMARK  6 active torsions:
REMARK  status: ('A' for Active; 'I' for Inactive)
REMARK    1  A    between atoms: N_6  and  C_8 
REMARK    2  A    between atoms: C_8  and  C_9 
REMARK    3  A    between atoms: C_9  and  C_10 
REMARK    4  A    between atoms: C_10  and  N_11 
REMARK       I    between atoms: N_11  and  C_12 
REMARK       I    between atoms: C_12  and  N_13 
REMARK    5  A    between atoms: N_13  and  N_14 
REMARK       I    between atoms: N_14  and  C_15 
REMARK    6  A    between atoms: C_15  and  C_16 
ROOT
HETATM    1  N   UNL     1      -7.757 -12.550 -38.534  1.00  0.00    -0.342 N 
HETATM    2  C   UNL     1      -7.460 -13.580 -37.682  1.00  0.00     0.334 C 
HETATM    3  N   UNL     1      -7.111 -13.149 -36.429  1.00  0.00    -0.249 N 
HETATM    4  O   UNL     1      -7.416 -14.752 -38.056  1.00  0.00    -0.246 OA
HETATM    5  H   UNL     1      -7.862 -11.624 -38.135  1.00  0.00     0.164 HD
HETATM    6  H   UNL     1      -7.479 -12.268 -36.067  1.00  0.00     0.192 HD
ENDROOT
BRANCH   1   7
HETATM    7  C   UNL     1      -8.217 -12.766 -39.887  1.00  0.00     0.126 C 
BRANCH   7   8
HETATM    8  C   UNL     1      -7.100 -12.711 -40.930  1.00  0.00     0.047 C 
BRANCH   8   9
HETATM    9  C   UNL     1      -5.978 -11.695 -40.695  1.00  0.00     0.237 C 
BRANCH   9  10
HETATM   10  N   UNL     1      -4.622 -12.316 -40.497  1.00  0.00    -0.067 N 
HETATM   11  C   UNL     1      -4.188 -12.419 -39.059  1.00  0.00     0.274 C 
HETATM   12  C   UNL     1      -2.934 -13.221 -38.840  1.00  0.00    -0.026 A 
HETATM   13  C   UNL     1      -2.404 -14.046 -39.851  1.00  0.00    -0.049 A 
HETATM   14  C   UNL     1      -2.309 -13.186 -37.585  1.00  0.00     0.009 A 
HETATM   15  C   UNL     1      -1.240 -14.784 -39.602  1.00  0.00     0.007 A 
HETATM   16  C   UNL     1      -3.045 -14.100 -41.212  1.00  0.00     0.067 C 
HETATM   17  C   UNL     1      -0.624 -14.733 -38.351  1.00  0.00     0.001 A 
HETATM   18  C   UNL     1      -1.160 -13.938 -37.343  1.00  0.00     0.001 A 
HETATM   19  C   UNL     1      -4.508 -13.659 -41.184  1.00  0.00     0.240 C 
HETATM   20  H   UNL     1      -3.947 -11.712 -41.011  1.00  0.00     0.280 HD
ENDBRANCH   9  10
ENDBRANCH   8   9
ENDBRANCH   7   8
ENDBRANCH   1   7
BRANCH   3  21
HETATM   21  N   UNL     1      -6.855 -14.102 -35.433  1.00  0.00    -0.261 N 
HETATM   22  C   UNL     1      -7.020 -13.731 -34.108  1.00  0.00     0.277 C 
HETATM   23  O   UNL     1      -7.435 -12.603 -33.834  1.00  0.00    -0.265 OA
HETATM   24  H   UNL     1      -6.565 -15.036 -35.707  1.00  0.00     0.190 HD
BRANCH  22  25
HETATM   25  C   UNL     1      -6.676 -14.727 -33.108  1.00  0.00     0.075 A 
HETATM   26  S   UNL     1      -5.344 -14.535 -32.041  1.00  0.00    -0.077 SA
HETATM   27  C   UNL     1      -5.675 -16.003 -31.266  1.00  0.00     0.052 A 
HETATM   28 BR   UNL     1      -4.657 -16.657 -29.838  1.00  0.00    -0.043 Br
HETATM   29  C   UNL     1      -6.761 -16.659 -31.787  1.00  0.00     0.028 A 
HETATM   30  C   UNL     1      -7.342 -15.916 -32.859  1.00  0.00     0.026 A 
ENDBRANCH  22  25
ENDBRANCH   3  21
TORSDOF 6
ENDMDL
MODEL 9
REMARK VINA RESULT:      -7.6      5.703     10.105
REMARK  6 active torsions:
REMARK  status: ('A' for Active; 'I' for Inactive)
REMARK    1  A    between atoms: N_6  and  C_8 
REMARK    2  A    between atoms: C_8  and  C_9 
REMARK    3  A    between atoms: C_9  and  C_10 
REMARK    4  A    between atoms: C_10  and  N_11 
REMARK       I    between atoms: N_11  and  C_12 
REMARK       I    between atoms: C_12  and  N_13 
REMARK    5  A    between atoms: N_13  and  N_14 
REMARK       I    between atoms: N_14  and  C_15 
REMARK    6  A    between atoms: C_15  and  C_16 
ROOT
HETATM    1  N   UNL     1      -7.576   3.900 -29.625  1.00  0.00    -0.342 N 
HETATM    2  C   UNL     1      -6.920   2.774 -30.046  1.00  0.00     0.334 C 
HETATM    3  N   UNL     1      -7.705   1.961 -30.822  1.00  0.00    -0.249 N 
HETATM    4  O   UNL     1      -5.783   2.494 -29.667  1.00  0.00    -0.246 OA
HETATM    5  H   UNL     1      -8.473   4.109 -30.049  1.00  0.00     0.164 HD
HETATM    6  H   UNL     1      -8.462   2.358 -31.379  1.00  0.00     0.192 HD
ENDROOT
BRANCH   1   7
HETATM    7  C   UNL     1      -6.928   4.936 -28.854  1.00  0.00     0.126 C 
BRANCH   7   8
HETATM    8  C   UNL     1      -6.043   5.861 -29.692  1.00  0.00     0.047 C 
BRANCH   8   9
HETATM    9  C   UNL     1      -4.658   6.194 -29.132  1.00  0.00     0.237 C 
BRANCH   9  10
HETATM   10  N   UNL     1      -3.562   6.187 -30.163  1.00  0.00    -0.067 N 
HETATM   11  C   UNL     1      -3.884   5.406 -31.409  1.00  0.00     0.274 C 
HETATM   12  C   UNL     1      -2.885   5.566 -32.523  1.00  0.00    -0.026 A 
HETATM   13  C   UNL     1      -1.918   6.588 -32.501  1.00  0.00    -0.049 A 
HETATM   14  C   UNL     1      -2.953   4.708 -33.632  1.00  0.00     0.009 A 
HETATM   15  C   UNL     1      -1.014   6.708 -33.564  1.00  0.00     0.007 A 
HETATM   16  C   UNL     1      -1.812   7.519 -31.322  1.00  0.00     0.067 C 
HETATM   17  C   UNL     1      -1.088   5.843 -34.656  1.00  0.00     0.001 A 
HETATM   18  C   UNL     1      -2.059   4.848 -34.691  1.00  0.00     0.001 A 
HETATM   19  C   UNL     1      -3.108   7.587 -30.516  1.00  0.00     0.240 C 
HETATM   20  H   UNL     1      -2.730   5.762 -29.703  1.00  0.00     0.280 HD
ENDBRANCH   9  10
ENDBRANCH   8   9
ENDBRANCH   7   8
ENDBRANCH   1   7
BRANCH   3  21
HETATM   21  N   UNL     1      -7.137   0.809 -31.384  1.00  0.00    -0.261 N 
HETATM   22  C   UNL     1      -6.794   0.832 -32.726  1.00  0.00     0.277 C 
HETATM   23  O   UNL     1      -6.942   1.866 -33.380  1.00  0.00    -0.265 OA
HETATM   24  H   UNL     1      -6.985  -0.004 -30.794  1.00  0.00     0.190 HD
BRANCH  22  25
HETATM   25  C   UNL     1      -6.275  -0.406 -33.283  1.00  0.00     0.075 A 
HETATM   26  S   UNL     1      -7.294  -1.592 -33.995  1.00  0.00    -0.077 SA
HETATM   27  C   UNL     1      -5.976  -2.581 -34.378  1.00  0.00     0.052 A 
HETATM   28 BR   UNL     1      -6.153  -4.223 -35.261  1.00  0.00    -0.043 Br
HETATM   29  C   UNL     1      -4.771  -2.061 -33.980  1.00  0.00     0.028 A 
HETATM   30  C   UNL     1      -4.947  -0.795 -33.342  1.00  0.00     0.026 A 
ENDBRANCH  22  25
ENDBRANCH   3  21
TORSDOF 6
ENDMDL
MODEL 10
REMARK VINA RESULT:      -7.5     18.899     20.946
REMARK  6 active torsions:
REMARK  status: ('A' for Active; 'I' for Inactive)
REMARK    1  A    between atoms: N_6  and  C_8 
REMARK    2  A    between atoms: C_8  and  C_9 
REMARK    3  A    between atoms: C_9  and  C_10 
REMARK    4  A    between atoms: C_10  and  N_11 
REMARK       I    between atoms: N_11  and  C_12 
REMARK       I    between atoms: C_12  and  N_13 
REMARK    5  A    between atoms: N_13  and  N_14 
REMARK       I    between atoms: N_14  and  C_15 
REMARK    6  A    between atoms: C_15  and  C_16 
ROOT
HETATM    1  N   UNL     1      -4.182 -12.687 -37.065  1.00  0.00    -0.342 N 
HETATM    2  C   UNL     1      -3.904 -13.501 -38.131  1.00  0.00     0.334 C 
HETATM    3  N   UNL     1      -3.766 -12.808 -39.305  1.00  0.00    -0.249 N 
HETATM    4  O   UNL     1      -3.892 -14.728 -38.037  1.00  0.00    -0.246 OA
HETATM    5  H   UNL     1      -4.086 -11.687 -37.198  1.00  0.00     0.164 HD
HETATM    6  H   UNL     1      -3.443 -11.839 -39.296  1.00  0.00     0.192 HD
ENDROOT
BRANCH   1   7
HETATM    7  C   UNL     1      -4.302 -13.187 -35.714  1.00  0.00     0.126 C 
BRANCH   7   8
HETATM    8  C   UNL     1      -5.747 -13.440 -35.281  1.00  0.00     0.047 C 
BRANCH   8   9
HETATM    9  C   UNL     1      -6.324 -14.831 -35.560  1.00  0.00     0.237 C 
BRANCH   9  10
HETATM   10  N   UNL     1      -7.453 -14.837 -36.554  1.00  0.00    -0.067 N 
HETATM   11  C   UNL     1      -7.627 -13.546 -37.308  1.00  0.00     0.274 C 
HETATM   12  C   UNL     1      -8.613 -13.612 -38.443  1.00  0.00    -0.026 A 
HETATM   13  C   UNL     1      -9.086 -14.843 -38.934  1.00  0.00    -0.049 A 
HETATM   14  C   UNL     1      -9.030 -12.421 -39.057  1.00  0.00     0.009 A 
HETATM   15  C   UNL     1      -9.995 -14.859 -39.999  1.00  0.00     0.007 A 
HETATM   16  C   UNL     1      -8.665 -16.138 -38.291  1.00  0.00     0.067 C 
HETATM   17  C   UNL     1     -10.407 -13.668 -40.595  1.00  0.00     0.001 A 
HETATM   18  C   UNL     1      -9.923 -12.451 -40.127  1.00  0.00     0.001 A 
HETATM   19  C   UNL     1      -7.357 -16.003 -37.513  1.00  0.00     0.240 C 
HETATM   20  H   UNL     1      -8.320 -15.030 -36.010  1.00  0.00     0.280 HD
ENDBRANCH   9  10
ENDBRANCH   8   9
ENDBRANCH   7   8
ENDBRANCH   1   7
BRANCH   3  21
HETATM   21  N   UNL     1      -3.405 -13.509 -40.465  1.00  0.00    -0.261 N 
HETATM   22  C   UNL     1      -4.394 -13.807 -41.388  1.00  0.00     0.277 C 
HETATM   23  O   UNL     1      -5.547 -13.412 -41.203  1.00  0.00    -0.265 OA
HETATM   24  H   UNL     1      -2.433 -13.770 -40.601  1.00  0.00     0.190 HD
BRANCH  22  25
HETATM   25  C   UNL     1      -3.989 -14.596 -42.540  1.00  0.00     0.075 A 
HETATM   26  S   UNL     1      -2.837 -15.864 -42.426  1.00  0.00    -0.077 SA
HETATM   27  C   UNL     1      -2.985 -16.228 -44.072  1.00  0.00     0.052 A 
HETATM   28 BR   UNL     1      -2.028 -17.606 -44.904  1.00  0.00    -0.043 Br
HETATM   29  C   UNL     1      -3.874 -15.417 -44.730  1.00  0.00     0.028 A 
HETATM   30  C   UNL     1      -4.457 -14.467 -43.838  1.00  0.00     0.026 A 
ENDBRANCH  22  25
ENDBRANCH   3  21
TORSDOF 6
ENDMDL
