MODEL 1
REMARK VINA RESULT:      -8.9      0.000      0.000
REMARK  8 active torsions:
REMARK  status: ('A' for Active; 'I' for Inactive)
REMARK    1  A    between atoms: C_3  and  N_4 
REMARK       I    between atoms: N_4  and  C_5 
REMARK    2  A    between atoms: C_5  and  C_6 
REMARK    3  A    between atoms: C_7  and  C_8 
REMARK    4  A    between atoms: C_17  and  C_18 
REMARK    5  A    between atoms: C_20  and  O_21 
REMARK    6  A    between atoms: C_23  and  O_24 
REMARK    7  A    between atoms: O_24  and  C_25 
REMARK    8  A    between atoms: C_25  and  C_26 
REMARK       I    between atoms: C_26  and  N_27 
ROOT
HETATM    1  C   UNL     1      -7.403   2.225 -32.317  1.00  0.00     0.062 A 
HETATM    2  C   UNL     1      -6.320   3.082 -31.713  1.00  0.00     0.176 A 
HETATM    3  N   UNL     1      -6.900   4.133 -30.892  1.00  0.00    -0.277 N 
HETATM    4  C   UNL     1      -8.246   4.302 -30.819  1.00  0.00     0.177 A 
HETATM    5  S   UNL     1      -8.661   5.664 -29.822  1.00  0.00    -0.046 SA
HETATM    6  C   UNL     1      -7.018   5.895 -29.337  1.00  0.00     0.077 C 
HETATM    7  C   UNL     1      -6.651   6.852 -28.473  1.00  0.00     0.036 C 
HETATM    8  C   UNL     1      -6.151   4.874 -30.007  1.00  0.00     0.267 C 
HETATM    9  O   UNL     1      -4.972   4.685 -29.748  1.00  0.00    -0.266 OA
HETATM   10  N   UNL     1      -9.140   3.561 -31.371  1.00  0.00    -0.228 NA
HETATM   11  C   UNL     1      -8.712   2.491 -32.124  1.00  0.00     0.047 A 
HETATM   12  C   UNL     1      -9.842   1.665 -32.687  1.00  0.00     0.071 C 
ENDROOT
BRANCH   7  13
HETATM   13  C   UNL     1      -5.290   7.069 -27.984  1.00  0.00    -0.032 A 
HETATM   14  C   UNL     1      -4.410   7.910 -28.680  1.00  0.00     0.051 A 
HETATM   15  C   UNL     1      -3.105   8.105 -28.214  1.00  0.00     0.102 A 
HETATM   16  C   UNL     1      -2.680   7.423 -27.061  1.00  0.00     0.102 A 
HETATM   17  C   UNL     1      -3.567   6.613 -26.348  1.00  0.00     0.040 A 
HETATM   18  C   UNL     1      -4.869   6.435 -26.812  1.00  0.00     0.014 A 
BRANCH  15  19
HETATM   19  O   UNL     1      -2.165   8.898 -28.825  1.00  0.00    -0.353 OA
HETATM   20  C   UNL     1      -1.898   8.632 -30.197  1.00  0.00     0.210 C 
ENDBRANCH  15  19
BRANCH  16  21
HETATM   21  O   UNL     1      -1.393   7.637 -26.636  1.00  0.00    -0.339 OA
BRANCH  21  22
HETATM   22  C   UNL     1      -0.578   6.463 -26.660  1.00  0.00     0.278 C 
BRANCH  22  23
HETATM   23  C   UNL     1       0.256   6.447 -27.935  1.00  0.00     0.239 C 
HETATM   24  N   UNL     1       0.300   5.249 -28.590  1.00  0.00    -0.368 N 
HETATM   25  H   UNL     1      -0.367   4.524 -28.341  1.00  0.00     0.159 HD
HETATM   26  H   UNL     1       0.781   5.201 -29.477  1.00  0.00     0.159 HD
HETATM   27  O   UNL     1       0.900   7.413 -28.334  1.00  0.00    -0.271 OA
ENDBRANCH  22  23
ENDBRANCH  21  22
ENDBRANCH  16  21
ENDBRANCH   7  13
BRANCH   2  28
HETATM   28  C   UNL     1      -5.404   3.719 -32.741  1.00  0.00     0.011 A 
HETATM   29  S   UNL     1      -6.039   4.850 -33.869  1.00  0.00    -0.104 SA
HETATM   30  C   UNL     1      -4.507   5.111 -34.573  1.00  0.00     0.050 A 
HETATM   31  C   UNL     1      -3.524   4.363 -33.967  1.00  0.00     0.008 A 
HETATM   32  C   UNL     1      -4.039   3.557 -32.910  1.00  0.00     0.017 A 
ENDBRANCH   2  28
BRANCH   1  33
HETATM   33  C   UNL     1      -6.994   1.184 -33.308  1.00  0.00     0.256 C 
HETATM   34  N   UNL     1      -6.721  -0.050 -32.754  1.00  0.00    -0.323 N 
HETATM   35  H   UNL     1      -6.874  -0.167 -31.764  1.00  0.00     0.169 HD
HETATM   36  O   UNL     1      -6.898   1.497 -34.488  1.00  0.00    -0.267 OA
BRANCH  34  37
HETATM   37  C   UNL     1      -6.197  -1.190 -33.420  1.00  0.00     0.041 A 
HETATM   38  C   UNL     1      -4.801  -1.412 -33.396  1.00  0.00    -0.035 A 
HETATM   39  C   UNL     1      -3.844  -0.486 -32.696  1.00  0.00     0.050 C 
HETATM   40  C   UNL     1      -4.268  -2.535 -34.060  1.00  0.00     0.009 A 
HETATM   41  C   UNL     1      -5.095  -3.426 -34.738  1.00  0.00     0.001 A 
HETATM   42  C   UNL     1      -6.465  -3.207 -34.762  1.00  0.00     0.002 A 
HETATM   43  C   UNL     1      -7.010  -2.099 -34.109  1.00  0.00     0.030 A 
ENDBRANCH  34  37
ENDBRANCH   1  33
TORSDOF 8
ENDMDL
MODEL 2
REMARK VINA RESULT:      -8.6      5.703      9.906
REMARK  8 active torsions:
REMARK  status: ('A' for Active; 'I' for Inactive)
REMARK    1  A    between atoms: C_3  and  N_4 
REMARK       I    between atoms: N_4  and  C_5 
REMARK    2  A    between atoms: C_5  and  C_6 
REMARK    3  A    between atoms: C_7  and  C_8 
REMARK    4  A    between atoms: C_17  and  C_18 
REMARK    5  A    between atoms: C_20  and  O_21 
REMARK    6  A    between atoms: C_23  and  O_24 
REMARK    7  A    between atoms: O_24  and  C_25 
REMARK    8  A    between atoms: C_25  and  C_26 
REMARK       I    between atoms: C_26  and  N_27 
ROOT
HETATM    1  C   UNL     1     -11.876   4.613 -31.695  1.00  0.00     0.062 A 
HETATM    2  C   UNL     1     -11.137   3.391 -32.178  1.00  0.00     0.176 A 
HETATM    3  N   UNL     1      -9.837   3.762 -32.718  1.00  0.00    -0.277 N 
HETATM    4  C   UNL     1      -9.468   5.064 -32.823  1.00  0.00     0.177 A 
HETATM    5  S   UNL     1      -7.900   5.223 -33.556  1.00  0.00    -0.046 SA
HETATM    6  C   UNL     1      -7.650   3.513 -33.545  1.00  0.00     0.077 C 
HETATM    7  C   UNL     1      -6.517   2.950 -33.990  1.00  0.00     0.036 C 
HETATM    8  C   UNL     1      -8.851   2.835 -32.964  1.00  0.00     0.267 C 
HETATM    9  O   UNL     1      -8.912   1.647 -32.684  1.00  0.00    -0.266 OA
HETATM   10  N   UNL     1     -10.141   6.084 -32.420  1.00  0.00    -0.228 NA
HETATM   11  C   UNL     1     -11.364   5.855 -31.830  1.00  0.00     0.047 A 
HETATM   12  C   UNL     1     -12.046   7.114 -31.355  1.00  0.00     0.071 C 
ENDROOT
BRANCH   7  13
HETATM   13  C   UNL     1      -6.220   1.518 -33.962  1.00  0.00    -0.032 A 
HETATM   14  C   UNL     1      -5.411   0.979 -32.952  1.00  0.00     0.051 A 
HETATM   15  C   UNL     1      -5.121  -0.390 -32.937  1.00  0.00     0.102 A 
HETATM   16  C   UNL     1      -5.624  -1.209 -33.961  1.00  0.00     0.102 A 
HETATM   17  C   UNL     1      -6.460  -0.678 -34.948  1.00  0.00     0.040 A 
HETATM   18  C   UNL     1      -6.754   0.684 -34.948  1.00  0.00     0.014 A 
BRANCH  15  19
HETATM   19  O   UNL     1      -4.333  -1.013 -32.000  1.00  0.00    -0.353 OA
HETATM   20  C   UNL     1      -2.937  -0.743 -32.057  1.00  0.00     0.210 C 
ENDBRANCH  15  19
BRANCH  16  21
HETATM   21  O   UNL     1      -5.317  -2.545 -33.915  1.00  0.00    -0.339 OA
BRANCH  21  22
HETATM   22  C   UNL     1      -5.258  -3.166 -35.200  1.00  0.00     0.278 C 
BRANCH  22  23
HETATM   23  C   UNL     1      -5.795  -4.590 -35.104  1.00  0.00     0.239 C 
HETATM   24  N   UNL     1      -7.115  -4.738 -35.418  1.00  0.00    -0.368 N 
HETATM   25  H   UNL     1      -7.600  -3.982 -35.894  1.00  0.00     0.159 HD
HETATM   26  H   UNL     1      -7.505  -5.670 -35.437  1.00  0.00     0.159 HD
HETATM   27  O   UNL     1      -5.123  -5.541 -34.715  1.00  0.00    -0.271 OA
ENDBRANCH  22  23
ENDBRANCH  21  22
ENDBRANCH  16  21
ENDBRANCH   7  13
BRANCH   2  28
HETATM   28  C   UNL     1     -11.891   2.599 -33.229  1.00  0.00     0.011 A 
HETATM   29  S   UNL     1     -12.240   3.314 -34.752  1.00  0.00    -0.104 SA
HETATM   30  C   UNL     1     -12.992   1.893 -35.324  1.00  0.00     0.050 A 
HETATM   31  C   UNL     1     -12.978   0.887 -34.386  1.00  0.00     0.008 A 
HETATM   32  C   UNL     1     -12.344   1.292 -33.175  1.00  0.00     0.017 A 
ENDBRANCH   2  28
BRANCH   1  33
HETATM   33  C   UNL     1     -13.289   4.437 -31.242  1.00  0.00     0.256 C 
HETATM   34  N   UNL     1     -14.233   4.684 -32.218  1.00  0.00    -0.323 N 
HETATM   35  H   UNL     1     -13.905   4.896 -33.148  1.00  0.00     0.169 HD
HETATM   36  O   UNL     1     -13.501   4.134 -30.074  1.00  0.00    -0.267 OA
BRANCH  34  37
HETATM   37  C   UNL     1     -15.643   4.717 -32.056  1.00  0.00     0.041 A 
HETATM   38  C   UNL     1     -16.359   3.498 -32.066  1.00  0.00    -0.035 A 
HETATM   39  C   UNL     1     -15.687   2.163 -32.244  1.00  0.00     0.050 C 
HETATM   40  C   UNL     1     -17.760   3.517 -31.915  1.00  0.00     0.009 A 
HETATM   41  C   UNL     1     -18.447   4.718 -31.760  1.00  0.00     0.001 A 
HETATM   42  C   UNL     1     -17.744   5.915 -31.751  1.00  0.00     0.002 A 
HETATM   43  C   UNL     1     -16.355   5.913 -31.899  1.00  0.00     0.030 A 
ENDBRANCH  34  37
ENDBRANCH   1  33
TORSDOF 8
ENDMDL
MODEL 3
REMARK VINA RESULT:      -8.5      1.553      1.672
REMARK  8 active torsions:
REMARK  status: ('A' for Active; 'I' for Inactive)
REMARK    1  A    between atoms: C_3  and  N_4 
REMARK       I    between atoms: N_4  and  C_5 
REMARK    2  A    between atoms: C_5  and  C_6 
REMARK    3  A    between atoms: C_7  and  C_8 
REMARK    4  A    between atoms: C_17  and  C_18 
REMARK    5  A    between atoms: C_20  and  O_21 
REMARK    6  A    between atoms: C_23  and  O_24 
REMARK    7  A    between atoms: O_24  and  C_25 
REMARK    8  A    between atoms: C_25  and  C_26 
REMARK       I    between atoms: C_26  and  N_27 
ROOT
HETATM    1  C   UNL     1      -6.761   3.104 -32.472  1.00  0.00     0.062 A 
HETATM    2  C   UNL     1      -5.545   3.720 -31.828  1.00  0.00     0.176 A 
HETATM    3  N   UNL     1      -5.916   4.905 -31.070  1.00  0.00    -0.277 N 
HETATM    4  C   UNL     1      -7.191   5.373 -31.080  1.00  0.00     0.177 A 
HETATM    5  S   UNL     1      -7.340   6.830 -30.144  1.00  0.00    -0.046 SA
HETATM    6  C   UNL     1      -5.714   6.707 -29.570  1.00  0.00     0.077 C 
HETATM    7  C   UNL     1      -5.186   7.591 -28.712  1.00  0.00     0.036 C 
HETATM    8  C   UNL     1      -5.066   5.494 -30.162  1.00  0.00     0.267 C 
HETATM    9  O   UNL     1      -3.975   5.057 -29.830  1.00  0.00    -0.266 OA
HETATM   10  N   UNL     1      -8.199   4.829 -31.664  1.00  0.00    -0.228 NA
HETATM   11  C   UNL     1      -7.984   3.663 -32.363  1.00  0.00     0.047 A 
HETATM   12  C   UNL     1      -9.241   3.088 -32.970  1.00  0.00     0.071 C 
ENDROOT
BRANCH   7  13
HETATM   13  C   UNL     1      -3.838   7.517 -28.149  1.00  0.00    -0.032 A 
HETATM   14  C   UNL     1      -2.723   7.849 -28.932  1.00  0.00     0.051 A 
HETATM   15  C   UNL     1      -1.434   7.765 -28.392  1.00  0.00     0.102 A 
HETATM   16  C   UNL     1      -1.272   7.316 -27.071  1.00  0.00     0.102 A 
HETATM   17  C   UNL     1      -2.385   7.020 -26.281  1.00  0.00     0.040 A 
HETATM   18  C   UNL     1      -3.666   7.118 -26.821  1.00  0.00     0.014 A 
BRANCH  15  19
HETATM   19  O   UNL     1      -0.279   8.057 -29.076  1.00  0.00    -0.353 OA
HETATM   20  C   UNL     1       0.155   7.101 -30.036  1.00  0.00     0.210 C 
ENDBRANCH  15  19
BRANCH  16  21
HETATM   21  O   UNL     1       0.007   7.245 -26.578  1.00  0.00    -0.339 OA
BRANCH  21  22
HETATM   22  C   UNL     1       0.374   8.364 -25.769  1.00  0.00     0.278 C 
BRANCH  22  23
HETATM   23  C   UNL     1       1.781   8.819 -26.137  1.00  0.00     0.239 C 
HETATM   24  N   UNL     1       2.001   9.022 -27.469  1.00  0.00    -0.368 N 
HETATM   25  H   UNL     1       1.205   9.080 -28.099  1.00  0.00     0.159 HD
HETATM   26  H   UNL     1       2.895   9.390 -27.761  1.00  0.00     0.159 HD
HETATM   27  O   UNL     1       2.687   8.942 -25.317  1.00  0.00    -0.271 OA
ENDBRANCH  22  23
ENDBRANCH  21  22
ENDBRANCH  16  21
ENDBRANCH   7  13
BRANCH   2  28
HETATM   28  C   UNL     1      -4.458   4.098 -32.817  1.00  0.00     0.011 A 
HETATM   29  S   UNL     1      -4.766   5.295 -34.012  1.00  0.00    -0.104 SA
HETATM   30  C   UNL     1      -3.179   5.183 -34.631  1.00  0.00     0.050 A 
HETATM   31  C   UNL     1      -2.421   4.262 -33.945  1.00  0.00     0.008 A 
HETATM   32  C   UNL     1      -3.157   3.633 -32.899  1.00  0.00     0.017 A 
ENDBRANCH   2  28
BRANCH   1  33
HETATM   33  C   UNL     1      -6.546   1.961 -33.410  1.00  0.00     0.256 C 
HETATM   34  N   UNL     1      -6.416   0.735 -32.791  1.00  0.00    -0.323 N 
HETATM   35  H   UNL     1      -6.536   0.697 -31.790  1.00  0.00     0.169 HD
HETATM   36  O   UNL     1      -6.466   2.189 -34.611  1.00  0.00    -0.267 OA
BRANCH  34  37
HETATM   37  C   UNL     1      -6.085  -0.503 -33.402  1.00  0.00     0.041 A 
HETATM   38  C   UNL     1      -4.740  -0.937 -33.380  1.00  0.00    -0.035 A 
HETATM   39  C   UNL     1      -3.640  -0.137 -32.736  1.00  0.00     0.050 C 
HETATM   40  C   UNL     1      -4.397  -2.159 -33.991  1.00  0.00     0.009 A 
HETATM   41  C   UNL     1      -5.362  -2.943 -34.617  1.00  0.00     0.001 A 
HETATM   42  C   UNL     1      -6.683  -2.517 -34.640  1.00  0.00     0.002 A 
HETATM   43  C   UNL     1      -7.039  -1.307 -34.039  1.00  0.00     0.030 A 
ENDBRANCH  34  37
ENDBRANCH   1  33
TORSDOF 8
ENDMDL
MODEL 4
REMARK VINA RESULT:      -8.4      1.523      1.708
REMARK  8 active torsions:
REMARK  status: ('A' for Active; 'I' for Inactive)
REMARK    1  A    between atoms: C_3  and  N_4 
REMARK       I    between atoms: N_4  and  C_5 
REMARK    2  A    between atoms: C_5  and  C_6 
REMARK    3  A    between atoms: C_7  and  C_8 
REMARK    4  A    between atoms: C_17  and  C_18 
REMARK    5  A    between atoms: C_20  and  O_21 
REMARK    6  A    between atoms: C_23  and  O_24 
REMARK    7  A    between atoms: O_24  and  C_25 
REMARK    8  A    between atoms: C_25  and  C_26 
REMARK       I    between atoms: C_26  and  N_27 
ROOT
HETATM    1  C   UNL     1      -7.373   1.944 -31.382  1.00  0.00     0.062 A 
HETATM    2  C   UNL     1      -6.431   2.961 -30.790  1.00  0.00     0.176 A 
HETATM    3  N   UNL     1      -7.064   4.270 -30.735  1.00  0.00    -0.277 N 
HETATM    4  C   UNL     1      -8.300   4.473 -31.260  1.00  0.00     0.177 A 
HETATM    5  S   UNL     1      -8.787   6.135 -31.115  1.00  0.00    -0.046 SA
HETATM    6  C   UNL     1      -7.398   6.528 -30.163  1.00  0.00     0.077 C 
HETATM    7  C   UNL     1      -7.189   7.757 -29.670  1.00  0.00     0.036 C 
HETATM    8  C   UNL     1      -6.548   5.307 -29.992  1.00  0.00     0.267 C 
HETATM    9  O   UNL     1      -5.584   5.230 -29.246  1.00  0.00    -0.266 OA
HETATM   10  N   UNL     1      -9.064   3.580 -31.781  1.00  0.00    -0.228 NA
HETATM   11  C   UNL     1      -8.599   2.285 -31.830  1.00  0.00     0.047 A 
HETATM   12  C   UNL     1      -9.592   1.313 -32.418  1.00  0.00     0.071 C 
ENDROOT
BRANCH   7  13
HETATM   13  C   UNL     1      -6.064   8.142 -28.818  1.00  0.00    -0.032 A 
HETATM   14  C   UNL     1      -4.826   8.476 -29.384  1.00  0.00     0.051 A 
HETATM   15  C   UNL     1      -3.750   8.833 -28.563  1.00  0.00     0.102 A 
HETATM   16  C   UNL     1      -3.918   8.822 -27.168  1.00  0.00     0.102 A 
HETATM   17  C   UNL     1      -5.162   8.523 -26.606  1.00  0.00     0.040 A 
HETATM   18  C   UNL     1      -6.232   8.182 -27.431  1.00  0.00     0.014 A 
BRANCH  15  19
HETATM   19  O   UNL     1      -2.497   9.167 -29.016  1.00  0.00    -0.353 OA
HETATM   20  C   UNL     1      -2.391  10.358 -29.787  1.00  0.00     0.210 C 
ENDBRANCH  15  19
BRANCH  16  21
HETATM   21  O   UNL     1      -2.840   9.175 -26.396  1.00  0.00    -0.339 OA
BRANCH  21  22
HETATM   22  C   UNL     1      -2.529   8.224 -25.376  1.00  0.00     0.278 C 
BRANCH  22  23
HETATM   23  C   UNL     1      -1.853   7.008 -26.000  1.00  0.00     0.239 C 
HETATM   24  N   UNL     1      -2.473   5.813 -25.771  1.00  0.00    -0.368 N 
HETATM   25  H   UNL     1      -3.423   5.809 -25.409  1.00  0.00     0.159 HD
HETATM   26  H   UNL     1      -2.107   4.985 -26.219  1.00  0.00     0.159 HD
HETATM   27  O   UNL     1      -0.794   7.067 -26.619  1.00  0.00    -0.271 OA
ENDBRANCH  22  23
ENDBRANCH  21  22
ENDBRANCH  16  21
ENDBRANCH   7  13
BRANCH   2  28
HETATM   28  C   UNL     1      -5.119   3.088 -31.542  1.00  0.00     0.011 A 
HETATM   29  S   UNL     1      -5.105   3.738 -33.133  1.00  0.00    -0.104 SA
HETATM   30  C   UNL     1      -3.408   3.600 -33.248  1.00  0.00     0.050 A 
HETATM   31  C   UNL     1      -2.853   3.077 -32.103  1.00  0.00     0.008 A 
HETATM   32  C   UNL     1      -3.839   2.779 -31.117  1.00  0.00     0.017 A 
ENDBRANCH   2  28
BRANCH   1  33
HETATM   33  C   UNL     1      -6.837   0.575 -31.649  1.00  0.00     0.256 C 
HETATM   34  N   UNL     1      -6.585   0.313 -32.979  1.00  0.00    -0.323 N 
HETATM   35  H   UNL     1      -6.717   1.064 -33.641  1.00  0.00     0.169 HD
HETATM   36  O   UNL     1      -6.701  -0.200 -30.709  1.00  0.00    -0.267 OA
BRANCH  34  37
HETATM   37  C   UNL     1      -6.191  -0.927 -33.549  1.00  0.00     0.041 A 
HETATM   38  C   UNL     1      -4.818  -1.263 -33.570  1.00  0.00    -0.035 A 
HETATM   39  C   UNL     1      -3.753  -0.357 -33.014  1.00  0.00     0.050 C 
HETATM   40  C   UNL     1      -4.414  -2.486 -34.140  1.00  0.00     0.009 A 
HETATM   41  C   UNL     1      -5.346  -3.366 -34.685  1.00  0.00     0.001 A 
HETATM   42  C   UNL     1      -6.694  -3.035 -34.665  1.00  0.00     0.002 A 
HETATM   43  C   UNL     1      -7.111  -1.826 -34.104  1.00  0.00     0.030 A 
ENDBRANCH  34  37
ENDBRANCH   1  33
TORSDOF 8
ENDMDL
MODEL 5
REMARK VINA RESULT:      -8.3      1.384      1.981
REMARK  8 active torsions:
REMARK  status: ('A' for Active; 'I' for Inactive)
REMARK    1  A    between atoms: C_3  and  N_4 
REMARK       I    between atoms: N_4  and  C_5 
REMARK    2  A    between atoms: C_5  and  C_6 
REMARK    3  A    between atoms: C_7  and  C_8 
REMARK    4  A    between atoms: C_17  and  C_18 
REMARK    5  A    between atoms: C_20  and  O_21 
REMARK    6  A    between atoms: C_23  and  O_24 
REMARK    7  A    between atoms: O_24  and  C_25 
REMARK    8  A    between atoms: C_25  and  C_26 
REMARK       I    between atoms: C_26  and  N_27 
ROOT
HETATM    1  C   UNL     1      -6.892   3.240 -32.727  1.00  0.00     0.062 A 
HETATM    2  C   UNL     1      -5.784   4.013 -32.058  1.00  0.00     0.176 A 
HETATM    3  N   UNL     1      -6.309   5.218 -31.434  1.00  0.00    -0.277 N 
HETATM    4  C   UNL     1      -7.614   5.567 -31.573  1.00  0.00     0.177 A 
HETATM    5  S   UNL     1      -7.955   7.077 -30.782  1.00  0.00    -0.046 SA
HETATM    6  C   UNL     1      -6.373   7.147 -30.089  1.00  0.00     0.077 C 
HETATM    7  C   UNL     1      -5.988   8.143 -29.278  1.00  0.00     0.036 C 
HETATM    8  C   UNL     1      -5.583   5.953 -30.525  1.00  0.00     0.267 C 
HETATM    9  O   UNL     1      -4.487   5.644 -30.082  1.00  0.00    -0.266 OA
HETATM   10  N   UNL     1      -8.526   4.889 -32.174  1.00  0.00    -0.228 NA
HETATM   11  C   UNL     1      -8.162   3.693 -32.752  1.00  0.00     0.047 A 
HETATM   12  C   UNL     1      -9.317   2.960 -33.390  1.00  0.00     0.071 C 
ENDROOT
BRANCH   7  13
HETATM   13  C   UNL     1      -4.685   8.236 -28.620  1.00  0.00    -0.032 A 
HETATM   14  C   UNL     1      -4.540   7.869 -27.274  1.00  0.00     0.051 A 
HETATM   15  C   UNL     1      -3.293   7.971 -26.646  1.00  0.00     0.102 A 
HETATM   16  C   UNL     1      -2.200   8.475 -27.371  1.00  0.00     0.102 A 
HETATM   17  C   UNL     1      -2.336   8.808 -28.721  1.00  0.00     0.040 A 
HETATM   18  C   UNL     1      -3.578   8.691 -29.342  1.00  0.00     0.014 A 
BRANCH  15  19
HETATM   19  O   UNL     1      -3.049   7.647 -25.334  1.00  0.00    -0.353 OA
HETATM   20  C   UNL     1      -3.560   8.539 -24.350  1.00  0.00     0.210 C 
ENDBRANCH  15  19
BRANCH  16  21
HETATM   21  O   UNL     1      -0.995   8.564 -26.721  1.00  0.00    -0.339 OA
BRANCH  21  22
HETATM   22  C   UNL     1       0.067   7.873 -27.383  1.00  0.00     0.278 C 
BRANCH  22  23
HETATM   23  C   UNL     1      -0.127   6.370 -27.226  1.00  0.00     0.239 C 
HETATM   24  N   UNL     1      -0.029   5.644 -28.378  1.00  0.00    -0.368 N 
HETATM   25  H   UNL     1       0.371   6.079 -29.205  1.00  0.00     0.159 HD
HETATM   26  H   UNL     1      -0.080   4.637 -28.320  1.00  0.00     0.159 HD
HETATM   27  O   UNL     1      -0.413   5.833 -26.159  1.00  0.00    -0.271 OA
ENDBRANCH  22  23
ENDBRANCH  21  22
ENDBRANCH  16  21
ENDBRANCH   7  13
BRANCH   2  28
HETATM   28  C   UNL     1      -4.660   4.404 -32.999  1.00  0.00     0.011 A 
HETATM   29  S   UNL     1      -3.077   3.785 -32.745  1.00  0.00    -0.104 SA
HETATM   30  C   UNL     1      -2.469   4.583 -34.125  1.00  0.00     0.050 A 
HETATM   31  C   UNL     1      -3.443   5.303 -34.777  1.00  0.00     0.008 A 
HETATM   32  C   UNL     1      -4.709   5.204 -34.128  1.00  0.00     0.017 A 
ENDBRANCH   2  28
BRANCH   1  33
HETATM   33  C   UNL     1      -6.511   2.047 -33.543  1.00  0.00     0.256 C 
HETATM   34  N   UNL     1      -6.318   0.895 -32.809  1.00  0.00    -0.323 N 
HETATM   35  H   UNL     1      -6.504   0.930 -31.818  1.00  0.00     0.169 HD
HETATM   36  O   UNL     1      -6.367   2.181 -34.753  1.00  0.00    -0.267 OA
BRANCH  34  37
HETATM   37  C   UNL     1      -5.837  -0.353 -33.286  1.00  0.00     0.041 A 
HETATM   38  C   UNL     1      -4.594  -0.831 -32.813  1.00  0.00    -0.035 A 
HETATM   39  C   UNL     1      -3.754  -0.067 -31.824  1.00  0.00     0.050 C 
HETATM   40  C   UNL     1      -4.101  -2.064 -33.284  1.00  0.00     0.009 A 
HETATM   41  C   UNL     1      -4.820  -2.816 -34.209  1.00  0.00     0.001 A 
HETATM   42  C   UNL     1      -6.040  -2.347 -34.675  1.00  0.00     0.002 A 
HETATM   43  C   UNL     1      -6.543  -1.126 -34.217  1.00  0.00     0.030 A 
ENDBRANCH  34  37
ENDBRANCH   1  33
TORSDOF 8
ENDMDL
MODEL 6
REMARK VINA RESULT:      -8.2      3.419      4.410
REMARK  8 active torsions:
REMARK  status: ('A' for Active; 'I' for Inactive)
REMARK    1  A    between atoms: C_3  and  N_4 
REMARK       I    between atoms: N_4  and  C_5 
REMARK    2  A    between atoms: C_5  and  C_6 
REMARK    3  A    between atoms: C_7  and  C_8 
REMARK    4  A    between atoms: C_17  and  C_18 
REMARK    5  A    between atoms: C_20  and  O_21 
REMARK    6  A    between atoms: C_23  and  O_24 
REMARK    7  A    between atoms: O_24  and  C_25 
REMARK    8  A    between atoms: C_25  and  C_26 
REMARK       I    between atoms: C_26  and  N_27 
ROOT
HETATM    1  C   UNL     1      -8.541   1.663 -31.726  1.00  0.00     0.062 A 
HETATM    2  C   UNL     1      -8.083   2.882 -30.967  1.00  0.00     0.176 A 
HETATM    3  N   UNL     1      -9.062   3.953 -31.084  1.00  0.00    -0.277 N 
HETATM    4  C   UNL     1     -10.159   3.815 -31.871  1.00  0.00     0.177 A 
HETATM    5  S   UNL     1     -11.123   5.262 -31.876  1.00  0.00    -0.046 SA
HETATM    6  C   UNL     1     -10.146   5.996 -30.653  1.00  0.00     0.077 C 
HETATM    7  C   UNL     1     -10.410   7.212 -30.156  1.00  0.00     0.036 C 
HETATM    8  C   UNL     1      -9.039   5.063 -30.271  1.00  0.00     0.267 C 
HETATM    9  O   UNL     1      -8.278   5.234 -29.331  1.00  0.00    -0.266 OA
HETATM   10  N   UNL     1     -10.503   2.762 -32.524  1.00  0.00    -0.228 NA
HETATM   11  C   UNL     1      -9.686   1.658 -32.440  1.00  0.00     0.047 A 
HETATM   12  C   UNL     1     -10.206   0.467 -33.207  1.00  0.00     0.071 C 
ENDROOT
BRANCH   7  13
HETATM   13  C   UNL     1      -9.656   7.868 -29.088  1.00  0.00    -0.032 A 
HETATM   14  C   UNL     1     -10.144   7.874 -27.774  1.00  0.00     0.051 A 
HETATM   15  C   UNL     1      -9.424   8.512 -26.757  1.00  0.00     0.102 A 
HETATM   16  C   UNL     1      -8.227   9.173 -27.077  1.00  0.00     0.102 A 
HETATM   17  C   UNL     1      -7.723   9.137 -28.380  1.00  0.00     0.040 A 
HETATM   18  C   UNL     1      -8.439   8.487 -29.383  1.00  0.00     0.014 A 
BRANCH  15  19
HETATM   19  O   UNL     1      -9.819   8.583 -25.444  1.00  0.00    -0.353 OA
HETATM   20  C   UNL     1     -11.154   9.011 -25.199  1.00  0.00     0.210 C 
ENDBRANCH  15  19
BRANCH  16  21
HETATM   21  O   UNL     1      -7.550   9.790 -26.056  1.00  0.00    -0.339 OA
BRANCH  21  22
HETATM   22  C   UNL     1      -6.132   9.809 -26.234  1.00  0.00     0.278 C 
BRANCH  22  23
HETATM   23  C   UNL     1      -5.446   9.715 -24.876  1.00  0.00     0.239 C 
HETATM   24  N   UNL     1      -5.331  10.893 -24.196  1.00  0.00    -0.368 N 
HETATM   25  H   UNL     1      -5.875  11.696 -24.500  1.00  0.00     0.159 HD
HETATM   26  H   UNL     1      -4.946  10.876 -23.262  1.00  0.00     0.159 HD
HETATM   27  O   UNL     1      -4.970   8.674 -24.431  1.00  0.00    -0.271 OA
ENDBRANCH  22  23
ENDBRANCH  21  22
ENDBRANCH  16  21
ENDBRANCH   7  13
BRANCH   2  28
HETATM   28  C   UNL     1      -6.733   3.408 -31.418  1.00  0.00     0.011 A 
HETATM   29  S   UNL     1      -5.385   3.328 -30.353  1.00  0.00    -0.104 SA
HETATM   30  C   UNL     1      -4.340   4.010 -31.516  1.00  0.00     0.050 A 
HETATM   31  C   UNL     1      -4.990   4.291 -32.696  1.00  0.00     0.008 A 
HETATM   32  C   UNL     1      -6.372   3.946 -32.641  1.00  0.00     0.017 A 
ENDBRANCH   2  28
BRANCH   1  33
HETATM   33  C   UNL     1      -7.590   0.516 -31.836  1.00  0.00     0.256 C 
HETATM   34  N   UNL     1      -7.129   0.281 -33.115  1.00  0.00    -0.323 N 
HETATM   35  H   UNL     1      -7.411   0.921 -33.843  1.00  0.00     0.169 HD
HETATM   36  O   UNL     1      -7.327  -0.132 -30.830  1.00  0.00    -0.267 OA
BRANCH  34  37
HETATM   37  C   UNL     1      -6.320  -0.802 -33.549  1.00  0.00     0.041 A 
HETATM   38  C   UNL     1      -4.932  -0.766 -33.281  1.00  0.00    -0.035 A 
HETATM   39  C   UNL     1      -4.275   0.377 -32.556  1.00  0.00     0.050 C 
HETATM   40  C   UNL     1      -4.116  -1.830 -33.714  1.00  0.00     0.009 A 
HETATM   41  C   UNL     1      -4.657  -2.913 -34.402  1.00  0.00     0.001 A 
HETATM   42  C   UNL     1      -6.019  -2.948 -34.666  1.00  0.00     0.002 A 
HETATM   43  C   UNL     1      -6.841  -1.900 -34.244  1.00  0.00     0.030 A 
ENDBRANCH  34  37
ENDBRANCH   1  33
TORSDOF 8
ENDMDL
MODEL 7
REMARK VINA RESULT:      -7.8      5.922      9.531
REMARK  8 active torsions:
REMARK  status: ('A' for Active; 'I' for Inactive)
REMARK    1  A    between atoms: C_3  and  N_4 
REMARK       I    between atoms: N_4  and  C_5 
REMARK    2  A    between atoms: C_5  and  C_6 
REMARK    3  A    between atoms: C_7  and  C_8 
REMARK    4  A    between atoms: C_17  and  C_18 
REMARK    5  A    between atoms: C_20  and  O_21 
REMARK    6  A    between atoms: C_23  and  O_24 
REMARK    7  A    between atoms: O_24  and  C_25 
REMARK    8  A    between atoms: C_25  and  C_26 
REMARK       I    between atoms: C_26  and  N_27 
ROOT
HETATM    1  C   UNL     1      -7.796   3.302 -32.352  1.00  0.00     0.062 A 
HETATM    2  C   UNL     1      -8.726   3.848 -33.405  1.00  0.00     0.176 A 
HETATM    3  N   UNL     1      -9.048   5.240 -33.129  1.00  0.00    -0.277 N 
HETATM    4  C   UNL     1      -8.605   5.850 -32.000  1.00  0.00     0.177 A 
HETATM    5  S   UNL     1      -9.186   7.485 -31.892  1.00  0.00    -0.046 SA
HETATM    6  C   UNL     1      -9.873   7.415 -33.477  1.00  0.00     0.077 C 
HETATM    7  C   UNL     1     -10.492   8.463 -34.039  1.00  0.00     0.036 C 
HETATM    8  C   UNL     1      -9.638   6.058 -34.065  1.00  0.00     0.267 C 
HETATM    9  O   UNL     1      -9.870   5.753 -35.225  1.00  0.00    -0.266 OA
HETATM   10  N   UNL     1      -7.830   5.340 -31.110  1.00  0.00    -0.228 NA
HETATM   11  C   UNL     1      -7.404   4.044 -31.295  1.00  0.00     0.047 A 
HETATM   12  C   UNL     1      -6.464   3.562 -30.217  1.00  0.00     0.071 C 
ENDROOT
BRANCH   7  13
HETATM   13  C   UNL     1     -11.049   8.487 -35.391  1.00  0.00    -0.032 A 
HETATM   14  C   UNL     1     -12.302   7.915 -35.653  1.00  0.00     0.051 A 
HETATM   15  C   UNL     1     -12.826   7.931 -36.951  1.00  0.00     0.102 A 
HETATM   16  C   UNL     1     -12.067   8.496 -37.990  1.00  0.00     0.102 A 
HETATM   17  C   UNL     1     -10.835   9.097 -37.722  1.00  0.00     0.040 A 
HETATM   18  C   UNL     1     -10.326   9.089 -36.424  1.00  0.00     0.014 A 
BRANCH  15  19
HETATM   19  O   UNL     1     -14.036   7.391 -37.314  1.00  0.00    -0.353 OA
HETATM   20  C   UNL     1     -15.137   7.652 -36.452  1.00  0.00     0.210 C 
ENDBRANCH  15  19
BRANCH  16  21
HETATM   21  O   UNL     1     -12.612   8.490 -39.249  1.00  0.00    -0.339 OA
BRANCH  21  22
HETATM   22  C   UNL     1     -13.072   9.772 -39.682  1.00  0.00     0.278 C 
BRANCH  22  23
HETATM   23  C   UNL     1     -14.595   9.806 -39.646  1.00  0.00     0.239 C 
HETATM   24  N   UNL     1     -15.214   8.635 -39.978  1.00  0.00    -0.368 N 
HETATM   25  H   UNL     1     -14.668   7.778 -40.012  1.00  0.00     0.159 HD
HETATM   26  H   UNL     1     -16.220   8.582 -39.904  1.00  0.00     0.159 HD
HETATM   27  O   UNL     1     -15.243  10.819 -39.398  1.00  0.00    -0.271 OA
ENDBRANCH  22  23
ENDBRANCH  21  22
ENDBRANCH  16  21
ENDBRANCH   7  13
BRANCH   2  28
HETATM   28  C   UNL     1     -10.021   3.067 -33.538  1.00  0.00     0.011 A 
HETATM   29  S   UNL     1     -11.289   3.315 -32.404  1.00  0.00    -0.104 SA
HETATM   30  C   UNL     1     -12.311   2.207 -33.203  1.00  0.00     0.050 A 
HETATM   31  C   UNL     1     -11.713   1.660 -34.315  1.00  0.00     0.008 A 
HETATM   32  C   UNL     1     -10.390   2.153 -34.509  1.00  0.00     0.017 A 
ENDBRANCH   2  28
BRANCH   1  33
HETATM   33  C   UNL     1      -7.476   1.843 -32.396  1.00  0.00     0.256 C 
HETATM   34  N   UNL     1      -6.386   1.524 -33.179  1.00  0.00    -0.323 N 
HETATM   35  H   UNL     1      -5.867   2.283 -33.596  1.00  0.00     0.169 HD
HETATM   36  O   UNL     1      -8.198   1.061 -31.789  1.00  0.00    -0.267 OA
BRANCH  34  37
HETATM   37  C   UNL     1      -5.919   0.225 -33.509  1.00  0.00     0.041 A 
HETATM   38  C   UNL     1      -6.553  -0.481 -34.558  1.00  0.00    -0.035 A 
HETATM   39  C   UNL     1      -7.707   0.088 -35.338  1.00  0.00     0.050 C 
HETATM   40  C   UNL     1      -6.105  -1.775 -34.890  1.00  0.00     0.009 A 
HETATM   41  C   UNL     1      -5.050  -2.368 -34.200  1.00  0.00     0.001 A 
HETATM   42  C   UNL     1      -4.429  -1.675 -33.170  1.00  0.00     0.002 A 
HETATM   43  C   UNL     1      -4.861  -0.391 -32.828  1.00  0.00     0.030 A 
ENDBRANCH  34  37
ENDBRANCH   1  33
TORSDOF 8
ENDMDL
MODEL 8
REMARK VINA RESULT:      -7.8      2.277      3.026
REMARK  8 active torsions:
REMARK  status: ('A' for Active; 'I' for Inactive)
REMARK    1  A    between atoms: C_3  and  N_4 
REMARK       I    between atoms: N_4  and  C_5 
REMARK    2  A    between atoms: C_5  and  C_6 
REMARK    3  A    between atoms: C_7  and  C_8 
REMARK    4  A    between atoms: C_17  and  C_18 
REMARK    5  A    between atoms: C_20  and  O_21 
REMARK    6  A    between atoms: C_23  and  O_24 
REMARK    7  A    between atoms: O_24  and  C_25 
REMARK    8  A    between atoms: C_25  and  C_26 
REMARK       I    between atoms: C_26  and  N_27 
ROOT
HETATM    1  C   UNL     1      -7.541   2.574 -32.040  1.00  0.00     0.062 A 
HETATM    2  C   UNL     1      -6.694   3.555 -31.270  1.00  0.00     0.176 A 
HETATM    3  N   UNL     1      -7.200   4.909 -31.439  1.00  0.00    -0.277 N 
HETATM    4  C   UNL     1      -8.238   5.168 -32.275  1.00  0.00     0.177 A 
HETATM    5  S   UNL     1      -8.595   6.869 -32.335  1.00  0.00    -0.046 SA
HETATM    6  C   UNL     1      -7.465   7.217 -31.074  1.00  0.00     0.077 C 
HETATM    7  C   UNL     1      -7.279   8.457 -30.598  1.00  0.00     0.036 C 
HETATM    8  C   UNL     1      -6.799   5.950 -30.635  1.00  0.00     0.267 C 
HETATM    9  O   UNL     1      -6.068   5.850 -29.661  1.00  0.00    -0.266 OA
HETATM   10  N   UNL     1      -8.922   4.303 -32.936  1.00  0.00    -0.228 NA
HETATM   11  C   UNL     1      -8.577   2.976 -32.806  1.00  0.00     0.047 A 
HETATM   12  C   UNL     1      -9.471   2.045 -33.588  1.00  0.00     0.071 C 
ENDROOT
BRANCH   7  13
HETATM   13  C   UNL     1      -6.379   8.812 -29.502  1.00  0.00    -0.032 A 
HETATM   14  C   UNL     1      -6.869   8.946 -28.195  1.00  0.00     0.051 A 
HETATM   15  C   UNL     1      -6.006   9.297 -27.151  1.00  0.00     0.102 A 
HETATM   16  C   UNL     1      -4.652   9.544 -27.435  1.00  0.00     0.102 A 
HETATM   17  C   UNL     1      -4.157   9.376 -28.730  1.00  0.00     0.040 A 
HETATM   18  C   UNL     1      -5.021   9.013 -29.762  1.00  0.00     0.014 A 
BRANCH  15  19
HETATM   19  O   UNL     1      -6.387   9.463 -25.842  1.00  0.00    -0.353 OA
HETATM   20  C   UNL     1      -7.374  10.455 -25.584  1.00  0.00     0.210 C 
ENDBRANCH  15  19
BRANCH  16  21
HETATM   21  O   UNL     1      -3.837   9.889 -26.387  1.00  0.00    -0.339 OA
BRANCH  21  22
HETATM   22  C   UNL     1      -2.665   9.078 -26.280  1.00  0.00     0.278 C 
BRANCH  22  23
HETATM   23  C   UNL     1      -2.907   7.961 -25.271  1.00  0.00     0.239 C 
HETATM   24  N   UNL     1      -3.885   8.207 -24.351  1.00  0.00    -0.368 N 
HETATM   25  H   UNL     1      -4.528   8.979 -24.505  1.00  0.00     0.159 HD
HETATM   26  H   UNL     1      -4.134   7.473 -23.703  1.00  0.00     0.159 HD
HETATM   27  O   UNL     1      -2.241   6.931 -25.232  1.00  0.00    -0.271 OA
ENDBRANCH  22  23
ENDBRANCH  21  22
ENDBRANCH  16  21
ENDBRANCH   7  13
BRANCH   2  28
HETATM   28  C   UNL     1      -5.228   3.532 -31.662  1.00  0.00     0.011 A 
HETATM   29  S   UNL     1      -4.729   4.234 -33.149  1.00  0.00    -0.104 SA
HETATM   30  C   UNL     1      -3.089   3.874 -32.847  1.00  0.00     0.050 A 
HETATM   31  C   UNL     1      -2.913   3.239 -31.640  1.00  0.00     0.008 A 
HETATM   32  C   UNL     1      -4.146   3.039 -30.954  1.00  0.00     0.017 A 
ENDBRANCH   2  28
BRANCH   1  33
HETATM   33  C   UNL     1      -7.081   1.154 -32.098  1.00  0.00     0.256 C 
HETATM   34  N   UNL     1      -6.211   0.881 -33.134  1.00  0.00    -0.323 N 
HETATM   35  H   UNL     1      -5.913   1.650 -33.715  1.00  0.00     0.169 HD
HETATM   36  O   UNL     1      -7.519   0.357 -31.278  1.00  0.00    -0.267 OA
BRANCH  34  37
HETATM   37  C   UNL     1      -5.705  -0.390 -33.515  1.00  0.00     0.041 A 
HETATM   38  C   UNL     1      -6.318  -1.074 -34.589  1.00  0.00    -0.035 A 
HETATM   39  C   UNL     1      -7.491  -0.512 -35.345  1.00  0.00     0.050 C 
HETATM   40  C   UNL     1      -5.831  -2.340 -34.971  1.00  0.00     0.009 A 
HETATM   41  C   UNL     1      -4.757  -2.925 -34.306  1.00  0.00     0.001 A 
HETATM   42  C   UNL     1      -4.155  -2.254 -33.251  1.00  0.00     0.002 A 
HETATM   43  C   UNL     1      -4.627  -0.998 -32.860  1.00  0.00     0.030 A 
ENDBRANCH  34  37
ENDBRANCH   1  33
TORSDOF 8
ENDMDL
MODEL 9
REMARK VINA RESULT:      -7.6      5.834      9.245
REMARK  8 active torsions:
REMARK  status: ('A' for Active; 'I' for Inactive)
REMARK    1  A    between atoms: C_3  and  N_4 
REMARK       I    between atoms: N_4  and  C_5 
REMARK    2  A    between atoms: C_5  and  C_6 
REMARK    3  A    between atoms: C_7  and  C_8 
REMARK    4  A    between atoms: C_17  and  C_18 
REMARK    5  A    between atoms: C_20  and  O_21 
REMARK    6  A    between atoms: C_23  and  O_24 
REMARK    7  A    between atoms: O_24  and  C_25 
REMARK    8  A    between atoms: C_25  and  C_26 
REMARK       I    between atoms: C_26  and  N_27 
ROOT
HETATM    1  C   UNL     1      -8.023   2.900 -32.404  1.00  0.00     0.062 A 
HETATM    2  C   UNL     1      -8.903   3.529 -33.453  1.00  0.00     0.176 A 
HETATM    3  N   UNL     1      -9.192   4.914 -33.111  1.00  0.00    -0.277 N 
HETATM    4  C   UNL     1      -8.766   5.449 -31.938  1.00  0.00     0.177 A 
HETATM    5  S   UNL     1      -9.302   7.093 -31.759  1.00  0.00    -0.046 SA
HETATM    6  C   UNL     1      -9.942   7.129 -33.365  1.00  0.00     0.077 C 
HETATM    7  C   UNL     1     -10.512   8.224 -33.887  1.00  0.00     0.036 C 
HETATM    8  C   UNL     1      -9.729   5.799 -34.018  1.00  0.00     0.267 C 
HETATM    9  O   UNL     1      -9.934   5.563 -35.199  1.00  0.00    -0.266 OA
HETATM   10  N   UNL     1      -8.034   4.869 -31.055  1.00  0.00    -0.228 NA
HETATM   11  C   UNL     1      -7.641   3.572 -31.297  1.00  0.00     0.047 A 
HETATM   12  C   UNL     1      -6.750   3.004 -30.220  1.00  0.00     0.071 C 
ENDROOT
BRANCH   7  13
HETATM   13  C   UNL     1     -11.027   8.338 -35.251  1.00  0.00    -0.032 A 
HETATM   14  C   UNL     1     -10.224   8.869 -36.271  1.00  0.00     0.051 A 
HETATM   15  C   UNL     1     -10.725   8.986 -37.573  1.00  0.00     0.102 A 
HETATM   16  C   UNL     1     -12.048   8.594 -37.836  1.00  0.00     0.102 A 
HETATM   17  C   UNL     1     -12.836   8.032 -36.828  1.00  0.00     0.040 A 
HETATM   18  C   UNL     1     -12.325   7.907 -35.537  1.00  0.00     0.014 A 
BRANCH  15  19
HETATM   19  O   UNL     1     -10.026   9.500 -38.638  1.00  0.00    -0.353 OA
HETATM   20  C   UNL     1      -9.371  10.746 -38.430  1.00  0.00     0.210 C 
ENDBRANCH  15  19
BRANCH  16  21
HETATM   21  O   UNL     1     -12.505   8.726 -39.123  1.00  0.00    -0.339 OA
BRANCH  21  22
HETATM   22  C   UNL     1     -13.256   9.921 -39.347  1.00  0.00     0.278 C 
BRANCH  22  23
HETATM   23  C   UNL     1     -14.713   9.566 -39.615  1.00  0.00     0.239 C 
HETATM   24  N   UNL     1     -15.404  10.465 -40.376  1.00  0.00    -0.368 N 
HETATM   25  H   UNL     1     -14.891  11.175 -40.892  1.00  0.00     0.159 HD
HETATM   26  H   UNL     1     -16.353  10.244 -40.642  1.00  0.00     0.159 HD
HETATM   27  O   UNL     1     -15.266   8.577 -39.141  1.00  0.00    -0.271 OA
ENDBRANCH  22  23
ENDBRANCH  21  22
ENDBRANCH  16  21
ENDBRANCH   7  13
BRANCH   2  28
HETATM   28  C   UNL     1     -10.216   2.798 -33.665  1.00  0.00     0.011 A 
HETATM   29  S   UNL     1     -11.539   3.091 -32.608  1.00  0.00    -0.104 SA
HETATM   30  C   UNL     1     -12.552   2.022 -33.471  1.00  0.00     0.050 A 
HETATM   31  C   UNL     1     -11.909   1.455 -34.546  1.00  0.00     0.008 A 
HETATM   32  C   UNL     1     -10.559   1.899 -34.660  1.00  0.00     0.017 A 
ENDBRANCH   2  28
BRANCH   1  33
HETATM   33  C   UNL     1      -7.744   1.436 -32.517  1.00  0.00     0.256 C 
HETATM   34  N   UNL     1      -6.722   1.119 -33.388  1.00  0.00    -0.323 N 
HETATM   35  H   UNL     1      -6.216   1.878 -33.818  1.00  0.00     0.169 HD
HETATM   36  O   UNL     1      -8.440   0.651 -31.884  1.00  0.00    -0.267 OA
BRANCH  34  37
HETATM   37  C   UNL     1      -6.314  -0.180 -33.793  1.00  0.00     0.041 A 
HETATM   38  C   UNL     1      -5.040  -0.649 -33.397  1.00  0.00    -0.035 A 
HETATM   39  C   UNL     1      -4.095   0.175 -32.566  1.00  0.00     0.050 C 
HETATM   40  C   UNL     1      -4.620  -1.932 -33.800  1.00  0.00     0.009 A 
HETATM   41  C   UNL     1      -5.439  -2.742 -34.582  1.00  0.00     0.001 A 
HETATM   42  C   UNL     1      -6.689  -2.281 -34.971  1.00  0.00     0.002 A 
HETATM   43  C   UNL     1      -7.121  -1.011 -34.580  1.00  0.00     0.030 A 
ENDBRANCH  34  37
ENDBRANCH   1  33
TORSDOF 8
ENDMDL
MODEL 10
REMARK VINA RESULT:      -7.1      3.790      9.565
REMARK  8 active torsions:
REMARK  status: ('A' for Active; 'I' for Inactive)
REMARK    1  A    between atoms: C_3  and  N_4 
REMARK       I    between atoms: N_4  and  C_5 
REMARK    2  A    between atoms: C_5  and  C_6 
REMARK    3  A    between atoms: C_7  and  C_8 
REMARK    4  A    between atoms: C_17  and  C_18 
REMARK    5  A    between atoms: C_20  and  O_21 
REMARK    6  A    between atoms: C_23  and  O_24 
REMARK    7  A    between atoms: O_24  and  C_25 
REMARK    8  A    between atoms: C_25  and  C_26 
REMARK       I    between atoms: C_26  and  N_27 
ROOT
HETATM    1  C   UNL     1      -5.457   7.317 -30.978  1.00  0.00     0.062 A 
HETATM    2  C   UNL     1      -6.425   6.332 -31.583  1.00  0.00     0.176 A 
HETATM    3  N   UNL     1      -7.763   6.540 -31.051  1.00  0.00    -0.277 N 
HETATM    4  C   UNL     1      -7.993   7.454 -30.074  1.00  0.00     0.177 A 
HETATM    5  S   UNL     1      -9.660   7.452 -29.582  1.00  0.00    -0.046 SA
HETATM    6  C   UNL     1     -10.098   6.348 -30.839  1.00  0.00     0.077 C 
HETATM    7  C   UNL     1     -11.360   5.940 -31.029  1.00  0.00     0.036 C 
HETATM    8  C   UNL     1      -8.880   5.981 -31.628  1.00  0.00     0.267 C 
HETATM    9  O   UNL     1      -8.892   5.342 -32.669  1.00  0.00    -0.266 OA
HETATM   10  N   UNL     1      -7.132   8.262 -29.565  1.00  0.00    -0.228 NA
HETATM   11  C   UNL     1      -5.839   8.203 -30.036  1.00  0.00     0.047 A 
HETATM   12  C   UNL     1      -4.924   9.223 -29.404  1.00  0.00     0.071 C 
ENDROOT
BRANCH   7  13
HETATM   13  C   UNL     1     -11.805   5.049 -32.101  1.00  0.00    -0.032 A 
HETATM   14  C   UNL     1     -12.229   5.574 -33.330  1.00  0.00     0.051 A 
HETATM   15  C   UNL     1     -12.665   4.718 -34.349  1.00  0.00     0.102 A 
HETATM   16  C   UNL     1     -12.701   3.334 -34.112  1.00  0.00     0.102 A 
HETATM   17  C   UNL     1     -12.245   2.809 -32.900  1.00  0.00     0.040 A 
HETATM   18  C   UNL     1     -11.801   3.667 -31.896  1.00  0.00     0.014 A 
BRANCH  15  19
HETATM   19  O   UNL     1     -13.108   5.130 -35.582  1.00  0.00    -0.353 OA
HETATM   20  C   UNL     1     -13.646   6.445 -35.661  1.00  0.00     0.210 C 
ENDBRANCH  15  19
BRANCH  16  21
HETATM   21  O   UNL     1     -13.137   2.527 -35.132  1.00  0.00    -0.339 OA
BRANCH  21  22
HETATM   22  C   UNL     1     -12.879   1.138 -34.917  1.00  0.00     0.278 C 
BRANCH  22  23
HETATM   23  C   UNL     1     -14.123   0.472 -34.339  1.00  0.00     0.239 C 
HETATM   24  N   UNL     1     -13.887  -0.521 -33.433  1.00  0.00    -0.368 N 
HETATM   25  H   UNL     1     -12.957  -0.617 -33.033  1.00  0.00     0.159 HD
HETATM   26  H   UNL     1     -14.675  -0.948 -32.968  1.00  0.00     0.159 HD
HETATM   27  O   UNL     1     -15.265   0.751 -34.693  1.00  0.00    -0.271 OA
ENDBRANCH  22  23
ENDBRANCH  21  22
ENDBRANCH  16  21
ENDBRANCH   7  13
BRANCH   2  28
HETATM   28  C   UNL     1      -6.035   4.882 -31.363  1.00  0.00     0.011 A 
HETATM   29  S   UNL     1      -6.021   4.232 -29.772  1.00  0.00    -0.104 SA
HETATM   30  C   UNL     1      -5.569   2.686 -30.335  1.00  0.00     0.050 A 
HETATM   31  C   UNL     1      -5.435   2.652 -31.704  1.00  0.00     0.008 A 
HETATM   32  C   UNL     1      -5.702   3.919 -32.300  1.00  0.00     0.017 A 
ENDBRANCH   2  28
BRANCH   1  33
HETATM   33  C   UNL     1      -4.007   7.153 -31.302  1.00  0.00     0.256 C 
HETATM   34  N   UNL     1      -3.266   6.559 -30.301  1.00  0.00    -0.323 N 
HETATM   35  H   UNL     1      -3.756   6.233 -29.482  1.00  0.00     0.169 HD
HETATM   36  O   UNL     1      -3.589   7.576 -32.373  1.00  0.00    -0.267 OA
BRANCH  34  37
HETATM   37  C   UNL     1      -1.857   6.383 -30.268  1.00  0.00     0.041 A 
HETATM   38  C   UNL     1      -1.287   5.309 -30.990  1.00  0.00    -0.035 A 
HETATM   39  C   UNL     1      -2.113   4.340 -31.792  1.00  0.00     0.050 C 
HETATM   40  C   UNL     1       0.109   5.118 -30.959  1.00  0.00     0.009 A 
HETATM   41  C   UNL     1       0.932   5.969 -30.226  1.00  0.00     0.001 A 
HETATM   42  C   UNL     1       0.372   7.022 -29.516  1.00  0.00     0.002 A 
HETATM   43  C   UNL     1      -1.010   7.225 -29.537  1.00  0.00     0.030 A 
ENDBRANCH  34  37
ENDBRANCH   1  33
TORSDOF 8
ENDMDL
