MODEL 1
REMARK VINA RESULT:      -8.5      0.000      0.000
REMARK  5 active torsions:
REMARK  status: ('A' for Active; 'I' for Inactive)
REMARK    1  A    between atoms: C_3  and  C_4 
REMARK    2  A    between atoms: C_4  and  N_5 
REMARK       I    between atoms: N_5  and  C_6 
REMARK    3  A    between atoms: C_6  and  C_7 
REMARK    4  A    between atoms: C_10  and  N_11 
REMARK       I    between atoms: N_11  and  C_12 
REMARK       I    between atoms: C_12  and  N_13 
REMARK    5  A    between atoms: N_13  and  C_14 
ROOT
HETATM    1  C   UNL     1      -7.480   0.402 -32.377  1.00  0.00     0.032 A 
HETATM    2  C   UNL     1      -7.967   1.281 -31.403  1.00  0.00     0.019 A 
HETATM    3  C   UNL     1      -9.238   1.856 -31.543  1.00  0.00     0.030 A 
HETATM    4  C   UNL     1     -10.031   1.565 -32.656  1.00  0.00     0.036 A 
HETATM    5  C   UNL     1      -9.556   0.656 -33.607  1.00  0.00     0.030 A 
HETATM    6  C   UNL     1      -8.292   0.077 -33.469  1.00  0.00     0.019 A 
ENDROOT
BRANCH   1   7
HETATM    7  C   UNL     1      -6.131  -0.223 -32.294  1.00  0.00     0.251 C 
HETATM    8  N   UNL     1      -5.418  -0.320 -33.470  1.00  0.00    -0.353 N 
HETATM    9  H   UNL     1      -5.900  -0.181 -34.347  1.00  0.00     0.163 HD
HETATM   10  O   UNL     1      -5.723  -0.656 -31.223  1.00  0.00    -0.268 OA
BRANCH   8  11
HETATM   11  C   UNL     1      -4.185  -1.079 -33.515  1.00  0.00     0.164 C 
BRANCH  11  12
HETATM   12  C   UNL     1      -4.437  -2.532 -33.798  1.00  0.00    -0.002 A 
HETATM   13  C   UNL     1      -5.377  -2.925 -34.763  1.00  0.00     0.012 A 
HETATM   14  C   UNL     1      -5.576  -4.277 -35.053  1.00  0.00     0.001 A 
HETATM   15  C   UNL     1      -4.831  -5.252 -34.391  1.00  0.00     0.003 A 
HETATM   16  C   UNL     1      -3.887  -4.874 -33.437  1.00  0.00     0.043 A 
HETATM   17  C   UNL     1      -3.696  -3.526 -33.152  1.00  0.00     0.124 A 
HETATM   18  F   UNL     1      -2.776  -3.187 -32.238  1.00  0.00    -0.205 F 
ENDBRANCH  11  12
ENDBRANCH   8  11
ENDBRANCH   1   7
BRANCH   4  19
HETATM   19  N   UNL     1     -11.306   2.123 -32.881  1.00  0.00    -0.309 N 
HETATM   20  C   UNL     1     -11.641   3.449 -32.942  1.00  0.00     0.325 C 
HETATM   21  N   UNL     1     -12.970   3.733 -33.121  1.00  0.00    -0.306 N 
HETATM   22  O   UNL     1     -10.851   4.390 -32.918  1.00  0.00    -0.247 OA
HETATM   23  H   UNL     1     -13.133   4.701 -33.368  1.00  0.00     0.171 HD
HETATM   24  H   UNL     1     -11.996   1.495 -33.266  1.00  0.00     0.170 HD
BRANCH  21  25
HETATM   25  C   UNL     1     -14.087   2.948 -32.913  1.00  0.00     0.072 A 
HETATM   26  C   UNL     1     -14.617   1.829 -33.592  1.00  0.00     0.169 A 
HETATM   27  N   UNL     1     -15.747   1.382 -33.038  1.00  0.00    -0.185 NA
HETATM   28  N   UNL     1     -15.918   2.184 -31.975  1.00  0.00    -0.287 N 
HETATM   29  H   UNL     1     -16.723   2.027 -31.378  1.00  0.00     0.188 HD
HETATM   30  C   UNL     1     -14.939   3.127 -31.848  1.00  0.00     0.140 A 
ENDBRANCH  21  25
ENDBRANCH   4  19
TORSDOF 5
ENDMDL
MODEL 2
REMARK VINA RESULT:      -8.5     12.964     15.268
REMARK  5 active torsions:
REMARK  status: ('A' for Active; 'I' for Inactive)
REMARK    1  A    between atoms: C_3  and  C_4 
REMARK    2  A    between atoms: C_4  and  N_5 
REMARK       I    between atoms: N_5  and  C_6 
REMARK    3  A    between atoms: C_6  and  C_7 
REMARK    4  A    between atoms: C_10  and  N_11 
REMARK       I    between atoms: N_11  and  C_12 
REMARK       I    between atoms: C_12  and  N_13 
REMARK    5  A    between atoms: N_13  and  C_14 
ROOT
HETATM    1  C   UNL     1       1.351   8.320 -26.228  1.00  0.00     0.032 A 
HETATM    2  C   UNL     1       0.557   7.174 -26.111  1.00  0.00     0.019 A 
HETATM    3  C   UNL     1       0.043   6.552 -27.258  1.00  0.00     0.030 A 
HETATM    4  C   UNL     1       0.312   7.068 -28.528  1.00  0.00     0.036 A 
HETATM    5  C   UNL     1       1.139   8.191 -28.641  1.00  0.00     0.030 A 
HETATM    6  C   UNL     1       1.656   8.812 -27.501  1.00  0.00     0.019 A 
ENDROOT
BRANCH   1   7
HETATM    7  C   UNL     1       1.907   9.037 -25.046  1.00  0.00     0.251 C 
HETATM    8  N   UNL     1       3.263   9.285 -25.052  1.00  0.00    -0.353 N 
HETATM    9  H   UNL     1       3.847   8.796 -25.715  1.00  0.00     0.163 HD
HETATM   10  O   UNL     1       1.172   9.340 -24.113  1.00  0.00    -0.268 OA
BRANCH   8  11
HETATM   11  C   UNL     1       3.914   9.805 -23.866  1.00  0.00     0.164 C 
BRANCH  11  12
HETATM   12  C   UNL     1       4.759   8.761 -23.194  1.00  0.00    -0.002 A 
HETATM   13  C   UNL     1       6.126   8.640 -23.489  1.00  0.00     0.012 A 
HETATM   14  C   UNL     1       6.916   7.697 -22.828  1.00  0.00     0.001 A 
HETATM   15  C   UNL     1       6.352   6.869 -21.858  1.00  0.00     0.003 A 
HETATM   16  C   UNL     1       4.998   6.985 -21.549  1.00  0.00     0.043 A 
HETATM   17  C   UNL     1       4.217   7.927 -22.212  1.00  0.00     0.124 A 
HETATM   18  F   UNL     1       2.920   8.026 -21.891  1.00  0.00    -0.205 F 
ENDBRANCH  11  12
ENDBRANCH   8  11
ENDBRANCH   1   7
BRANCH   4  19
HETATM   19  N   UNL     1      -0.189   6.516 -29.724  1.00  0.00    -0.309 N 
HETATM   20  C   UNL     1       0.204   5.358 -30.341  1.00  0.00     0.325 C 
HETATM   21  N   UNL     1      -0.407   5.067 -31.533  1.00  0.00    -0.306 N 
HETATM   22  O   UNL     1       0.997   4.537 -29.886  1.00  0.00    -0.247 OA
HETATM   23  H   UNL     1      -0.241   4.116 -31.835  1.00  0.00     0.171 HD
HETATM   24  H   UNL     1      -1.076   6.881 -30.036  1.00  0.00     0.170 HD
BRANCH  21  25
HETATM   25  C   UNL     1      -1.098   5.884 -32.406  1.00  0.00     0.072 A 
HETATM   26  C   UNL     1      -0.709   6.973 -33.216  1.00  0.00     0.169 A 
HETATM   27  N   UNL     1      -1.729   7.486 -33.909  1.00  0.00    -0.185 NA
HETATM   28  N   UNL     1      -2.764   6.697 -33.580  1.00  0.00    -0.287 N 
HETATM   29  H   UNL     1      -3.668   6.887 -34.001  1.00  0.00     0.188 HD
HETATM   30  C   UNL     1      -2.432   5.711 -32.696  1.00  0.00     0.140 A 
ENDBRANCH  21  25
ENDBRANCH   4  19
TORSDOF 5
ENDMDL
MODEL 3
REMARK VINA RESULT:      -8.4      5.561      8.577
REMARK  5 active torsions:
REMARK  status: ('A' for Active; 'I' for Inactive)
REMARK    1  A    between atoms: C_3  and  C_4 
REMARK    2  A    between atoms: C_4  and  N_5 
REMARK       I    between atoms: N_5  and  C_6 
REMARK    3  A    between atoms: C_6  and  C_7 
REMARK    4  A    between atoms: C_10  and  N_11 
REMARK       I    between atoms: N_11  and  C_12 
REMARK       I    between atoms: C_12  and  N_13 
REMARK    5  A    between atoms: N_13  and  C_14 
ROOT
HETATM    1  C   UNL     1      -5.302   2.050 -32.736  1.00  0.00     0.032 A 
HETATM    2  C   UNL     1      -5.582   3.418 -32.827  1.00  0.00     0.019 A 
HETATM    3  C   UNL     1      -4.676   4.358 -32.314  1.00  0.00     0.030 A 
HETATM    4  C   UNL     1      -3.489   3.945 -31.705  1.00  0.00     0.036 A 
HETATM    5  C   UNL     1      -3.196   2.577 -31.652  1.00  0.00     0.030 A 
HETATM    6  C   UNL     1      -4.094   1.637 -32.165  1.00  0.00     0.019 A 
ENDROOT
BRANCH   1   7
HETATM    7  C   UNL     1      -6.234   1.004 -33.242  1.00  0.00     0.251 C 
HETATM    8  N   UNL     1      -5.677  -0.018 -33.981  1.00  0.00    -0.353 N 
HETATM    9  H   UNL     1      -4.738   0.090 -34.335  1.00  0.00     0.163 HD
HETATM   10  O   UNL     1      -7.437   1.101 -33.027  1.00  0.00    -0.268 OA
BRANCH   8  11
HETATM   11  C   UNL     1      -6.529  -0.969 -34.667  1.00  0.00     0.164 C 
BRANCH  11  12
HETATM   12  C   UNL     1      -5.992  -2.368 -34.567  1.00  0.00    -0.002 A 
HETATM   13  C   UNL     1      -6.802  -3.474 -34.866  1.00  0.00     0.012 A 
HETATM   14  C   UNL     1      -6.284  -4.771 -34.815  1.00  0.00     0.001 A 
HETATM   15  C   UNL     1      -4.948  -4.977 -34.473  1.00  0.00     0.003 A 
HETATM   16  C   UNL     1      -4.130  -3.886 -34.182  1.00  0.00     0.043 A 
HETATM   17  C   UNL     1      -4.654  -2.598 -34.235  1.00  0.00     0.124 A 
HETATM   18  F   UNL     1      -3.845  -1.565 -33.960  1.00  0.00    -0.205 F 
ENDBRANCH  11  12
ENDBRANCH   8  11
ENDBRANCH   1   7
BRANCH   4  19
HETATM   19  N   UNL     1      -2.543   4.826 -31.143  1.00  0.00    -0.309 N 
HETATM   20  C   UNL     1      -1.423   5.343 -31.739  1.00  0.00     0.325 C 
HETATM   21  N   UNL     1      -0.632   6.141 -30.955  1.00  0.00    -0.306 N 
HETATM   22  O   UNL     1      -1.113   5.207 -32.920  1.00  0.00    -0.247 OA
HETATM   23  H   UNL     1       0.053   6.659 -31.491  1.00  0.00     0.171 HD
HETATM   24  H   UNL     1      -2.836   5.306 -30.306  1.00  0.00     0.170 HD
BRANCH  21  25
HETATM   25  C   UNL     1      -0.559   6.253 -29.581  1.00  0.00     0.072 A 
HETATM   26  C   UNL     1      -1.283   7.016 -28.638  1.00  0.00     0.169 A 
HETATM   27  N   UNL     1      -0.862   6.817 -27.387  1.00  0.00    -0.185 NA
HETATM   28  N   UNL     1       0.102   5.892 -27.520  1.00  0.00    -0.287 N 
HETATM   29  H   UNL     1       0.574   5.564 -26.683  1.00  0.00     0.188 HD
HETATM   30  C   UNL     1       0.308   5.509 -28.814  1.00  0.00     0.140 A 
ENDBRANCH  21  25
ENDBRANCH   4  19
TORSDOF 5
ENDMDL
MODEL 4
REMARK VINA RESULT:      -8.0      5.454      9.738
REMARK  5 active torsions:
REMARK  status: ('A' for Active; 'I' for Inactive)
REMARK    1  A    between atoms: C_3  and  C_4 
REMARK    2  A    between atoms: C_4  and  N_5 
REMARK       I    between atoms: N_5  and  C_6 
REMARK    3  A    between atoms: C_6  and  C_7 
REMARK    4  A    between atoms: C_10  and  N_11 
REMARK       I    between atoms: N_11  and  C_12 
REMARK       I    between atoms: C_12  and  N_13 
REMARK    5  A    between atoms: N_13  and  C_14 
ROOT
HETATM    1  C   UNL     1      -5.902   1.460 -32.230  1.00  0.00     0.032 A 
HETATM    2  C   UNL     1      -4.601   0.946 -32.173  1.00  0.00     0.019 A 
HETATM    3  C   UNL     1      -3.522   1.792 -31.878  1.00  0.00     0.030 A 
HETATM    4  C   UNL     1      -3.728   3.154 -31.644  1.00  0.00     0.036 A 
HETATM    5  C   UNL     1      -5.035   3.654 -31.664  1.00  0.00     0.030 A 
HETATM    6  C   UNL     1      -6.114   2.814 -31.952  1.00  0.00     0.019 A 
ENDROOT
BRANCH   1   7
HETATM    7  C   UNL     1      -7.085   0.616 -32.558  1.00  0.00     0.251 C 
HETATM    8  N   UNL     1      -8.324   1.210 -32.437  1.00  0.00    -0.353 N 
HETATM    9  H   UNL     1      -8.401   2.083 -31.934  1.00  0.00     0.163 HD
HETATM   10  O   UNL     1      -6.930  -0.557 -32.878  1.00  0.00    -0.268 OA
BRANCH   8  11
HETATM   11  C   UNL     1      -9.528   0.414 -32.553  1.00  0.00     0.164 C 
BRANCH  11  12
HETATM   12  C   UNL     1     -10.562   1.091 -33.407  1.00  0.00    -0.002 A 
HETATM   13  C   UNL     1     -10.290   2.317 -34.032  1.00  0.00     0.012 A 
HETATM   14  C   UNL     1     -11.240   2.920 -34.861  1.00  0.00     0.001 A 
HETATM   15  C   UNL     1     -12.469   2.300 -35.082  1.00  0.00     0.003 A 
HETATM   16  C   UNL     1     -12.749   1.077 -34.474  1.00  0.00     0.043 A 
HETATM   17  C   UNL     1     -11.798   0.484 -33.649  1.00  0.00     0.124 A 
HETATM   18  F   UNL     1     -12.086  -0.697 -33.083  1.00  0.00    -0.205 F 
ENDBRANCH  11  12
ENDBRANCH   8  11
ENDBRANCH   1   7
BRANCH   4  19
HETATM   19  N   UNL     1      -2.694   4.071 -31.369  1.00  0.00    -0.309 N 
HETATM   20  C   UNL     1      -1.828   4.649 -32.259  1.00  0.00     0.325 C 
HETATM   21  N   UNL     1      -0.871   5.473 -31.728  1.00  0.00    -0.306 N 
HETATM   22  O   UNL     1      -1.883   4.544 -33.482  1.00  0.00    -0.247 OA
HETATM   23  H   UNL     1      -0.401   6.030 -32.431  1.00  0.00     0.171 HD
HETATM   24  H   UNL     1      -2.740   4.525 -30.469  1.00  0.00     0.170 HD
BRANCH  21  25
HETATM   25  C   UNL     1      -0.391   5.570 -30.437  1.00  0.00     0.072 A 
HETATM   26  C   UNL     1      -0.760   6.367 -29.331  1.00  0.00     0.169 A 
HETATM   27  N   UNL     1      -0.003   6.133 -28.256  1.00  0.00    -0.185 NA
HETATM   28  N   UNL     1       0.821   5.152 -28.656  1.00  0.00    -0.287 N 
HETATM   29  H   UNL     1       1.498   4.790 -27.992  1.00  0.00     0.188 HD
HETATM   30  C   UNL     1       0.616   4.768 -29.950  1.00  0.00     0.140 A 
ENDBRANCH  21  25
ENDBRANCH   4  19
TORSDOF 5
ENDMDL
MODEL 5
REMARK VINA RESULT:      -7.9      2.955      9.509
REMARK  5 active torsions:
REMARK  status: ('A' for Active; 'I' for Inactive)
REMARK    1  A    between atoms: C_3  and  C_4 
REMARK    2  A    between atoms: C_4  and  N_5 
REMARK       I    between atoms: N_5  and  C_6 
REMARK    3  A    between atoms: C_6  and  C_7 
REMARK    4  A    between atoms: C_10  and  N_11 
REMARK       I    between atoms: N_11  and  C_12 
REMARK       I    between atoms: C_12  and  N_13 
REMARK    5  A    between atoms: N_13  and  C_14 
ROOT
HETATM    1  C   UNL     1      -8.953   1.580 -32.586  1.00  0.00     0.032 A 
HETATM    2  C   UNL     1      -8.101   1.321 -31.506  1.00  0.00     0.019 A 
HETATM    3  C   UNL     1      -7.068   0.382 -31.633  1.00  0.00     0.030 A 
HETATM    4  C   UNL     1      -6.878  -0.310 -32.831  1.00  0.00     0.036 A 
HETATM    5  C   UNL     1      -7.708  -0.020 -33.920  1.00  0.00     0.030 A 
HETATM    6  C   UNL     1      -8.736   0.919 -33.799  1.00  0.00     0.019 A 
ENDROOT
BRANCH   1   7
HETATM    7  C   UNL     1     -10.080   2.551 -32.506  1.00  0.00     0.251 C 
HETATM    8  N   UNL     1     -11.080   2.420 -33.447  1.00  0.00    -0.353 N 
HETATM    9  H   UNL     1     -10.913   1.847 -34.261  1.00  0.00     0.163 HD
HETATM   10  O   UNL     1     -10.066   3.435 -31.657  1.00  0.00    -0.268 OA
BRANCH   8  11
HETATM   11  C   UNL     1     -12.111   3.432 -33.559  1.00  0.00     0.164 C 
BRANCH  11  12
HETATM   12  C   UNL     1     -13.464   2.886 -33.203  1.00  0.00    -0.002 A 
HETATM   13  C   UNL     1     -14.229   3.468 -32.180  1.00  0.00     0.012 A 
HETATM   14  C   UNL     1     -15.506   2.984 -31.883  1.00  0.00     0.001 A 
HETATM   15  C   UNL     1     -16.037   1.919 -32.610  1.00  0.00     0.003 A 
HETATM   16  C   UNL     1     -15.291   1.339 -33.635  1.00  0.00     0.043 A 
HETATM   17  C   UNL     1     -14.020   1.826 -33.924  1.00  0.00     0.124 A 
HETATM   18  F   UNL     1     -13.326   1.257 -34.920  1.00  0.00    -0.205 F 
ENDBRANCH  11  12
ENDBRANCH   8  11
ENDBRANCH   1   7
BRANCH   4  19
HETATM   19  N   UNL     1      -5.881  -1.287 -33.027  1.00  0.00    -0.309 N 
HETATM   20  C   UNL     1      -4.547  -1.087 -33.261  1.00  0.00     0.325 C 
HETATM   21  N   UNL     1      -3.791  -2.211 -33.472  1.00  0.00    -0.306 N 
HETATM   22  O   UNL     1      -3.969  -0.003 -33.229  1.00  0.00    -0.247 OA
HETATM   23  H   UNL     1      -2.797  -2.027 -33.430  1.00  0.00     0.171 HD
HETATM   24  H   UNL     1      -6.123  -2.223 -32.738  1.00  0.00     0.170 HD
BRANCH  21  25
HETATM   25  C   UNL     1      -4.172  -3.488 -33.833  1.00  0.00     0.072 A 
HETATM   26  C   UNL     1      -5.168  -3.986 -34.702  1.00  0.00     0.169 A 
HETATM   27  N   UNL     1      -5.190  -5.321 -34.744  1.00  0.00    -0.185 NA
HETATM   28  N   UNL     1      -4.177  -5.680 -33.940  1.00  0.00    -0.287 N 
HETATM   29  H   UNL     1      -3.985  -6.669 -33.819  1.00  0.00     0.188 HD
HETATM   30  C   UNL     1      -3.525  -4.617 -33.385  1.00  0.00     0.140 A 
ENDBRANCH  21  25
ENDBRANCH   4  19
TORSDOF 5
ENDMDL
MODEL 6
REMARK VINA RESULT:      -7.9      1.799      2.296
REMARK  5 active torsions:
REMARK  status: ('A' for Active; 'I' for Inactive)
REMARK    1  A    between atoms: C_3  and  C_4 
REMARK    2  A    between atoms: C_4  and  N_5 
REMARK       I    between atoms: N_5  and  C_6 
REMARK    3  A    between atoms: C_6  and  C_7 
REMARK    4  A    between atoms: C_10  and  N_11 
REMARK       I    between atoms: N_11  and  C_12 
REMARK       I    between atoms: C_12  and  N_13 
REMARK    5  A    between atoms: N_13  and  C_14 
ROOT
HETATM    1  C   UNL     1      -7.741   1.112 -33.209  1.00  0.00     0.032 A 
HETATM    2  C   UNL     1      -8.561  -0.020 -33.127  1.00  0.00     0.019 A 
HETATM    3  C   UNL     1      -9.954   0.112 -33.210  1.00  0.00     0.030 A 
HETATM    4  C   UNL     1     -10.543   1.369 -33.368  1.00  0.00     0.036 A 
HETATM    5  C   UNL     1      -9.717   2.493 -33.488  1.00  0.00     0.030 A 
HETATM    6  C   UNL     1      -8.328   2.365 -33.411  1.00  0.00     0.019 A 
ENDROOT
BRANCH   1   7
HETATM    7  C   UNL     1      -6.257   1.039 -33.106  1.00  0.00     0.251 C 
HETATM    8  N   UNL     1      -5.667  -0.151 -33.479  1.00  0.00    -0.353 N 
HETATM    9  H   UNL     1      -6.246  -0.971 -33.585  1.00  0.00     0.163 HD
HETATM   10  O   UNL     1      -5.626   1.995 -32.670  1.00  0.00    -0.268 OA
BRANCH   8  11
HETATM   11  C   UNL     1      -4.256  -0.372 -33.234  1.00  0.00     0.164 C 
BRANCH  11  12
HETATM   12  C   UNL     1      -3.933  -1.836 -33.133  1.00  0.00    -0.002 A 
HETATM   13  C   UNL     1      -3.283  -2.354 -32.003  1.00  0.00     0.012 A 
HETATM   14  C   UNL     1      -3.025  -3.723 -31.896  1.00  0.00     0.001 A 
HETATM   15  C   UNL     1      -3.422  -4.592 -32.912  1.00  0.00     0.003 A 
HETATM   16  C   UNL     1      -4.077  -4.090 -34.036  1.00  0.00     0.043 A 
HETATM   17  C   UNL     1      -4.329  -2.726 -34.136  1.00  0.00     0.124 A 
HETATM   18  F   UNL     1      -4.969  -2.269 -35.222  1.00  0.00    -0.205 F 
ENDBRANCH  11  12
ENDBRANCH   8  11
ENDBRANCH   1   7
BRANCH   4  19
HETATM   19  N   UNL     1     -11.934   1.585 -33.432  1.00  0.00    -0.309 N 
HETATM   20  C   UNL     1     -12.726   1.616 -34.549  1.00  0.00     0.325 C 
HETATM   21  N   UNL     1     -14.051   1.900 -34.347  1.00  0.00    -0.306 N 
HETATM   22  O   UNL     1     -12.364   1.347 -35.692  1.00  0.00    -0.247 OA
HETATM   23  H   UNL     1     -14.622   1.705 -35.160  1.00  0.00     0.171 HD
HETATM   24  H   UNL     1     -12.434   1.475 -32.563  1.00  0.00     0.170 HD
BRANCH  21  25
HETATM   25  C   UNL     1     -14.683   2.497 -33.274  1.00  0.00     0.072 A 
HETATM   26  C   UNL     1     -14.501   3.734 -32.616  1.00  0.00     0.169 A 
HETATM   27  N   UNL     1     -15.347   3.902 -31.597  1.00  0.00    -0.185 NA
HETATM   28  N   UNL     1     -16.105   2.794 -31.629  1.00  0.00    -0.287 N 
HETATM   29  H   UNL     1     -16.845   2.696 -30.941  1.00  0.00     0.188 HD
HETATM   30  C   UNL     1     -15.758   1.930 -32.627  1.00  0.00     0.140 A 
ENDBRANCH  21  25
ENDBRANCH   4  19
TORSDOF 5
ENDMDL
MODEL 7
REMARK VINA RESULT:      -7.8     12.242     14.608
REMARK  5 active torsions:
REMARK  status: ('A' for Active; 'I' for Inactive)
REMARK    1  A    between atoms: C_3  and  C_4 
REMARK    2  A    between atoms: C_4  and  N_5 
REMARK       I    between atoms: N_5  and  C_6 
REMARK    3  A    between atoms: C_6  and  C_7 
REMARK    4  A    between atoms: C_10  and  N_11 
REMARK       I    between atoms: N_11  and  C_12 
REMARK       I    between atoms: C_12  and  N_13 
REMARK    5  A    between atoms: N_13  and  C_14 
ROOT
HETATM    1  C   UNL     1       0.248   9.085 -27.498  1.00  0.00     0.032 A 
HETATM    2  C   UNL     1       1.161   8.282 -28.192  1.00  0.00     0.019 A 
HETATM    3  C   UNL     1       0.714   7.425 -29.208  1.00  0.00     0.030 A 
HETATM    4  C   UNL     1      -0.641   7.356 -29.537  1.00  0.00     0.036 A 
HETATM    5  C   UNL     1      -1.544   8.189 -28.867  1.00  0.00     0.030 A 
HETATM    6  C   UNL     1      -1.103   9.048 -27.857  1.00  0.00     0.019 A 
ENDROOT
BRANCH   1   7
HETATM    7  C   UNL     1       0.658   9.999 -26.396  1.00  0.00     0.251 C 
HETATM    8  N   UNL     1       1.922   9.816 -25.875  1.00  0.00    -0.353 N 
HETATM    9  H   UNL     1       2.420   8.964 -26.088  1.00  0.00     0.163 HD
HETATM   10  O   UNL     1      -0.131  10.835 -25.970  1.00  0.00    -0.268 OA
BRANCH   8  11
HETATM   11  C   UNL     1       2.329  10.532 -24.683  1.00  0.00     0.164 C 
BRANCH  11  12
HETATM   12  C   UNL     1       3.143   9.664 -23.766  1.00  0.00    -0.002 A 
HETATM   13  C   UNL     1       4.505   9.435 -24.010  1.00  0.00     0.012 A 
HETATM   14  C   UNL     1       5.266   8.664 -23.129  1.00  0.00     0.001 A 
HETATM   15  C   UNL     1       4.678   8.118 -21.988  1.00  0.00     0.003 A 
HETATM   16  C   UNL     1       3.327   8.346 -21.729  1.00  0.00     0.043 A 
HETATM   17  C   UNL     1       2.575   9.115 -22.612  1.00  0.00     0.124 A 
HETATM   18  F   UNL     1       1.280   9.327 -22.337  1.00  0.00    -0.205 F 
ENDBRANCH  11  12
ENDBRANCH   8  11
ENDBRANCH   1   7
BRANCH   4  19
HETATM   19  N   UNL     1      -1.170   6.501 -30.525  1.00  0.00    -0.309 N 
HETATM   20  C   UNL     1      -0.796   5.214 -30.806  1.00  0.00     0.325 C 
HETATM   21  N   UNL     1      -1.433   4.612 -31.860  1.00  0.00    -0.306 N 
HETATM   22  O   UNL     1       0.002   4.541 -30.157  1.00  0.00    -0.247 OA
HETATM   23  H   UNL     1      -1.278   3.612 -31.891  1.00  0.00     0.171 HD
HETATM   24  H   UNL     1      -2.061   6.775 -30.909  1.00  0.00     0.170 HD
BRANCH  21  25
HETATM   25  C   UNL     1      -2.138   5.164 -32.911  1.00  0.00     0.072 A 
HETATM   26  C   UNL     1      -3.499   5.497 -33.088  1.00  0.00     0.169 A 
HETATM   27  N   UNL     1      -3.748   6.012 -34.294  1.00  0.00    -0.185 NA
HETATM   28  N   UNL     1      -2.539   6.053 -34.877  1.00  0.00    -0.287 N 
HETATM   29  H   UNL     1      -2.470   6.426 -35.818  1.00  0.00     0.188 HD
HETATM   30  C   UNL     1      -1.539   5.573 -34.081  1.00  0.00     0.140 A 
ENDBRANCH  21  25
ENDBRANCH   4  19
TORSDOF 5
ENDMDL
MODEL 8
REMARK VINA RESULT:      -7.8      6.473      9.271
REMARK  5 active torsions:
REMARK  status: ('A' for Active; 'I' for Inactive)
REMARK    1  A    between atoms: C_3  and  C_4 
REMARK    2  A    between atoms: C_4  and  N_5 
REMARK       I    between atoms: N_5  and  C_6 
REMARK    3  A    between atoms: C_6  and  C_7 
REMARK    4  A    between atoms: C_10  and  N_11 
REMARK       I    between atoms: N_11  and  C_12 
REMARK       I    between atoms: C_12  and  N_13 
REMARK    5  A    between atoms: N_13  and  C_14 
ROOT
HETATM    1  C   UNL     1      -4.942   3.392 -32.556  1.00  0.00     0.032 A 
HETATM    2  C   UNL     1      -5.236   4.754 -32.424  1.00  0.00     0.019 A 
HETATM    3  C   UNL     1      -4.329   5.612 -31.786  1.00  0.00     0.030 A 
HETATM    4  C   UNL     1      -3.127   5.122 -31.271  1.00  0.00     0.036 A 
HETATM    5  C   UNL     1      -2.821   3.767 -31.440  1.00  0.00     0.030 A 
HETATM    6  C   UNL     1      -3.720   2.909 -32.079  1.00  0.00     0.019 A 
ENDROOT
BRANCH   1   7
HETATM    7  C   UNL     1      -5.875   2.428 -33.204  1.00  0.00     0.251 C 
HETATM    8  N   UNL     1      -6.221   1.312 -32.472  1.00  0.00    -0.353 N 
HETATM    9  H   UNL     1      -5.680   1.077 -31.652  1.00  0.00     0.163 HD
HETATM   10  O   UNL     1      -6.263   2.629 -34.349  1.00  0.00    -0.268 OA
BRANCH   8  11
HETATM   11  C   UNL     1      -6.967   0.236 -33.093  1.00  0.00     0.164 C 
BRANCH  11  12
HETATM   12  C   UNL     1      -6.066  -0.881 -33.536  1.00  0.00    -0.002 A 
HETATM   13  C   UNL     1      -4.884  -1.173 -32.839  1.00  0.00     0.012 A 
HETATM   14  C   UNL     1      -4.073  -2.241 -33.230  1.00  0.00     0.001 A 
HETATM   15  C   UNL     1      -4.438  -3.036 -34.316  1.00  0.00     0.003 A 
HETATM   16  C   UNL     1      -5.614  -2.762 -35.012  1.00  0.00     0.043 A 
HETATM   17  C   UNL     1      -6.417  -1.696 -34.617  1.00  0.00     0.124 A 
HETATM   18  F   UNL     1      -7.548  -1.458 -35.295  1.00  0.00    -0.205 F 
ENDBRANCH  11  12
ENDBRANCH   8  11
ENDBRANCH   1   7
BRANCH   4  19
HETATM   19  N   UNL     1      -2.179   5.915 -30.594  1.00  0.00    -0.309 N 
HETATM   20  C   UNL     1      -0.995   6.402 -31.080  1.00  0.00     0.325 C 
HETATM   21  N   UNL     1      -0.219   7.108 -30.198  1.00  0.00    -0.306 N 
HETATM   22  O   UNL     1      -0.609   6.318 -32.244  1.00  0.00    -0.247 OA
HETATM   23  H   UNL     1       0.527   7.617 -30.654  1.00  0.00     0.171 HD
HETATM   24  H   UNL     1      -2.504   6.362 -29.750  1.00  0.00     0.170 HD
BRANCH  21  25
HETATM   25  C   UNL     1      -0.237   7.136 -28.818  1.00  0.00     0.072 A 
HETATM   26  C   UNL     1      -0.861   7.990 -27.881  1.00  0.00     0.169 A 
HETATM   27  N   UNL     1      -0.594   7.646 -26.618  1.00  0.00    -0.185 NA
HETATM   28  N   UNL     1       0.162   6.544 -26.743  1.00  0.00    -0.287 N 
HETATM   29  H   UNL     1       0.486   6.083 -25.898  1.00  0.00     0.188 HD
HETATM   30  C   UNL     1       0.389   6.188 -28.041  1.00  0.00     0.140 A 
ENDBRANCH  21  25
ENDBRANCH   4  19
TORSDOF 5
ENDMDL
MODEL 9
REMARK VINA RESULT:      -7.7      5.971      7.252
REMARK  5 active torsions:
REMARK  status: ('A' for Active; 'I' for Inactive)
REMARK    1  A    between atoms: C_3  and  C_4 
REMARK    2  A    between atoms: C_4  and  N_5 
REMARK       I    between atoms: N_5  and  C_6 
REMARK    3  A    between atoms: C_6  and  C_7 
REMARK    4  A    between atoms: C_10  and  N_11 
REMARK       I    between atoms: N_11  and  C_12 
REMARK       I    between atoms: C_12  and  N_13 
REMARK    5  A    between atoms: N_13  and  C_14 
ROOT
HETATM    1  C   UNL     1      -5.323   5.176 -33.713  1.00  0.00     0.032 A 
HETATM    2  C   UNL     1      -5.548   3.891 -34.219  1.00  0.00     0.019 A 
HETATM    3  C   UNL     1      -6.812   3.296 -34.096  1.00  0.00     0.030 A 
HETATM    4  C   UNL     1      -7.859   3.973 -33.465  1.00  0.00     0.036 A 
HETATM    5  C   UNL     1      -7.639   5.273 -32.995  1.00  0.00     0.030 A 
HETATM    6  C   UNL     1      -6.382   5.870 -33.120  1.00  0.00     0.019 A 
ENDROOT
BRANCH   1   7
HETATM    7  C   UNL     1      -3.997   5.851 -33.794  1.00  0.00     0.251 C 
HETATM    8  N   UNL     1      -3.571   6.521 -32.667  1.00  0.00    -0.353 N 
HETATM    9  H   UNL     1      -4.238   6.719 -31.935  1.00  0.00     0.163 HD
HETATM   10  O   UNL     1      -3.362   5.826 -34.842  1.00  0.00    -0.268 OA
BRANCH   8  11
HETATM   11  C   UNL     1      -2.390   7.358 -32.720  1.00  0.00     0.164 C 
BRANCH  11  12
HETATM   12  C   UNL     1      -1.367   6.940 -31.702  1.00  0.00    -0.002 A 
HETATM   13  C   UNL     1      -1.180   7.678 -30.524  1.00  0.00     0.012 A 
HETATM   14  C   UNL     1      -0.258   7.259 -29.561  1.00  0.00     0.001 A 
HETATM   15  C   UNL     1       0.481   6.093 -29.760  1.00  0.00     0.003 A 
HETATM   16  C   UNL     1       0.297   5.346 -30.922  1.00  0.00     0.043 A 
HETATM   17  C   UNL     1      -0.622   5.770 -31.877  1.00  0.00     0.124 A 
HETATM   18  F   UNL     1      -0.787   5.030 -32.983  1.00  0.00    -0.205 F 
ENDBRANCH  11  12
ENDBRANCH   8  11
ENDBRANCH   1   7
BRANCH   4  19
HETATM   19  N   UNL     1      -9.147   3.433 -33.279  1.00  0.00    -0.309 N 
HETATM   20  C   UNL     1      -9.543   2.512 -32.345  1.00  0.00     0.325 C 
HETATM   21  N   UNL     1     -10.850   2.106 -32.407  1.00  0.00    -0.306 N 
HETATM   22  O   UNL     1      -8.850   2.079 -31.428  1.00  0.00    -0.247 OA
HETATM   23  H   UNL     1     -11.142   1.598 -31.582  1.00  0.00     0.171 HD
HETATM   24  H   UNL     1      -9.901   3.939 -33.718  1.00  0.00     0.170 HD
BRANCH  21  25
HETATM   25  C   UNL     1     -11.763   2.188 -33.440  1.00  0.00     0.072 A 
HETATM   26  C   UNL     1     -11.913   1.475 -34.650  1.00  0.00     0.169 A 
HETATM   27  N   UNL     1     -12.953   1.902 -35.371  1.00  0.00    -0.185 NA
HETATM   28  N   UNL     1     -13.500   2.858 -34.602  1.00  0.00    -0.287 N 
HETATM   29  H   UNL     1     -14.330   3.333 -34.941  1.00  0.00     0.188 HD
HETATM   30  C   UNL     1     -12.833   3.053 -33.427  1.00  0.00     0.140 A 
ENDBRANCH  21  25
ENDBRANCH   4  19
TORSDOF 5
ENDMDL
MODEL 10
REMARK VINA RESULT:      -7.7     12.447     15.347
REMARK  5 active torsions:
REMARK  status: ('A' for Active; 'I' for Inactive)
REMARK    1  A    between atoms: C_3  and  C_4 
REMARK    2  A    between atoms: C_4  and  N_5 
REMARK       I    between atoms: N_5  and  C_6 
REMARK    3  A    between atoms: C_6  and  C_7 
REMARK    4  A    between atoms: C_10  and  N_11 
REMARK       I    between atoms: N_11  and  C_12 
REMARK       I    between atoms: C_12  and  N_13 
REMARK    5  A    between atoms: N_13  and  C_14 
ROOT
HETATM    1  C   UNL     1       0.358   7.764 -28.371  1.00  0.00     0.032 A 
HETATM    2  C   UNL     1      -0.024   6.968 -27.286  1.00  0.00     0.019 A 
HETATM    3  C   UNL     1       0.643   7.083 -26.058  1.00  0.00     0.030 A 
HETATM    4  C   UNL     1       1.696   7.987 -25.902  1.00  0.00     0.036 A 
HETATM    5  C   UNL     1       2.048   8.808 -26.979  1.00  0.00     0.030 A 
HETATM    6  C   UNL     1       1.383   8.700 -28.203  1.00  0.00     0.019 A 
ENDROOT
BRANCH   1   7
HETATM    7  C   UNL     1      -0.298   7.672 -29.706  1.00  0.00     0.251 C 
HETATM    8  N   UNL     1       0.339   6.907 -30.659  1.00  0.00    -0.353 N 
HETATM    9  H   UNL     1       1.299   6.634 -30.506  1.00  0.00     0.163 HD
HETATM   10  O   UNL     1      -1.333   8.293 -29.922  1.00  0.00    -0.268 OA
BRANCH   8  11
HETATM   11  C   UNL     1      -0.127   6.916 -32.031  1.00  0.00     0.164 C 
BRANCH  11  12
HETATM   12  C   UNL     1      -1.046   5.763 -32.313  1.00  0.00    -0.002 A 
HETATM   13  C   UNL     1      -1.588   5.000 -31.267  1.00  0.00     0.012 A 
HETATM   14  C   UNL     1      -2.477   3.956 -31.534  1.00  0.00     0.001 A 
HETATM   15  C   UNL     1      -2.843   3.667 -32.849  1.00  0.00     0.003 A 
HETATM   16  C   UNL     1      -2.319   4.423 -33.896  1.00  0.00     0.043 A 
HETATM   17  C   UNL     1      -1.433   5.461 -33.622  1.00  0.00     0.124 A 
HETATM   18  F   UNL     1      -0.950   6.179 -34.646  1.00  0.00    -0.205 F 
ENDBRANCH  11  12
ENDBRANCH   8  11
ENDBRANCH   1   7
BRANCH   4  19
HETATM   19  N   UNL     1       2.432   8.141 -24.710  1.00  0.00    -0.309 N 
HETATM   20  C   UNL     1       2.282   9.109 -23.753  1.00  0.00     0.325 C 
HETATM   21  N   UNL     1       3.165   9.070 -22.705  1.00  0.00    -0.306 N 
HETATM   22  O   UNL     1       1.390   9.954 -23.722  1.00  0.00    -0.247 OA
HETATM   23  H   UNL     1       2.883   9.663 -21.935  1.00  0.00     0.171 HD
HETATM   24  H   UNL     1       2.962   7.335 -24.416  1.00  0.00     0.170 HD
BRANCH  21  25
HETATM   25  C   UNL     1       4.394   8.451 -22.596  1.00  0.00     0.072 A 
HETATM   26  C   UNL     1       5.650   8.693 -23.196  1.00  0.00     0.169 A 
HETATM   27  N   UNL     1       6.582   7.823 -22.799  1.00  0.00    -0.185 NA
HETATM   28  N   UNL     1       5.939   7.052 -21.908  1.00  0.00    -0.287 N 
HETATM   29  H   UNL     1       6.456   6.308 -21.451  1.00  0.00     0.188 HD
HETATM   30  C   UNL     1       4.630   7.401 -21.739  1.00  0.00     0.140 A 
ENDBRANCH  21  25
ENDBRANCH   4  19
TORSDOF 5
ENDMDL
