MODEL 1
REMARK VINA RESULT:      -8.6      0.000      0.000
REMARK  3 active torsions:
REMARK  status: ('A' for Active; 'I' for Inactive)
REMARK    1  A    between atoms: C_10  and  C_11 
REMARK       I    between atoms: C_11  and  N_12 
REMARK    2  A    between atoms: C_14  and  O_15 
REMARK    3  A    between atoms: O_15  and  C_16 
ROOT
HETATM    1  C   UNL     1     -10.791   2.542 -34.415  1.00  0.00     0.255 C 
HETATM    2  N   UNL     1      -9.873   1.644 -33.903  1.00  0.00    -0.345 N 
HETATM    3  C   UNL     1      -8.503   1.639 -34.405  1.00  0.00     0.158 C 
HETATM    4  C   UNL     1      -8.008   0.204 -34.177  1.00  0.00     0.148 C 
HETATM    5  C   UNL     1      -8.756  -0.171 -32.898  1.00  0.00     0.054 C 
HETATM    6  C   UNL     1     -10.129   0.445 -33.116  1.00  0.00     0.129 C 
HETATM    7  O   UNL     1     -10.487   3.428 -35.210  1.00  0.00    -0.267 OA
ENDROOT
BRANCH   1   8
HETATM    8  C   UNL     1     -12.214   2.402 -34.057  1.00  0.00     0.050 A 
HETATM    9  C   UNL     1     -12.948   1.404 -34.698  1.00  0.00     0.136 A 
HETATM   10  N   UNL     1     -14.257   1.118 -34.477  1.00  0.00    -0.240 NA
HETATM   11  C   UNL     1     -14.812   1.933 -33.560  1.00  0.00     0.155 A 
HETATM   12  N   UNL     1     -16.102   1.897 -33.122  1.00  0.00    -0.260 N 
HETATM   13  C   UNL     1     -14.207   2.978 -32.876  1.00  0.00     0.038 A 
HETATM   14  N   UNL     1     -16.388   2.826 -32.188  1.00  0.00    -0.177 NA
HETATM   15  H   UNL     1     -16.826   1.256 -33.423  1.00  0.00     0.191 HD
HETATM   16  C   UNL     1     -15.234   3.494 -32.041  1.00  0.00     0.065 A 
HETATM   17  C   UNL     1     -15.136   4.613 -31.072  1.00  0.00     0.073 C 
HETATM   18  C   UNL     1     -12.855   3.246 -33.146  1.00  0.00     0.036 A 
ENDBRANCH   1   8
BRANCH   4  19
HETATM   19  O   UNL     1      -6.597   0.196 -33.998  1.00  0.00    -0.344 OA
BRANCH  19  20
HETATM   20  C   UNL     1      -5.948  -1.004 -34.098  1.00  0.00     0.070 A 
HETATM   21  C   UNL     1      -6.412  -2.135 -34.769  1.00  0.00     0.060 A 
HETATM   22  C   UNL     1      -5.647  -3.304 -34.772  1.00  0.00     0.036 A 
HETATM   23 CL   UNL     1      -6.230  -4.698 -35.597  1.00  0.00    -0.084 Cl
HETATM   24  C   UNL     1      -4.421  -3.356 -34.113  1.00  0.00     0.024 A 
HETATM   25  C   UNL     1      -3.957  -2.230 -33.436  1.00  0.00     0.004 A 
HETATM   26  C   UNL     1      -4.723  -1.063 -33.426  1.00  0.00     0.037 A 
ENDBRANCH  19  20
ENDBRANCH   4  19
TORSDOF 3
ENDMDL
MODEL 2
REMARK VINA RESULT:      -8.6      6.227      8.727
REMARK  3 active torsions:
REMARK  status: ('A' for Active; 'I' for Inactive)
REMARK    1  A    between atoms: C_10  and  C_11 
REMARK       I    between atoms: C_11  and  N_12 
REMARK    2  A    between atoms: C_14  and  O_15 
REMARK    3  A    between atoms: O_15  and  C_16 
ROOT
HETATM    1  C   UNL     1      -3.339   2.690 -31.881  1.00  0.00     0.255 C 
HETATM    2  N   UNL     1      -4.462   2.162 -32.494  1.00  0.00    -0.345 N 
HETATM    3  C   UNL     1      -4.775   0.746 -32.342  1.00  0.00     0.158 C 
HETATM    4  C   UNL     1      -5.578   0.385 -33.599  1.00  0.00     0.148 C 
HETATM    5  C   UNL     1      -6.318   1.695 -33.867  1.00  0.00     0.054 C 
HETATM    6  C   UNL     1      -5.265   2.748 -33.558  1.00  0.00     0.129 C 
HETATM    7  O   UNL     1      -2.632   2.043 -31.113  1.00  0.00    -0.267 OA
ENDROOT
BRANCH   1   8
HETATM    8  C   UNL     1      -2.917   4.063 -32.209  1.00  0.00     0.050 A 
HETATM    9  C   UNL     1      -2.162   4.250 -33.367  1.00  0.00     0.136 A 
HETATM   10  N   UNL     1      -1.709   5.442 -33.833  1.00  0.00    -0.240 NA
HETATM   11  C   UNL     1      -2.051   6.469 -33.031  1.00  0.00     0.155 A 
HETATM   12  N   UNL     1      -1.749   7.783 -33.228  1.00  0.00    -0.260 N 
HETATM   13  C   UNL     1      -2.768   6.417 -31.844  1.00  0.00     0.038 A 
HETATM   14  N   UNL     1      -2.227   8.603 -32.270  1.00  0.00    -0.177 NA
HETATM   15  H   UNL     1      -1.224   8.175 -34.001  1.00  0.00     0.191 HD
HETATM   16  C   UNL     1      -2.844   7.771 -31.418  1.00  0.00     0.065 A 
HETATM   17  C   UNL     1      -3.520   8.303 -30.210  1.00  0.00     0.073 C 
HETATM   18  C   UNL     1      -3.205   5.161 -31.394  1.00  0.00     0.036 A 
ENDBRANCH   1   8
BRANCH   4  19
HETATM   19  O   UNL     1      -6.467  -0.690 -33.321  1.00  0.00    -0.344 OA
BRANCH  19  20
HETATM   20  C   UNL     1      -6.134  -1.931 -33.788  1.00  0.00     0.070 A 
HETATM   21  C   UNL     1      -4.901  -2.564 -33.630  1.00  0.00     0.060 A 
HETATM   22  C   UNL     1      -4.696  -3.832 -34.180  1.00  0.00     0.036 A 
HETATM   23 CL   UNL     1      -3.168  -4.603 -33.987  1.00  0.00    -0.084 Cl
HETATM   24  C   UNL     1      -5.709  -4.477 -34.885  1.00  0.00     0.024 A 
HETATM   25  C   UNL     1      -6.939  -3.845 -35.050  1.00  0.00     0.004 A 
HETATM   26  C   UNL     1      -7.145  -2.575 -34.508  1.00  0.00     0.037 A 
ENDBRANCH  19  20
ENDBRANCH   4  19
TORSDOF 3
ENDMDL
MODEL 3
REMARK VINA RESULT:      -8.5      3.893      9.399
REMARK  3 active torsions:
REMARK  status: ('A' for Active; 'I' for Inactive)
REMARK    1  A    between atoms: C_10  and  C_11 
REMARK       I    between atoms: C_11  and  N_12 
REMARK    2  A    between atoms: C_14  and  O_15 
REMARK    3  A    between atoms: O_15  and  C_16 
ROOT
HETATM    1  C   UNL     1      -6.994   0.396 -34.478  1.00  0.00     0.255 C 
HETATM    2  N   UNL     1      -8.292   0.314 -34.008  1.00  0.00    -0.345 N 
HETATM    3  C   UNL     1      -9.332   1.154 -34.592  1.00  0.00     0.158 C 
HETATM    4  C   UNL     1     -10.372   1.323 -33.477  1.00  0.00     0.148 C 
HETATM    5  C   UNL     1     -10.261  -0.022 -32.758  1.00  0.00     0.054 C 
HETATM    6  C   UNL     1      -8.763  -0.288 -32.768  1.00  0.00     0.129 C 
HETATM    7  O   UNL     1      -6.678   1.074 -35.452  1.00  0.00    -0.267 OA
ENDROOT
BRANCH   1   8
HETATM    8  C   UNL     1      -5.917  -0.295 -33.747  1.00  0.00     0.050 A 
HETATM    9  C   UNL     1      -5.251   0.415 -32.750  1.00  0.00     0.136 A 
HETATM   10  N   UNL     1      -4.254  -0.068 -31.964  1.00  0.00    -0.240 NA
HETATM   11  C   UNL     1      -3.939  -1.343 -32.262  1.00  0.00     0.155 A 
HETATM   12  N   UNL     1      -2.987  -2.104 -31.652  1.00  0.00    -0.260 N 
HETATM   13  C   UNL     1      -4.499  -2.149 -33.244  1.00  0.00     0.038 A 
HETATM   14  N   UNL     1      -2.889  -3.355 -32.146  1.00  0.00    -0.177 NA
HETATM   15  H   UNL     1      -2.381  -1.821 -30.893  1.00  0.00     0.191 HD
HETATM   16  C   UNL     1      -3.806  -3.383 -33.125  1.00  0.00     0.065 A 
HETATM   17  C   UNL     1      -4.015  -4.619 -33.918  1.00  0.00     0.073 C 
HETATM   18  C   UNL     1      -5.517  -1.602 -34.042  1.00  0.00     0.036 A 
ENDBRANCH   1   8
BRANCH   4  19
HETATM   19  O   UNL     1     -11.662   1.530 -34.037  1.00  0.00    -0.344 OA
BRANCH  19  20
HETATM   20  C   UNL     1     -12.590   2.189 -33.279  1.00  0.00     0.070 A 
HETATM   21  C   UNL     1     -13.942   1.862 -33.169  1.00  0.00     0.060 A 
HETATM   22  C   UNL     1     -14.781   2.640 -32.368  1.00  0.00     0.036 A 
HETATM   23 CL   UNL     1     -16.450   2.235 -32.243  1.00  0.00    -0.084 Cl
HETATM   24  C   UNL     1     -14.286   3.741 -31.673  1.00  0.00     0.024 A 
HETATM   25  C   UNL     1     -12.938   4.073 -31.786  1.00  0.00     0.004 A 
HETATM   26  C   UNL     1     -12.098   3.302 -32.592  1.00  0.00     0.037 A 
ENDBRANCH  19  20
ENDBRANCH   4  19
TORSDOF 3
ENDMDL
MODEL 4
REMARK VINA RESULT:      -8.1      7.518      9.892
REMARK  3 active torsions:
REMARK  status: ('A' for Active; 'I' for Inactive)
REMARK    1  A    between atoms: C_10  and  C_11 
REMARK       I    between atoms: C_11  and  N_12 
REMARK    2  A    between atoms: C_14  and  O_15 
REMARK    3  A    between atoms: O_15  and  C_16 
ROOT
HETATM    1  C   UNL     1      -2.088   5.049 -31.695  1.00  0.00     0.255 C 
HETATM    2  N   UNL     1      -3.196   4.257 -31.455  1.00  0.00    -0.345 N 
HETATM    3  C   UNL     1      -3.253   2.904 -31.998  1.00  0.00     0.158 C 
HETATM    4  C   UNL     1      -4.751   2.605 -32.146  1.00  0.00     0.148 C 
HETATM    5  C   UNL     1      -5.330   3.388 -30.968  1.00  0.00     0.054 C 
HETATM    6  C   UNL     1      -4.508   4.667 -30.974  1.00  0.00     0.129 C 
HETATM    7  O   UNL     1      -1.080   4.635 -32.262  1.00  0.00    -0.267 OA
ENDROOT
BRANCH   1   8
HETATM    8  C   UNL     1      -2.128   6.476 -31.325  1.00  0.00     0.050 A 
HETATM    9  C   UNL     1      -2.201   7.411 -32.357  1.00  0.00     0.136 A 
HETATM   10  N   UNL     1      -2.269   8.758 -32.201  1.00  0.00    -0.240 NA
HETATM   11  C   UNL     1      -2.236   9.126 -30.906  1.00  0.00     0.155 A 
HETATM   12  N   UNL     1      -2.291  10.401 -30.427  1.00  0.00    -0.260 N 
HETATM   13  C   UNL     1      -2.134   8.305 -29.792  1.00  0.00     0.038 A 
HETATM   14  N   UNL     1      -2.250  10.481 -29.082  1.00  0.00    -0.177 NA
HETATM   15  H   UNL     1      -2.360  11.251 -30.974  1.00  0.00     0.191 HD
HETATM   16  C   UNL     1      -2.147   9.202 -28.690  1.00  0.00     0.065 A 
HETATM   17  C   UNL     1      -2.084   8.865 -27.247  1.00  0.00     0.073 C 
HETATM   18  C   UNL     1      -2.054   6.919 -30.001  1.00  0.00     0.036 A 
ENDBRANCH   1   8
BRANCH   4  19
HETATM   19  O   UNL     1      -4.985   1.207 -32.033  1.00  0.00    -0.344 OA
BRANCH  19  20
HETATM   20  C   UNL     1      -5.719   0.600 -33.014  1.00  0.00     0.070 A 
HETATM   21  C   UNL     1      -5.865  -0.775 -33.198  1.00  0.00     0.060 A 
HETATM   22  C   UNL     1      -6.634  -1.255 -34.261  1.00  0.00     0.036 A 
HETATM   23 CL   UNL     1      -6.803  -2.955 -34.486  1.00  0.00    -0.084 Cl
HETATM   24  C   UNL     1      -7.262  -0.378 -35.142  1.00  0.00     0.024 A 
HETATM   25  C   UNL     1      -7.113   0.995 -34.964  1.00  0.00     0.004 A 
HETATM   26  C   UNL     1      -6.339   1.478 -33.907  1.00  0.00     0.037 A 
ENDBRANCH  19  20
ENDBRANCH   4  19
TORSDOF 3
ENDMDL
MODEL 5
REMARK VINA RESULT:      -8.1      5.735      8.218
REMARK  3 active torsions:
REMARK  status: ('A' for Active; 'I' for Inactive)
REMARK    1  A    between atoms: C_10  and  C_11 
REMARK       I    between atoms: C_11  and  N_12 
REMARK    2  A    between atoms: C_14  and  O_15 
REMARK    3  A    between atoms: O_15  and  C_16 
ROOT
HETATM    1  C   UNL     1      -5.350   3.754 -30.818  1.00  0.00     0.255 C 
HETATM    2  N   UNL     1      -5.860   3.100 -31.925  1.00  0.00    -0.345 N 
HETATM    3  C   UNL     1      -6.109   1.664 -31.870  1.00  0.00     0.158 C 
HETATM    4  C   UNL     1      -5.992   1.190 -33.325  1.00  0.00     0.148 C 
HETATM    5  C   UNL     1      -6.516   2.412 -34.080  1.00  0.00     0.054 C 
HETATM    6  C   UNL     1      -5.919   3.574 -33.301  1.00  0.00     0.129 C 
HETATM    7  O   UNL     1      -5.190   3.203 -29.731  1.00  0.00    -0.267 OA
ENDROOT
BRANCH   1   8
HETATM    8  C   UNL     1      -4.906   5.153 -30.947  1.00  0.00     0.050 A 
HETATM    9  C   UNL     1      -5.807   6.155 -30.590  1.00  0.00     0.136 A 
HETATM   10  N   UNL     1      -5.562   7.490 -30.624  1.00  0.00    -0.240 NA
HETATM   11  C   UNL     1      -4.324   7.772 -31.072  1.00  0.00     0.155 A 
HETATM   12  N   UNL     1      -3.780   9.014 -31.217  1.00  0.00    -0.260 N 
HETATM   13  C   UNL     1      -3.346   6.878 -31.487  1.00  0.00     0.038 A 
HETATM   14  N   UNL     1      -2.513   9.005 -31.678  1.00  0.00    -0.177 NA
HETATM   15  H   UNL     1      -4.227   9.898 -31.011  1.00  0.00     0.191 HD
HETATM   16  C   UNL     1      -2.247   7.701 -31.852  1.00  0.00     0.065 A 
HETATM   17  C   UNL     1      -0.918   7.269 -32.349  1.00  0.00     0.073 C 
HETATM   18  C   UNL     1      -3.649   5.508 -31.447  1.00  0.00     0.036 A 
ENDBRANCH   1   8
BRANCH   4  19
HETATM   19  O   UNL     1      -6.802   0.040 -33.533  1.00  0.00    -0.344 OA
BRANCH  19  20
HETATM   20  C   UNL     1      -6.177  -1.129 -33.868  1.00  0.00     0.070 A 
HETATM   21  C   UNL     1      -6.753  -2.202 -34.548  1.00  0.00     0.060 A 
HETATM   22  C   UNL     1      -5.996  -3.347 -34.807  1.00  0.00     0.036 A 
HETATM   23 CL   UNL     1      -6.717  -4.671 -35.640  1.00  0.00    -0.084 Cl
HETATM   24  C   UNL     1      -4.668  -3.434 -34.395  1.00  0.00     0.024 A 
HETATM   25  C   UNL     1      -4.092  -2.366 -33.710  1.00  0.00     0.004 A 
HETATM   26  C   UNL     1      -4.848  -1.223 -33.444  1.00  0.00     0.037 A 
ENDBRANCH  19  20
ENDBRANCH   4  19
TORSDOF 3
ENDMDL
MODEL 6
REMARK VINA RESULT:      -8.0      7.366      9.806
REMARK  3 active torsions:
REMARK  status: ('A' for Active; 'I' for Inactive)
REMARK    1  A    between atoms: C_10  and  C_11 
REMARK       I    between atoms: C_11  and  N_12 
REMARK    2  A    between atoms: C_14  and  O_15 
REMARK    3  A    between atoms: O_15  and  C_16 
ROOT
HETATM    1  C   UNL     1      -4.325   3.024 -31.674  1.00  0.00     0.255 C 
HETATM    2  N   UNL     1      -3.293   3.774 -32.206  1.00  0.00    -0.345 N 
HETATM    3  C   UNL     1      -2.415   4.534 -31.324  1.00  0.00     0.158 C 
HETATM    4  C   UNL     1      -1.901   5.695 -32.185  1.00  0.00     0.148 C 
HETATM    5  C   UNL     1      -1.843   5.040 -33.565  1.00  0.00     0.054 C 
HETATM    6  C   UNL     1      -3.104   4.189 -33.590  1.00  0.00     0.129 C 
HETATM    7  O   UNL     1      -4.485   2.871 -30.466  1.00  0.00    -0.267 OA
ENDROOT
BRANCH   1   8
HETATM    8  C   UNL     1      -5.329   2.434 -32.577  1.00  0.00     0.050 A 
HETATM    9  C   UNL     1      -6.385   3.244 -32.990  1.00  0.00     0.136 A 
HETATM   10  N   UNL     1      -7.383   2.876 -33.836  1.00  0.00    -0.240 NA
HETATM   11  C   UNL     1      -7.266   1.597 -34.239  1.00  0.00     0.155 A 
HETATM   12  N   UNL     1      -8.105   0.937 -35.086  1.00  0.00    -0.260 N 
HETATM   13  C   UNL     1      -6.289   0.679 -33.881  1.00  0.00     0.038 A 
HETATM   14  N   UNL     1      -7.744  -0.340 -35.329  1.00  0.00    -0.177 NA
HETATM   15  H   UNL     1      -8.934   1.312 -35.531  1.00  0.00     0.191 HD
HETATM   16  C   UNL     1      -6.639  -0.503 -34.587  1.00  0.00     0.065 A 
HETATM   17  C   UNL     1      -5.921  -1.801 -34.591  1.00  0.00     0.073 C 
HETATM   18  C   UNL     1      -5.284   1.100 -32.995  1.00  0.00     0.036 A 
ENDBRANCH   1   8
BRANCH   4  19
HETATM   19  O   UNL     1      -0.620   6.112 -31.732  1.00  0.00    -0.344 OA
BRANCH  19  20
HETATM   20  C   UNL     1      -0.565   6.936 -30.642  1.00  0.00     0.070 A 
HETATM   21  C   UNL     1       0.362   6.860 -29.602  1.00  0.00     0.060 A 
HETATM   22  C   UNL     1       0.286   7.760 -28.537  1.00  0.00     0.036 A 
HETATM   23 CL   UNL     1       1.429   7.655 -27.253  1.00  0.00    -0.084 Cl
HETATM   24  C   UNL     1      -0.705   8.738 -28.498  1.00  0.00     0.024 A 
HETATM   25  C   UNL     1      -1.636   8.813 -29.532  1.00  0.00     0.004 A 
HETATM   26  C   UNL     1      -1.566   7.909 -30.594  1.00  0.00     0.037 A 
ENDBRANCH  19  20
ENDBRANCH   4  19
TORSDOF 3
ENDMDL
MODEL 7
REMARK VINA RESULT:      -8.0      7.372     10.214
REMARK  3 active torsions:
REMARK  status: ('A' for Active; 'I' for Inactive)
REMARK    1  A    between atoms: C_10  and  C_11 
REMARK       I    between atoms: C_11  and  N_12 
REMARK    2  A    between atoms: C_14  and  O_15 
REMARK    3  A    between atoms: O_15  and  C_16 
ROOT
HETATM    1  C   UNL     1      -4.356   2.497 -31.069  1.00  0.00     0.255 C 
HETATM    2  N   UNL     1      -3.583   3.520 -31.589  1.00  0.00    -0.345 N 
HETATM    3  C   UNL     1      -3.788   4.890 -31.133  1.00  0.00     0.158 C 
HETATM    4  C   UNL     1      -3.329   5.766 -32.306  1.00  0.00     0.148 C 
HETATM    5  C   UNL     1      -2.203   4.914 -32.892  1.00  0.00     0.054 C 
HETATM    6  C   UNL     1      -2.757   3.502 -32.789  1.00  0.00     0.129 C 
HETATM    7  O   UNL     1      -5.151   2.663 -30.147  1.00  0.00    -0.267 OA
ENDROOT
BRANCH   1   8
HETATM    8  C   UNL     1      -4.289   1.159 -31.683  1.00  0.00     0.050 A 
HETATM    9  C   UNL     1      -3.271   0.304 -31.264  1.00  0.00     0.136 A 
HETATM   10  N   UNL     1      -3.073  -0.967 -31.701  1.00  0.00    -0.240 NA
HETATM   11  C   UNL     1      -3.974  -1.334 -32.632  1.00  0.00     0.155 A 
HETATM   12  N   UNL     1      -4.041  -2.542 -33.259  1.00  0.00    -0.260 N 
HETATM   13  C   UNL     1      -5.011  -0.575 -33.157  1.00  0.00     0.038 A 
HETATM   14  N   UNL     1      -5.055  -2.643 -34.144  1.00  0.00    -0.177 NA
HETATM   15  H   UNL     1      -3.425  -3.333 -33.118  1.00  0.00     0.191 HD
HETATM   16  C   UNL     1      -5.645  -1.439 -34.089  1.00  0.00     0.065 A 
HETATM   17  C   UNL     1      -6.833  -1.151 -34.929  1.00  0.00     0.073 C 
HETATM   18  C   UNL     1      -5.170   0.738 -32.684  1.00  0.00     0.036 A 
ENDBRANCH   1   8
BRANCH   4  19
HETATM   19  O   UNL     1      -2.862   7.021 -31.828  1.00  0.00    -0.344 OA
BRANCH  19  20
HETATM   20  C   UNL     1      -1.851   7.018 -30.908  1.00  0.00     0.070 A 
HETATM   21  C   UNL     1      -2.002   7.031 -29.521  1.00  0.00     0.060 A 
HETATM   22  C   UNL     1      -0.873   7.046 -28.699  1.00  0.00     0.036 A 
HETATM   23 CL   UNL     1      -1.069   7.069 -26.988  1.00  0.00    -0.084 Cl
HETATM   24  C   UNL     1       0.408   7.046 -29.246  1.00  0.00     0.024 A 
HETATM   25  C   UNL     1       0.563   7.040 -30.630  1.00  0.00     0.004 A 
HETATM   26  C   UNL     1      -0.564   7.032 -31.454  1.00  0.00     0.037 A 
ENDBRANCH  19  20
ENDBRANCH   4  19
TORSDOF 3
ENDMDL
MODEL 8
REMARK VINA RESULT:      -7.9      3.855      8.799
REMARK  3 active torsions:
REMARK  status: ('A' for Active; 'I' for Inactive)
REMARK    1  A    between atoms: C_10  and  C_11 
REMARK       I    between atoms: C_11  and  N_12 
REMARK    2  A    between atoms: C_14  and  O_15 
REMARK    3  A    between atoms: O_15  and  C_16 
ROOT
HETATM    1  C   UNL     1      -6.327   1.015 -33.774  1.00  0.00     0.255 C 
HETATM    2  N   UNL     1      -7.624   1.114 -33.304  1.00  0.00    -0.345 N 
HETATM    3  C   UNL     1      -8.236   2.427 -33.130  1.00  0.00     0.158 C 
HETATM    4  C   UNL     1      -9.288   2.226 -32.031  1.00  0.00     0.148 C 
HETATM    5  C   UNL     1      -9.729   0.787 -32.298  1.00  0.00     0.054 C 
HETATM    6  C   UNL     1      -8.422   0.091 -32.642  1.00  0.00     0.129 C 
HETATM    7  O   UNL     1      -5.682   1.985 -34.163  1.00  0.00    -0.267 OA
ENDROOT
BRANCH   1   8
HETATM    8  C   UNL     1      -5.648  -0.293 -33.746  1.00  0.00     0.050 A 
HETATM    9  C   UNL     1      -4.454  -0.388 -33.033  1.00  0.00     0.136 A 
HETATM   10  N   UNL     1      -3.710  -1.514 -32.881  1.00  0.00    -0.240 NA
HETATM   11  C   UNL     1      -4.240  -2.570 -33.528  1.00  0.00     0.155 A 
HETATM   12  N   UNL     1      -3.731  -3.833 -33.564  1.00  0.00    -0.260 N 
HETATM   13  C   UNL     1      -5.397  -2.603 -34.294  1.00  0.00     0.038 A 
HETATM   14  N   UNL     1      -4.475  -4.701 -34.280  1.00  0.00    -0.177 NA
HETATM   15  H   UNL     1      -2.885  -4.159 -33.114  1.00  0.00     0.191 HD
HETATM   16  C   UNL     1      -5.490  -3.950 -34.735  1.00  0.00     0.065 A 
HETATM   17  C   UNL     1      -6.552  -4.557 -35.574  1.00  0.00     0.073 C 
HETATM   18  C   UNL     1      -6.128  -1.412 -34.433  1.00  0.00     0.036 A 
ENDBRANCH   1   8
BRANCH   4  19
HETATM   19  O   UNL     1     -10.352   3.156 -32.195  1.00  0.00    -0.344 OA
BRANCH  19  20
HETATM   20  C   UNL     1     -11.189   2.988 -33.263  1.00  0.00     0.070 A 
HETATM   21  C   UNL     1     -12.290   2.132 -33.316  1.00  0.00     0.060 A 
HETATM   22  C   UNL     1     -13.047   2.049 -34.487  1.00  0.00     0.036 A 
HETATM   23 CL   UNL     1     -14.401   0.985 -34.547  1.00  0.00    -0.084 Cl
HETATM   24  C   UNL     1     -12.720   2.810 -35.606  1.00  0.00     0.024 A 
HETATM   25  C   UNL     1     -11.618   3.661 -35.558  1.00  0.00     0.004 A 
HETATM   26  C   UNL     1     -10.854   3.741 -34.392  1.00  0.00     0.037 A 
ENDBRANCH  19  20
ENDBRANCH   4  19
TORSDOF 3
ENDMDL
MODEL 9
REMARK VINA RESULT:      -7.7      4.147      9.163
REMARK  3 active torsions:
REMARK  status: ('A' for Active; 'I' for Inactive)
REMARK    1  A    between atoms: C_10  and  C_11 
REMARK       I    between atoms: C_11  and  N_12 
REMARK    2  A    between atoms: C_14  and  O_15 
REMARK    3  A    between atoms: O_15  and  C_16 
ROOT
HETATM    1  C   UNL     1      -7.265   0.836 -34.703  1.00  0.00     0.255 C 
HETATM    2  N   UNL     1      -8.551   0.825 -34.195  1.00  0.00    -0.345 N 
HETATM    3  C   UNL     1      -9.397   2.006 -34.328  1.00  0.00     0.158 C 
HETATM    4  C   UNL     1     -10.378   1.920 -33.151  1.00  0.00     0.148 C 
HETATM    5  C   UNL     1     -10.544   0.407 -33.010  1.00  0.00     0.054 C 
HETATM    6  C   UNL     1      -9.134  -0.112 -33.244  1.00  0.00     0.129 C 
HETATM    7  O   UNL     1      -6.819   1.767 -35.369  1.00  0.00    -0.267 OA
ENDROOT
BRANCH   1   8
HETATM    8  C   UNL     1      -6.352  -0.275 -34.382  1.00  0.00     0.050 A 
HETATM    9  C   UNL     1      -5.264  -0.002 -33.554  1.00  0.00     0.136 A 
HETATM   10  N   UNL     1      -4.339  -0.904 -33.138  1.00  0.00    -0.240 NA
HETATM   11  C   UNL     1      -4.565  -2.136 -33.634  1.00  0.00     0.155 A 
HETATM   12  N   UNL     1      -3.818  -3.251 -33.399  1.00  0.00    -0.260 N 
HETATM   13  C   UNL     1      -5.585  -2.533 -34.487  1.00  0.00     0.038 A 
HETATM   14  N   UNL     1      -4.279  -4.357 -34.017  1.00  0.00    -0.177 NA
HETATM   15  H   UNL     1      -2.989  -3.314 -32.822  1.00  0.00     0.191 HD
HETATM   16  C   UNL     1      -5.355  -3.921 -34.690  1.00  0.00     0.065 A 
HETATM   17  C   UNL     1      -6.161  -4.863 -35.504  1.00  0.00     0.073 C 
HETATM   18  C   UNL     1      -6.511  -1.563 -34.902  1.00  0.00     0.036 A 
ENDBRANCH   1   8
BRANCH   4  19
HETATM   19  O   UNL     1     -11.599   2.569 -33.483  1.00  0.00    -0.344 OA
BRANCH  19  20
HETATM   20  C   UNL     1     -11.608   3.936 -33.515  1.00  0.00     0.070 A 
HETATM   21  C   UNL     1     -11.995   4.729 -34.596  1.00  0.00     0.060 A 
HETATM   22  C   UNL     1     -11.935   6.120 -34.492  1.00  0.00     0.036 A 
HETATM   23 CL   UNL     1     -12.407   7.092 -35.834  1.00  0.00    -0.084 Cl
HETATM   24  C   UNL     1     -11.493   6.731 -33.321  1.00  0.00     0.024 A 
HETATM   25  C   UNL     1     -11.101   5.942 -32.242  1.00  0.00     0.004 A 
HETATM   26  C   UNL     1     -11.153   4.551 -32.345  1.00  0.00     0.037 A 
ENDBRANCH  19  20
ENDBRANCH   4  19
TORSDOF 3
ENDMDL
MODEL 10
REMARK VINA RESULT:      -7.7     15.533     19.081
REMARK  3 active torsions:
REMARK  status: ('A' for Active; 'I' for Inactive)
REMARK    1  A    between atoms: C_10  and  C_11 
REMARK       I    between atoms: C_11  and  N_12 
REMARK    2  A    between atoms: C_14  and  O_15 
REMARK    3  A    between atoms: O_15  and  C_16 
ROOT
HETATM    1  C   UNL     1      -2.768 -12.897 -38.493  1.00  0.00     0.255 C 
HETATM    2  N   UNL     1      -3.766 -12.876 -39.451  1.00  0.00    -0.345 N 
HETATM    3  C   UNL     1      -5.088 -12.361 -39.113  1.00  0.00     0.158 C 
HETATM    4  C   UNL     1      -6.045 -13.078 -40.074  1.00  0.00     0.148 C 
HETATM    5  C   UNL     1      -5.164 -13.234 -41.312  1.00  0.00     0.054 C 
HETATM    6  C   UNL     1      -3.808 -13.587 -40.721  1.00  0.00     0.129 C 
HETATM    7  O   UNL     1      -2.902 -12.397 -37.379  1.00  0.00    -0.267 OA
ENDROOT
BRANCH   1   8
HETATM    8  C   UNL     1      -1.509 -13.607 -38.779  1.00  0.00     0.050 A 
HETATM    9  C   UNL     1      -1.023 -13.566 -40.084  1.00  0.00     0.136 A 
HETATM   10  N   UNL     1       0.128 -14.141 -40.520  1.00  0.00    -0.240 NA
HETATM   11  C   UNL     1       0.773 -14.801 -39.540  1.00  0.00     0.155 A 
HETATM   12  N   UNL     1       1.951 -15.476 -39.660  1.00  0.00    -0.260 N 
HETATM   13  C   UNL     1       0.386 -14.946 -38.215  1.00  0.00     0.038 A 
HETATM   14  N   UNL     1       2.378 -16.039 -38.512  1.00  0.00    -0.177 NA
HETATM   15  H   UNL     1       2.507 -15.580 -40.500  1.00  0.00     0.191 HD
HETATM   16  C   UNL     1       1.419 -15.724 -37.628  1.00  0.00     0.065 A 
HETATM   17  C   UNL     1       1.531 -16.163 -36.215  1.00  0.00     0.073 C 
HETATM   18  C   UNL     1      -0.818 -14.345 -37.813  1.00  0.00     0.036 A 
ENDBRANCH   1   8
BRANCH   4  19
HETATM   19  O   UNL     1      -7.188 -12.268 -40.323  1.00  0.00    -0.344 OA
BRANCH  19  20
HETATM   20  C   UNL     1      -8.414 -12.873 -40.318  1.00  0.00     0.070 A 
HETATM   21  C   UNL     1      -8.652 -14.245 -40.405  1.00  0.00     0.060 A 
HETATM   22  C   UNL     1      -9.965 -14.723 -40.407  1.00  0.00     0.036 A 
HETATM   23 CL   UNL     1     -10.251 -16.417 -40.522  1.00  0.00    -0.084 Cl
HETATM   24  C   UNL     1     -11.044 -13.846 -40.321  1.00  0.00     0.024 A 
HETATM   25  C   UNL     1     -10.809 -12.475 -40.240  1.00  0.00     0.004 A 
HETATM   26  C   UNL     1      -9.498 -11.995 -40.245  1.00  0.00     0.037 A 
ENDBRANCH  19  20
ENDBRANCH   4  19
TORSDOF 3
ENDMDL
