MODEL 1
REMARK VINA RESULT:      -6.6      0.000      0.000
REMARK  9 active torsions:
REMARK  status: ('A' for Active; 'I' for Inactive)
REMARK    1  A    between atoms: C_2  and  C_3 
REMARK    2  A    between atoms: C_3  and  O_4 
REMARK    3  A    between atoms: C_3  and  C_5 
REMARK    4  A    between atoms: C_5  and  N_6 
REMARK    5  A    between atoms: N_6  and  C_8 
REMARK    6  A    between atoms: N_6  and  C_21 
REMARK    7  A    between atoms: C_8  and  C_9 
REMARK    8  A    between atoms: C_10  and  C_11 
REMARK    9  A    between atoms: C_21  and  C_22 
ROOT
HETATM    1  N   UNL     1      -5.999   2.206 -30.861  1.00  0.00    -0.061 N 
HETATM    2  H   UNL     1      -5.980   2.273 -31.882  1.00  0.00     0.280 HD
ENDROOT
BRANCH   1   3
HETATM    3  C   UNL     1      -5.060   3.296 -30.362  1.00  0.00     0.267 C 
BRANCH   3   4
HETATM    4  C   UNL     1      -4.071   3.839 -31.420  1.00  0.00     0.143 C 
BRANCH   4   5
HETATM    5  C   UNL     1      -4.427   3.533 -32.877  1.00  0.00     0.029 C 
HETATM    6  C   UNL     1      -5.378   4.543 -33.497  1.00  0.00     0.007 C 
ENDBRANCH   4   5
BRANCH   4   7
HETATM    7  O   UNL     1      -2.766   3.328 -31.151  1.00  0.00    -0.394 OA
HETATM    8  H   UNL     1      -2.215   4.064 -30.817  1.00  0.00     0.210 HD
ENDBRANCH   4   7
ENDBRANCH   3   4
ENDBRANCH   1   3
BRANCH   1   9
HETATM    9  C   UNL     1      -5.594   0.774 -30.569  1.00  0.00     0.277 C 
BRANCH   9  10
HETATM   10  C   UNL     1      -4.443   0.163 -31.289  1.00  0.00     0.016 A 
HETATM   11  C   UNL     1      -4.484  -0.352 -32.631  1.00  0.00     0.096 A 
HETATM   12  N   UNL     1      -3.308  -0.892 -32.975  1.00  0.00    -0.174 NA
HETATM   13  N   UNL     1      -2.502  -0.659 -31.940  1.00  0.00    -0.288 N 
HETATM   14  H   UNL     1      -1.532  -0.953 -32.012  1.00  0.00     0.188 HD
HETATM   15  C   UNL     1      -3.136  -0.054 -30.892  1.00  0.00     0.120 A 
BRANCH  11  16
HETATM   16  C   UNL     1      -5.606  -0.376 -33.569  1.00  0.00    -0.005 A 
HETATM   17  C   UNL     1      -6.302  -1.563 -33.834  1.00  0.00     0.014 A 
HETATM   18  C   UNL     1      -7.366  -1.567 -34.742  1.00  0.00     0.001 A 
HETATM   19  C   UNL     1      -7.749  -0.387 -35.377  1.00  0.00     0.000 A 
HETATM   20  C   UNL     1      -7.077   0.801 -35.102  1.00  0.00     0.001 A 
HETATM   21  C   UNL     1      -6.011   0.809 -34.200  1.00  0.00     0.014 A 
ENDBRANCH  11  16
ENDBRANCH   9  10
ENDBRANCH   1   9
BRANCH   1  22
HETATM   22  C   UNL     1      -7.446   2.451 -30.481  1.00  0.00     0.273 C 
BRANCH  22  23
HETATM   23  C   UNL     1      -8.416   2.003 -31.544  1.00  0.00    -0.033 A 
HETATM   24  C   UNL     1      -8.892   2.907 -32.506  1.00  0.00     0.009 A 
HETATM   25  C   UNL     1      -9.820   2.496 -33.464  1.00  0.00     0.001 A 
HETATM   26  C   UNL     1     -10.276   1.179 -33.475  1.00  0.00     0.000 A 
HETATM   27  C   UNL     1      -9.802   0.270 -32.533  1.00  0.00     0.001 A 
HETATM   28  C   UNL     1      -8.875   0.677 -31.572  1.00  0.00     0.009 A 
ENDBRANCH  22  23
ENDBRANCH   1  22
TORSDOF 9
ENDMDL
MODEL 2
REMARK VINA RESULT:      -6.6      2.520      6.026
REMARK  9 active torsions:
REMARK  status: ('A' for Active; 'I' for Inactive)
REMARK    1  A    between atoms: C_2  and  C_3 
REMARK    2  A    between atoms: C_3  and  O_4 
REMARK    3  A    between atoms: C_3  and  C_5 
REMARK    4  A    between atoms: C_5  and  N_6 
REMARK    5  A    between atoms: N_6  and  C_8 
REMARK    6  A    between atoms: N_6  and  C_21 
REMARK    7  A    between atoms: C_8  and  C_9 
REMARK    8  A    between atoms: C_10  and  C_11 
REMARK    9  A    between atoms: C_21  and  C_22 
ROOT
HETATM    1  N   UNL     1      -6.742   1.168 -33.237  1.00  0.00    -0.061 N 
HETATM    2  H   UNL     1      -7.388   0.503 -33.672  1.00  0.00     0.280 HD
ENDROOT
BRANCH   1   3
HETATM    3  C   UNL     1      -7.395   1.570 -31.922  1.00  0.00     0.267 C 
BRANCH   3   4
HETATM    4  C   UNL     1      -8.694   0.805 -31.578  1.00  0.00     0.143 C 
BRANCH   4   5
HETATM    5  C   UNL     1      -9.503   0.302 -32.776  1.00  0.00     0.029 C 
HETATM    6  C   UNL     1     -10.499   1.320 -33.309  1.00  0.00     0.007 C 
ENDBRANCH   4   5
BRANCH   4   7
HETATM    7  O   UNL     1      -9.532   1.635 -30.775  1.00  0.00    -0.394 OA
HETATM    8  H   UNL     1      -8.959   2.166 -30.186  1.00  0.00     0.210 HD
ENDBRANCH   4   7
ENDBRANCH   3   4
ENDBRANCH   1   3
BRANCH   1   9
HETATM    9  C   UNL     1      -6.571   2.262 -34.274  1.00  0.00     0.277 C 
BRANCH   9  10
HETATM   10  C   UNL     1      -6.957   3.663 -33.950  1.00  0.00     0.016 A 
HETATM   11  C   UNL     1      -6.037   4.738 -33.696  1.00  0.00     0.096 A 
HETATM   12  N   UNL     1      -6.688   5.862 -33.372  1.00  0.00    -0.174 NA
HETATM   13  N   UNL     1      -7.981   5.564 -33.500  1.00  0.00    -0.288 N 
HETATM   14  H   UNL     1      -8.662   6.303 -33.341  1.00  0.00     0.188 HD
HETATM   15  C   UNL     1      -8.201   4.254 -33.819  1.00  0.00     0.120 A 
BRANCH  11  16
HETATM   16  C   UNL     1      -4.575   4.716 -33.715  1.00  0.00    -0.005 A 
HETATM   17  C   UNL     1      -3.844   4.177 -32.649  1.00  0.00     0.014 A 
HETATM   18  C   UNL     1      -2.446   4.175 -32.682  1.00  0.00     0.001 A 
HETATM   19  C   UNL     1      -1.772   4.697 -33.785  1.00  0.00     0.000 A 
HETATM   20  C   UNL     1      -2.491   5.215 -34.859  1.00  0.00     0.001 A 
HETATM   21  C   UNL     1      -3.887   5.223 -34.828  1.00  0.00     0.014 A 
ENDBRANCH  11  16
ENDBRANCH   9  10
ENDBRANCH   1   9
BRANCH   1  22
HETATM   22  C   UNL     1      -5.454   0.392 -33.047  1.00  0.00     0.273 C 
BRANCH  22  23
HETATM   23  C   UNL     1      -5.506  -0.990 -33.647  1.00  0.00    -0.033 A 
HETATM   24  C   UNL     1      -4.337  -1.753 -33.789  1.00  0.00     0.009 A 
HETATM   25  C   UNL     1      -4.387  -3.017 -34.381  1.00  0.00     0.001 A 
HETATM   26  C   UNL     1      -5.601  -3.531 -34.829  1.00  0.00     0.000 A 
HETATM   27  C   UNL     1      -6.769  -2.789 -34.681  1.00  0.00     0.001 A 
HETATM   28  C   UNL     1      -6.725  -1.524 -34.092  1.00  0.00     0.009 A 
ENDBRANCH  22  23
ENDBRANCH   1  22
TORSDOF 9
ENDMDL
MODEL 3
REMARK VINA RESULT:      -6.5      2.070      5.097
REMARK  9 active torsions:
REMARK  status: ('A' for Active; 'I' for Inactive)
REMARK    1  A    between atoms: C_2  and  C_3 
REMARK    2  A    between atoms: C_3  and  O_4 
REMARK    3  A    between atoms: C_3  and  C_5 
REMARK    4  A    between atoms: C_5  and  N_6 
REMARK    5  A    between atoms: N_6  and  C_8 
REMARK    6  A    between atoms: N_6  and  C_21 
REMARK    7  A    between atoms: C_8  and  C_9 
REMARK    8  A    between atoms: C_10  and  C_11 
REMARK    9  A    between atoms: C_21  and  C_22 
ROOT
HETATM    1  N   UNL     1      -6.310   3.374 -32.420  1.00  0.00    -0.061 N 
HETATM    2  H   UNL     1      -6.811   2.598 -31.978  1.00  0.00     0.280 HD
ENDROOT
BRANCH   1   3
HETATM    3  C   UNL     1      -5.147   3.691 -31.491  1.00  0.00     0.267 C 
BRANCH   3   4
HETATM    4  C   UNL     1      -5.195   2.977 -30.119  1.00  0.00     0.143 C 
BRANCH   4   5
HETATM    5  C   UNL     1      -6.335   1.972 -29.936  1.00  0.00     0.029 C 
HETATM    6  C   UNL     1      -5.860   0.562 -29.626  1.00  0.00     0.007 C 
ENDBRANCH   4   5
BRANCH   4   7
HETATM    7  O   UNL     1      -5.275   3.954 -29.081  1.00  0.00    -0.394 OA
HETATM    8  H   UNL     1      -5.272   4.839 -29.497  1.00  0.00     0.210 HD
ENDBRANCH   4   7
ENDBRANCH   3   4
ENDBRANCH   1   3
BRANCH   1   9
HETATM    9  C   UNL     1      -7.362   4.454 -32.587  1.00  0.00     0.277 C 
BRANCH   9  10
HETATM   10  C   UNL     1      -8.397   4.656 -31.536  1.00  0.00     0.016 A 
HETATM   11  C   UNL     1      -9.502   3.772 -31.281  1.00  0.00     0.096 A 
HETATM   12  N   UNL     1     -10.293   4.256 -30.316  1.00  0.00    -0.174 NA
HETATM   13  N   UNL     1      -9.685   5.363 -29.890  1.00  0.00    -0.288 N 
HETATM   14  H   UNL     1     -10.102   5.872 -29.116  1.00  0.00     0.188 HD
HETATM   15  C   UNL     1      -8.559   5.664 -30.603  1.00  0.00     0.120 A 
BRANCH  11  16
HETATM   16  C   UNL     1      -9.841   2.514 -31.947  1.00  0.00    -0.005 A 
HETATM   17  C   UNL     1     -10.789   2.473 -32.978  1.00  0.00     0.014 A 
HETATM   18  C   UNL     1     -11.107   1.259 -33.594  1.00  0.00     0.001 A 
HETATM   19  C   UNL     1     -10.471   0.084 -33.196  1.00  0.00     0.000 A 
HETATM   20  C   UNL     1      -9.511   0.120 -32.187  1.00  0.00     0.001 A 
HETATM   21  C   UNL     1      -9.194   1.329 -31.566  1.00  0.00     0.014 A 
ENDBRANCH  11  16
ENDBRANCH   9  10
ENDBRANCH   1   9
BRANCH   1  22
HETATM   22  C   UNL     1      -5.865   2.835 -33.764  1.00  0.00     0.273 C 
BRANCH  22  23
HETATM   23  C   UNL     1      -6.274   1.402 -33.989  1.00  0.00    -0.033 A 
HETATM   24  C   UNL     1      -5.727   0.370 -33.210  1.00  0.00     0.009 A 
HETATM   25  C   UNL     1      -6.082  -0.959 -33.449  1.00  0.00     0.001 A 
HETATM   26  C   UNL     1      -6.988  -1.269 -34.460  1.00  0.00     0.000 A 
HETATM   27  C   UNL     1      -7.547  -0.253 -35.231  1.00  0.00     0.001 A 
HETATM   28  C   UNL     1      -7.194   1.077 -34.998  1.00  0.00     0.009 A 
ENDBRANCH  22  23
ENDBRANCH   1  22
TORSDOF 9
ENDMDL
MODEL 4
REMARK VINA RESULT:      -6.5      2.939      5.703
REMARK  9 active torsions:
REMARK  status: ('A' for Active; 'I' for Inactive)
REMARK    1  A    between atoms: C_2  and  C_3 
REMARK    2  A    between atoms: C_3  and  O_4 
REMARK    3  A    between atoms: C_3  and  C_5 
REMARK    4  A    between atoms: C_5  and  N_6 
REMARK    5  A    between atoms: N_6  and  C_8 
REMARK    6  A    between atoms: N_6  and  C_21 
REMARK    7  A    between atoms: C_8  and  C_9 
REMARK    8  A    between atoms: C_10  and  C_11 
REMARK    9  A    between atoms: C_21  and  C_22 
ROOT
HETATM    1  N   UNL     1      -9.972   2.494 -33.024  1.00  0.00    -0.061 N 
HETATM    2  H   UNL     1      -9.516   2.605 -33.934  1.00  0.00     0.280 HD
ENDROOT
BRANCH   1   3
HETATM    3  C   UNL     1     -11.436   2.838 -33.255  1.00  0.00     0.267 C 
BRANCH   3   4
HETATM    4  C   UNL     1     -11.865   2.897 -34.740  1.00  0.00     0.143 C 
BRANCH   4   5
HETATM    5  C   UNL     1     -12.366   1.579 -35.338  1.00  0.00     0.029 C 
HETATM    6  C   UNL     1     -13.366   0.851 -34.455  1.00  0.00     0.007 C 
ENDBRANCH   4   5
BRANCH   4   7
HETATM    7  O   UNL     1     -10.774   3.372 -35.528  1.00  0.00    -0.394 OA
HETATM    8  H   UNL     1     -11.111   4.074 -36.120  1.00  0.00     0.210 HD
ENDBRANCH   4   7
ENDBRANCH   3   4
ENDBRANCH   1   3
BRANCH   1   9
HETATM    9  C   UNL     1      -9.195   3.413 -32.099  1.00  0.00     0.277 C 
BRANCH   9  10
HETATM   10  C   UNL     1      -8.035   4.186 -32.620  1.00  0.00     0.016 A 
HETATM   11  C   UNL     1      -6.662   3.758 -32.567  1.00  0.00     0.096 A 
HETATM   12  N   UNL     1      -5.846   4.698 -33.059  1.00  0.00    -0.174 NA
HETATM   13  N   UNL     1      -6.652   5.662 -33.502  1.00  0.00    -0.288 N 
HETATM   14  H   UNL     1      -6.232   6.465 -33.962  1.00  0.00     0.188 HD
HETATM   15  C   UNL     1      -7.971   5.420 -33.242  1.00  0.00     0.120 A 
BRANCH  11  16
HETATM   16  C   UNL     1      -6.112   2.512 -32.034  1.00  0.00    -0.005 A 
HETATM   17  C   UNL     1      -6.575   1.974 -30.826  1.00  0.00     0.014 A 
HETATM   18  C   UNL     1      -6.029   0.788 -30.328  1.00  0.00     0.001 A 
HETATM   19  C   UNL     1      -5.029   0.125 -31.039  1.00  0.00     0.000 A 
HETATM   20  C   UNL     1      -4.579   0.641 -32.252  1.00  0.00     0.001 A 
HETATM   21  C   UNL     1      -5.119   1.828 -32.750  1.00  0.00     0.014 A 
ENDBRANCH  11  16
ENDBRANCH   9  10
ENDBRANCH   1   9
BRANCH   1  22
HETATM   22  C   UNL     1      -9.756   1.040 -32.654  1.00  0.00     0.273 C 
BRANCH  22  23
HETATM   23  C   UNL     1      -8.690   0.374 -33.486  1.00  0.00    -0.033 A 
HETATM   24  C   UNL     1      -8.096  -0.825 -33.063  1.00  0.00     0.009 A 
HETATM   25  C   UNL     1      -7.083  -1.416 -33.820  1.00  0.00     0.001 A 
HETATM   26  C   UNL     1      -6.658  -0.822 -35.006  1.00  0.00     0.000 A 
HETATM   27  C   UNL     1      -7.249   0.361 -35.442  1.00  0.00     0.001 A 
HETATM   28  C   UNL     1      -8.261   0.958 -34.689  1.00  0.00     0.009 A 
ENDBRANCH  22  23
ENDBRANCH   1  22
TORSDOF 9
ENDMDL
MODEL 5
REMARK VINA RESULT:      -6.5      2.294      5.663
REMARK  9 active torsions:
REMARK  status: ('A' for Active; 'I' for Inactive)
REMARK    1  A    between atoms: C_2  and  C_3 
REMARK    2  A    between atoms: C_3  and  O_4 
REMARK    3  A    between atoms: C_3  and  C_5 
REMARK    4  A    between atoms: C_5  and  N_6 
REMARK    5  A    between atoms: N_6  and  C_8 
REMARK    6  A    between atoms: N_6  and  C_21 
REMARK    7  A    between atoms: C_8  and  C_9 
REMARK    8  A    between atoms: C_10  and  C_11 
REMARK    9  A    between atoms: C_21  and  C_22 
ROOT
HETATM    1  N   UNL     1      -5.461   0.966 -32.889  1.00  0.00    -0.061 N 
HETATM    2  H   UNL     1      -5.009   0.767 -33.786  1.00  0.00     0.280 HD
ENDROOT
BRANCH   1   3
HETATM    3  C   UNL     1      -6.634   1.880 -33.216  1.00  0.00     0.267 C 
BRANCH   3   4
HETATM    4  C   UNL     1      -7.951   1.537 -32.482  1.00  0.00     0.143 C 
BRANCH   4   5
HETATM    5  C   UNL     1      -9.092   1.033 -33.370  1.00  0.00     0.029 C 
HETATM    6  C   UNL     1      -9.940  -0.047 -32.719  1.00  0.00     0.007 C 
ENDBRANCH   4   5
BRANCH   4   7
HETATM    7  O   UNL     1      -8.404   2.686 -31.764  1.00  0.00    -0.394 OA
HETATM    8  H   UNL     1      -7.620   3.218 -31.520  1.00  0.00     0.210 HD
ENDBRANCH   4   7
ENDBRANCH   3   4
ENDBRANCH   1   3
BRANCH   1   9
HETATM    9  C   UNL     1      -4.357   1.555 -32.031  1.00  0.00     0.277 C 
BRANCH   9  10
HETATM   10  C   UNL     1      -4.623   2.762 -31.201  1.00  0.00     0.016 A 
HETATM   11  C   UNL     1      -4.163   4.091 -31.500  1.00  0.00     0.096 A 
HETATM   12  N   UNL     1      -4.509   4.949 -30.532  1.00  0.00    -0.174 NA
HETATM   13  N   UNL     1      -5.245   4.235 -29.681  1.00  0.00    -0.288 N 
HETATM   14  H   UNL     1      -5.653   4.712 -28.882  1.00  0.00     0.188 HD
HETATM   15  C   UNL     1      -5.324   2.913 -30.018  1.00  0.00     0.120 A 
BRANCH  11  16
HETATM   16  C   UNL     1      -3.382   4.553 -32.647  1.00  0.00    -0.005 A 
HETATM   17  C   UNL     1      -3.991   4.802 -33.885  1.00  0.00     0.014 A 
HETATM   18  C   UNL     1      -3.225   5.233 -34.972  1.00  0.00     0.001 A 
HETATM   19  C   UNL     1      -1.853   5.431 -34.826  1.00  0.00     0.000 A 
HETATM   20  C   UNL     1      -1.243   5.208 -33.594  1.00  0.00     0.001 A 
HETATM   21  C   UNL     1      -2.004   4.773 -32.507  1.00  0.00     0.014 A 
ENDBRANCH  11  16
ENDBRANCH   9  10
ENDBRANCH   1   9
BRANCH   1  22
HETATM   22  C   UNL     1      -5.894  -0.388 -32.363  1.00  0.00     0.273 C 
BRANCH  22  23
HETATM   23  C   UNL     1      -5.749  -1.489 -33.383  1.00  0.00    -0.033 A 
HETATM   24  C   UNL     1      -6.877  -2.024 -34.024  1.00  0.00     0.009 A 
HETATM   25  C   UNL     1      -6.739  -3.070 -34.940  1.00  0.00     0.001 A 
HETATM   26  C   UNL     1      -5.478  -3.585 -35.227  1.00  0.00     0.000 A 
HETATM   27  C   UNL     1      -4.350  -3.053 -34.607  1.00  0.00     0.001 A 
HETATM   28  C   UNL     1      -4.482  -2.010 -33.689  1.00  0.00     0.009 A 
ENDBRANCH  22  23
ENDBRANCH   1  22
TORSDOF 9
ENDMDL
MODEL 6
REMARK VINA RESULT:      -6.4      2.724      5.209
REMARK  9 active torsions:
REMARK  status: ('A' for Active; 'I' for Inactive)
REMARK    1  A    between atoms: C_2  and  C_3 
REMARK    2  A    between atoms: C_3  and  O_4 
REMARK    3  A    between atoms: C_3  and  C_5 
REMARK    4  A    between atoms: C_5  and  N_6 
REMARK    5  A    between atoms: N_6  and  C_8 
REMARK    6  A    between atoms: N_6  and  C_21 
REMARK    7  A    between atoms: C_8  and  C_9 
REMARK    8  A    between atoms: C_10  and  C_11 
REMARK    9  A    between atoms: C_21  and  C_22 
ROOT
HETATM    1  N   UNL     1      -6.038  -1.769 -34.191  1.00  0.00    -0.061 N 
HETATM    2  H   UNL     1      -6.226  -2.146 -33.257  1.00  0.00     0.280 HD
ENDROOT
BRANCH   1   3
HETATM    3  C   UNL     1      -5.409  -2.913 -34.974  1.00  0.00     0.267 C 
BRANCH   3   4
HETATM    4  C   UNL     1      -5.818  -4.328 -34.503  1.00  0.00     0.143 C 
BRANCH   4   5
HETATM    5  C   UNL     1      -4.666  -5.318 -34.305  1.00  0.00     0.029 C 
HETATM    6  C   UNL     1      -3.478  -4.730 -33.563  1.00  0.00     0.007 C 
ENDBRANCH   4   5
BRANCH   4   7
HETATM    7  O   UNL     1      -6.745  -4.885 -35.434  1.00  0.00    -0.394 OA
HETATM    8  H   UNL     1      -7.540  -4.315 -35.449  1.00  0.00     0.210 HD
ENDBRANCH   4   7
ENDBRANCH   3   4
ENDBRANCH   1   3
BRANCH   1   9
HETATM    9  C   UNL     1      -5.164  -0.555 -33.938  1.00  0.00     0.277 C 
BRANCH   9  10
HETATM   10  C   UNL     1      -4.216  -0.546 -32.791  1.00  0.00     0.016 A 
HETATM   11  C   UNL     1      -4.152   0.471 -31.776  1.00  0.00     0.096 A 
HETATM   12  N   UNL     1      -3.155   0.231 -30.916  1.00  0.00    -0.174 NA
HETATM   13  N   UNL     1      -2.643  -0.940 -31.294  1.00  0.00    -0.288 N 
HETATM   14  H   UNL     1      -1.890  -1.336 -30.738  1.00  0.00     0.188 HD
HETATM   15  C   UNL     1      -3.223  -1.438 -32.426  1.00  0.00     0.120 A 
BRANCH  11  16
HETATM   16  C   UNL     1      -4.981   1.667 -31.626  1.00  0.00    -0.005 A 
HETATM   17  C   UNL     1      -5.700   1.907 -30.447  1.00  0.00     0.014 A 
HETATM   18  C   UNL     1      -6.495   3.051 -30.328  1.00  0.00     0.001 A 
HETATM   19  C   UNL     1      -6.565   3.967 -31.376  1.00  0.00     0.000 A 
HETATM   20  C   UNL     1      -5.836   3.748 -32.542  1.00  0.00     0.001 A 
HETATM   21  C   UNL     1      -5.045   2.604 -32.667  1.00  0.00     0.014 A 
ENDBRANCH  11  16
ENDBRANCH   9  10
ENDBRANCH   1   9
BRANCH   1  22
HETATM   22  C   UNL     1      -7.396  -1.360 -34.726  1.00  0.00     0.273 C 
BRANCH  22  23
HETATM   23  C   UNL     1      -7.995  -0.196 -33.981  1.00  0.00    -0.033 A 
HETATM   24  C   UNL     1      -8.353  -0.318 -32.629  1.00  0.00     0.009 A 
HETATM   25  C   UNL     1      -8.944   0.753 -31.956  1.00  0.00     0.001 A 
HETATM   26  C   UNL     1      -9.177   1.954 -32.621  1.00  0.00     0.000 A 
HETATM   27  C   UNL     1      -8.815   2.091 -33.959  1.00  0.00     0.001 A 
HETATM   28  C   UNL     1      -8.226   1.023 -34.638  1.00  0.00     0.009 A 
ENDBRANCH  22  23
ENDBRANCH   1  22
TORSDOF 9
ENDMDL
MODEL 7
REMARK VINA RESULT:      -6.4      2.646      5.603
REMARK  9 active torsions:
REMARK  status: ('A' for Active; 'I' for Inactive)
REMARK    1  A    between atoms: C_2  and  C_3 
REMARK    2  A    between atoms: C_3  and  O_4 
REMARK    3  A    between atoms: C_3  and  C_5 
REMARK    4  A    between atoms: C_5  and  N_6 
REMARK    5  A    between atoms: N_6  and  C_8 
REMARK    6  A    between atoms: N_6  and  C_21 
REMARK    7  A    between atoms: C_8  and  C_9 
REMARK    8  A    between atoms: C_10  and  C_11 
REMARK    9  A    between atoms: C_21  and  C_22 
ROOT
HETATM    1  N   UNL     1      -3.851   3.641 -32.210  1.00  0.00    -0.061 N 
HETATM    2  H   UNL     1      -3.518   3.708 -31.244  1.00  0.00     0.280 HD
ENDROOT
BRANCH   1   3
HETATM    3  C   UNL     1      -4.947   4.690 -32.339  1.00  0.00     0.267 C 
BRANCH   3   4
HETATM    4  C   UNL     1      -5.072   5.653 -31.135  1.00  0.00     0.143 C 
BRANCH   4   5
HETATM    5  C   UNL     1      -4.590   7.086 -31.381  1.00  0.00     0.029 C 
HETATM    6  C   UNL     1      -3.630   7.596 -30.319  1.00  0.00     0.007 C 
ENDBRANCH   4   5
BRANCH   4   7
HETATM    7  O   UNL     1      -4.357   5.114 -30.023  1.00  0.00    -0.394 OA
HETATM    8  H   UNL     1      -4.130   4.185 -30.231  1.00  0.00     0.210 HD
ENDBRANCH   4   7
ENDBRANCH   3   4
ENDBRANCH   1   3
BRANCH   1   9
HETATM    9  C   UNL     1      -4.276   2.192 -32.362  1.00  0.00     0.277 C 
BRANCH   9  10
HETATM   10  C   UNL     1      -5.116   1.548 -31.315  1.00  0.00     0.016 A 
HETATM   11  C   UNL     1      -5.784   0.282 -31.451  1.00  0.00     0.096 A 
HETATM   12  N   UNL     1      -6.512   0.002 -30.363  1.00  0.00    -0.174 NA
HETATM   13  N   UNL     1      -6.259   0.995 -29.511  1.00  0.00    -0.288 N 
HETATM   14  H   UNL     1      -6.684   0.955 -28.589  1.00  0.00     0.188 HD
HETATM   15  C   UNL     1      -5.450   1.962 -30.038  1.00  0.00     0.120 A 
BRANCH  11  16
HETATM   16  C   UNL     1      -5.778  -0.638 -32.589  1.00  0.00    -0.005 A 
HETATM   17  C   UNL     1      -6.902  -0.778 -33.413  1.00  0.00     0.014 A 
HETATM   18  C   UNL     1      -6.880  -1.671 -34.489  1.00  0.00     0.001 A 
HETATM   19  C   UNL     1      -5.733  -2.417 -34.755  1.00  0.00     0.000 A 
HETATM   20  C   UNL     1      -4.604  -2.268 -33.954  1.00  0.00     0.001 A 
HETATM   21  C   UNL     1      -4.624  -1.381 -32.876  1.00  0.00     0.014 A 
ENDBRANCH  11  16
ENDBRANCH   9  10
ENDBRANCH   1   9
BRANCH   1  22
HETATM   22  C   UNL     1      -2.636   3.944 -33.063  1.00  0.00     0.273 C 
BRANCH  22  23
HETATM   23  C   UNL     1      -1.711   4.952 -32.431  1.00  0.00    -0.033 A 
HETATM   24  C   UNL     1      -1.157   4.720 -31.162  1.00  0.00     0.009 A 
HETATM   25  C   UNL     1      -0.332   5.676 -30.567  1.00  0.00     0.001 A 
HETATM   26  C   UNL     1      -0.047   6.866 -31.232  1.00  0.00     0.000 A 
HETATM   27  C   UNL     1      -0.580   7.101 -32.497  1.00  0.00     0.001 A 
HETATM   28  C   UNL     1      -1.407   6.151 -33.096  1.00  0.00     0.009 A 
ENDBRANCH  22  23
ENDBRANCH   1  22
TORSDOF 9
ENDMDL
MODEL 8
REMARK VINA RESULT:      -6.4      2.786      5.272
REMARK  9 active torsions:
REMARK  status: ('A' for Active; 'I' for Inactive)
REMARK    1  A    between atoms: C_2  and  C_3 
REMARK    2  A    between atoms: C_3  and  O_4 
REMARK    3  A    between atoms: C_3  and  C_5 
REMARK    4  A    between atoms: C_5  and  N_6 
REMARK    5  A    between atoms: N_6  and  C_8 
REMARK    6  A    between atoms: N_6  and  C_21 
REMARK    7  A    between atoms: C_8  and  C_9 
REMARK    8  A    between atoms: C_10  and  C_11 
REMARK    9  A    between atoms: C_21  and  C_22 
ROOT
HETATM    1  N   UNL     1      -8.036   3.571 -32.851  1.00  0.00    -0.061 N 
HETATM    2  H   UNL     1      -7.524   2.830 -32.365  1.00  0.00     0.280 HD
ENDROOT
BRANCH   1   3
HETATM    3  C   UNL     1      -8.830   4.295 -31.774  1.00  0.00     0.267 C 
BRANCH   3   4
HETATM    4  C   UNL     1      -8.754   3.656 -30.367  1.00  0.00     0.143 C 
BRANCH   4   5
HETATM    5  C   UNL     1      -7.364   3.188 -29.928  1.00  0.00     0.029 C 
HETATM    6  C   UNL     1      -6.462   4.316 -29.454  1.00  0.00     0.007 C 
ENDBRANCH   4   5
BRANCH   4   7
HETATM    7  O   UNL     1      -9.651   2.548 -30.303  1.00  0.00    -0.394 OA
HETATM    8  H   UNL     1      -9.338   1.868 -30.933  1.00  0.00     0.210 HD
ENDBRANCH   4   7
ENDBRANCH   3   4
ENDBRANCH   1   3
BRANCH   1   9
HETATM    9  C   UNL     1      -8.838   2.841 -33.913  1.00  0.00     0.277 C 
BRANCH   9  10
HETATM   10  C   UNL     1      -9.719   1.704 -33.531  1.00  0.00     0.016 A 
HETATM   11  C   UNL     1      -9.263   0.422 -33.066  1.00  0.00     0.096 A 
HETATM   12  N   UNL     1     -10.292  -0.410 -32.863  1.00  0.00    -0.174 NA
HETATM   13  N   UNL     1     -11.382   0.322 -33.093  1.00  0.00    -0.288 N 
HETATM   14  H   UNL     1     -12.290  -0.112 -32.951  1.00  0.00     0.188 HD
HETATM   15  C   UNL     1     -11.098   1.587 -33.521  1.00  0.00     0.120 A 
BRANCH  11  16
HETATM   16  C   UNL     1      -7.892  -0.039 -32.849  1.00  0.00    -0.005 A 
HETATM   17  C   UNL     1      -7.125  -0.552 -33.903  1.00  0.00     0.014 A 
HETATM   18  C   UNL     1      -5.820  -0.997 -33.673  1.00  0.00     0.001 A 
HETATM   19  C   UNL     1      -5.269  -0.918 -32.394  1.00  0.00     0.000 A 
HETATM   20  C   UNL     1      -6.017  -0.389 -31.345  1.00  0.00     0.001 A 
HETATM   21  C   UNL     1      -7.322   0.052 -31.571  1.00  0.00     0.014 A 
ENDBRANCH  11  16
ENDBRANCH   9  10
ENDBRANCH   1   9
BRANCH   1  22
HETATM   22  C   UNL     1      -6.963   4.437 -33.480  1.00  0.00     0.273 C 
BRANCH  22  23
HETATM   23  C   UNL     1      -5.581   4.129 -32.964  1.00  0.00    -0.033 A 
HETATM   24  C   UNL     1      -4.709   5.163 -32.590  1.00  0.00     0.009 A 
HETATM   25  C   UNL     1      -3.416   4.872 -32.149  1.00  0.00     0.001 A 
HETATM   26  C   UNL     1      -2.986   3.549 -32.071  1.00  0.00     0.000 A 
HETATM   27  C   UNL     1      -3.847   2.514 -32.427  1.00  0.00     0.001 A 
HETATM   28  C   UNL     1      -5.139   2.800 -32.871  1.00  0.00     0.009 A 
ENDBRANCH  22  23
ENDBRANCH   1  22
TORSDOF 9
ENDMDL
MODEL 9
REMARK VINA RESULT:      -6.4      2.521      5.953
REMARK  9 active torsions:
REMARK  status: ('A' for Active; 'I' for Inactive)
REMARK    1  A    between atoms: C_2  and  C_3 
REMARK    2  A    between atoms: C_3  and  O_4 
REMARK    3  A    between atoms: C_3  and  C_5 
REMARK    4  A    between atoms: C_5  and  N_6 
REMARK    5  A    between atoms: N_6  and  C_8 
REMARK    6  A    between atoms: N_6  and  C_21 
REMARK    7  A    between atoms: C_8  and  C_9 
REMARK    8  A    between atoms: C_10  and  C_11 
REMARK    9  A    between atoms: C_21  and  C_22 
ROOT
HETATM    1  N   UNL     1      -4.655   0.880 -32.111  1.00  0.00    -0.061 N 
HETATM    2  H   UNL     1      -5.607   0.814 -32.482  1.00  0.00     0.280 HD
ENDROOT
BRANCH   1   3
HETATM    3  C   UNL     1      -4.762   0.505 -30.640  1.00  0.00     0.267 C 
BRANCH   3   4
HETATM    4  C   UNL     1      -6.206   0.404 -30.096  1.00  0.00     0.143 C 
BRANCH   4   5
HETATM    5  C   UNL     1      -7.290   0.127 -31.142  1.00  0.00     0.029 C 
HETATM    6  C   UNL     1      -8.326   1.233 -31.254  1.00  0.00     0.007 C 
ENDBRANCH   4   5
BRANCH   4   7
HETATM    7  O   UNL     1      -6.536   1.610 -29.405  1.00  0.00    -0.394 OA
HETATM    8  H   UNL     1      -7.396   1.928 -29.744  1.00  0.00     0.210 HD
ENDBRANCH   4   7
ENDBRANCH   3   4
ENDBRANCH   1   3
BRANCH   1   9
HETATM    9  C   UNL     1      -4.228   2.302 -32.422  1.00  0.00     0.277 C 
BRANCH   9  10
HETATM   10  C   UNL     1      -5.157   3.221 -33.134  1.00  0.00     0.016 A 
HETATM   11  C   UNL     1      -4.811   4.522 -33.641  1.00  0.00     0.096 A 
HETATM   12  N   UNL     1      -5.877   5.129 -34.175  1.00  0.00    -0.174 NA
HETATM   13  N   UNL     1      -6.860   4.232 -34.108  1.00  0.00    -0.288 N 
HETATM   14  H   UNL     1      -7.762   4.477 -34.506  1.00  0.00     0.188 HD
HETATM   15  C   UNL     1      -6.492   3.081 -33.470  1.00  0.00     0.120 A 
BRANCH  11  16
HETATM   16  C   UNL     1      -3.519   5.207 -33.597  1.00  0.00    -0.005 A 
HETATM   17  C   UNL     1      -2.625   5.136 -34.673  1.00  0.00     0.014 A 
HETATM   18  C   UNL     1      -1.391   5.789 -34.607  1.00  0.00     0.001 A 
HETATM   19  C   UNL     1      -1.049   6.527 -33.475  1.00  0.00     0.000 A 
HETATM   20  C   UNL     1      -1.941   6.621 -32.410  1.00  0.00     0.001 A 
HETATM   21  C   UNL     1      -3.173   5.966 -32.470  1.00  0.00     0.014 A 
ENDBRANCH  11  16
ENDBRANCH   9  10
ENDBRANCH   1   9
BRANCH   1  22
HETATM   22  C   UNL     1      -3.852  -0.119 -32.920  1.00  0.00     0.273 C 
BRANCH  22  23
HETATM   23  C   UNL     1      -4.711  -1.164 -33.584  1.00  0.00    -0.033 A 
HETATM   24  C   UNL     1      -4.258  -2.486 -33.715  1.00  0.00     0.009 A 
HETATM   25  C   UNL     1      -5.043  -3.441 -34.365  1.00  0.00     0.001 A 
HETATM   26  C   UNL     1      -6.287  -3.087 -34.883  1.00  0.00     0.000 A 
HETATM   27  C   UNL     1      -6.752  -1.782 -34.748  1.00  0.00     0.001 A 
HETATM   28  C   UNL     1      -5.971  -0.823 -34.101  1.00  0.00     0.009 A 
ENDBRANCH  22  23
ENDBRANCH   1  22
TORSDOF 9
ENDMDL
MODEL 10
REMARK VINA RESULT:      -6.3      2.028      4.763
REMARK  9 active torsions:
REMARK  status: ('A' for Active; 'I' for Inactive)
REMARK    1  A    between atoms: C_2  and  C_3 
REMARK    2  A    between atoms: C_3  and  O_4 
REMARK    3  A    between atoms: C_3  and  C_5 
REMARK    4  A    between atoms: C_5  and  N_6 
REMARK    5  A    between atoms: N_6  and  C_8 
REMARK    6  A    between atoms: N_6  and  C_21 
REMARK    7  A    between atoms: C_8  and  C_9 
REMARK    8  A    between atoms: C_10  and  C_11 
REMARK    9  A    between atoms: C_21  and  C_22 
ROOT
HETATM    1  N   UNL     1      -5.454   2.136 -32.209  1.00  0.00    -0.061 N 
HETATM    2  H   UNL     1      -4.730   2.242 -31.493  1.00  0.00     0.280 HD
ENDROOT
BRANCH   1   3
HETATM    3  C   UNL     1      -6.771   2.056 -31.451  1.00  0.00     0.267 C 
BRANCH   3   4
HETATM    4  C   UNL     1      -7.425   0.655 -31.427  1.00  0.00     0.143 C 
BRANCH   4   5
HETATM    5  C   UNL     1      -8.936   0.625 -31.676  1.00  0.00     0.029 C 
HETATM    6  C   UNL     1      -9.317   0.106 -33.053  1.00  0.00     0.007 C 
ENDBRANCH   4   5
BRANCH   4   7
HETATM    7  O   UNL     1      -7.156   0.030 -30.172  1.00  0.00    -0.394 OA
HETATM    8  H   UNL     1      -7.773  -0.722 -30.070  1.00  0.00     0.210 HD
ENDBRANCH   4   7
ENDBRANCH   3   4
ENDBRANCH   1   3
BRANCH   1   9
HETATM    9  C   UNL     1      -5.039   0.900 -32.985  1.00  0.00     0.277 C 
BRANCH   9  10
HETATM   10  C   UNL     1      -4.033  -0.036 -32.412  1.00  0.00     0.016 A 
HETATM   11  C   UNL     1      -3.984  -1.452 -32.659  1.00  0.00     0.096 A 
HETATM   12  N   UNL     1      -3.005  -2.030 -31.953  1.00  0.00    -0.174 NA
HETATM   13  N   UNL     1      -2.378  -1.026 -31.341  1.00  0.00    -0.288 N 
HETATM   14  H   UNL     1      -1.560  -1.244 -30.777  1.00  0.00     0.188 HD
HETATM   15  C   UNL     1      -2.967   0.187 -31.559  1.00  0.00     0.120 A 
BRANCH  11  16
HETATM   16  C   UNL     1      -4.855  -2.264 -33.509  1.00  0.00    -0.005 A 
HETATM   17  C   UNL     1      -4.420  -3.490 -34.031  1.00  0.00     0.014 A 
HETATM   18  C   UNL     1      -5.264  -4.245 -34.850  1.00  0.00     0.001 A 
HETATM   19  C   UNL     1      -6.549  -3.789 -35.141  1.00  0.00     0.000 A 
HETATM   20  C   UNL     1      -6.997  -2.583 -34.609  1.00  0.00     0.001 A 
HETATM   21  C   UNL     1      -6.155  -1.823 -33.794  1.00  0.00     0.014 A 
ENDBRANCH  11  16
ENDBRANCH   9  10
ENDBRANCH   1   9
BRANCH   1  22
HETATM   22  C   UNL     1      -5.337   3.381 -33.066  1.00  0.00     0.273 C 
BRANCH  22  23
HETATM   23  C   UNL     1      -3.967   4.006 -33.013  1.00  0.00    -0.033 A 
HETATM   24  C   UNL     1      -3.155   3.857 -31.877  1.00  0.00     0.009 A 
HETATM   25  C   UNL     1      -1.902   4.470 -31.820  1.00  0.00     0.001 A 
HETATM   26  C   UNL     1      -1.447   5.231 -32.894  1.00  0.00     0.000 A 
HETATM   27  C   UNL     1      -2.238   5.375 -34.031  1.00  0.00     0.001 A 
HETATM   28  C   UNL     1      -3.492   4.766 -34.093  1.00  0.00     0.009 A 
ENDBRANCH  22  23
ENDBRANCH   1  22
TORSDOF 9
ENDMDL
