MODEL 1
REMARK VINA RESULT:      -8.2      0.000      0.000
REMARK  4 active torsions:
REMARK  status: ('A' for Active; 'I' for Inactive)
REMARK    1  A    between atoms: C_4  and  N_5 
REMARK    2  A    between atoms: N_5  and  C_6 
REMARK    3  A    between atoms: C_6  and  N_7 
REMARK       I    between atoms: N_7  and  C_8 
REMARK    4  A    between atoms: C_8  and  C_9 
ROOT
HETATM    1  N   UNL     1      -4.554   1.779 -31.920  1.00  0.00    -0.299 N 
HETATM    2  C   UNL     1      -3.899   0.564 -32.079  1.00  0.00     0.257 C 
HETATM    3  O   UNL     1      -2.811   0.249 -31.617  1.00  0.00    -0.267 OA
HETATM    4  H   UNL     1      -5.310   1.959 -32.577  1.00  0.00     0.171 HD
ENDROOT
BRANCH   1   5
HETATM    5  C   UNL     1      -4.411   2.795 -30.999  1.00  0.00     0.180 C 
HETATM    6  S   UNL     1      -5.610   3.467 -30.050  1.00  0.00    -0.040 SA
BRANCH   5   7
HETATM    7  N   UNL     1      -3.145   3.318 -30.875  1.00  0.00    -0.318 N 
HETATM    8  H   UNL     1      -2.666   3.041 -30.027  1.00  0.00     0.170 HD
BRANCH   7   9
HETATM    9  C   UNL     1      -2.449   4.146 -31.769  1.00  0.00     0.129 A 
HETATM   10  C   UNL     1      -1.521   5.040 -31.248  1.00  0.00     0.057 A 
HETATM   11  C   UNL     1      -0.801   5.862 -32.122  1.00  0.00    -0.057 A 
HETATM   12  C   UNL     1       0.202   6.852 -31.611  1.00  0.00     0.048 C 
HETATM   13  C   UNL     1      -1.042   5.755 -33.491  1.00  0.00     0.026 A 
HETATM   14  C   UNL     1      -1.987   4.842 -33.924  1.00  0.00     0.119 A 
HETATM   15  N   UNL     1      -2.699   4.047 -33.095  1.00  0.00    -0.243 NA
ENDBRANCH   7   9
ENDBRANCH   5   7
ENDBRANCH   1   5
BRANCH   2  16
HETATM   16  C   UNL     1      -4.597  -0.360 -33.011  1.00  0.00     0.033 A 
HETATM   17  C   UNL     1      -5.728   0.091 -33.697  1.00  0.00     0.023 A 
HETATM   18  C   UNL     1      -6.427  -0.779 -34.541  1.00  0.00    -0.061 A 
HETATM   19  C   UNL     1      -7.658  -0.321 -35.268  1.00  0.00     0.048 C 
HETATM   20  C   UNL     1      -5.961  -2.091 -34.716  1.00  0.00     0.013 A 
HETATM   21  C   UNL     1      -4.811  -2.543 -34.054  1.00  0.00    -0.061 A 
HETATM   22  C   UNL     1      -4.301  -3.940 -34.255  1.00  0.00     0.048 C 
HETATM   23  C   UNL     1      -4.133  -1.670 -33.196  1.00  0.00     0.023 A 
ENDBRANCH   2  16
TORSDOF 4
ENDMDL
MODEL 2
REMARK VINA RESULT:      -8.2      0.194      1.893
REMARK  4 active torsions:
REMARK  status: ('A' for Active; 'I' for Inactive)
REMARK    1  A    between atoms: C_4  and  N_5 
REMARK    2  A    between atoms: N_5  and  C_6 
REMARK    3  A    between atoms: C_6  and  N_7 
REMARK       I    between atoms: N_7  and  C_8 
REMARK    4  A    between atoms: C_8  and  C_9 
ROOT
HETATM    1  N   UNL     1      -4.670   1.839 -31.952  1.00  0.00    -0.299 N 
HETATM    2  C   UNL     1      -4.072   0.597 -32.135  1.00  0.00     0.257 C 
HETATM    3  O   UNL     1      -2.990   0.232 -31.699  1.00  0.00    -0.267 OA
HETATM    4  H   UNL     1      -5.431   2.058 -32.591  1.00  0.00     0.171 HD
ENDROOT
BRANCH   1   5
HETATM    5  C   UNL     1      -4.465   2.838 -31.024  1.00  0.00     0.180 C 
HETATM    6  S   UNL     1      -5.616   3.562 -30.055  1.00  0.00    -0.040 SA
BRANCH   5   7
HETATM    7  N   UNL     1      -3.172   3.295 -30.911  1.00  0.00    -0.318 N 
HETATM    8  H   UNL     1      -2.684   2.952 -30.093  1.00  0.00     0.170 HD
BRANCH   7   9
HETATM    9  C   UNL     1      -2.462   4.134 -31.783  1.00  0.00     0.129 A 
HETATM   10  C   UNL     1      -1.543   5.022 -31.235  1.00  0.00     0.057 A 
HETATM   11  C   UNL     1      -0.809   5.856 -32.086  1.00  0.00    -0.057 A 
HETATM   12  C   UNL     1       0.184   6.840 -31.545  1.00  0.00     0.048 C 
HETATM   13  C   UNL     1      -1.028   5.767 -33.460  1.00  0.00     0.026 A 
HETATM   14  C   UNL     1      -1.966   4.860 -33.920  1.00  0.00     0.119 A 
HETATM   15  N   UNL     1      -2.690   4.054 -33.114  1.00  0.00    -0.243 NA
ENDBRANCH   7   9
ENDBRANCH   5   7
ENDBRANCH   1   5
BRANCH   2  16
HETATM   16  C   UNL     1      -4.828  -0.286 -33.062  1.00  0.00     0.033 A 
HETATM   17  C   UNL     1      -4.402  -1.604 -33.244  1.00  0.00     0.023 A 
HETATM   18  C   UNL     1      -5.071  -2.436 -34.149  1.00  0.00    -0.061 A 
HETATM   19  C   UNL     1      -4.615  -3.847 -34.378  1.00  0.00     0.048 C 
HETATM   20  C   UNL     1      -6.189  -1.943 -34.840  1.00  0.00     0.013 A 
HETATM   21  C   UNL     1      -6.640  -0.631 -34.641  1.00  0.00    -0.061 A 
HETATM   22  C   UNL     1      -7.847  -0.109 -35.364  1.00  0.00     0.048 C 
HETATM   23  C   UNL     1      -5.949   0.197 -33.750  1.00  0.00     0.023 A 
ENDBRANCH   2  16
TORSDOF 4
ENDMDL
MODEL 3
REMARK VINA RESULT:      -8.0      4.891      7.564
REMARK  4 active torsions:
REMARK  status: ('A' for Active; 'I' for Inactive)
REMARK    1  A    between atoms: C_4  and  N_5 
REMARK    2  A    between atoms: N_5  and  C_6 
REMARK    3  A    between atoms: C_6  and  N_7 
REMARK       I    between atoms: N_7  and  C_8 
REMARK    4  A    between atoms: C_8  and  C_9 
ROOT
HETATM    1  N   UNL     1      -8.010   0.623 -33.035  1.00  0.00    -0.299 N 
HETATM    2  C   UNL     1      -7.668   0.042 -34.251  1.00  0.00     0.257 C 
HETATM    3  O   UNL     1      -8.184   0.256 -35.339  1.00  0.00    -0.267 OA
HETATM    4  H   UNL     1      -7.664   0.143 -32.207  1.00  0.00     0.171 HD
ENDROOT
BRANCH   1   5
HETATM    5  C   UNL     1      -8.704   1.772 -32.720  1.00  0.00     0.180 C 
HETATM    6  S   UNL     1      -8.808   2.505 -31.223  1.00  0.00    -0.040 SA
BRANCH   5   7
HETATM    7  N   UNL     1      -9.400   2.355 -33.754  1.00  0.00    -0.318 N 
HETATM    8  H   UNL     1      -8.837   2.960 -34.340  1.00  0.00     0.170 HD
BRANCH   7   9
HETATM    9  C   UNL     1     -10.750   2.195 -34.099  1.00  0.00     0.129 A 
HETATM   10  C   UNL     1     -11.397   1.033 -33.696  1.00  0.00     0.057 A 
HETATM   11  C   UNL     1     -12.749   0.860 -34.013  1.00  0.00    -0.057 A 
HETATM   12  C   UNL     1     -13.490  -0.380 -33.614  1.00  0.00     0.048 C 
HETATM   13  C   UNL     1     -13.402   1.865 -34.726  1.00  0.00     0.026 A 
HETATM   14  C   UNL     1     -12.681   2.987 -35.093  1.00  0.00     0.119 A 
HETATM   15  N   UNL     1     -11.373   3.167 -34.805  1.00  0.00    -0.243 NA
ENDBRANCH   7   9
ENDBRANCH   5   7
ENDBRANCH   1   5
BRANCH   2  16
HETATM   16  C   UNL     1      -6.639  -1.024 -34.122  1.00  0.00     0.033 A 
HETATM   17  C   UNL     1      -5.509  -0.786 -33.335  1.00  0.00     0.023 A 
HETATM   18  C   UNL     1      -4.505  -1.757 -33.241  1.00  0.00    -0.061 A 
HETATM   19  C   UNL     1      -3.273  -1.512 -32.421  1.00  0.00     0.048 C 
HETATM   20  C   UNL     1      -4.665  -2.979 -33.914  1.00  0.00     0.013 A 
HETATM   21  C   UNL     1      -5.809  -3.236 -34.682  1.00  0.00    -0.061 A 
HETATM   22  C   UNL     1      -5.990  -4.549 -35.386  1.00  0.00     0.048 C 
HETATM   23  C   UNL     1      -6.795  -2.248 -34.785  1.00  0.00     0.023 A 
ENDBRANCH   2  16
TORSDOF 4
ENDMDL
MODEL 4
REMARK VINA RESULT:      -7.9      4.836      7.586
REMARK  4 active torsions:
REMARK  status: ('A' for Active; 'I' for Inactive)
REMARK    1  A    between atoms: C_4  and  N_5 
REMARK    2  A    between atoms: N_5  and  C_6 
REMARK    3  A    between atoms: C_6  and  N_7 
REMARK       I    between atoms: N_7  and  C_8 
REMARK    4  A    between atoms: C_8  and  C_9 
ROOT
HETATM    1  N   UNL     1      -8.013   0.638 -33.048  1.00  0.00    -0.299 N 
HETATM    2  C   UNL     1      -7.685   0.044 -34.262  1.00  0.00     0.257 C 
HETATM    3  O   UNL     1      -8.242   0.214 -35.337  1.00  0.00    -0.267 OA
HETATM    4  H   UNL     1      -7.622   0.192 -32.222  1.00  0.00     0.171 HD
ENDROOT
BRANCH   1   5
HETATM    5  C   UNL     1      -8.742   1.766 -32.736  1.00  0.00     0.180 C 
HETATM    6  S   UNL     1      -8.886   2.486 -31.236  1.00  0.00    -0.040 SA
BRANCH   5   7
HETATM    7  N   UNL     1      -9.440   2.335 -33.775  1.00  0.00    -0.318 N 
HETATM    8  H   UNL     1      -8.887   2.957 -34.352  1.00  0.00     0.170 HD
BRANCH   7   9
HETATM    9  C   UNL     1     -10.783   2.143 -34.136  1.00  0.00     0.129 A 
HETATM   10  C   UNL     1     -11.426   0.997 -33.685  1.00  0.00     0.057 A 
HETATM   11  C   UNL     1     -12.770   0.794 -34.018  1.00  0.00    -0.057 A 
HETATM   12  C   UNL     1     -13.506  -0.432 -33.568  1.00  0.00     0.048 C 
HETATM   13  C   UNL     1     -13.418   1.753 -34.795  1.00  0.00     0.026 A 
HETATM   14  C   UNL     1     -12.701   2.862 -35.206  1.00  0.00     0.119 A 
HETATM   15  N   UNL     1     -11.401   3.071 -34.903  1.00  0.00    -0.243 NA
ENDBRANCH   7   9
ENDBRANCH   5   7
ENDBRANCH   1   5
BRANCH   2  16
HETATM   16  C   UNL     1      -6.611  -0.977 -34.143  1.00  0.00     0.033 A 
HETATM   17  C   UNL     1      -6.769  -2.209 -34.782  1.00  0.00     0.023 A 
HETATM   18  C   UNL     1      -5.792  -3.201 -34.642  1.00  0.00    -0.061 A 
HETATM   19  C   UNL     1      -5.954  -4.539 -35.300  1.00  0.00     0.048 C 
HETATM   20  C   UNL     1      -4.641  -2.930 -33.884  1.00  0.00     0.013 A 
HETATM   21  C   UNL     1      -4.462  -1.687 -33.263  1.00  0.00    -0.061 A 
HETATM   22  C   UNL     1      -3.224  -1.389 -32.470  1.00  0.00     0.048 C 
HETATM   23  C   UNL     1      -5.457  -0.712 -33.394  1.00  0.00     0.023 A 
ENDBRANCH   2  16
TORSDOF 4
ENDMDL
MODEL 5
REMARK VINA RESULT:      -7.6      2.501      3.379
REMARK  4 active torsions:
REMARK  status: ('A' for Active; 'I' for Inactive)
REMARK    1  A    between atoms: C_4  and  N_5 
REMARK    2  A    between atoms: N_5  and  C_6 
REMARK    3  A    between atoms: C_6  and  N_7 
REMARK       I    between atoms: N_7  and  C_8 
REMARK    4  A    between atoms: C_8  and  C_9 
ROOT
HETATM    1  N   UNL     1      -6.847   2.067 -33.701  1.00  0.00    -0.299 N 
HETATM    2  C   UNL     1      -7.239   0.920 -34.382  1.00  0.00     0.257 C 
HETATM    3  O   UNL     1      -8.266   0.763 -35.027  1.00  0.00    -0.267 OA
HETATM    4  H   UNL     1      -6.107   1.938 -33.015  1.00  0.00     0.171 HD
ENDROOT
BRANCH   1   5
HETATM    5  C   UNL     1      -7.237   3.386 -33.806  1.00  0.00     0.180 C 
HETATM    6  S   UNL     1      -8.794   3.982 -33.722  1.00  0.00    -0.040 SA
BRANCH   5   7
HETATM    7  N   UNL     1      -6.228   4.294 -34.028  1.00  0.00    -0.318 N 
HETATM    8  H   UNL     1      -6.517   5.111 -34.551  1.00  0.00     0.170 HD
BRANCH   7   9
HETATM    9  C   UNL     1      -4.891   4.237 -33.605  1.00  0.00     0.129 A 
HETATM   10  C   UNL     1      -3.937   4.914 -34.356  1.00  0.00     0.057 A 
HETATM   11  C   UNL     1      -2.600   4.887 -33.943  1.00  0.00    -0.057 A 
HETATM   12  C   UNL     1      -1.531   5.590 -34.723  1.00  0.00     0.048 C 
HETATM   13  C   UNL     1      -2.272   4.177 -32.789  1.00  0.00     0.026 A 
HETATM   14  C   UNL     1      -3.283   3.526 -32.106  1.00  0.00     0.119 A 
HETATM   15  N   UNL     1      -4.577   3.533 -32.493  1.00  0.00    -0.243 NA
ENDBRANCH   7   9
ENDBRANCH   5   7
ENDBRANCH   1   5
BRANCH   2  16
HETATM   16  C   UNL     1      -6.323  -0.231 -34.166  1.00  0.00     0.033 A 
HETATM   17  C   UNL     1      -6.610  -1.453 -34.780  1.00  0.00     0.023 A 
HETATM   18  C   UNL     1      -5.788  -2.562 -34.550  1.00  0.00    -0.061 A 
HETATM   19  C   UNL     1      -6.092  -3.889 -35.180  1.00  0.00     0.048 C 
HETATM   20  C   UNL     1      -4.659  -2.421 -33.727  1.00  0.00     0.013 A 
HETATM   21  C   UNL     1      -4.348  -1.192 -33.131  1.00  0.00    -0.061 A 
HETATM   22  C   UNL     1      -3.131  -1.036 -32.268  1.00  0.00     0.048 C 
HETATM   23  C   UNL     1      -5.191  -0.097 -33.352  1.00  0.00     0.023 A 
ENDBRANCH   2  16
TORSDOF 4
ENDMDL
MODEL 6
REMARK VINA RESULT:      -7.5      1.596      7.020
REMARK  4 active torsions:
REMARK  status: ('A' for Active; 'I' for Inactive)
REMARK    1  A    between atoms: C_4  and  N_5 
REMARK    2  A    between atoms: N_5  and  C_6 
REMARK    3  A    between atoms: C_6  and  N_7 
REMARK       I    between atoms: N_7  and  C_8 
REMARK    4  A    between atoms: C_8  and  C_9 
ROOT
HETATM    1  N   UNL     1      -4.735   3.129 -31.088  1.00  0.00    -0.299 N 
HETATM    2  C   UNL     1      -3.425   2.746 -31.354  1.00  0.00     0.257 C 
HETATM    3  O   UNL     1      -2.924   1.650 -31.148  1.00  0.00    -0.267 OA
HETATM    4  H   UNL     1      -4.905   4.132 -31.077  1.00  0.00     0.171 HD
ENDROOT
BRANCH   1   5
HETATM    5  C   UNL     1      -5.888   2.402 -30.878  1.00  0.00     0.180 C 
HETATM    6  S   UNL     1      -7.255   2.902 -30.060  1.00  0.00    -0.040 SA
BRANCH   5   7
HETATM    7  N   UNL     1      -5.890   1.121 -31.379  1.00  0.00    -0.318 N 
HETATM    8  H   UNL     1      -5.613   0.416 -30.708  1.00  0.00     0.170 HD
BRANCH   7   9
HETATM    9  C   UNL     1      -6.243   0.686 -32.665  1.00  0.00     0.129 A 
HETATM   10  C   UNL     1      -6.306  -0.683 -32.900  1.00  0.00     0.057 A 
HETATM   11  C   UNL     1      -6.674  -1.140 -34.170  1.00  0.00    -0.057 A 
HETATM   12  C   UNL     1      -6.744  -2.605 -34.480  1.00  0.00     0.048 C 
HETATM   13  C   UNL     1      -6.965  -0.202 -35.160  1.00  0.00     0.026 A 
HETATM   14  C   UNL     1      -6.872   1.141 -34.843  1.00  0.00     0.119 A 
HETATM   15  N   UNL     1      -6.509   1.602 -33.626  1.00  0.00    -0.243 NA
ENDBRANCH   7   9
ENDBRANCH   5   7
ENDBRANCH   1   5
BRANCH   2  16
HETATM   16  C   UNL     1      -2.573   3.866 -31.831  1.00  0.00     0.033 A 
HETATM   17  C   UNL     1      -2.440   4.083 -33.206  1.00  0.00     0.023 A 
HETATM   18  C   UNL     1      -1.603   5.102 -33.675  1.00  0.00    -0.061 A 
HETATM   19  C   UNL     1      -1.429   5.335 -35.147  1.00  0.00     0.048 C 
HETATM   20  C   UNL     1      -0.932   5.920 -32.753  1.00  0.00     0.013 A 
HETATM   21  C   UNL     1      -1.081   5.727 -31.373  1.00  0.00    -0.061 A 
HETATM   22  C   UNL     1      -0.379   6.614 -30.387  1.00  0.00     0.048 C 
HETATM   23  C   UNL     1      -1.904   4.692 -30.917  1.00  0.00     0.023 A 
ENDBRANCH   2  16
TORSDOF 4
ENDMDL
MODEL 7
REMARK VINA RESULT:      -7.4     15.645     16.521
REMARK  4 active torsions:
REMARK  status: ('A' for Active; 'I' for Inactive)
REMARK    1  A    between atoms: C_4  and  N_5 
REMARK    2  A    between atoms: N_5  and  C_6 
REMARK    3  A    between atoms: C_6  and  N_7 
REMARK       I    between atoms: N_7  and  C_8 
REMARK    4  A    between atoms: C_8  and  C_9 
ROOT
HETATM    1  N   UNL     1      -5.808 -14.295 -36.238  1.00  0.00    -0.299 N 
HETATM    2  C   UNL     1      -7.017 -13.608 -36.265  1.00  0.00     0.257 C 
HETATM    3  O   UNL     1      -7.749 -13.372 -35.315  1.00  0.00    -0.267 OA
HETATM    4  H   UNL     1      -5.469 -14.623 -37.140  1.00  0.00     0.171 HD
ENDROOT
BRANCH   1   5
HETATM    5  C   UNL     1      -4.931 -14.587 -35.214  1.00  0.00     0.180 C 
HETATM    6  S   UNL     1      -5.212 -15.587 -33.907  1.00  0.00    -0.040 SA
BRANCH   5   7
HETATM    7  N   UNL     1      -3.707 -13.963 -35.276  1.00  0.00    -0.318 N 
HETATM    8  H   UNL     1      -3.280 -13.804 -34.372  1.00  0.00     0.170 HD
BRANCH   7   9
HETATM    9  C   UNL     1      -2.989 -13.556 -36.411  1.00  0.00     0.129 A 
HETATM   10  C   UNL     1      -1.807 -14.221 -36.713  1.00  0.00     0.057 A 
HETATM   11  C   UNL     1      -1.084 -13.844 -37.850  1.00  0.00    -0.057 A 
HETATM   12  C   UNL     1       0.204 -14.520 -38.212  1.00  0.00     0.048 C 
HETATM   13  C   UNL     1      -1.577 -12.809 -38.642  1.00  0.00     0.026 A 
HETATM   14  C   UNL     1      -2.759 -12.196 -38.266  1.00  0.00     0.119 A 
HETATM   15  N   UNL     1      -3.466 -12.540 -37.167  1.00  0.00    -0.243 NA
ENDBRANCH   7   9
ENDBRANCH   5   7
ENDBRANCH   1   5
BRANCH   2  16
HETATM   16  C   UNL     1      -7.458 -13.254 -37.640  1.00  0.00     0.033 A 
HETATM   17  C   UNL     1      -6.521 -12.749 -38.546  1.00  0.00     0.023 A 
HETATM   18  C   UNL     1      -6.927 -12.363 -39.829  1.00  0.00    -0.061 A 
HETATM   19  C   UNL     1      -5.942 -11.796 -40.809  1.00  0.00     0.048 C 
HETATM   20  C   UNL     1      -8.271 -12.522 -40.202  1.00  0.00     0.013 A 
HETATM   21  C   UNL     1      -9.210 -13.054 -39.309  1.00  0.00    -0.061 A 
HETATM   22  C   UNL     1     -10.643 -13.242 -39.714  1.00  0.00     0.048 C 
HETATM   23  C   UNL     1      -8.796 -13.416 -38.023  1.00  0.00     0.023 A 
ENDBRANCH   2  16
TORSDOF 4
ENDMDL
MODEL 8
REMARK VINA RESULT:      -7.4     15.998     17.521
REMARK  4 active torsions:
REMARK  status: ('A' for Active; 'I' for Inactive)
REMARK    1  A    between atoms: C_4  and  N_5 
REMARK    2  A    between atoms: N_5  and  C_6 
REMARK    3  A    between atoms: C_6  and  N_7 
REMARK       I    between atoms: N_7  and  C_8 
REMARK    4  A    between atoms: C_8  and  C_9 
ROOT
HETATM    1  N   UNL     1      -3.917 -13.890 -37.688  1.00  0.00    -0.299 N 
HETATM    2  C   UNL     1      -2.881 -13.087 -38.152  1.00  0.00     0.257 C 
HETATM    3  O   UNL     1      -2.818 -11.867 -38.102  1.00  0.00    -0.267 OA
HETATM    4  H   UNL     1      -3.925 -14.844 -38.041  1.00  0.00     0.171 HD
ENDROOT
BRANCH   1   5
HETATM    5  C   UNL     1      -4.934 -13.660 -36.785  1.00  0.00     0.180 C 
HETATM    6  S   UNL     1      -5.170 -14.426 -35.320  1.00  0.00    -0.040 SA
BRANCH   5   7
HETATM    7  N   UNL     1      -5.860 -12.712 -37.154  1.00  0.00    -0.318 N 
HETATM    8  H   UNL     1      -5.977 -11.966 -36.478  1.00  0.00     0.170 HD
BRANCH   7   9
HETATM    9  C   UNL     1      -6.620 -12.642 -38.331  1.00  0.00     0.129 A 
HETATM   10  C   UNL     1      -7.989 -12.865 -38.242  1.00  0.00     0.057 A 
HETATM   11  C   UNL     1      -8.770 -12.782 -39.400  1.00  0.00    -0.057 A 
HETATM   12  C   UNL     1     -10.248 -13.027 -39.360  1.00  0.00     0.048 C 
HETATM   13  C   UNL     1      -8.144 -12.479 -40.608  1.00  0.00     0.026 A 
HETATM   14  C   UNL     1      -6.775 -12.278 -40.608  1.00  0.00     0.119 A 
HETATM   15  N   UNL     1      -6.003 -12.362 -39.503  1.00  0.00    -0.243 NA
ENDBRANCH   7   9
ENDBRANCH   5   7
ENDBRANCH   1   5
BRANCH   2  16
HETATM   16  C   UNL     1      -1.829 -13.849 -38.875  1.00  0.00     0.033 A 
HETATM   17  C   UNL     1      -2.187 -14.620 -39.984  1.00  0.00     0.023 A 
HETATM   18  C   UNL     1      -1.219 -15.383 -40.647  1.00  0.00    -0.061 A 
HETATM   19  C   UNL     1      -1.588 -16.236 -41.826  1.00  0.00     0.048 C 
HETATM   20  C   UNL     1       0.113 -15.336 -40.208  1.00  0.00     0.013 A 
HETATM   21  C   UNL     1       0.486 -14.544 -39.114  1.00  0.00    -0.061 A 
HETATM   22  C   UNL     1       1.913 -14.478 -38.656  1.00  0.00     0.048 C 
HETATM   23  C   UNL     1      -0.495 -13.802 -38.446  1.00  0.00     0.023 A 
ENDBRANCH   2  16
TORSDOF 4
ENDMDL
MODEL 9
REMARK VINA RESULT:      -7.2     16.447     17.686
REMARK  4 active torsions:
REMARK  status: ('A' for Active; 'I' for Inactive)
REMARK    1  A    between atoms: C_4  and  N_5 
REMARK    2  A    between atoms: N_5  and  C_6 
REMARK    3  A    between atoms: C_6  and  N_7 
REMARK       I    between atoms: N_7  and  C_8 
REMARK    4  A    between atoms: C_8  and  C_9 
ROOT
HETATM    1  N   UNL     1      -3.406 -13.490 -39.969  1.00  0.00    -0.299 N 
HETATM    2  C   UNL     1      -2.988 -12.940 -38.762  1.00  0.00     0.257 C 
HETATM    3  O   UNL     1      -3.374 -11.896 -38.257  1.00  0.00    -0.267 OA
HETATM    4  H   UNL     1      -2.802 -14.211 -40.355  1.00  0.00     0.171 HD
ENDROOT
BRANCH   1   5
HETATM    5  C   UNL     1      -4.529 -13.280 -40.742  1.00  0.00     0.180 C 
HETATM    6  S   UNL     1      -4.871 -13.969 -42.224  1.00  0.00    -0.040 SA
BRANCH   5   7
HETATM    7  N   UNL     1      -5.446 -12.388 -40.238  1.00  0.00    -0.318 N 
HETATM    8  H   UNL     1      -5.188 -11.417 -40.364  1.00  0.00     0.170 HD
BRANCH   7   9
HETATM    9  C   UNL     1      -6.673 -12.653 -39.612  1.00  0.00     0.129 A 
HETATM   10  C   UNL     1      -7.839 -12.277 -40.268  1.00  0.00     0.057 A 
HETATM   11  C   UNL     1      -9.075 -12.549 -39.670  1.00  0.00    -0.057 A 
HETATM   12  C   UNL     1     -10.362 -12.152 -40.329  1.00  0.00     0.048 C 
HETATM   13  C   UNL     1      -9.092 -13.190 -38.432  1.00  0.00     0.026 A 
HETATM   14  C   UNL     1      -7.885 -13.524 -37.847  1.00  0.00     0.119 A 
HETATM   15  N   UNL     1      -6.682 -13.262 -38.403  1.00  0.00    -0.243 NA
ENDBRANCH   7   9
ENDBRANCH   5   7
ENDBRANCH   1   5
BRANCH   2  16
HETATM   16  C   UNL     1      -1.873 -13.694 -38.131  1.00  0.00     0.033 A 
HETATM   17  C   UNL     1      -0.662 -13.820 -38.817  1.00  0.00     0.023 A 
HETATM   18  C   UNL     1       0.383 -14.567 -38.261  1.00  0.00    -0.061 A 
HETATM   19  C   UNL     1       1.682 -14.734 -38.993  1.00  0.00     0.048 C 
HETATM   20  C   UNL     1       0.211 -15.155 -36.998  1.00  0.00     0.013 A 
HETATM   21  C   UNL     1      -0.990 -15.011 -36.291  1.00  0.00    -0.061 A 
HETATM   22  C   UNL     1      -1.167 -15.622 -34.933  1.00  0.00     0.048 C 
HETATM   23  C   UNL     1      -2.034 -14.279 -36.867  1.00  0.00     0.023 A 
ENDBRANCH   2  16
TORSDOF 4
ENDMDL
MODEL 10
REMARK VINA RESULT:      -7.1      2.117      3.003
REMARK  4 active torsions:
REMARK  status: ('A' for Active; 'I' for Inactive)
REMARK    1  A    between atoms: C_4  and  N_5 
REMARK    2  A    between atoms: N_5  and  C_6 
REMARK    3  A    between atoms: C_6  and  N_7 
REMARK       I    between atoms: N_7  and  C_8 
REMARK    4  A    between atoms: C_8  and  C_9 
ROOT
HETATM    1  N   UNL     1      -5.779   3.546 -33.404  1.00  0.00    -0.299 N 
HETATM    2  C   UNL     1      -5.198   2.782 -32.398  1.00  0.00     0.257 C 
HETATM    3  O   UNL     1      -4.695   3.191 -31.362  1.00  0.00    -0.267 OA
HETATM    4  H   UNL     1      -5.907   3.073 -34.296  1.00  0.00     0.171 HD
ENDROOT
BRANCH   1   5
HETATM    5  C   UNL     1      -6.270   4.834 -33.422  1.00  0.00     0.180 C 
HETATM    6  S   UNL     1      -7.865   5.300 -33.594  1.00  0.00    -0.040 SA
BRANCH   5   7
HETATM    7  N   UNL     1      -5.333   5.835 -33.309  1.00  0.00    -0.318 N 
HETATM    8  H   UNL     1      -5.696   6.698 -32.923  1.00  0.00     0.170 HD
BRANCH   7   9
HETATM    9  C   UNL     1      -3.968   5.796 -33.633  1.00  0.00     0.129 A 
HETATM   10  C   UNL     1      -3.069   6.391 -32.755  1.00  0.00     0.057 A 
HETATM   11  C   UNL     1      -1.702   6.348 -33.048  1.00  0.00    -0.057 A 
HETATM   12  C   UNL     1      -0.692   6.986 -32.142  1.00  0.00     0.048 C 
HETATM   13  C   UNL     1      -1.288   5.708 -34.215  1.00  0.00     0.026 A 
HETATM   14  C   UNL     1      -2.250   5.147 -35.036  1.00  0.00     0.119 A 
HETATM   15  N   UNL     1      -3.575   5.187 -34.775  1.00  0.00    -0.243 NA
ENDBRANCH   7   9
ENDBRANCH   5   7
ENDBRANCH   1   5
BRANCH   2  16
HETATM   16  C   UNL     1      -5.114   1.336 -32.736  1.00  0.00     0.033 A 
HETATM   17  C   UNL     1      -4.102   0.562 -32.163  1.00  0.00     0.023 A 
HETATM   18  C   UNL     1      -3.976  -0.789 -32.506  1.00  0.00    -0.061 A 
HETATM   19  C   UNL     1      -2.882  -1.633 -31.921  1.00  0.00     0.048 C 
HETATM   20  C   UNL     1      -4.895  -1.360 -33.400  1.00  0.00     0.013 A 
HETATM   21  C   UNL     1      -5.930  -0.597 -33.957  1.00  0.00    -0.061 A 
HETATM   22  C   UNL     1      -6.925  -1.211 -34.898  1.00  0.00     0.048 C 
HETATM   23  C   UNL     1      -6.032   0.757 -33.622  1.00  0.00     0.023 A 
ENDBRANCH   2  16
TORSDOF 4
ENDMDL
