MODEL 1
REMARK VINA RESULT:      -9.8      0.000      0.000
REMARK  6 active torsions:
REMARK  status: ('A' for Active; 'I' for Inactive)
REMARK    1  A    between atoms: C_4  and  C_5 
REMARK    2  A    between atoms: C_6  and  N_7 
REMARK    3  A    between atoms: C_9  and  C_10 
REMARK       I    between atoms: C_10  and  N_11 
REMARK    4  A    between atoms: N_11  and  C_12 
REMARK    5  A    between atoms: C_12  and  C_13 
REMARK    6  A    between atoms: C_13  and  N_14 
ROOT
HETATM    1  C   UNL     1      -5.304  -0.616 -32.869  1.00  0.00     0.019 A 
HETATM    2  C   UNL     1      -4.567   0.215 -32.074  1.00  0.00     0.111 A 
HETATM    3  C   UNL     1      -3.238  -0.327 -31.519  1.00  0.00     0.273 A 
HETATM    4  O   UNL     1      -2.494   0.337 -30.799  1.00  0.00    -0.266 OA
HETATM    5  N   UNL     1      -2.864  -1.594 -31.845  1.00  0.00    -0.321 N 
HETATM    6  C   UNL     1      -3.605  -2.442 -32.653  1.00  0.00     0.046 A 
HETATM    7  C   UNL     1      -4.816  -1.993 -33.184  1.00  0.00     0.006 A 
HETATM    8  C   UNL     1      -3.114  -3.723 -32.924  1.00  0.00     0.032 A 
HETATM    9  C   UNL     1      -3.839  -4.582 -33.746  1.00  0.00     0.026 A 
HETATM   10  C   UNL     1      -5.046  -4.153 -34.288  1.00  0.00     0.035 A 
HETATM   11 CL   UNL     1      -5.944  -5.204 -35.311  1.00  0.00    -0.084 Cl
HETATM   12  C   UNL     1      -5.535  -2.873 -34.012  1.00  0.00     0.038 A 
HETATM   13  H   UNL     1      -1.989  -1.904 -31.441  1.00  0.00     0.169 HD
ENDROOT
BRANCH   2  14
HETATM   14  N   UNL     1      -4.946   1.552 -31.708  1.00  0.00    -0.375 N 
HETATM   15  C   UNL     1      -4.252   2.714 -32.337  1.00  0.00     0.137 C 
HETATM   16  C   UNL     1      -5.074   3.999 -32.207  1.00  0.00     0.096 C 
HETATM   17  C   UNL     1      -5.642   4.231 -30.801  1.00  0.00     0.017 C 
HETATM   18  C   UNL     1      -6.145   2.962 -30.114  1.00  0.00     0.021 C 
HETATM   19  C   UNL     1      -5.145   1.822 -30.262  1.00  0.00     0.123 C 
BRANCH  16  20
HETATM   20  C   UNL     1      -6.138   4.084 -33.287  1.00  0.00     0.223 C 
HETATM   21  N   UNL     1      -7.417   3.763 -32.924  1.00  0.00    -0.359 N 
HETATM   22  H   UNL     1      -7.535   3.476 -31.948  1.00  0.00     0.162 HD
HETATM   23  O   UNL     1      -5.860   4.380 -34.451  1.00  0.00    -0.273 OA
BRANCH  21  24
HETATM   24  C   UNL     1      -8.634   4.034 -33.686  1.00  0.00     0.150 C 
BRANCH  24  25
HETATM   25  C   UNL     1      -9.978   4.184 -32.938  1.00  0.00     0.254 C 
BRANCH  25  26
HETATM   26  N   UNL     1     -11.180   3.869 -33.793  1.00  0.00    -0.066 N 
HETATM   27  H   UNL     1     -11.823   4.663 -33.603  1.00  0.00     0.280 HD
HETATM   28  C   UNL     1     -10.922   3.797 -35.282  1.00  0.00     0.261 C 
HETATM   29  C   UNL     1     -12.236   3.528 -36.024  1.00  0.00     0.195 C 
HETATM   30  O   UNL     1     -12.864   2.334 -35.545  1.00  0.00    -0.388 OA
HETATM   31  C   UNL     1     -13.189   2.436 -34.153  1.00  0.00     0.195 C 
HETATM   32  C   UNL     1     -11.923   2.634 -33.311  1.00  0.00     0.261 C 
ENDBRANCH  25  26
ENDBRANCH  24  25
ENDBRANCH  21  24
ENDBRANCH  16  20
ENDBRANCH   2  14
BRANCH   1  33
HETATM   33  C   UNL     1      -6.581  -0.116 -33.451  1.00  0.00    -0.023 A 
HETATM   34  C   UNL     1      -6.644   0.254 -34.799  1.00  0.00     0.012 A 
HETATM   35  C   UNL     1      -7.854   0.662 -35.364  1.00  0.00     0.001 A 
HETATM   36  C   UNL     1      -9.012   0.691 -34.586  1.00  0.00     0.000 A 
HETATM   37  C   UNL     1      -8.964   0.298 -33.251  1.00  0.00     0.001 A 
HETATM   38  C   UNL     1      -7.757  -0.117 -32.688  1.00  0.00     0.012 A 
ENDBRANCH   1  33
TORSDOF 6
ENDMDL
MODEL 2
REMARK VINA RESULT:      -9.5      0.998      1.309
REMARK  6 active torsions:
REMARK  status: ('A' for Active; 'I' for Inactive)
REMARK    1  A    between atoms: C_4  and  C_5 
REMARK    2  A    between atoms: C_6  and  N_7 
REMARK    3  A    between atoms: C_9  and  C_10 
REMARK       I    between atoms: C_10  and  N_11 
REMARK    4  A    between atoms: N_11  and  C_12 
REMARK    5  A    between atoms: C_12  and  C_13 
REMARK    6  A    between atoms: C_13  and  N_14 
ROOT
HETATM    1  C   UNL     1      -6.033  -0.140 -32.987  1.00  0.00     0.019 A 
HETATM    2  C   UNL     1      -5.237   0.703 -32.265  1.00  0.00     0.111 A 
HETATM    3  C   UNL     1      -3.804   0.236 -31.954  1.00  0.00     0.273 A 
HETATM    4  O   UNL     1      -3.002   0.917 -31.318  1.00  0.00    -0.266 OA
HETATM    5  N   UNL     1      -3.402  -0.981 -32.412  1.00  0.00    -0.321 N 
HETATM    6  C   UNL     1      -4.203  -1.840 -33.149  1.00  0.00     0.046 A 
HETATM    7  C   UNL     1      -5.509  -1.458 -33.459  1.00  0.00     0.006 A 
HETATM    8  C   UNL     1      -3.676  -3.064 -33.571  1.00  0.00     0.032 A 
HETATM    9  C   UNL     1      -4.462  -3.933 -34.324  1.00  0.00     0.026 A 
HETATM   10  C   UNL     1      -5.766  -3.570 -34.646  1.00  0.00     0.035 A 
HETATM   11 CL   UNL     1      -6.740  -4.632 -35.584  1.00  0.00    -0.084 Cl
HETATM   12  C   UNL     1      -6.289  -2.347 -34.219  1.00  0.00     0.038 A 
HETATM   13  H   UNL     1      -2.455  -1.244 -32.168  1.00  0.00     0.169 HD
ENDROOT
BRANCH   2  14
HETATM   14  N   UNL     1      -5.642   1.987 -31.763  1.00  0.00    -0.375 N 
HETATM   15  C   UNL     1      -4.873   3.206 -32.147  1.00  0.00     0.137 C 
HETATM   16  C   UNL     1      -5.693   4.481 -31.932  1.00  0.00     0.096 C 
HETATM   17  C   UNL     1      -6.411   4.534 -30.578  1.00  0.00     0.017 C 
HETATM   18  C   UNL     1      -6.999   3.197 -30.130  1.00  0.00     0.021 C 
HETATM   19  C   UNL     1      -5.999   2.064 -30.323  1.00  0.00     0.123 C 
BRANCH  16  20
HETATM   20  C   UNL     1      -6.629   4.737 -33.100  1.00  0.00     0.223 C 
HETATM   21  N   UNL     1      -7.956   4.893 -32.808  1.00  0.00    -0.359 N 
HETATM   22  H   UNL     1      -8.198   4.806 -31.816  1.00  0.00     0.162 HD
HETATM   23  O   UNL     1      -6.225   4.755 -34.265  1.00  0.00    -0.273 OA
BRANCH  21  24
HETATM   24  C   UNL     1      -8.989   5.419 -33.697  1.00  0.00     0.150 C 
BRANCH  24  25
HETATM   25  C   UNL     1     -10.364   5.815 -33.112  1.00  0.00     0.254 C 
BRANCH  25  26
HETATM   26  N   UNL     1     -11.520   5.082 -33.745  1.00  0.00    -0.066 N 
HETATM   27  H   UNL     1     -12.260   5.810 -33.805  1.00  0.00     0.280 HD
HETATM   28  C   UNL     1     -11.265   4.533 -35.132  1.00  0.00     0.261 C 
HETATM   29  C   UNL     1     -12.538   3.869 -35.669  1.00  0.00     0.195 C 
HETATM   30  O   UNL     1     -13.001   2.847 -34.780  1.00  0.00    -0.388 OA
HETATM   31  C   UNL     1     -13.327   3.383 -33.491  1.00  0.00     0.195 C 
HETATM   32  C   UNL     1     -12.092   4.009 -32.834  1.00  0.00     0.261 C 
ENDBRANCH  25  26
ENDBRANCH  24  25
ENDBRANCH  21  24
ENDBRANCH  16  20
ENDBRANCH   2  14
BRANCH   1  33
HETATM   33  C   UNL     1      -7.416   0.291 -33.335  1.00  0.00    -0.023 A 
HETATM   34  C   UNL     1      -8.497  -0.094 -32.534  1.00  0.00     0.012 A 
HETATM   35  C   UNL     1      -9.786   0.361 -32.821  1.00  0.00     0.001 A 
HETATM   36  C   UNL     1      -9.999   1.213 -33.904  1.00  0.00     0.000 A 
HETATM   37  C   UNL     1      -8.925   1.624 -34.691  1.00  0.00     0.001 A 
HETATM   38  C   UNL     1      -7.636   1.175 -34.400  1.00  0.00     0.012 A 
ENDBRANCH   1  33
TORSDOF 6
ENDMDL
MODEL 3
REMARK VINA RESULT:      -9.3      1.416      1.994
REMARK  6 active torsions:
REMARK  status: ('A' for Active; 'I' for Inactive)
REMARK    1  A    between atoms: C_4  and  C_5 
REMARK    2  A    between atoms: C_6  and  N_7 
REMARK    3  A    between atoms: C_9  and  C_10 
REMARK       I    between atoms: C_10  and  N_11 
REMARK    4  A    between atoms: N_11  and  C_12 
REMARK    5  A    between atoms: C_12  and  C_13 
REMARK    6  A    between atoms: C_13  and  N_14 
ROOT
HETATM    1  C   UNL     1      -5.352  -0.575 -32.897  1.00  0.00     0.019 A 
HETATM    2  C   UNL     1      -4.496   0.108 -32.081  1.00  0.00     0.111 A 
HETATM    3  C   UNL     1      -3.192  -0.598 -31.668  1.00  0.00     0.273 A 
HETATM    4  O   UNL     1      -2.349  -0.074 -30.943  1.00  0.00    -0.266 OA
HETATM    5  N   UNL     1      -2.956  -1.854 -32.135  1.00  0.00    -0.321 N 
HETATM    6  C   UNL     1      -3.818  -2.552 -32.967  1.00  0.00     0.046 A 
HETATM    7  C   UNL     1      -5.011  -1.952 -33.370  1.00  0.00     0.006 A 
HETATM    8  C   UNL     1      -3.463  -3.837 -33.387  1.00  0.00     0.032 A 
HETATM    9  C   UNL     1      -4.311  -4.547 -34.234  1.00  0.00     0.026 A 
HETATM   10  C   UNL     1      -5.504  -3.964 -34.651  1.00  0.00     0.035 A 
HETATM   11 CL   UNL     1      -6.553  -4.829 -35.705  1.00  0.00    -0.084 Cl
HETATM   12  C   UNL     1      -5.856  -2.681 -34.226  1.00  0.00     0.038 A 
HETATM   13  H   UNL     1      -2.090  -2.276 -31.822  1.00  0.00     0.169 HD
ENDROOT
BRANCH   2  14
HETATM   14  N   UNL     1      -4.729   1.431 -31.568  1.00  0.00    -0.375 N 
HETATM   15  C   UNL     1      -3.699   2.491 -31.767  1.00  0.00     0.137 C 
HETATM   16  C   UNL     1      -4.292   3.892 -31.599  1.00  0.00     0.096 C 
HETATM   17  C   UNL     1      -5.184   4.041 -30.359  1.00  0.00     0.017 C 
HETATM   18  C   UNL     1      -6.069   2.828 -30.079  1.00  0.00     0.021 C 
HETATM   19  C   UNL     1      -5.278   1.530 -30.192  1.00  0.00     0.123 C 
BRANCH  16  20
HETATM   20  C   UNL     1      -4.978   4.356 -32.871  1.00  0.00     0.223 C 
HETATM   21  N   UNL     1      -6.345   4.321 -32.887  1.00  0.00    -0.359 N 
HETATM   22  H   UNL     1      -6.782   3.965 -32.032  1.00  0.00     0.162 HD
HETATM   23  O   UNL     1      -4.337   4.704 -33.865  1.00  0.00    -0.273 OA
BRANCH  21  24
HETATM   24  C   UNL     1      -7.223   4.967 -33.859  1.00  0.00     0.150 C 
BRANCH  24  25
HETATM   25  C   UNL     1      -8.521   5.651 -33.372  1.00  0.00     0.254 C 
BRANCH  25  26
HETATM   26  N   UNL     1      -9.445   4.724 -32.623  1.00  0.00    -0.066 N 
HETATM   27  H   UNL     1      -9.045   3.784 -32.813  1.00  0.00     0.280 HD
HETATM   28  C   UNL     1      -9.505   4.933 -31.126  1.00  0.00     0.261 C 
HETATM   29  C   UNL     1     -10.433   3.889 -30.494  1.00  0.00     0.195 C 
HETATM   30  O   UNL     1     -11.739   3.937 -31.081  1.00  0.00    -0.388 OA
HETATM   31  C   UNL     1     -11.691   3.652 -32.484  1.00  0.00     0.195 C 
HETATM   32  C   UNL     1     -10.840   4.691 -33.223  1.00  0.00     0.261 C 
ENDBRANCH  25  26
ENDBRANCH  24  25
ENDBRANCH  21  24
ENDBRANCH  16  20
ENDBRANCH   2  14
BRANCH   1  33
HETATM   33  C   UNL     1      -6.610   0.087 -33.343  1.00  0.00    -0.023 A 
HETATM   34  C   UNL     1      -7.749   0.058 -32.531  1.00  0.00     0.012 A 
HETATM   35  C   UNL     1      -8.909   0.733 -32.917  1.00  0.00     0.001 A 
HETATM   36  C   UNL     1      -8.933   1.449 -34.114  1.00  0.00     0.000 A 
HETATM   37  C   UNL     1      -7.796   1.506 -34.916  1.00  0.00     0.001 A 
HETATM   38  C   UNL     1      -6.634   0.838 -34.527  1.00  0.00     0.012 A 
ENDBRANCH   1  33
TORSDOF 6
ENDMDL
MODEL 4
REMARK VINA RESULT:      -9.2      1.619      1.979
REMARK  6 active torsions:
REMARK  status: ('A' for Active; 'I' for Inactive)
REMARK    1  A    between atoms: C_4  and  C_5 
REMARK    2  A    between atoms: C_6  and  N_7 
REMARK    3  A    between atoms: C_9  and  C_10 
REMARK       I    between atoms: C_10  and  N_11 
REMARK    4  A    between atoms: N_11  and  C_12 
REMARK    5  A    between atoms: C_12  and  C_13 
REMARK    6  A    between atoms: C_13  and  N_14 
ROOT
HETATM    1  C   UNL     1      -6.189   0.038 -33.063  1.00  0.00     0.019 A 
HETATM    2  C   UNL     1      -5.361   0.946 -32.466  1.00  0.00     0.111 A 
HETATM    3  C   UNL     1      -3.871   0.579 -32.346  1.00  0.00     0.273 A 
HETATM    4  O   UNL     1      -3.038   1.324 -31.832  1.00  0.00    -0.266 OA
HETATM    5  N   UNL     1      -3.454  -0.619 -32.838  1.00  0.00    -0.321 N 
HETATM    6  C   UNL     1      -4.287  -1.544 -33.449  1.00  0.00     0.046 A 
HETATM    7  C   UNL     1      -5.646  -1.253 -33.584  1.00  0.00     0.006 A 
HETATM    8  C   UNL     1      -3.741  -2.740 -33.922  1.00  0.00     0.032 A 
HETATM    9  C   UNL     1      -4.561  -3.674 -34.551  1.00  0.00     0.026 A 
HETATM   10  C   UNL     1      -5.918  -3.402 -34.699  1.00  0.00     0.035 A 
HETATM   11 CL   UNL     1      -6.937  -4.545 -35.482  1.00  0.00    -0.084 Cl
HETATM   12  C   UNL     1      -6.459  -2.206 -34.221  1.00  0.00     0.038 A 
HETATM   13  H   UNL     1      -2.468  -0.815 -32.720  1.00  0.00     0.169 HD
ENDROOT
BRANCH   2  14
HETATM   14  N   UNL     1      -5.780   2.213 -31.930  1.00  0.00    -0.375 N 
HETATM   15  C   UNL     1      -5.694   3.437 -32.778  1.00  0.00     0.137 C 
HETATM   16  C   UNL     1      -6.596   4.555 -32.246  1.00  0.00     0.096 C 
HETATM   17  C   UNL     1      -6.484   4.772 -30.731  1.00  0.00     0.017 C 
HETATM   18  C   UNL     1      -6.357   3.482 -29.924  1.00  0.00     0.021 C 
HETATM   19  C   UNL     1      -5.338   2.537 -30.550  1.00  0.00     0.123 C 
BRANCH  16  20
HETATM   20  C   UNL     1      -8.031   4.370 -32.705  1.00  0.00     0.223 C 
HETATM   21  N   UNL     1      -8.424   5.075 -33.809  1.00  0.00    -0.359 N 
HETATM   22  H   UNL     1      -7.708   5.683 -34.217  1.00  0.00     0.162 HD
HETATM   23  O   UNL     1      -8.824   3.655 -32.087  1.00  0.00    -0.273 OA
BRANCH  21  24
HETATM   24  C   UNL     1      -9.635   4.858 -34.597  1.00  0.00     0.150 C 
BRANCH  24  25
HETATM   25  C   UNL     1     -10.981   5.424 -34.090  1.00  0.00     0.254 C 
BRANCH  25  26
HETATM   26  N   UNL     1     -11.694   4.509 -33.125  1.00  0.00    -0.066 N 
HETATM   27  H   UNL     1     -10.993   3.765 -32.941  1.00  0.00     0.280 HD
HETATM   28  C   UNL     1     -12.097   5.135 -31.809  1.00  0.00     0.261 C 
HETATM   29  C   UNL     1     -12.755   4.080 -30.912  1.00  0.00     0.195 C 
HETATM   30  O   UNL     1     -13.875   3.473 -31.567  1.00  0.00    -0.388 OA
HETATM   31  C   UNL     1     -13.477   2.804 -32.770  1.00  0.00     0.195 C 
HETATM   32  C   UNL     1     -12.870   3.796 -33.770  1.00  0.00     0.261 C 
ENDBRANCH  25  26
ENDBRANCH  24  25
ENDBRANCH  21  24
ENDBRANCH  16  20
ENDBRANCH   2  14
BRANCH   1  33
HETATM   33  C   UNL     1      -7.631   0.372 -33.226  1.00  0.00    -0.023 A 
HETATM   34  C   UNL     1      -8.092   0.947 -34.416  1.00  0.00     0.012 A 
HETATM   35  C   UNL     1      -9.453   1.201 -34.596  1.00  0.00     0.001 A 
HETATM   36  C   UNL     1     -10.363   0.871 -33.591  1.00  0.00     0.000 A 
HETATM   37  C   UNL     1      -9.917   0.273 -32.416  1.00  0.00     0.001 A 
HETATM   38  C   UNL     1      -8.558   0.012 -32.238  1.00  0.00     0.012 A 
ENDBRANCH   1  33
TORSDOF 6
ENDMDL
MODEL 5
REMARK VINA RESULT:      -9.0      1.269      1.734
REMARK  6 active torsions:
REMARK  status: ('A' for Active; 'I' for Inactive)
REMARK    1  A    between atoms: C_4  and  C_5 
REMARK    2  A    between atoms: C_6  and  N_7 
REMARK    3  A    between atoms: C_9  and  C_10 
REMARK       I    between atoms: C_10  and  N_11 
REMARK    4  A    between atoms: N_11  and  C_12 
REMARK    5  A    between atoms: C_12  and  C_13 
REMARK    6  A    between atoms: C_13  and  N_14 
ROOT
HETATM    1  C   UNL     1      -5.478  -0.445 -32.876  1.00  0.00     0.019 A 
HETATM    2  C   UNL     1      -4.631   0.262 -32.070  1.00  0.00     0.111 A 
HETATM    3  C   UNL     1      -3.308  -0.412 -31.665  1.00  0.00     0.273 A 
HETATM    4  O   UNL     1      -2.471   0.135 -30.948  1.00  0.00    -0.266 OA
HETATM    5  N   UNL     1      -3.046  -1.664 -32.127  1.00  0.00    -0.321 N 
HETATM    6  C   UNL     1      -3.899  -2.386 -32.949  1.00  0.00     0.046 A 
HETATM    7  C   UNL     1      -5.109  -1.815 -33.346  1.00  0.00     0.006 A 
HETATM    8  C   UNL     1      -3.518  -3.665 -33.366  1.00  0.00     0.032 A 
HETATM    9  C   UNL     1      -4.356  -4.398 -34.203  1.00  0.00     0.026 A 
HETATM   10  C   UNL     1      -5.565  -3.845 -34.613  1.00  0.00     0.035 A 
HETATM   11 CL   UNL     1      -6.602  -4.739 -35.654  1.00  0.00    -0.084 Cl
HETATM   12  C   UNL     1      -5.943  -2.568 -34.191  1.00  0.00     0.038 A 
HETATM   13  H   UNL     1      -2.169  -2.064 -31.819  1.00  0.00     0.169 HD
ENDROOT
BRANCH   2  14
HETATM   14  N   UNL     1      -4.890   1.581 -31.562  1.00  0.00    -0.375 N 
HETATM   15  C   UNL     1      -3.946   2.692 -31.877  1.00  0.00     0.137 C 
HETATM   16  C   UNL     1      -4.600   4.062 -31.678  1.00  0.00     0.096 C 
HETATM   17  C   UNL     1      -5.379   4.190 -30.363  1.00  0.00     0.017 C 
HETATM   18  C   UNL     1      -6.163   2.937 -29.978  1.00  0.00     0.021 C 
HETATM   19  C   UNL     1      -5.313   1.683 -30.142  1.00  0.00     0.123 C 
BRANCH  16  20
HETATM   20  C   UNL     1      -5.428   4.457 -32.889  1.00  0.00     0.223 C 
HETATM   21  N   UNL     1      -6.787   4.422 -32.747  1.00  0.00    -0.359 N 
HETATM   22  H   UNL     1      -7.123   4.111 -31.831  1.00  0.00     0.162 HD
HETATM   23  O   UNL     1      -4.904   4.751 -33.965  1.00  0.00    -0.273 OA
BRANCH  21  24
HETATM   24  C   UNL     1      -7.773   5.015 -33.648  1.00  0.00     0.150 C 
BRANCH  24  25
HETATM   25  C   UNL     1      -9.228   5.201 -33.162  1.00  0.00     0.254 C 
BRANCH  25  26
HETATM   26  N   UNL     1     -10.216   5.403 -34.284  1.00  0.00    -0.066 N 
HETATM   27  H   UNL     1      -9.661   5.179 -35.133  1.00  0.00     0.280 HD
HETATM   28  C   UNL     1     -11.434   4.506 -34.249  1.00  0.00     0.261 C 
HETATM   29  C   UNL     1     -12.315   4.781 -35.474  1.00  0.00     0.195 C 
HETATM   30  O   UNL     1     -12.685   6.162 -35.544  1.00  0.00    -0.388 OA
HETATM   31  C   UNL     1     -11.533   7.006 -35.666  1.00  0.00     0.195 C 
HETATM   32  C   UNL     1     -10.618   6.859 -34.444  1.00  0.00     0.261 C 
ENDBRANCH  25  26
ENDBRANCH  24  25
ENDBRANCH  21  24
ENDBRANCH  16  20
ENDBRANCH   2  14
BRANCH   1  33
HETATM   33  C   UNL     1      -6.753   0.186 -33.316  1.00  0.00    -0.023 A 
HETATM   34  C   UNL     1      -7.896   0.099 -32.513  1.00  0.00     0.012 A 
HETATM   35  C   UNL     1      -9.076   0.744 -32.892  1.00  0.00     0.001 A 
HETATM   36  C   UNL     1      -9.116   1.489 -34.070  1.00  0.00     0.000 A 
HETATM   37  C   UNL     1      -7.975   1.604 -34.861  1.00  0.00     0.001 A 
HETATM   38  C   UNL     1      -6.794   0.966 -34.480  1.00  0.00     0.012 A 
ENDBRANCH   1  33
TORSDOF 6
ENDMDL
MODEL 6
REMARK VINA RESULT:      -8.6      3.703      8.957
REMARK  6 active torsions:
REMARK  status: ('A' for Active; 'I' for Inactive)
REMARK    1  A    between atoms: C_4  and  C_5 
REMARK    2  A    between atoms: C_6  and  N_7 
REMARK    3  A    between atoms: C_9  and  C_10 
REMARK       I    between atoms: C_10  and  N_11 
REMARK    4  A    between atoms: N_11  and  C_12 
REMARK    5  A    between atoms: C_12  and  C_13 
REMARK    6  A    between atoms: C_13  and  N_14 
ROOT
HETATM    1  C   UNL     1     -11.620   4.259 -34.348  1.00  0.00     0.019 A 
HETATM    2  C   UNL     1     -10.314   4.034 -34.018  1.00  0.00     0.111 A 
HETATM    3  C   UNL     1      -9.280   5.093 -34.444  1.00  0.00     0.273 A 
HETATM    4  O   UNL     1      -8.080   4.994 -34.194  1.00  0.00    -0.266 OA
HETATM    5  N   UNL     1      -9.714   6.191 -35.119  1.00  0.00    -0.321 N 
HETATM    6  C   UNL     1     -11.038   6.428 -35.454  1.00  0.00     0.046 A 
HETATM    7  C   UNL     1     -12.012   5.499 -35.086  1.00  0.00     0.006 A 
HETATM    8  C   UNL     1     -11.364   7.599 -36.145  1.00  0.00     0.032 A 
HETATM    9  C   UNL     1     -12.692   7.859 -36.477  1.00  0.00     0.026 A 
HETATM   10  C   UNL     1     -13.678   6.947 -36.116  1.00  0.00     0.035 A 
HETATM   11 CL   UNL     1     -15.321   7.264 -36.513  1.00  0.00    -0.084 Cl
HETATM   12  C   UNL     1     -13.347   5.777 -35.428  1.00  0.00     0.038 A 
HETATM   13  H   UNL     1      -8.991   6.848 -35.387  1.00  0.00     0.169 HD
ENDROOT
BRANCH   2  14
HETATM   14  N   UNL     1      -9.830   2.878 -33.314  1.00  0.00    -0.375 N 
HETATM   15  C   UNL     1     -10.222   1.515 -33.778  1.00  0.00     0.137 C 
HETATM   16  C   UNL     1      -9.270   0.442 -33.242  1.00  0.00     0.096 C 
HETATM   17  C   UNL     1      -8.957   0.584 -31.747  1.00  0.00     0.017 C 
HETATM   18  C   UNL     1      -8.777   2.027 -31.281  1.00  0.00     0.021 C 
HETATM   19  C   UNL     1      -9.878   2.926 -31.831  1.00  0.00     0.123 C 
BRANCH  16  20
HETATM   20  C   UNL     1      -8.017   0.343 -34.094  1.00  0.00     0.223 C 
HETATM   21  N   UNL     1      -6.839   0.111 -33.439  1.00  0.00    -0.359 N 
HETATM   22  H   UNL     1      -6.913   0.041 -32.419  1.00  0.00     0.162 HD
HETATM   23  O   UNL     1      -8.046   0.511 -35.315  1.00  0.00    -0.273 OA
BRANCH  21  24
HETATM   24  C   UNL     1      -5.573  -0.300 -34.040  1.00  0.00     0.150 C 
BRANCH  24  25
HETATM   25  C   UNL     1      -4.740  -1.415 -33.368  1.00  0.00     0.254 C 
BRANCH  25  26
HETATM   26  N   UNL     1      -5.214  -2.806 -33.705  1.00  0.00    -0.066 N 
HETATM   27  H   UNL     1      -5.653  -3.130 -32.820  1.00  0.00     0.280 HD
HETATM   28  C   UNL     1      -6.238  -2.896 -34.815  1.00  0.00     0.261 C 
HETATM   29  C   UNL     1      -6.668  -4.355 -35.007  1.00  0.00     0.195 C 
HETATM   30  O   UNL     1      -5.538  -5.195 -35.269  1.00  0.00    -0.388 OA
HETATM   31  C   UNL     1      -4.610  -5.178 -34.177  1.00  0.00     0.195 C 
HETATM   32  C   UNL     1      -4.062  -3.765 -33.950  1.00  0.00     0.261 C 
ENDBRANCH  25  26
ENDBRANCH  24  25
ENDBRANCH  21  24
ENDBRANCH  16  20
ENDBRANCH   2  14
BRANCH   1  33
HETATM   33  C   UNL     1     -12.653   3.273 -33.925  1.00  0.00    -0.023 A 
HETATM   34  C   UNL     1     -13.294   3.410 -32.688  1.00  0.00     0.012 A 
HETATM   35  C   UNL     1     -14.308   2.524 -32.317  1.00  0.00     0.001 A 
HETATM   36  C   UNL     1     -14.695   1.504 -33.186  1.00  0.00     0.000 A 
HETATM   37  C   UNL     1     -14.082   1.377 -34.430  1.00  0.00     0.001 A 
HETATM   38  C   UNL     1     -13.074   2.266 -34.805  1.00  0.00     0.012 A 
ENDBRANCH   1  33
TORSDOF 6
ENDMDL
MODEL 7
REMARK VINA RESULT:      -8.4      5.691      8.729
REMARK  6 active torsions:
REMARK  status: ('A' for Active; 'I' for Inactive)
REMARK    1  A    between atoms: C_4  and  C_5 
REMARK    2  A    between atoms: C_6  and  N_7 
REMARK    3  A    between atoms: C_9  and  C_10 
REMARK       I    between atoms: C_10  and  N_11 
REMARK    4  A    between atoms: N_11  and  C_12 
REMARK    5  A    between atoms: C_12  and  C_13 
REMARK    6  A    between atoms: C_13  and  N_14 
ROOT
HETATM    1  C   UNL     1      -1.547   7.094 -29.776  1.00  0.00     0.019 A 
HETATM    2  C   UNL     1      -1.053   6.212 -30.695  1.00  0.00     0.111 A 
HETATM    3  C   UNL     1       0.265   5.493 -30.355  1.00  0.00     0.273 A 
HETATM    4  O   UNL     1       0.795   4.677 -31.106  1.00  0.00    -0.266 OA
HETATM    5  N   UNL     1       0.866   5.765 -29.165  1.00  0.00    -0.321 N 
HETATM    6  C   UNL     1       0.369   6.656 -28.225  1.00  0.00     0.046 A 
HETATM    7  C   UNL     1      -0.825   7.329 -28.488  1.00  0.00     0.006 A 
HETATM    8  C   UNL     1       1.075   6.848 -27.034  1.00  0.00     0.032 A 
HETATM    9  C   UNL     1       0.582   7.728 -26.073  1.00  0.00     0.026 A 
HETATM   10  C   UNL     1      -0.609   8.406 -26.314  1.00  0.00     0.035 A 
HETATM   11 CL   UNL     1      -1.230   9.487 -25.129  1.00  0.00    -0.084 Cl
HETATM   12  C   UNL     1      -1.308   8.213 -27.508  1.00  0.00     0.038 A 
HETATM   13  H   UNL     1       1.737   5.275 -28.999  1.00  0.00     0.169 HD
ENDROOT
BRANCH   2  14
HETATM   14  N   UNL     1      -1.665   5.916 -31.962  1.00  0.00    -0.375 N 
HETATM   15  C   UNL     1      -2.003   4.505 -32.306  1.00  0.00     0.137 C 
HETATM   16  C   UNL     1      -3.044   4.432 -33.426  1.00  0.00     0.096 C 
HETATM   17  C   UNL     1      -2.747   5.363 -34.608  1.00  0.00     0.017 C 
HETATM   18  C   UNL     1      -2.197   6.729 -34.203  1.00  0.00     0.021 C 
HETATM   19  C   UNL     1      -1.098   6.593 -33.156  1.00  0.00     0.123 C 
BRANCH  16  20
HETATM   20  C   UNL     1      -4.451   4.607 -32.883  1.00  0.00     0.223 C 
HETATM   21  N   UNL     1      -5.359   5.221 -33.701  1.00  0.00    -0.359 N 
HETATM   22  H   UNL     1      -4.994   5.523 -34.609  1.00  0.00     0.162 HD
HETATM   23  O   UNL     1      -4.753   4.259 -31.740  1.00  0.00    -0.273 OA
BRANCH  21  24
HETATM   24  C   UNL     1      -6.808   5.250 -33.527  1.00  0.00     0.150 C 
BRANCH  24  25
HETATM   25  C   UNL     1      -7.637   3.986 -33.851  1.00  0.00     0.254 C 
BRANCH  25  26
HETATM   26  N   UNL     1      -7.158   2.752 -33.128  1.00  0.00    -0.066 N 
HETATM   27  H   UNL     1      -6.318   3.086 -32.616  1.00  0.00     0.280 HD
HETATM   28  C   UNL     1      -8.131   2.160 -32.132  1.00  0.00     0.261 C 
HETATM   29  C   UNL     1      -7.491   0.952 -31.437  1.00  0.00     0.195 C 
HETATM   30  O   UNL     1      -7.062  -0.025 -32.392  1.00  0.00    -0.388 OA
HETATM   31  C   UNL     1      -6.074   0.512 -33.280  1.00  0.00     0.195 C 
HETATM   32  C   UNL     1      -6.644   1.688 -34.083  1.00  0.00     0.261 C 
ENDBRANCH  25  26
ENDBRANCH  24  25
ENDBRANCH  21  24
ENDBRANCH  16  20
ENDBRANCH   2  14
BRANCH   1  33
HETATM   33  C   UNL     1      -2.836   7.785 -30.055  1.00  0.00    -0.023 A 
HETATM   34  C   UNL     1      -2.842   9.055 -30.644  1.00  0.00     0.012 A 
HETATM   35  C   UNL     1      -4.050   9.678 -30.966  1.00  0.00     0.001 A 
HETATM   36  C   UNL     1      -5.259   9.029 -30.712  1.00  0.00     0.000 A 
HETATM   37  C   UNL     1      -5.261   7.754 -30.152  1.00  0.00     0.001 A 
HETATM   38  C   UNL     1      -4.055   7.128 -29.837  1.00  0.00     0.012 A 
ENDBRANCH   1  33
TORSDOF 6
ENDMDL
MODEL 8
REMARK VINA RESULT:      -8.1      6.020      9.278
REMARK  6 active torsions:
REMARK  status: ('A' for Active; 'I' for Inactive)
REMARK    1  A    between atoms: C_4  and  C_5 
REMARK    2  A    between atoms: C_6  and  N_7 
REMARK    3  A    between atoms: C_9  and  C_10 
REMARK       I    between atoms: C_10  and  N_11 
REMARK    4  A    between atoms: N_11  and  C_12 
REMARK    5  A    between atoms: C_12  and  C_13 
REMARK    6  A    between atoms: C_13  and  N_14 
ROOT
HETATM    1  C   UNL     1      -1.335   7.359 -29.729  1.00  0.00     0.019 A 
HETATM    2  C   UNL     1      -0.893   6.387 -30.580  1.00  0.00     0.111 A 
HETATM    3  C   UNL     1       0.351   5.584 -30.159  1.00  0.00     0.273 A 
HETATM    4  O   UNL     1       0.830   4.683 -30.846  1.00  0.00    -0.266 OA
HETATM    5  N   UNL     1       0.943   5.878 -28.969  1.00  0.00    -0.321 N 
HETATM    6  C   UNL     1       0.499   6.861 -28.099  1.00  0.00     0.046 A 
HETATM    7  C   UNL     1      -0.628   7.612 -28.436  1.00  0.00     0.006 A 
HETATM    8  C   UNL     1       1.187   7.067 -26.900  1.00  0.00     0.032 A 
HETATM    9  C   UNL     1       0.745   8.041 -26.007  1.00  0.00     0.026 A 
HETATM   10  C   UNL     1      -0.378   8.798 -26.323  1.00  0.00     0.035 A 
HETATM   11 CL   UNL     1      -0.936   9.996 -25.223  1.00  0.00    -0.084 Cl
HETATM   12  C   UNL     1      -1.061   8.591 -27.524  1.00  0.00     0.038 A 
HETATM   13  H   UNL     1       1.765   5.330 -28.749  1.00  0.00     0.169 HD
ENDROOT
BRANCH   2  14
HETATM   14  N   UNL     1      -1.496   6.065 -31.845  1.00  0.00    -0.375 N 
HETATM   15  C   UNL     1      -1.647   4.637 -32.249  1.00  0.00     0.137 C 
HETATM   16  C   UNL     1      -2.700   4.471 -33.347  1.00  0.00     0.096 C 
HETATM   17  C   UNL     1      -2.568   5.486 -34.490  1.00  0.00     0.017 C 
HETATM   18  C   UNL     1      -2.199   6.895 -34.032  1.00  0.00     0.021 C 
HETATM   19  C   UNL     1      -1.062   6.866 -33.019  1.00  0.00     0.123 C 
BRANCH  16  20
HETATM   20  C   UNL     1      -4.102   4.427 -32.764  1.00  0.00     0.223 C 
HETATM   21  N   UNL     1      -4.663   3.191 -32.593  1.00  0.00    -0.359 N 
HETATM   22  H   UNL     1      -4.082   2.402 -32.894  1.00  0.00     0.162 HD
HETATM   23  O   UNL     1      -4.728   5.455 -32.500  1.00  0.00    -0.273 OA
BRANCH  21  24
HETATM   24  C   UNL     1      -5.852   2.875 -31.807  1.00  0.00     0.150 C 
BRANCH  24  25
HETATM   25  C   UNL     1      -5.748   2.812 -30.266  1.00  0.00     0.254 C 
BRANCH  25  26
HETATM   26  N   UNL     1      -6.637   3.808 -29.561  1.00  0.00    -0.066 N 
HETATM   27  H   UNL     1      -7.148   3.224 -28.870  1.00  0.00     0.280 HD
HETATM   28  C   UNL     1      -5.919   4.917 -28.825  1.00  0.00     0.261 C 
HETATM   29  C   UNL     1      -6.939   5.813 -28.114  1.00  0.00     0.195 C 
HETATM   30  O   UNL     1      -7.899   6.336 -29.039  1.00  0.00    -0.388 OA
HETATM   31  C   UNL     1      -8.641   5.286 -29.673  1.00  0.00     0.195 C 
HETATM   32  C   UNL     1      -7.711   4.371 -30.477  1.00  0.00     0.261 C 
ENDBRANCH  25  26
ENDBRANCH  24  25
ENDBRANCH  21  24
ENDBRANCH  16  20
ENDBRANCH   2  14
BRANCH   1  33
HETATM   33  C   UNL     1      -2.554   8.135 -30.087  1.00  0.00    -0.023 A 
HETATM   34  C   UNL     1      -3.825   7.613 -29.822  1.00  0.00     0.012 A 
HETATM   35  C   UNL     1      -4.969   8.366 -30.098  1.00  0.00     0.001 A 
HETATM   36  C   UNL     1      -4.848   9.649 -30.631  1.00  0.00     0.000 A 
HETATM   37  C   UNL     1      -3.586  10.188 -30.872  1.00  0.00     0.001 A 
HETATM   38  C   UNL     1      -2.443   9.440 -30.590  1.00  0.00     0.012 A 
ENDBRANCH   1  33
TORSDOF 6
ENDMDL
MODEL 9
REMARK VINA RESULT:      -8.0      4.572      8.142
REMARK  6 active torsions:
REMARK  status: ('A' for Active; 'I' for Inactive)
REMARK    1  A    between atoms: C_4  and  C_5 
REMARK    2  A    between atoms: C_6  and  N_7 
REMARK    3  A    between atoms: C_9  and  C_10 
REMARK       I    between atoms: C_10  and  N_11 
REMARK    4  A    between atoms: N_11  and  C_12 
REMARK    5  A    between atoms: C_12  and  C_13 
REMARK    6  A    between atoms: C_13  and  N_14 
ROOT
HETATM    1  C   UNL     1      -5.380   3.408 -31.923  1.00  0.00     0.019 A 
HETATM    2  C   UNL     1      -6.063   4.187 -31.033  1.00  0.00     0.111 A 
HETATM    3  C   UNL     1      -7.007   3.478 -30.045  1.00  0.00     0.273 A 
HETATM    4  O   UNL     1      -7.666   4.081 -29.199  1.00  0.00    -0.266 OA
HETATM    5  N   UNL     1      -7.111   2.122 -30.103  1.00  0.00    -0.321 N 
HETATM    6  C   UNL     1      -6.417   1.325 -31.001  1.00  0.00     0.046 A 
HETATM    7  C   UNL     1      -5.547   1.923 -31.913  1.00  0.00     0.006 A 
HETATM    8  C   UNL     1      -6.602  -0.060 -30.960  1.00  0.00     0.032 A 
HETATM    9  C   UNL     1      -5.902  -0.877 -31.845  1.00  0.00     0.026 A 
HETATM   10  C   UNL     1      -5.027  -0.301 -32.760  1.00  0.00     0.035 A 
HETATM   11 CL   UNL     1      -4.151  -1.303 -33.851  1.00  0.00    -0.084 Cl
HETATM   12  C   UNL     1      -4.848   1.084 -32.799  1.00  0.00     0.038 A 
HETATM   13  H   UNL     1      -7.755   1.710 -29.441  1.00  0.00     0.169 HD
ENDROOT
BRANCH   2  14
HETATM   14  N   UNL     1      -5.977   5.620 -30.959  1.00  0.00    -0.375 N 
HETATM   15  C   UNL     1      -5.537   6.269 -29.690  1.00  0.00     0.137 C 
HETATM   16  C   UNL     1      -5.054   7.702 -29.928  1.00  0.00     0.096 C 
HETATM   17  C   UNL     1      -5.987   8.529 -30.821  1.00  0.00     0.017 C 
HETATM   18  C   UNL     1      -6.582   7.750 -31.992  1.00  0.00     0.021 C 
HETATM   19  C   UNL     1      -7.105   6.392 -31.541  1.00  0.00     0.123 C 
BRANCH  16  20
HETATM   20  C   UNL     1      -3.613   7.725 -30.408  1.00  0.00     0.223 C 
HETATM   21  N   UNL     1      -2.751   6.840 -29.821  1.00  0.00    -0.359 N 
HETATM   22  H   UNL     1      -3.161   6.249 -29.092  1.00  0.00     0.162 HD
HETATM   23  O   UNL     1      -3.223   8.534 -31.252  1.00  0.00    -0.273 OA
BRANCH  21  24
HETATM   24  C   UNL     1      -1.418   6.478 -30.295  1.00  0.00     0.150 C 
BRANCH  24  25
HETATM   25  C   UNL     1      -0.270   7.508 -30.191  1.00  0.00     0.254 C 
BRANCH  25  26
HETATM   26  N   UNL     1       0.092   7.864 -28.771  1.00  0.00    -0.066 N 
HETATM   27  H   UNL     1       1.082   8.170 -28.847  1.00  0.00     0.280 HD
HETATM   28  C   UNL     1      -0.716   8.983 -28.152  1.00  0.00     0.261 C 
HETATM   29  C   UNL     1      -0.202   9.272 -26.737  1.00  0.00     0.195 C 
HETATM   30  O   UNL     1      -0.234   8.093 -25.925  1.00  0.00    -0.388 OA
HETATM   31  C   UNL     1       0.602   7.063 -26.466  1.00  0.00     0.195 C 
HETATM   32  C   UNL     1       0.122   6.648 -27.861  1.00  0.00     0.261 C 
ENDBRANCH  25  26
ENDBRANCH  24  25
ENDBRANCH  21  24
ENDBRANCH  16  20
ENDBRANCH   2  14
BRANCH   1  33
HETATM   33  C   UNL     1      -4.433   4.056 -32.873  1.00  0.00    -0.023 A 
HETATM   34  C   UNL     1      -3.060   4.069 -32.602  1.00  0.00     0.012 A 
HETATM   35  C   UNL     1      -2.164   4.618 -33.522  1.00  0.00     0.001 A 
HETATM   36  C   UNL     1      -2.635   5.148 -34.723  1.00  0.00     0.000 A 
HETATM   37  C   UNL     1      -3.997   5.114 -35.014  1.00  0.00     0.001 A 
HETATM   38  C   UNL     1      -4.892   4.559 -34.098  1.00  0.00     0.012 A 
ENDBRANCH   1  33
TORSDOF 6
ENDMDL
MODEL 10
REMARK VINA RESULT:      -8.0      3.956      8.661
REMARK  6 active torsions:
REMARK  status: ('A' for Active; 'I' for Inactive)
REMARK    1  A    between atoms: C_4  and  C_5 
REMARK    2  A    between atoms: C_6  and  N_7 
REMARK    3  A    between atoms: C_9  and  C_10 
REMARK       I    between atoms: C_10  and  N_11 
REMARK    4  A    between atoms: N_11  and  C_12 
REMARK    5  A    between atoms: C_12  and  C_13 
REMARK    6  A    between atoms: C_13  and  N_14 
ROOT
HETATM    1  C   UNL     1     -10.419   3.508 -31.843  1.00  0.00     0.019 A 
HETATM    2  C   UNL     1     -10.143   2.446 -32.657  1.00  0.00     0.111 A 
HETATM    3  C   UNL     1     -11.334   1.725 -33.314  1.00  0.00     0.273 A 
HETATM    4  O   UNL     1     -11.199   0.763 -34.068  1.00  0.00    -0.266 OA
HETATM    5  N   UNL     1     -12.591   2.177 -33.056  1.00  0.00    -0.321 N 
HETATM    6  C   UNL     1     -12.879   3.256 -32.235  1.00  0.00     0.046 A 
HETATM    7  C   UNL     1     -11.831   3.944 -31.620  1.00  0.00     0.006 A 
HETATM    8  C   UNL     1     -14.213   3.632 -32.051  1.00  0.00     0.032 A 
HETATM    9  C   UNL     1     -14.518   4.722 -31.240  1.00  0.00     0.026 A 
HETATM   10  C   UNL     1     -13.488   5.424 -30.621  1.00  0.00     0.035 A 
HETATM   11 CL   UNL     1     -13.856   6.777 -29.625  1.00  0.00    -0.084 Cl
HETATM   12  C   UNL     1     -12.157   5.042 -30.805  1.00  0.00     0.038 A 
HETATM   13  H   UNL     1     -13.337   1.658 -33.503  1.00  0.00     0.169 HD
ENDROOT
BRANCH   2  14
HETATM   14  N   UNL     1      -8.825   1.945 -32.936  1.00  0.00    -0.375 N 
HETATM   15  C   UNL     1      -8.210   2.188 -34.273  1.00  0.00     0.137 C 
HETATM   16  C   UNL     1      -6.689   2.021 -34.233  1.00  0.00     0.096 C 
HETATM   17  C   UNL     1      -6.224   0.759 -33.495  1.00  0.00     0.017 C 
HETATM   18  C   UNL     1      -7.033   0.437 -32.240  1.00  0.00     0.021 C 
HETATM   19  C   UNL     1      -8.529   0.555 -32.503  1.00  0.00     0.123 C 
BRANCH  16  20
HETATM   20  C   UNL     1      -6.010   3.280 -33.723  1.00  0.00     0.223 C 
HETATM   21  N   UNL     1      -5.316   3.177 -32.549  1.00  0.00    -0.359 N 
HETATM   22  H   UNL     1      -5.334   2.251 -32.111  1.00  0.00     0.162 HD
HETATM   23  O   UNL     1      -6.117   4.359 -34.310  1.00  0.00    -0.273 OA
BRANCH  21  24
HETATM   24  C   UNL     1      -4.365   4.145 -32.011  1.00  0.00     0.150 C 
BRANCH  24  25
HETATM   25  C   UNL     1      -2.875   3.754 -31.884  1.00  0.00     0.254 C 
BRANCH  25  26
HETATM   26  N   UNL     1      -1.949   4.650 -32.669  1.00  0.00    -0.066 N 
HETATM   27  H   UNL     1      -1.008   4.255 -32.468  1.00  0.00     0.280 HD
HETATM   28  C   UNL     1      -2.162   4.658 -34.167  1.00  0.00     0.261 C 
HETATM   29  C   UNL     1      -1.119   5.561 -34.835  1.00  0.00     0.195 C 
HETATM   30  O   UNL     1      -1.163   6.886 -34.294  1.00  0.00    -0.388 OA
HETATM   31  C   UNL     1      -0.873   6.887 -32.890  1.00  0.00     0.195 C 
HETATM   32  C   UNL     1      -1.911   6.065 -32.119  1.00  0.00     0.261 C 
ENDBRANCH  25  26
ENDBRANCH  24  25
ENDBRANCH  21  24
ENDBRANCH  16  20
ENDBRANCH   2  14
BRANCH   1  33
HETATM   33  C   UNL     1      -9.291   4.251 -31.215  1.00  0.00    -0.023 A 
HETATM   34  C   UNL     1      -8.685   3.762 -30.052  1.00  0.00     0.012 A 
HETATM   35  C   UNL     1      -7.586   4.422 -29.498  1.00  0.00     0.001 A 
HETATM   36  C   UNL     1      -7.080   5.569 -30.109  1.00  0.00     0.000 A 
HETATM   37  C   UNL     1      -7.659   6.047 -31.283  1.00  0.00     0.001 A 
HETATM   38  C   UNL     1      -8.753   5.384 -31.841  1.00  0.00     0.012 A 
ENDBRANCH   1  33
TORSDOF 6
ENDMDL
