MODEL 1
REMARK VINA RESULT:      -8.8      0.000      0.000
REMARK  13 active torsions:
REMARK  status: ('A' for Active; 'I' for Inactive)
REMARK    1  A    between atoms: C_2  and  O_3 
REMARK    2  A    between atoms: O_3  and  C_4 
REMARK    3  A    between atoms: C_5  and  O_6 
REMARK    4  A    between atoms: C_9  and  C_10 
REMARK    5  A    between atoms: N_11  and  C_12 
REMARK    6  A    between atoms: C_12  and  C_13 
REMARK    7  A    between atoms: C_13  and  N_14 
REMARK    8  A    between atoms: C_20  and  O_21 
REMARK    9  A    between atoms: C_22  and  C_23 
REMARK   10  A    between atoms: C_23  and  C_24 
REMARK   11  A    between atoms: C_28  and  O_29 
REMARK   12  A    between atoms: O_29  and  C_30 
REMARK   13  A    between atoms: C_30  and  C_31 
ROOT
HETATM    1  C   UNL     1      -5.426   5.219 -32.119  1.00  0.00     0.161 A 
HETATM    2  N   UNL     1      -6.052   6.342 -31.430  1.00  0.00    -0.332 N 
HETATM    3  C   UNL     1      -6.147   6.091 -30.071  1.00  0.00     0.278 A 
HETATM    4  O   UNL     1      -6.640   6.813 -29.224  1.00  0.00    -0.265 OA
HETATM    5  C   UNL     1      -5.588   4.748 -29.815  1.00  0.00     0.146 A 
HETATM    6  C   UNL     1      -5.226   4.243 -31.001  1.00  0.00     0.059 A 
ENDROOT
BRANCH   6   7
HETATM    7  C   UNL     1      -4.651   2.889 -31.193  1.00  0.00     0.194 C 
HETATM    8  O   UNL     1      -3.493   2.627 -30.900  1.00  0.00    -0.287 OA
BRANCH   7   9
HETATM    9  C   UNL     1      -5.516   1.869 -31.848  1.00  0.00     0.021 A 
HETATM   10  C   UNL     1      -6.049   0.797 -31.112  1.00  0.00    -0.045 A 
HETATM   11  C   UNL     1      -5.910   0.691 -29.620  1.00  0.00     0.049 C 
HETATM   12  C   UNL     1      -6.754  -0.201 -31.803  1.00  0.00     0.044 A 
HETATM   13  C   UNL     1      -6.912  -0.147 -33.189  1.00  0.00     0.069 A 
HETATM   14  C   UNL     1      -6.454   0.961 -33.898  1.00  0.00     0.038 A 
HETATM   15  C   UNL     1      -5.766   1.973 -33.226  1.00  0.00     0.019 A 
BRANCH  13  16
HETATM   16  O   UNL     1      -7.572  -1.201 -33.753  1.00  0.00    -0.347 OA
BRANCH  16  17
HETATM   17  C   UNL     1      -7.030  -1.649 -34.997  1.00  0.00     0.214 C 
BRANCH  17  18
HETATM   18  C   UNL     1      -6.071  -2.778 -34.714  1.00  0.00    -0.034 A 
HETATM   19  C   UNL     1      -6.440  -4.102 -34.991  1.00  0.00     0.009 A 
HETATM   20  C   UNL     1      -5.564  -5.153 -34.714  1.00  0.00     0.001 A 
HETATM   21  C   UNL     1      -4.316  -4.892 -34.152  1.00  0.00     0.000 A 
HETATM   22  C   UNL     1      -3.942  -3.581 -33.865  1.00  0.00     0.001 A 
HETATM   23  C   UNL     1      -4.815  -2.528 -34.145  1.00  0.00     0.009 A 
ENDBRANCH  17  18
ENDBRANCH  16  17
ENDBRANCH  13  16
ENDBRANCH   7   9
ENDBRANCH   6   7
BRANCH   1  24
HETATM   24  C   UNL     1      -4.144   5.659 -32.801  1.00  0.00    -0.028 A 
HETATM   25  C   UNL     1      -3.760   5.165 -34.060  1.00  0.00     0.012 A 
HETATM   26  C   UNL     1      -2.560   5.569 -34.648  1.00  0.00     0.040 A 
HETATM   27  C   UNL     1      -1.730   6.479 -33.992  1.00  0.00     0.099 A 
HETATM   28  C   UNL     1      -2.109   7.015 -32.758  1.00  0.00     0.102 A 
HETATM   29  C   UNL     1      -3.305   6.588 -32.167  1.00  0.00     0.049 A 
BRANCH  27  30
HETATM   30  O   UNL     1      -0.533   6.802 -34.562  1.00  0.00    -0.358 OA
HETATM   31  H   UNL     1       0.111   6.091 -34.401  1.00  0.00     0.218 HD
ENDBRANCH  27  30
BRANCH  28  32
HETATM   32  O   UNL     1      -1.416   7.919 -32.000  1.00  0.00    -0.349 OA
BRANCH  32  33
HETATM   33  C   UNL     1      -0.880   7.435 -30.763  1.00  0.00     0.171 C 
HETATM   34  C   UNL     1       0.422   6.713 -31.067  1.00  0.00     0.034 C 
ENDBRANCH  32  33
ENDBRANCH  28  32
ENDBRANCH   1  24
BRANCH   5  35
HETATM   35  O   UNL     1      -5.565   4.169 -28.586  1.00  0.00    -0.355 OA
HETATM   36  H   UNL     1      -5.399   4.874 -27.932  1.00  0.00     0.218 HD
ENDBRANCH   5  35
BRANCH   2  37
HETATM   37  C   UNL     1      -7.016   7.225 -32.089  1.00  0.00     0.155 C 
BRANCH  37  38
HETATM   38  C   UNL     1      -8.420   6.628 -32.249  1.00  0.00     0.254 C 
BRANCH  38  39
HETATM   39  N   UNL     1      -8.715   6.268 -33.691  1.00  0.00    -0.077 N 
HETATM   40  H   UNL     1      -8.031   6.787 -34.260  1.00  0.00     0.279 HD
HETATM   41  C   UNL     1      -8.480   4.804 -33.947  1.00  0.00     0.269 C 
HETATM   42  C   UNL     1     -10.080   6.698 -34.155  1.00  0.00     0.269 C 
ENDBRANCH  38  39
ENDBRANCH  37  38
ENDBRANCH   2  37
TORSDOF 13
ENDMDL
MODEL 2
REMARK VINA RESULT:      -8.7      2.030      5.717
REMARK  13 active torsions:
REMARK  status: ('A' for Active; 'I' for Inactive)
REMARK    1  A    between atoms: C_2  and  O_3 
REMARK    2  A    between atoms: O_3  and  C_4 
REMARK    3  A    between atoms: C_5  and  O_6 
REMARK    4  A    between atoms: C_9  and  C_10 
REMARK    5  A    between atoms: N_11  and  C_12 
REMARK    6  A    between atoms: C_12  and  C_13 
REMARK    7  A    between atoms: C_13  and  N_14 
REMARK    8  A    between atoms: C_20  and  O_21 
REMARK    9  A    between atoms: C_22  and  C_23 
REMARK   10  A    between atoms: C_23  and  C_24 
REMARK   11  A    between atoms: C_28  and  O_29 
REMARK   12  A    between atoms: O_29  and  C_30 
REMARK   13  A    between atoms: C_30  and  C_31 
ROOT
HETATM    1  C   UNL     1      -3.694   6.450 -31.418  1.00  0.00     0.161 A 
HETATM    2  N   UNL     1      -3.065   7.651 -30.877  1.00  0.00    -0.332 N 
HETATM    3  C   UNL     1      -2.376   8.330 -31.868  1.00  0.00     0.278 A 
HETATM    4  O   UNL     1      -1.725   9.352 -31.741  1.00  0.00    -0.265 OA
HETATM    5  C   UNL     1      -2.518   7.570 -33.126  1.00  0.00     0.146 A 
HETATM    6  C   UNL     1      -3.231   6.474 -32.842  1.00  0.00     0.059 A 
ENDROOT
BRANCH   6   7
HETATM    7  C   UNL     1      -3.569   5.417 -33.826  1.00  0.00     0.194 C 
HETATM    8  O   UNL     1      -3.583   5.630 -35.030  1.00  0.00    -0.287 OA
BRANCH   7   9
HETATM    9  C   UNL     1      -3.983   4.092 -33.287  1.00  0.00     0.021 A 
HETATM   10  C   UNL     1      -5.323   3.675 -33.350  1.00  0.00    -0.045 A 
HETATM   11  C   UNL     1      -6.379   4.452 -34.084  1.00  0.00     0.049 C 
HETATM   12  C   UNL     1      -5.679   2.473 -32.717  1.00  0.00     0.044 A 
HETATM   13  C   UNL     1      -4.734   1.714 -32.024  1.00  0.00     0.069 A 
HETATM   14  C   UNL     1      -3.393   2.092 -32.038  1.00  0.00     0.038 A 
HETATM   15  C   UNL     1      -3.016   3.274 -32.678  1.00  0.00     0.019 A 
BRANCH  13  16
HETATM   16  O   UNL     1      -5.210   0.593 -31.406  1.00  0.00    -0.347 OA
BRANCH  16  17
HETATM   17  C   UNL     1      -6.422   0.076 -31.958  1.00  0.00     0.214 C 
BRANCH  17  18
HETATM   18  C   UNL     1      -6.066  -1.000 -32.953  1.00  0.00    -0.034 A 
HETATM   19  C   UNL     1      -4.743  -1.450 -33.061  1.00  0.00     0.009 A 
HETATM   20  C   UNL     1      -4.404  -2.432 -33.993  1.00  0.00     0.001 A 
HETATM   21  C   UNL     1      -5.380  -2.969 -34.828  1.00  0.00     0.000 A 
HETATM   22  C   UNL     1      -6.698  -2.524 -34.736  1.00  0.00     0.001 A 
HETATM   23  C   UNL     1      -7.040  -1.544 -33.802  1.00  0.00     0.009 A 
ENDBRANCH  17  18
ENDBRANCH  16  17
ENDBRANCH  13  16
ENDBRANCH   7   9
ENDBRANCH   6   7
BRANCH   1  24
HETATM   24  C   UNL     1      -5.200   6.517 -31.249  1.00  0.00    -0.028 A 
HETATM   25  C   UNL     1      -5.989   7.451 -31.942  1.00  0.00     0.012 A 
HETATM   26  C   UNL     1      -7.370   7.505 -31.743  1.00  0.00     0.040 A 
HETATM   27  C   UNL     1      -7.985   6.620 -30.857  1.00  0.00     0.099 A 
HETATM   28  C   UNL     1      -7.228   5.656 -30.185  1.00  0.00     0.102 A 
HETATM   29  C   UNL     1      -5.840   5.623 -30.376  1.00  0.00     0.049 A 
BRANCH  27  30
HETATM   30  O   UNL     1      -9.325   6.743 -30.634  1.00  0.00    -0.358 OA
HETATM   31  H   UNL     1      -9.811   6.116 -31.197  1.00  0.00     0.218 HD
ENDBRANCH  27  30
BRANCH  28  32
HETATM   32  O   UNL     1      -7.680   4.717 -29.299  1.00  0.00    -0.349 OA
BRANCH  32  33
HETATM   33  C   UNL     1      -7.591   3.351 -29.718  1.00  0.00     0.171 C 
HETATM   34  C   UNL     1      -8.781   3.057 -30.615  1.00  0.00     0.034 C 
ENDBRANCH  32  33
ENDBRANCH  28  32
ENDBRANCH   1  24
BRANCH   5  35
HETATM   35  O   UNL     1      -1.926   7.938 -34.293  1.00  0.00    -0.355 OA
HETATM   36  H   UNL     1      -2.636   8.179 -34.919  1.00  0.00     0.218 HD
ENDBRANCH   5  35
BRANCH   2  37
HETATM   37  C   UNL     1      -2.640   7.748 -29.480  1.00  0.00     0.155 C 
BRANCH  37  38
HETATM   38  C   UNL     1      -1.446   6.857 -29.112  1.00  0.00     0.254 C 
BRANCH  38  39
HETATM   39  N   UNL     1      -0.154   7.375 -29.712  1.00  0.00    -0.077 N 
HETATM   40  H   UNL     1      -0.406   8.219 -30.245  1.00  0.00     0.279 HD
HETATM   41  C   UNL     1       0.813   7.801 -28.642  1.00  0.00     0.269 C 
HETATM   42  C   UNL     1       0.484   6.421 -30.686  1.00  0.00     0.269 C 
ENDBRANCH  38  39
ENDBRANCH  37  38
ENDBRANCH   2  37
TORSDOF 13
ENDMDL
MODEL 3
REMARK VINA RESULT:      -8.6      1.739      2.567
REMARK  13 active torsions:
REMARK  status: ('A' for Active; 'I' for Inactive)
REMARK    1  A    between atoms: C_2  and  O_3 
REMARK    2  A    between atoms: O_3  and  C_4 
REMARK    3  A    between atoms: C_5  and  O_6 
REMARK    4  A    between atoms: C_9  and  C_10 
REMARK    5  A    between atoms: N_11  and  C_12 
REMARK    6  A    between atoms: C_12  and  C_13 
REMARK    7  A    between atoms: C_13  and  N_14 
REMARK    8  A    between atoms: C_20  and  O_21 
REMARK    9  A    between atoms: C_22  and  C_23 
REMARK   10  A    between atoms: C_23  and  C_24 
REMARK   11  A    between atoms: C_28  and  O_29 
REMARK   12  A    between atoms: O_29  and  C_30 
REMARK   13  A    between atoms: C_30  and  C_31 
ROOT
HETATM    1  C   UNL     1      -6.635   4.397 -32.573  1.00  0.00     0.161 A 
HETATM    2  N   UNL     1      -7.834   5.135 -32.956  1.00  0.00    -0.332 N 
HETATM    3  C   UNL     1      -8.500   5.603 -31.836  1.00  0.00     0.278 A 
HETATM    4  O   UNL     1      -9.542   6.232 -31.810  1.00  0.00    -0.265 OA
HETATM    5  C   UNL     1      -7.750   5.162 -30.642  1.00  0.00     0.146 A 
HETATM    6  C   UNL     1      -6.716   4.432 -31.077  1.00  0.00     0.059 A 
ENDROOT
BRANCH   6   7
HETATM    7  C   UNL     1      -5.730   3.766 -30.192  1.00  0.00     0.194 C 
HETATM    8  O   UNL     1      -5.249   4.326 -29.217  1.00  0.00    -0.287 OA
BRANCH   7   9
HETATM    9  C   UNL     1      -5.273   2.405 -30.585  1.00  0.00     0.021 A 
HETATM   10  C   UNL     1      -4.012   2.210 -31.175  1.00  0.00    -0.045 A 
HETATM   11  C   UNL     1      -3.002   3.314 -31.307  1.00  0.00     0.049 C 
HETATM   12  C   UNL     1      -3.684   0.925 -31.638  1.00  0.00     0.044 A 
HETATM   13  C   UNL     1      -4.588  -0.133 -31.536  1.00  0.00     0.069 A 
HETATM   14  C   UNL     1      -5.801   0.050 -30.875  1.00  0.00     0.038 A 
HETATM   15  C   UNL     1      -6.138   1.315 -30.390  1.00  0.00     0.019 A 
BRANCH  13  16
HETATM   16  O   UNL     1      -4.175  -1.321 -32.068  1.00  0.00    -0.347 OA
BRANCH  16  17
HETATM   17  C   UNL     1      -4.048  -1.326 -33.491  1.00  0.00     0.214 C 
BRANCH  17  18
HETATM   18  C   UNL     1      -4.785  -2.529 -34.025  1.00  0.00    -0.034 A 
HETATM   19  C   UNL     1      -6.090  -2.395 -34.519  1.00  0.00     0.009 A 
HETATM   20  C   UNL     1      -6.783  -3.509 -34.996  1.00  0.00     0.001 A 
HETATM   21  C   UNL     1      -6.182  -4.765 -34.980  1.00  0.00     0.000 A 
HETATM   22  C   UNL     1      -4.888  -4.912 -34.485  1.00  0.00     0.001 A 
HETATM   23  C   UNL     1      -4.191  -3.799 -34.009  1.00  0.00     0.009 A 
ENDBRANCH  17  18
ENDBRANCH  16  17
ENDBRANCH  13  16
ENDBRANCH   7   9
ENDBRANCH   6   7
BRANCH   1  24
HETATM   24  C   UNL     1      -5.396   5.057 -33.147  1.00  0.00    -0.028 A 
HETATM   25  C   UNL     1      -4.861   4.684 -34.392  1.00  0.00     0.012 A 
HETATM   26  C   UNL     1      -3.702   5.292 -34.880  1.00  0.00     0.040 A 
HETATM   27  C   UNL     1      -3.067   6.288 -34.137  1.00  0.00     0.099 A 
HETATM   28  C   UNL     1      -3.602   6.704 -32.915  1.00  0.00     0.102 A 
HETATM   29  C   UNL     1      -4.754   6.074 -32.424  1.00  0.00     0.049 A 
BRANCH  27  30
HETATM   30  O   UNL     1      -1.900   6.814 -34.611  1.00  0.00    -0.358 OA
HETATM   31  H   UNL     1      -1.390   6.124 -35.068  1.00  0.00     0.218 HD
ENDBRANCH  27  30
BRANCH  28  32
HETATM   32  O   UNL     1      -3.108   7.668 -32.080  1.00  0.00    -0.349 OA
BRANCH  32  33
HETATM   33  C   UNL     1      -2.427   7.208 -30.907  1.00  0.00     0.171 C 
HETATM   34  C   UNL     1      -0.939   7.177 -31.211  1.00  0.00     0.034 C 
ENDBRANCH  32  33
ENDBRANCH  28  32
ENDBRANCH   1  24
BRANCH   5  35
HETATM   35  O   UNL     1      -8.154   5.416 -29.369  1.00  0.00    -0.355 OA
HETATM   36  H   UNL     1      -8.484   4.577 -28.994  1.00  0.00     0.218 HD
ENDBRANCH   5  35
BRANCH   2  37
HETATM   37  C   UNL     1      -8.570   4.844 -34.187  1.00  0.00     0.155 C 
BRANCH  37  38
HETATM   38  C   UNL     1      -9.463   3.597 -34.117  1.00  0.00     0.254 C 
BRANCH  38  39
HETATM   39  N   UNL     1     -10.917   3.962 -33.898  1.00  0.00    -0.077 N 
HETATM   40  H   UNL     1     -10.943   4.986 -33.799  1.00  0.00     0.279 HD
HETATM   41  C   UNL     1     -11.754   3.615 -35.099  1.00  0.00     0.269 C 
HETATM   42  C   UNL     1     -11.500   3.389 -32.634  1.00  0.00     0.269 C 
ENDBRANCH  38  39
ENDBRANCH  37  38
ENDBRANCH   2  37
TORSDOF 13
ENDMDL
MODEL 4
REMARK VINA RESULT:      -8.6      3.275      7.084
REMARK  13 active torsions:
REMARK  status: ('A' for Active; 'I' for Inactive)
REMARK    1  A    between atoms: C_2  and  O_3 
REMARK    2  A    between atoms: O_3  and  C_4 
REMARK    3  A    between atoms: C_5  and  O_6 
REMARK    4  A    between atoms: C_9  and  C_10 
REMARK    5  A    between atoms: N_11  and  C_12 
REMARK    6  A    between atoms: C_12  and  C_13 
REMARK    7  A    between atoms: C_13  and  N_14 
REMARK    8  A    between atoms: C_20  and  O_21 
REMARK    9  A    between atoms: C_22  and  C_23 
REMARK   10  A    between atoms: C_23  and  C_24 
REMARK   11  A    between atoms: C_28  and  O_29 
REMARK   12  A    between atoms: O_29  and  C_30 
REMARK   13  A    between atoms: C_30  and  C_31 
ROOT
HETATM    1  C   UNL     1      -5.660   3.094 -32.763  1.00  0.00     0.161 A 
HETATM    2  N   UNL     1      -4.267   3.528 -32.719  1.00  0.00    -0.332 N 
HETATM    3  C   UNL     1      -3.923   3.939 -31.442  1.00  0.00     0.278 A 
HETATM    4  O   UNL     1      -2.848   4.380 -31.077  1.00  0.00    -0.265 OA
HETATM    5  C   UNL     1      -5.115   3.803 -30.582  1.00  0.00     0.146 A 
HETATM    6  C   UNL     1      -6.112   3.366 -31.361  1.00  0.00     0.059 A 
ENDROOT
BRANCH   6   7
HETATM    7  C   UNL     1      -7.500   3.133 -30.893  1.00  0.00     0.194 C 
HETATM    8  O   UNL     1      -7.762   2.919 -29.718  1.00  0.00    -0.287 OA
BRANCH   7   9
HETATM    9  C   UNL     1      -8.568   3.080 -31.929  1.00  0.00     0.021 A 
HETATM   10  C   UNL     1      -9.157   1.858 -32.296  1.00  0.00    -0.045 A 
HETATM   11  C   UNL     1      -8.863   0.571 -31.577  1.00  0.00     0.049 C 
HETATM   12  C   UNL     1     -10.069   1.850 -33.364  1.00  0.00     0.044 A 
HETATM   13  C   UNL     1     -10.375   3.020 -34.061  1.00  0.00     0.069 A 
HETATM   14  C   UNL     1      -9.851   4.239 -33.637  1.00  0.00     0.038 A 
HETATM   15  C   UNL     1      -8.958   4.271 -32.565  1.00  0.00     0.019 A 
BRANCH  13  16
HETATM   16  O   UNL     1     -11.235   2.876 -35.112  1.00  0.00    -0.347 OA
BRANCH  16  17
HETATM   17  C   UNL     1     -12.402   3.697 -35.045  1.00  0.00     0.214 C 
BRANCH  17  18
HETATM   18  C   UNL     1     -13.359   3.077 -34.058  1.00  0.00    -0.034 A 
HETATM   19  C   UNL     1     -13.853   1.783 -34.272  1.00  0.00     0.009 A 
HETATM   20  C   UNL     1     -14.753   1.211 -33.372  1.00  0.00     0.001 A 
HETATM   21  C   UNL     1     -15.173   1.928 -32.254  1.00  0.00     0.000 A 
HETATM   22  C   UNL     1     -14.696   3.219 -32.034  1.00  0.00     0.001 A 
HETATM   23  C   UNL     1     -13.792   3.791 -32.932  1.00  0.00     0.009 A 
ENDBRANCH  17  18
ENDBRANCH  16  17
ENDBRANCH  13  16
ENDBRANCH   7   9
ENDBRANCH   6   7
BRANCH   1  24
HETATM   24  C   UNL     1      -5.751   1.638 -33.177  1.00  0.00    -0.028 A 
HETATM   25  C   UNL     1      -6.415   1.235 -34.348  1.00  0.00     0.012 A 
HETATM   26  C   UNL     1      -6.507  -0.117 -34.687  1.00  0.00     0.040 A 
HETATM   27  C   UNL     1      -5.927  -1.085 -33.866  1.00  0.00     0.099 A 
HETATM   28  C   UNL     1      -5.228  -0.707 -32.717  1.00  0.00     0.102 A 
HETATM   29  C   UNL     1      -5.159   0.650 -32.375  1.00  0.00     0.049 A 
BRANCH  27  30
HETATM   30  O   UNL     1      -6.092  -2.401 -34.190  1.00  0.00    -0.358 OA
HETATM   31  H   UNL     1      -5.223  -2.820 -34.316  1.00  0.00     0.218 HD
ENDBRANCH  27  30
BRANCH  28  32
HETATM   32  O   UNL     1      -4.599  -1.529 -31.822  1.00  0.00    -0.349 OA
BRANCH  32  33
HETATM   33  C   UNL     1      -3.237  -1.861 -32.109  1.00  0.00     0.171 C 
HETATM   34  C   UNL     1      -3.095  -3.371 -32.028  1.00  0.00     0.034 C 
ENDBRANCH  32  33
ENDBRANCH  28  32
ENDBRANCH   1  24
BRANCH   5  35
HETATM   35  O   UNL     1      -5.137   4.162 -29.271  1.00  0.00    -0.355 OA
HETATM   36  H   UNL     1      -4.886   5.104 -29.220  1.00  0.00     0.218 HD
ENDBRANCH   5  35
BRANCH   2  37
HETATM   37  C   UNL     1      -3.587   4.090 -33.887  1.00  0.00     0.155 C 
BRANCH  37  38
HETATM   38  C   UNL     1      -3.830   5.589 -34.106  1.00  0.00     0.254 C 
BRANCH  38  39
HETATM   39  N   UNL     1      -2.547   6.321 -34.443  1.00  0.00    -0.077 N 
HETATM   40  H   UNL     1      -2.760   6.908 -35.262  1.00  0.00     0.279 HD
HETATM   41  C   UNL     1      -2.138   7.248 -33.332  1.00  0.00     0.269 C 
HETATM   42  C   UNL     1      -1.420   5.409 -34.846  1.00  0.00     0.269 C 
ENDBRANCH  38  39
ENDBRANCH  37  38
ENDBRANCH   2  37
TORSDOF 13
ENDMDL
MODEL 5
REMARK VINA RESULT:      -8.5      4.372      7.957
REMARK  13 active torsions:
REMARK  status: ('A' for Active; 'I' for Inactive)
REMARK    1  A    between atoms: C_2  and  O_3 
REMARK    2  A    between atoms: O_3  and  C_4 
REMARK    3  A    between atoms: C_5  and  O_6 
REMARK    4  A    between atoms: C_9  and  C_10 
REMARK    5  A    between atoms: N_11  and  C_12 
REMARK    6  A    between atoms: C_12  and  C_13 
REMARK    7  A    between atoms: C_13  and  N_14 
REMARK    8  A    between atoms: C_20  and  O_21 
REMARK    9  A    between atoms: C_22  and  C_23 
REMARK   10  A    between atoms: C_23  and  C_24 
REMARK   11  A    between atoms: C_28  and  O_29 
REMARK   12  A    between atoms: O_29  and  C_30 
REMARK   13  A    between atoms: C_30  and  C_31 
ROOT
HETATM    1  C   UNL     1     -11.731   4.553 -33.228  1.00  0.00     0.161 A 
HETATM    2  N   UNL     1     -11.527   5.335 -34.444  1.00  0.00    -0.332 N 
HETATM    3  C   UNL     1     -10.179   5.413 -34.755  1.00  0.00     0.278 A 
HETATM    4  O   UNL     1      -9.674   6.010 -35.688  1.00  0.00    -0.265 OA
HETATM    5  C   UNL     1      -9.428   4.680 -33.716  1.00  0.00     0.146 A 
HETATM    6  C   UNL     1     -10.324   4.237 -32.825  1.00  0.00     0.059 A 
ENDROOT
BRANCH   6   7
HETATM    7  C   UNL     1      -9.978   3.481 -31.596  1.00  0.00     0.194 C 
HETATM    8  O   UNL     1     -10.354   3.836 -30.488  1.00  0.00    -0.287 OA
BRANCH   7   9
HETATM    9  C   UNL     1      -9.072   2.310 -31.751  1.00  0.00     0.021 A 
HETATM   10  C   UNL     1      -7.771   2.330 -31.218  1.00  0.00    -0.045 A 
HETATM   11  C   UNL     1      -7.271   3.447 -30.347  1.00  0.00     0.049 C 
HETATM   12  C   UNL     1      -6.919   1.250 -31.499  1.00  0.00     0.044 A 
HETATM   13  C   UNL     1      -7.338   0.187 -32.302  1.00  0.00     0.069 A 
HETATM   14  C   UNL     1      -8.655   0.137 -32.755  1.00  0.00     0.038 A 
HETATM   15  C   UNL     1      -9.524   1.191 -32.470  1.00  0.00     0.019 A 
BRANCH  13  16
HETATM   16  O   UNL     1      -6.404  -0.777 -32.546  1.00  0.00    -0.347 OA
BRANCH  16  17
HETATM   17  C   UNL     1      -5.982  -0.870 -33.908  1.00  0.00     0.214 C 
BRANCH  17  18
HETATM   18  C   UNL     1      -5.710  -2.321 -34.219  1.00  0.00    -0.034 A 
HETATM   19  C   UNL     1      -6.722  -3.129 -34.755  1.00  0.00     0.009 A 
HETATM   20  C   UNL     1      -6.481  -4.477 -35.027  1.00  0.00     0.001 A 
HETATM   21  C   UNL     1      -5.231  -5.030 -34.761  1.00  0.00     0.000 A 
HETATM   22  C   UNL     1      -4.219  -4.239 -34.220  1.00  0.00     0.001 A 
HETATM   23  C   UNL     1      -4.457  -2.889 -33.950  1.00  0.00     0.009 A 
ENDBRANCH  17  18
ENDBRANCH  16  17
ENDBRANCH  13  16
ENDBRANCH   7   9
ENDBRANCH   6   7
BRANCH   1  24
HETATM   24  C   UNL     1     -12.587   3.335 -33.516  1.00  0.00    -0.028 A 
HETATM   25  C   UNL     1     -12.269   2.424 -34.538  1.00  0.00     0.012 A 
HETATM   26  C   UNL     1     -13.094   1.326 -34.797  1.00  0.00     0.040 A 
HETATM   27  C   UNL     1     -14.242   1.118 -34.032  1.00  0.00     0.099 A 
HETATM   28  C   UNL     1     -14.558   1.987 -32.984  1.00  0.00     0.102 A 
HETATM   29  C   UNL     1     -13.735   3.097 -32.746  1.00  0.00     0.049 A 
BRANCH  27  30
HETATM   30  O   UNL     1     -15.061   0.075 -34.353  1.00  0.00    -0.358 OA
HETATM   31  H   UNL     1     -14.574  -0.763 -34.272  1.00  0.00     0.218 HD
ENDBRANCH  27  30
BRANCH  28  32
HETATM   32  O   UNL     1     -15.633   1.913 -32.142  1.00  0.00    -0.349 OA
BRANCH  32  33
HETATM   33  C   UNL     1     -16.884   2.378 -32.662  1.00  0.00     0.171 C 
HETATM   34  C   UNL     1     -17.268   3.638 -31.905  1.00  0.00     0.034 C 
ENDBRANCH  32  33
ENDBRANCH  28  32
ENDBRANCH   1  24
BRANCH   5  35
HETATM   35  O   UNL     1      -8.072   4.595 -33.693  1.00  0.00    -0.355 OA
HETATM   36  H   UNL     1      -7.815   3.845 -34.264  1.00  0.00     0.218 HD
ENDBRANCH   5  35
BRANCH   2  37
HETATM   37  C   UNL     1     -12.443   6.401 -34.850  1.00  0.00     0.155 C 
BRANCH  37  38
HETATM   38  C   UNL     1     -13.359   6.041 -36.028  1.00  0.00     0.254 C 
BRANCH  38  39
HETATM   39  N   UNL     1     -13.519   7.201 -36.989  1.00  0.00    -0.077 N 
HETATM   40  H   UNL     1     -13.208   6.856 -37.907  1.00  0.00     0.279 HD
HETATM   41  C   UNL     1     -14.963   7.597 -37.133  1.00  0.00     0.269 C 
HETATM   42  C   UNL     1     -12.652   8.385 -36.655  1.00  0.00     0.269 C 
ENDBRANCH  38  39
ENDBRANCH  37  38
ENDBRANCH   2  37
TORSDOF 13
ENDMDL
MODEL 6
REMARK VINA RESULT:      -8.5      2.400      5.256
REMARK  13 active torsions:
REMARK  status: ('A' for Active; 'I' for Inactive)
REMARK    1  A    between atoms: C_2  and  O_3 
REMARK    2  A    between atoms: O_3  and  C_4 
REMARK    3  A    between atoms: C_5  and  O_6 
REMARK    4  A    between atoms: C_9  and  C_10 
REMARK    5  A    between atoms: N_11  and  C_12 
REMARK    6  A    between atoms: C_12  and  C_13 
REMARK    7  A    between atoms: C_13  and  N_14 
REMARK    8  A    between atoms: C_20  and  O_21 
REMARK    9  A    between atoms: C_22  and  C_23 
REMARK   10  A    between atoms: C_23  and  C_24 
REMARK   11  A    between atoms: C_28  and  O_29 
REMARK   12  A    between atoms: O_29  and  C_30 
REMARK   13  A    between atoms: C_30  and  C_31 
ROOT
HETATM    1  C   UNL     1      -2.810   6.014 -31.853  1.00  0.00     0.161 A 
HETATM    2  N   UNL     1      -1.514   6.095 -32.520  1.00  0.00    -0.332 N 
HETATM    3  C   UNL     1      -1.667   6.037 -33.895  1.00  0.00     0.278 A 
HETATM    4  O   UNL     1      -0.785   6.055 -34.733  1.00  0.00    -0.265 OA
HETATM    5  C   UNL     1      -3.107   5.894 -34.188  1.00  0.00     0.146 A 
HETATM    6  C   UNL     1      -3.742   5.833 -33.011  1.00  0.00     0.059 A 
ENDROOT
BRANCH   6   7
HETATM    7  C   UNL     1      -5.206   5.650 -32.858  1.00  0.00     0.194 C 
HETATM    8  O   UNL     1      -5.969   6.596 -32.721  1.00  0.00    -0.287 OA
BRANCH   7   9
HETATM    9  C   UNL     1      -5.713   4.252 -32.787  1.00  0.00     0.021 A 
HETATM   10  C   UNL     1      -5.863   3.601 -31.550  1.00  0.00    -0.045 A 
HETATM   11  C   UNL     1      -5.671   4.306 -30.237  1.00  0.00     0.049 C 
HETATM   12  C   UNL     1      -6.226   2.245 -31.549  1.00  0.00     0.044 A 
HETATM   13  C   UNL     1      -6.418   1.547 -32.743  1.00  0.00     0.069 A 
HETATM   14  C   UNL     1      -6.349   2.220 -33.960  1.00  0.00     0.038 A 
HETATM   15  C   UNL     1      -6.008   3.574 -33.982  1.00  0.00     0.019 A 
BRANCH  13  16
HETATM   16  O   UNL     1      -6.718   0.221 -32.613  1.00  0.00    -0.347 OA
BRANCH  16  17
HETATM   17  C   UNL     1      -7.235  -0.393 -33.795  1.00  0.00     0.214 C 
BRANCH  17  18
HETATM   18  C   UNL     1      -6.442  -1.649 -34.059  1.00  0.00    -0.034 A 
HETATM   19  C   UNL     1      -5.070  -1.689 -33.776  1.00  0.00     0.009 A 
HETATM   20  C   UNL     1      -4.328  -2.842 -34.036  1.00  0.00     0.001 A 
HETATM   21  C   UNL     1      -4.947  -3.963 -34.585  1.00  0.00     0.000 A 
HETATM   22  C   UNL     1      -6.309  -3.932 -34.879  1.00  0.00     0.001 A 
HETATM   23  C   UNL     1      -7.054  -2.780 -34.616  1.00  0.00     0.009 A 
ENDBRANCH  17  18
ENDBRANCH  16  17
ENDBRANCH  13  16
ENDBRANCH   7   9
ENDBRANCH   6   7
BRANCH   1  24
HETATM   24  C   UNL     1      -3.067   7.265 -31.035  1.00  0.00    -0.028 A 
HETATM   25  C   UNL     1      -2.726   8.546 -31.502  1.00  0.00     0.012 A 
HETATM   26  C   UNL     1      -2.949   9.676 -30.711  1.00  0.00     0.040 A 
HETATM   27  C   UNL     1      -3.526   9.543 -29.448  1.00  0.00     0.099 A 
HETATM   28  C   UNL     1      -3.910   8.285 -28.977  1.00  0.00     0.102 A 
HETATM   29  C   UNL     1      -3.663   7.155 -29.769  1.00  0.00     0.049 A 
BRANCH  27  30
HETATM   30  O   UNL     1      -3.669  10.658 -28.674  1.00  0.00    -0.358 OA
HETATM   31  H   UNL     1      -4.614  10.833 -28.520  1.00  0.00     0.218 HD
ENDBRANCH  27  30
BRANCH  28  32
HETATM   32  O   UNL     1      -4.493   7.992 -27.775  1.00  0.00    -0.349 OA
BRANCH  32  33
HETATM   33  C   UNL     1      -4.015   6.822 -27.102  1.00  0.00     0.171 C 
HETATM   34  C   UNL     1      -5.179   5.858 -26.952  1.00  0.00     0.034 C 
ENDBRANCH  32  33
ENDBRANCH  28  32
ENDBRANCH   1  24
BRANCH   5  35
HETATM   35  O   UNL     1      -3.606   5.765 -35.446  1.00  0.00    -0.355 OA
HETATM   36  H   UNL     1      -2.887   5.427 -36.014  1.00  0.00     0.218 HD
ENDBRANCH   5  35
BRANCH   2  37
HETATM   37  C   UNL     1      -0.281   5.619 -31.891  1.00  0.00     0.155 C 
BRANCH  37  38
HETATM   38  C   UNL     1       0.435   6.661 -31.021  1.00  0.00     0.254 C 
BRANCH  38  39
HETATM   39  N   UNL     1      -0.001   6.576 -29.572  1.00  0.00    -0.077 N 
HETATM   40  H   UNL     1      -1.001   6.334 -29.589  1.00  0.00     0.279 HD
HETATM   41  C   UNL     1       0.709   5.462 -28.853  1.00  0.00     0.269 C 
HETATM   42  C   UNL     1       0.118   7.879 -28.829  1.00  0.00     0.269 C 
ENDBRANCH  38  39
ENDBRANCH  37  38
ENDBRANCH   2  37
TORSDOF 13
ENDMDL
MODEL 7
REMARK VINA RESULT:      -8.5      3.067      7.685
REMARK  13 active torsions:
REMARK  status: ('A' for Active; 'I' for Inactive)
REMARK    1  A    between atoms: C_2  and  O_3 
REMARK    2  A    between atoms: O_3  and  C_4 
REMARK    3  A    between atoms: C_5  and  O_6 
REMARK    4  A    between atoms: C_9  and  C_10 
REMARK    5  A    between atoms: N_11  and  C_12 
REMARK    6  A    between atoms: C_12  and  C_13 
REMARK    7  A    between atoms: C_13  and  N_14 
REMARK    8  A    between atoms: C_20  and  O_21 
REMARK    9  A    between atoms: C_22  and  C_23 
REMARK   10  A    between atoms: C_23  and  C_24 
REMARK   11  A    between atoms: C_28  and  O_29 
REMARK   12  A    between atoms: O_29  and  C_30 
REMARK   13  A    between atoms: C_30  and  C_31 
ROOT
HETATM    1  C   UNL     1      -9.073   2.589 -33.085  1.00  0.00     0.161 A 
HETATM    2  N   UNL     1     -10.123   2.547 -34.098  1.00  0.00    -0.332 N 
HETATM    3  C   UNL     1     -10.208   3.758 -34.766  1.00  0.00     0.278 A 
HETATM    4  O   UNL     1     -10.993   4.057 -35.647  1.00  0.00    -0.265 OA
HETATM    5  C   UNL     1      -9.200   4.669 -34.188  1.00  0.00     0.146 A 
HETATM    6  C   UNL     1      -8.594   4.004 -33.196  1.00  0.00     0.059 A 
ENDROOT
BRANCH   6   7
HETATM    7  C   UNL     1      -7.537   4.577 -32.327  1.00  0.00     0.194 C 
HETATM    8  O   UNL     1      -7.801   5.223 -31.323  1.00  0.00    -0.287 OA
BRANCH   7   9
HETATM    9  C   UNL     1      -6.127   4.413 -32.774  1.00  0.00     0.021 A 
HETATM   10  C   UNL     1      -5.135   3.969 -31.882  1.00  0.00    -0.045 A 
HETATM   11  C   UNL     1      -5.451   3.497 -30.491  1.00  0.00     0.049 C 
HETATM   12  C   UNL     1      -3.802   3.950 -32.322  1.00  0.00     0.044 A 
HETATM   13  C   UNL     1      -3.458   4.377 -33.606  1.00  0.00     0.069 A 
HETATM   14  C   UNL     1      -4.456   4.735 -34.510  1.00  0.00     0.038 A 
HETATM   15  C   UNL     1      -5.790   4.742 -34.097  1.00  0.00     0.019 A 
BRANCH  13  16
HETATM   16  O   UNL     1      -2.125   4.361 -33.899  1.00  0.00    -0.347 OA
BRANCH  16  17
HETATM   17  C   UNL     1      -1.573   5.634 -34.241  1.00  0.00     0.214 C 
BRANCH  17  18
HETATM   18  C   UNL     1      -1.424   6.439 -32.974  1.00  0.00    -0.034 A 
HETATM   19  C   UNL     1      -2.085   7.667 -32.837  1.00  0.00     0.009 A 
HETATM   20  C   UNL     1      -1.935   8.425 -31.674  1.00  0.00     0.001 A 
HETATM   21  C   UNL     1      -1.120   7.967 -30.642  1.00  0.00     0.000 A 
HETATM   22  C   UNL     1      -0.450   6.751 -30.771  1.00  0.00     0.001 A 
HETATM   23  C   UNL     1      -0.601   5.989 -31.931  1.00  0.00     0.009 A 
ENDBRANCH  17  18
ENDBRANCH  16  17
ENDBRANCH  13  16
ENDBRANCH   7   9
ENDBRANCH   6   7
BRANCH   1  24
HETATM   24  C   UNL     1      -8.012   1.546 -33.375  1.00  0.00    -0.028 A 
HETATM   25  C   UNL     1      -7.661   1.182 -34.686  1.00  0.00     0.012 A 
HETATM   26  C   UNL     1      -6.699   0.196 -34.920  1.00  0.00     0.040 A 
HETATM   27  C   UNL     1      -6.067  -0.433 -33.846  1.00  0.00     0.099 A 
HETATM   28  C   UNL     1      -6.370  -0.060 -32.534  1.00  0.00     0.102 A 
HETATM   29  C   UNL     1      -7.350   0.915 -32.310  1.00  0.00     0.049 A 
BRANCH  27  30
HETATM   30  O   UNL     1      -5.181  -1.438 -34.107  1.00  0.00    -0.358 OA
HETATM   31  H   UNL     1      -4.374  -1.311 -33.578  1.00  0.00     0.218 HD
ENDBRANCH  27  30
BRANCH  28  32
HETATM   32  O   UNL     1      -5.833  -0.570 -31.383  1.00  0.00    -0.349 OA
BRANCH  32  33
HETATM   33  C   UNL     1      -4.822   0.220 -30.747  1.00  0.00     0.171 C 
HETATM   34  C   UNL     1      -3.471  -0.239 -31.269  1.00  0.00     0.034 C 
ENDBRANCH  32  33
ENDBRANCH  28  32
ENDBRANCH   1  24
BRANCH   5  35
HETATM   35  O   UNL     1      -9.042   5.959 -34.585  1.00  0.00    -0.355 OA
HETATM   36  H   UNL     1      -8.429   5.959 -35.346  1.00  0.00     0.218 HD
ENDBRANCH   5  35
BRANCH   2  37
HETATM   37  C   UNL     1     -11.303   1.691 -33.965  1.00  0.00     0.155 C 
BRANCH  37  38
HETATM   38  C   UNL     1     -12.574   2.422 -33.511  1.00  0.00     0.254 C 
BRANCH  38  39
HETATM   39  N   UNL     1     -13.572   1.472 -32.882  1.00  0.00    -0.077 N 
HETATM   40  H   UNL     1     -13.092   1.045 -32.077  1.00  0.00     0.279 HD
HETATM   41  C   UNL     1     -14.765   2.212 -32.340  1.00  0.00     0.269 C 
HETATM   42  C   UNL     1     -13.986   0.344 -33.788  1.00  0.00     0.269 C 
ENDBRANCH  38  39
ENDBRANCH  37  38
ENDBRANCH   2  37
TORSDOF 13
ENDMDL
MODEL 8
REMARK VINA RESULT:      -8.4      3.151      9.263
REMARK  13 active torsions:
REMARK  status: ('A' for Active; 'I' for Inactive)
REMARK    1  A    between atoms: C_2  and  O_3 
REMARK    2  A    between atoms: O_3  and  C_4 
REMARK    3  A    between atoms: C_5  and  O_6 
REMARK    4  A    between atoms: C_9  and  C_10 
REMARK    5  A    between atoms: N_11  and  C_12 
REMARK    6  A    between atoms: C_12  and  C_13 
REMARK    7  A    between atoms: C_13  and  N_14 
REMARK    8  A    between atoms: C_20  and  O_21 
REMARK    9  A    between atoms: C_22  and  C_23 
REMARK   10  A    between atoms: C_23  and  C_24 
REMARK   11  A    between atoms: C_28  and  O_29 
REMARK   12  A    between atoms: O_29  and  C_30 
REMARK   13  A    between atoms: C_30  and  C_31 
ROOT
HETATM    1  C   UNL     1      -4.554   3.672 -32.155  1.00  0.00     0.161 A 
HETATM    2  N   UNL     1      -5.964   3.879 -32.469  1.00  0.00    -0.332 N 
HETATM    3  C   UNL     1      -6.103   4.568 -33.662  1.00  0.00     0.278 A 
HETATM    4  O   UNL     1      -7.143   4.919 -34.190  1.00  0.00    -0.265 OA
HETATM    5  C   UNL     1      -4.752   4.861 -34.180  1.00  0.00     0.146 A 
HETATM    6  C   UNL     1      -3.878   4.388 -33.284  1.00  0.00     0.059 A 
ENDROOT
BRANCH   6   7
HETATM    7  C   UNL     1      -2.405   4.512 -33.405  1.00  0.00     0.194 C 
HETATM    8  O   UNL     1      -1.777   3.956 -34.295  1.00  0.00    -0.287 OA
BRANCH   7   9
HETATM    9  C   UNL     1      -1.697   5.273 -32.340  1.00  0.00     0.021 A 
HETATM   10  C   UNL     1      -1.399   6.637 -32.505  1.00  0.00    -0.045 A 
HETATM   11  C   UNL     1      -1.897   7.437 -33.676  1.00  0.00     0.049 C 
HETATM   12  C   UNL     1      -0.622   7.274 -31.524  1.00  0.00     0.044 A 
HETATM   13  C   UNL     1      -0.138   6.574 -30.418  1.00  0.00     0.069 A 
HETATM   14  C   UNL     1      -0.509   5.246 -30.220  1.00  0.00     0.038 A 
HETATM   15  C   UNL     1      -1.296   4.600 -31.174  1.00  0.00     0.019 A 
BRANCH  13  16
HETATM   16  O   UNL     1       0.648   7.289 -29.561  1.00  0.00    -0.347 OA
BRANCH  16  17
HETATM   17  C   UNL     1       0.695   6.779 -28.227  1.00  0.00     0.214 C 
BRANCH  17  18
HETATM   18  C   UNL     1       0.989   7.928 -27.294  1.00  0.00    -0.034 A 
HETATM   19  C   UNL     1       0.397   9.180 -27.508  1.00  0.00     0.009 A 
HETATM   20  C   UNL     1       0.680  10.251 -26.659  1.00  0.00     0.001 A 
HETATM   21  C   UNL     1       1.560  10.083 -25.593  1.00  0.00     0.000 A 
HETATM   22  C   UNL     1       2.161   8.845 -25.374  1.00  0.00     0.001 A 
HETATM   23  C   UNL     1       1.877   7.771 -26.220  1.00  0.00     0.009 A 
ENDBRANCH  17  18
ENDBRANCH  16  17
ENDBRANCH  13  16
ENDBRANCH   7   9
ENDBRANCH   6   7
BRANCH   1  24
HETATM   24  C   UNL     1      -4.238   2.191 -32.075  1.00  0.00    -0.028 A 
HETATM   25  C   UNL     1      -3.377   1.663 -31.098  1.00  0.00     0.012 A 
HETATM   26  C   UNL     1      -3.083   0.298 -31.069  1.00  0.00     0.040 A 
HETATM   27  C   UNL     1      -3.653  -0.561 -32.009  1.00  0.00     0.099 A 
HETATM   28  C   UNL     1      -4.543  -0.066 -32.967  1.00  0.00     0.102 A 
HETATM   29  C   UNL     1      -4.815   1.308 -33.000  1.00  0.00     0.049 A 
BRANCH  27  30
HETATM   30  O   UNL     1      -3.294  -1.877 -31.996  1.00  0.00    -0.358 OA
HETATM   31  H   UNL     1      -3.715  -2.342 -32.739  1.00  0.00     0.218 HD
ENDBRANCH  27  30
BRANCH  28  32
HETATM   32  O   UNL     1      -5.189  -0.775 -33.943  1.00  0.00    -0.349 OA
BRANCH  32  33
HETATM   33  C   UNL     1      -6.584  -1.020 -33.735  1.00  0.00     0.171 C 
HETATM   34  C   UNL     1      -7.332  -0.547 -34.970  1.00  0.00     0.034 C 
ENDBRANCH  32  33
ENDBRANCH  28  32
ENDBRANCH   1  24
BRANCH   5  35
HETATM   35  O   UNL     1      -4.525   5.567 -35.319  1.00  0.00    -0.355 OA
HETATM   36  H   UNL     1      -4.842   6.478 -35.169  1.00  0.00     0.218 HD
ENDBRANCH   5  35
BRANCH   2  37
HETATM   37  C   UNL     1      -6.988   3.985 -31.429  1.00  0.00     0.155 C 
BRANCH  37  38
HETATM   38  C   UNL     1      -7.125   2.742 -30.539  1.00  0.00     0.254 C 
BRANCH  38  39
HETATM   39  N   UNL     1      -8.534   2.184 -30.570  1.00  0.00    -0.077 N 
HETATM   40  H   UNL     1      -8.643   1.638 -29.704  1.00  0.00     0.279 HD
HETATM   41  C   UNL     1      -9.558   3.284 -30.529  1.00  0.00     0.269 C 
HETATM   42  C   UNL     1      -8.783   1.238 -31.714  1.00  0.00     0.269 C 
ENDBRANCH  38  39
ENDBRANCH  37  38
ENDBRANCH   2  37
TORSDOF 13
ENDMDL
MODEL 9
REMARK VINA RESULT:      -8.4      2.083      4.373
REMARK  13 active torsions:
REMARK  status: ('A' for Active; 'I' for Inactive)
REMARK    1  A    between atoms: C_2  and  O_3 
REMARK    2  A    between atoms: O_3  and  C_4 
REMARK    3  A    between atoms: C_5  and  O_6 
REMARK    4  A    between atoms: C_9  and  C_10 
REMARK    5  A    between atoms: N_11  and  C_12 
REMARK    6  A    between atoms: C_12  and  C_13 
REMARK    7  A    between atoms: C_13  and  N_14 
REMARK    8  A    between atoms: C_20  and  O_21 
REMARK    9  A    between atoms: C_22  and  C_23 
REMARK   10  A    between atoms: C_23  and  C_24 
REMARK   11  A    between atoms: C_28  and  O_29 
REMARK   12  A    between atoms: O_29  and  C_30 
REMARK   13  A    between atoms: C_30  and  C_31 
ROOT
HETATM    1  C   UNL     1      -5.074   6.833 -30.180  1.00  0.00     0.161 A 
HETATM    2  N   UNL     1      -4.324   7.077 -28.952  1.00  0.00    -0.332 N 
HETATM    3  C   UNL     1      -4.868   6.363 -27.897  1.00  0.00     0.278 A 
HETATM    4  O   UNL     1      -4.494   6.365 -26.739  1.00  0.00    -0.265 OA
HETATM    5  C   UNL     1      -6.038   5.618 -28.405  1.00  0.00     0.146 A 
HETATM    6  C   UNL     1      -6.172   5.936 -29.699  1.00  0.00     0.059 A 
ENDROOT
BRANCH   6   7
HETATM    7  C   UNL     1      -7.255   5.430 -30.577  1.00  0.00     0.194 C 
HETATM    8  O   UNL     1      -8.276   6.069 -30.784  1.00  0.00    -0.287 OA
BRANCH   7   9
HETATM    9  C   UNL     1      -7.093   4.059 -31.135  1.00  0.00     0.021 A 
HETATM   10  C   UNL     1      -6.920   3.858 -32.515  1.00  0.00    -0.045 A 
HETATM   11  C   UNL     1      -6.740   4.994 -33.482  1.00  0.00     0.049 C 
HETATM   12  C   UNL     1      -6.897   2.540 -33.000  1.00  0.00     0.044 A 
HETATM   13  C   UNL     1      -7.058   1.451 -32.142  1.00  0.00     0.069 A 
HETATM   14  C   UNL     1      -7.144   1.657 -30.766  1.00  0.00     0.038 A 
HETATM   15  C   UNL     1      -7.151   2.959 -30.263  1.00  0.00     0.019 A 
BRANCH  13  16
HETATM   16  O   UNL     1      -7.069   0.222 -32.737  1.00  0.00    -0.347 OA
BRANCH  16  17
HETATM   17  C   UNL     1      -6.281   0.127 -33.925  1.00  0.00     0.214 C 
BRANCH  17  18
HETATM   18  C   UNL     1      -5.963  -1.328 -34.163  1.00  0.00    -0.034 A 
HETATM   19  C   UNL     1      -4.660  -1.807 -33.969  1.00  0.00     0.009 A 
HETATM   20  C   UNL     1      -4.356  -3.148 -34.207  1.00  0.00     0.001 A 
HETATM   21  C   UNL     1      -5.348  -4.022 -34.646  1.00  0.00     0.000 A 
HETATM   22  C   UNL     1      -6.645  -3.556 -34.851  1.00  0.00     0.001 A 
HETATM   23  C   UNL     1      -6.953  -2.215 -34.610  1.00  0.00     0.009 A 
ENDBRANCH  17  18
ENDBRANCH  16  17
ENDBRANCH  13  16
ENDBRANCH   7   9
ENDBRANCH   6   7
BRANCH   1  24
HETATM   24  C   UNL     1      -4.179   6.214 -31.237  1.00  0.00    -0.028 A 
HETATM   25  C   UNL     1      -3.768   6.926 -32.377  1.00  0.00     0.012 A 
HETATM   26  C   UNL     1      -2.967   6.318 -33.347  1.00  0.00     0.040 A 
HETATM   27  C   UNL     1      -2.556   4.994 -33.185  1.00  0.00     0.099 A 
HETATM   28  C   UNL     1      -2.919   4.278 -32.041  1.00  0.00     0.102 A 
HETATM   29  C   UNL     1      -3.739   4.890 -31.084  1.00  0.00     0.049 A 
BRANCH  27  30
HETATM   30  O   UNL     1      -1.831   4.409 -34.182  1.00  0.00    -0.358 OA
HETATM   31  H   UNL     1      -2.430   4.023 -34.844  1.00  0.00     0.218 HD
ENDBRANCH  27  30
BRANCH  28  32
HETATM   32  O   UNL     1      -2.589   2.987 -31.733  1.00  0.00    -0.349 OA
BRANCH  32  33
HETATM   33  C   UNL     1      -3.441   1.967 -32.266  1.00  0.00     0.171 C 
HETATM   34  C   UNL     1      -3.441   0.799 -31.294  1.00  0.00     0.034 C 
ENDBRANCH  32  33
ENDBRANCH  28  32
ENDBRANCH   1  24
BRANCH   5  35
HETATM   35  O   UNL     1      -6.832   4.845 -27.619  1.00  0.00    -0.355 OA
HETATM   36  H   UNL     1      -7.606   5.383 -27.365  1.00  0.00     0.218 HD
ENDBRANCH   5  35
BRANCH   2  37
HETATM   37  C   UNL     1      -3.611   8.331 -28.707  1.00  0.00     0.155 C 
BRANCH  37  38
HETATM   38  C   UNL     1      -2.083   8.222 -28.784  1.00  0.00     0.254 C 
BRANCH  38  39
HETATM   39  N   UNL     1      -1.602   6.828 -28.437  1.00  0.00    -0.077 N 
HETATM   40  H   UNL     1      -2.443   6.236 -28.408  1.00  0.00     0.279 HD
HETATM   41  C   UNL     1      -0.710   6.273 -29.513  1.00  0.00     0.269 C 
HETATM   42  C   UNL     1      -0.957   6.732 -27.081  1.00  0.00     0.269 C 
ENDBRANCH  38  39
ENDBRANCH  37  38
ENDBRANCH   2  37
TORSDOF 13
ENDMDL
MODEL 10
REMARK VINA RESULT:      -8.4      2.103      4.126
REMARK  13 active torsions:
REMARK  status: ('A' for Active; 'I' for Inactive)
REMARK    1  A    between atoms: C_2  and  O_3 
REMARK    2  A    between atoms: O_3  and  C_4 
REMARK    3  A    between atoms: C_5  and  O_6 
REMARK    4  A    between atoms: C_9  and  C_10 
REMARK    5  A    between atoms: N_11  and  C_12 
REMARK    6  A    between atoms: C_12  and  C_13 
REMARK    7  A    between atoms: C_13  and  N_14 
REMARK    8  A    between atoms: C_20  and  O_21 
REMARK    9  A    between atoms: C_22  and  C_23 
REMARK   10  A    between atoms: C_23  and  C_24 
REMARK   11  A    between atoms: C_28  and  O_29 
REMARK   12  A    between atoms: O_29  and  C_30 
REMARK   13  A    between atoms: C_30  and  C_31 
ROOT
HETATM    1  C   UNL     1      -6.577   5.756 -30.804  1.00  0.00     0.161 A 
HETATM    2  N   UNL     1      -6.604   6.248 -29.431  1.00  0.00    -0.332 N 
HETATM    3  C   UNL     1      -7.879   6.142 -28.898  1.00  0.00     0.278 A 
HETATM    4  O   UNL     1      -8.242   6.486 -27.789  1.00  0.00    -0.265 OA
HETATM    5  C   UNL     1      -8.761   5.576 -29.938  1.00  0.00     0.146 A 
HETATM    6  C   UNL     1      -8.015   5.407 -31.036  1.00  0.00     0.059 A 
ENDROOT
BRANCH   6   7
HETATM    7  C   UNL     1      -8.531   4.894 -32.328  1.00  0.00     0.194 C 
HETATM    8  O   UNL     1      -9.443   5.443 -32.929  1.00  0.00    -0.287 OA
BRANCH   7   9
HETATM    9  C   UNL     1      -7.952   3.618 -32.833  1.00  0.00     0.021 A 
HETATM   10  C   UNL     1      -8.317   2.386 -32.264  1.00  0.00    -0.045 A 
HETATM   11  C   UNL     1      -9.403   2.261 -31.233  1.00  0.00     0.049 C 
HETATM   12  C   UNL     1      -7.649   1.228 -32.695  1.00  0.00     0.044 A 
HETATM   13  C   UNL     1      -6.634   1.292 -33.651  1.00  0.00     0.069 A 
HETATM   14  C   UNL     1      -6.338   2.505 -34.270  1.00  0.00     0.038 A 
HETATM   15  C   UNL     1      -7.004   3.665 -33.869  1.00  0.00     0.019 A 
BRANCH  13  16
HETATM   16  O   UNL     1      -6.025   0.108 -33.951  1.00  0.00    -0.347 OA
BRANCH  16  17
HETATM   17  C   UNL     1      -6.887  -0.882 -34.514  1.00  0.00     0.214 C 
BRANCH  17  18
HETATM   18  C   UNL     1      -6.174  -2.211 -34.465  1.00  0.00    -0.034 A 
HETATM   19  C   UNL     1      -4.840  -2.280 -34.040  1.00  0.00     0.009 A 
HETATM   20  C   UNL     1      -4.169  -3.503 -34.011  1.00  0.00     0.001 A 
HETATM   21  C   UNL     1      -4.821  -4.667 -34.411  1.00  0.00     0.000 A 
HETATM   22  C   UNL     1      -6.145  -4.610 -34.844  1.00  0.00     0.001 A 
HETATM   23  C   UNL     1      -6.819  -3.387 -34.871  1.00  0.00     0.009 A 
ENDBRANCH  17  18
ENDBRANCH  16  17
ENDBRANCH  13  16
ENDBRANCH   7   9
ENDBRANCH   6   7
BRANCH   1  24
HETATM   24  C   UNL     1      -5.622   4.585 -30.931  1.00  0.00    -0.028 A 
HETATM   25  C   UNL     1      -5.812   3.386 -30.223  1.00  0.00     0.012 A 
HETATM   26  C   UNL     1      -4.899   2.336 -30.339  1.00  0.00     0.040 A 
HETATM   27  C   UNL     1      -3.787   2.464 -31.173  1.00  0.00     0.099 A 
HETATM   28  C   UNL     1      -3.596   3.631 -31.918  1.00  0.00     0.102 A 
HETATM   29  C   UNL     1      -4.508   4.687 -31.778  1.00  0.00     0.049 A 
BRANCH  27  30
HETATM   30  O   UNL     1      -2.878   1.447 -31.213  1.00  0.00    -0.358 OA
HETATM   31  H   UNL     1      -3.335   0.594 -31.112  1.00  0.00     0.218 HD
ENDBRANCH  27  30
BRANCH  28  32
HETATM   32  O   UNL     1      -2.571   3.905 -32.781  1.00  0.00    -0.349 OA
BRANCH  32  33
HETATM   33  C   UNL     1      -1.523   4.742 -32.282  1.00  0.00     0.171 C 
HETATM   34  C   UNL     1      -1.412   5.950 -33.196  1.00  0.00     0.034 C 
ENDBRANCH  32  33
ENDBRANCH  28  32
ENDBRANCH   1  24
BRANCH   5  35
HETATM   35  O   UNL     1     -10.094   5.377 -29.761  1.00  0.00    -0.355 OA
HETATM   36  H   UNL     1     -10.344   5.800 -28.917  1.00  0.00     0.218 HD
ENDBRANCH   5  35
BRANCH   2  37
HETATM   37  C   UNL     1      -5.687   7.284 -28.954  1.00  0.00     0.155 C 
BRANCH  37  38
HETATM   38  C   UNL     1      -4.723   6.825 -27.852  1.00  0.00     0.254 C 
BRANCH  38  39
HETATM   39  N   UNL     1      -3.305   6.687 -28.370  1.00  0.00    -0.077 N 
HETATM   40  H   UNL     1      -3.165   5.684 -28.554  1.00  0.00     0.279 HD
HETATM   41  C   UNL     1      -3.130   7.404 -29.680  1.00  0.00     0.269 C 
HETATM   42  C   UNL     1      -2.256   7.096 -27.371  1.00  0.00     0.269 C 
ENDBRANCH  38  39
ENDBRANCH  37  38
ENDBRANCH   2  37
TORSDOF 13
ENDMDL
