MODEL 1
REMARK VINA RESULT:      -9.2      0.000      0.000
REMARK  6 active torsions:
REMARK  status: ('A' for Active; 'I' for Inactive)
REMARK    1  A    between atoms: C_4  and  C_5 
REMARK    2  A    between atoms: C_5  and  N_6 
REMARK    3  A    between atoms: C_9  and  C_10 
REMARK       I    between atoms: C_10  and  N_11 
REMARK    4  A    between atoms: N_11  and  N_12 
REMARK    5  A    between atoms: C_13  and  C_14 
REMARK    6  A    between atoms: C_15  and  O_16 
ROOT
HETATM    1  C   UNL     1      -4.206   3.416 -32.132  1.00  0.00     0.271 C 
HETATM    2  N   UNL     1      -4.190   2.149 -31.570  1.00  0.00    -0.243 N 
HETATM    3  O   UNL     1      -4.893   3.734 -33.099  1.00  0.00    -0.266 OA
HETATM    4  H   UNL     1      -3.686   1.910 -30.726  1.00  0.00     0.192 HD
ENDROOT
BRANCH   2   5
HETATM    5  N   UNL     1      -4.924   1.182 -32.187  1.00  0.00    -0.183 NA
HETATM    6  C   UNL     1      -4.283   0.266 -32.845  1.00  0.00     0.153 C 
BRANCH   6   7
HETATM    7  C   UNL     1      -5.018  -0.811 -33.562  1.00  0.00     0.027 A 
HETATM    8  C   UNL     1      -6.140  -0.471 -34.342  1.00  0.00     0.078 A 
HETATM    9  C   UNL     1      -6.852  -1.447 -35.025  1.00  0.00     0.038 A 
HETATM   10  C   UNL     1      -6.452  -2.776 -34.945  1.00  0.00     0.015 A 
HETATM   11  C   UNL     1      -5.338  -3.151 -34.182  1.00  0.00    -0.025 A 
HETATM   12  C   UNL     1      -4.591  -2.172 -33.470  1.00  0.00    -0.012 A 
HETATM   13  C   UNL     1      -4.966  -4.503 -34.135  1.00  0.00     0.012 A 
HETATM   14  C   UNL     1      -3.472  -2.640 -32.728  1.00  0.00     0.013 A 
HETATM   15  C   UNL     1      -3.117  -3.992 -32.692  1.00  0.00     0.001 A 
HETATM   16  C   UNL     1      -3.864  -4.923 -33.396  1.00  0.00     0.001 A 
BRANCH   8  17
HETATM   17  O   UNL     1      -6.615   0.805 -34.493  1.00  0.00    -0.360 OA
HETATM   18  H   UNL     1      -7.454   0.896 -33.987  1.00  0.00     0.217 HD
ENDBRANCH   8  17
ENDBRANCH   6   7
ENDBRANCH   2   5
BRANCH   1  19
HETATM   19  C   UNL     1      -3.324   4.464 -31.542  1.00  0.00     0.036 A 
HETATM   20  C   UNL     1      -1.932   4.420 -31.560  1.00  0.00     0.034 A 
HETATM   21  C   UNL     1      -1.209   5.502 -31.056  1.00  0.00     0.091 A 
HETATM   22  N   UNL     1      -1.840   6.592 -30.560  1.00  0.00    -0.362 N 
HETATM   23  C   UNL     1      -3.190   6.649 -30.524  1.00  0.00     0.091 A 
HETATM   24  C   UNL     1      -3.951   5.594 -31.006  1.00  0.00     0.034 A 
BRANCH  22  25
HETATM   25  C   UNL     1      -1.045   7.764 -30.107  1.00  0.00     0.166 C 
BRANCH  25  26
HETATM   26  C   UNL     1      -0.379   7.521 -28.778  1.00  0.00    -0.040 A 
HETATM   27  C   UNL     1       0.890   8.066 -28.527  1.00  0.00     0.009 A 
HETATM   28  C   UNL     1       1.503   7.897 -27.283  1.00  0.00     0.001 A 
HETATM   29  C   UNL     1       0.853   7.189 -26.277  1.00  0.00     0.000 A 
HETATM   30  C   UNL     1      -0.411   6.652 -26.508  1.00  0.00     0.001 A 
HETATM   31  C   UNL     1      -1.029   6.820 -27.749  1.00  0.00     0.009 A 
ENDBRANCH  25  26
ENDBRANCH  22  25
ENDBRANCH   1  19
TORSDOF 6
ENDMDL
MODEL 2
REMARK VINA RESULT:      -9.2      1.707      3.133
REMARK  6 active torsions:
REMARK  status: ('A' for Active; 'I' for Inactive)
REMARK    1  A    between atoms: C_4  and  C_5 
REMARK    2  A    between atoms: C_5  and  N_6 
REMARK    3  A    between atoms: C_9  and  C_10 
REMARK       I    between atoms: C_10  and  N_11 
REMARK    4  A    between atoms: N_11  and  N_12 
REMARK    5  A    between atoms: C_13  and  C_14 
REMARK    6  A    between atoms: C_15  and  O_16 
ROOT
HETATM    1  C   UNL     1      -2.461   4.394 -31.940  1.00  0.00     0.271 C 
HETATM    2  N   UNL     1      -2.991   3.311 -31.255  1.00  0.00    -0.243 N 
HETATM    3  O   UNL     1      -2.172   4.382 -33.133  1.00  0.00    -0.266 OA
HETATM    4  H   UNL     1      -3.304   3.347 -30.294  1.00  0.00     0.192 HD
ENDROOT
BRANCH   2   5
HETATM    5  N   UNL     1      -3.118   2.141 -31.939  1.00  0.00    -0.183 NA
HETATM    6  C   UNL     1      -4.193   1.441 -31.743  1.00  0.00     0.153 C 
BRANCH   6   7
HETATM    7  C   UNL     1      -4.392   0.141 -32.438  1.00  0.00     0.027 A 
HETATM    8  C   UNL     1      -3.526  -0.930 -32.149  1.00  0.00     0.078 A 
HETATM    9  C   UNL     1      -3.679  -2.158 -32.777  1.00  0.00     0.038 A 
HETATM   10  C   UNL     1      -4.703  -2.338 -33.700  1.00  0.00     0.015 A 
HETATM   11  C   UNL     1      -5.587  -1.296 -34.010  1.00  0.00    -0.025 A 
HETATM   12  C   UNL     1      -5.453  -0.026 -33.383  1.00  0.00    -0.012 A 
HETATM   13  C   UNL     1      -6.611  -1.525 -34.942  1.00  0.00     0.012 A 
HETATM   14  C   UNL     1      -6.398   0.969 -33.752  1.00  0.00     0.013 A 
HETATM   15  C   UNL     1      -7.411   0.724 -34.683  1.00  0.00     0.001 A 
HETATM   16  C   UNL     1      -7.518  -0.524 -35.278  1.00  0.00     0.001 A 
BRANCH   8  17
HETATM   17  O   UNL     1      -2.489  -0.862 -31.255  1.00  0.00    -0.360 OA
HETATM   18  H   UNL     1      -2.769  -1.277 -30.409  1.00  0.00     0.217 HD
ENDBRANCH   8  17
ENDBRANCH   6   7
ENDBRANCH   2   5
BRANCH   1  19
HETATM   19  C   UNL     1      -2.209   5.655 -31.185  1.00  0.00     0.036 A 
HETATM   20  C   UNL     1      -3.170   6.323 -30.430  1.00  0.00     0.034 A 
HETATM   21  C   UNL     1      -2.796   7.447 -29.691  1.00  0.00     0.091 A 
HETATM   22  N   UNL     1      -1.516   7.888 -29.691  1.00  0.00    -0.362 N 
HETATM   23  C   UNL     1      -0.572   7.259 -30.427  1.00  0.00     0.091 A 
HETATM   24  C   UNL     1      -0.898   6.143 -31.183  1.00  0.00     0.034 A 
BRANCH  22  25
HETATM   25  C   UNL     1      -1.130   9.036 -28.830  1.00  0.00     0.166 C 
BRANCH  25  26
HETATM   26  C   UNL     1      -0.123   8.647 -27.780  1.00  0.00    -0.040 A 
HETATM   27  C   UNL     1      -0.420   7.607 -26.884  1.00  0.00     0.009 A 
HETATM   28  C   UNL     1       0.521   7.196 -25.937  1.00  0.00     0.001 A 
HETATM   29  C   UNL     1       1.767   7.812 -25.878  1.00  0.00     0.000 A 
HETATM   30  C   UNL     1       2.079   8.838 -26.767  1.00  0.00     0.001 A 
HETATM   31  C   UNL     1       1.143   9.251 -27.718  1.00  0.00     0.009 A 
ENDBRANCH  25  26
ENDBRANCH  22  25
ENDBRANCH   1  19
TORSDOF 6
ENDMDL
MODEL 3
REMARK VINA RESULT:      -8.8      1.421      2.007
REMARK  6 active torsions:
REMARK  status: ('A' for Active; 'I' for Inactive)
REMARK    1  A    between atoms: C_4  and  C_5 
REMARK    2  A    between atoms: C_5  and  N_6 
REMARK    3  A    between atoms: C_9  and  C_10 
REMARK       I    between atoms: C_10  and  N_11 
REMARK    4  A    between atoms: N_11  and  N_12 
REMARK    5  A    between atoms: C_13  and  C_14 
REMARK    6  A    between atoms: C_15  and  O_16 
ROOT
HETATM    1  C   UNL     1      -4.017   4.596 -32.506  1.00  0.00     0.271 C 
HETATM    2  N   UNL     1      -4.276   3.380 -31.892  1.00  0.00    -0.243 N 
HETATM    3  O   UNL     1      -4.693   5.068 -33.416  1.00  0.00    -0.266 OA
HETATM    4  H   UNL     1      -3.768   3.031 -31.091  1.00  0.00     0.192 HD
ENDROOT
BRANCH   2   5
HETATM    5  N   UNL     1      -5.297   2.632 -32.393  1.00  0.00    -0.183 NA
HETATM    6  C   UNL     1      -5.210   1.342 -32.283  1.00  0.00     0.153 C 
BRANCH   6   7
HETATM    7  C   UNL     1      -6.277   0.458 -32.825  1.00  0.00     0.027 A 
HETATM    8  C   UNL     1      -7.622   0.860 -32.711  1.00  0.00     0.078 A 
HETATM    9  C   UNL     1      -8.645   0.063 -33.204  1.00  0.00     0.038 A 
HETATM   10  C   UNL     1      -8.343  -1.144 -33.823  1.00  0.00     0.015 A 
HETATM   11  C   UNL     1      -7.016  -1.574 -33.959  1.00  0.00    -0.025 A 
HETATM   12  C   UNL     1      -5.947  -0.778 -33.462  1.00  0.00    -0.012 A 
HETATM   13  C   UNL     1      -6.757  -2.796 -34.598  1.00  0.00     0.012 A 
HETATM   14  C   UNL     1      -4.634  -1.289 -33.649  1.00  0.00     0.013 A 
HETATM   15  C   UNL     1      -4.394  -2.509 -34.288  1.00  0.00     0.001 A 
HETATM   16  C   UNL     1      -5.456  -3.262 -34.763  1.00  0.00     0.001 A 
BRANCH   8  17
HETATM   17  O   UNL     1      -8.029   2.029 -32.124  1.00  0.00    -0.360 OA
HETATM   18  H   UNL     1      -8.868   1.867 -31.637  1.00  0.00     0.217 HD
ENDBRANCH   8  17
ENDBRANCH   6   7
ENDBRANCH   2   5
BRANCH   1  19
HETATM   19  C   UNL     1      -2.835   5.383 -32.049  1.00  0.00     0.036 A 
HETATM   20  C   UNL     1      -2.914   6.617 -31.408  1.00  0.00     0.034 A 
HETATM   21  C   UNL     1      -1.745   7.220 -30.944  1.00  0.00     0.091 A 
HETATM   22  N   UNL     1      -0.541   6.620 -31.100  1.00  0.00    -0.362 N 
HETATM   23  C   UNL     1      -0.444   5.427 -31.729  1.00  0.00     0.091 A 
HETATM   24  C   UNL     1      -1.578   4.794 -32.214  1.00  0.00     0.034 A 
BRANCH  22  25
HETATM   25  C   UNL     1       0.677   7.246 -30.521  1.00  0.00     0.166 C 
BRANCH  25  26
HETATM   26  C   UNL     1       0.658   7.245 -29.016  1.00  0.00    -0.040 A 
HETATM   27  C   UNL     1       1.222   8.322 -28.313  1.00  0.00     0.009 A 
HETATM   28  C   UNL     1       1.169   8.366 -26.918  1.00  0.00     0.001 A 
HETATM   29  C   UNL     1       0.547   7.342 -26.211  1.00  0.00     0.000 A 
HETATM   30  C   UNL     1      -0.026   6.272 -26.895  1.00  0.00     0.001 A 
HETATM   31  C   UNL     1       0.023   6.225 -28.290  1.00  0.00     0.009 A 
ENDBRANCH  25  26
ENDBRANCH  22  25
ENDBRANCH   1  19
TORSDOF 6
ENDMDL
MODEL 4
REMARK VINA RESULT:      -8.6      1.652      2.224
REMARK  6 active torsions:
REMARK  status: ('A' for Active; 'I' for Inactive)
REMARK    1  A    between atoms: C_4  and  C_5 
REMARK    2  A    between atoms: C_5  and  N_6 
REMARK    3  A    between atoms: C_9  and  C_10 
REMARK       I    between atoms: C_10  and  N_11 
REMARK    4  A    between atoms: N_11  and  N_12 
REMARK    5  A    between atoms: C_13  and  C_14 
REMARK    6  A    between atoms: C_15  and  O_16 
ROOT
HETATM    1  C   UNL     1      -4.320   5.558 -32.621  1.00  0.00     0.271 C 
HETATM    2  N   UNL     1      -4.305   4.218 -32.266  1.00  0.00    -0.243 N 
HETATM    3  O   UNL     1      -4.917   6.008 -33.596  1.00  0.00    -0.266 OA
HETATM    4  H   UNL     1      -3.881   3.861 -31.421  1.00  0.00     0.192 HD
ENDROOT
BRANCH   2   5
HETATM    5  N   UNL     1      -4.927   3.343 -33.104  1.00  0.00    -0.183 NA
HETATM    6  C   UNL     1      -5.416   2.257 -32.587  1.00  0.00     0.153 C 
BRANCH   6   7
HETATM    7  C   UNL     1      -6.090   1.244 -33.442  1.00  0.00     0.027 A 
HETATM    8  C   UNL     1      -7.276   1.597 -34.115  1.00  0.00     0.078 A 
HETATM    9  C   UNL     1      -7.935   0.679 -34.921  1.00  0.00     0.038 A 
HETATM   10  C   UNL     1      -7.418  -0.602 -35.074  1.00  0.00     0.015 A 
HETATM   11  C   UNL     1      -6.237  -0.987 -34.424  1.00  0.00    -0.025 A 
HETATM   12  C   UNL     1      -5.542  -0.068 -33.589  1.00  0.00    -0.012 A 
HETATM   13  C   UNL     1      -5.748  -2.288 -34.612  1.00  0.00     0.012 A 
HETATM   14  C   UNL     1      -4.351  -0.541 -32.975  1.00  0.00     0.013 A 
HETATM   15  C   UNL     1      -3.878  -1.842 -33.174  1.00  0.00     0.001 A 
HETATM   16  C   UNL     1      -4.577  -2.715 -33.993  1.00  0.00     0.001 A 
BRANCH   8  17
HETATM   17  O   UNL     1      -7.868   2.830 -34.037  1.00  0.00    -0.360 OA
HETATM   18  H   UNL     1      -8.844   2.717 -34.041  1.00  0.00     0.217 HD
ENDBRANCH   8  17
ENDBRANCH   6   7
ENDBRANCH   2   5
BRANCH   1  19
HETATM   19  C   UNL     1      -3.552   6.522 -31.781  1.00  0.00     0.036 A 
HETATM   20  C   UNL     1      -2.666   7.471 -32.286  1.00  0.00     0.034 A 
HETATM   21  C   UNL     1      -2.071   8.381 -31.412  1.00  0.00     0.091 A 
HETATM   22  N   UNL     1      -2.349   8.359 -30.087  1.00  0.00    -0.362 N 
HETATM   23  C   UNL     1      -3.197   7.438 -29.577  1.00  0.00     0.091 A 
HETATM   24  C   UNL     1      -3.806   6.508 -30.406  1.00  0.00     0.034 A 
BRANCH  22  25
HETATM   25  C   UNL     1      -1.765   9.393 -29.192  1.00  0.00     0.166 C 
BRANCH  25  26
HETATM   26  C   UNL     1      -0.766   8.812 -28.227  1.00  0.00    -0.040 A 
HETATM   27  C   UNL     1      -0.890   9.079 -26.853  1.00  0.00     0.009 A 
HETATM   28  C   UNL     1      -0.005   8.508 -25.936  1.00  0.00     0.001 A 
HETATM   29  C   UNL     1       1.007   7.662 -26.377  1.00  0.00     0.000 A 
HETATM   30  C   UNL     1       1.137   7.380 -27.735  1.00  0.00     0.001 A 
HETATM   31  C   UNL     1       0.253   7.946 -28.656  1.00  0.00     0.009 A 
ENDBRANCH  25  26
ENDBRANCH  22  25
ENDBRANCH   1  19
TORSDOF 6
ENDMDL
MODEL 5
REMARK VINA RESULT:      -8.5      2.035     10.717
REMARK  6 active torsions:
REMARK  status: ('A' for Active; 'I' for Inactive)
REMARK    1  A    between atoms: C_4  and  C_5 
REMARK    2  A    between atoms: C_5  and  N_6 
REMARK    3  A    between atoms: C_9  and  C_10 
REMARK       I    between atoms: C_10  and  N_11 
REMARK    4  A    between atoms: N_11  and  N_12 
REMARK    5  A    between atoms: C_13  and  C_14 
REMARK    6  A    between atoms: C_15  and  O_16 
ROOT
HETATM    1  C   UNL     1      -5.001   2.859 -31.377  1.00  0.00     0.271 C 
HETATM    2  N   UNL     1      -3.837   3.462 -31.827  1.00  0.00    -0.243 N 
HETATM    3  O   UNL     1      -5.511   3.074 -30.281  1.00  0.00    -0.266 OA
HETATM    4  H   UNL     1      -3.462   3.346 -32.759  1.00  0.00     0.192 HD
ENDROOT
BRANCH   2   5
HETATM    5  N   UNL     1      -3.181   4.281 -30.959  1.00  0.00    -0.183 NA
HETATM    6  C   UNL     1      -2.562   5.311 -31.451  1.00  0.00     0.153 C 
BRANCH   6   7
HETATM    7  C   UNL     1      -1.806   6.238 -30.567  1.00  0.00     0.027 A 
HETATM    8  C   UNL     1      -0.643   5.774 -29.923  1.00  0.00     0.078 A 
HETATM    9  C   UNL     1       0.088   6.609 -29.090  1.00  0.00     0.038 A 
HETATM   10  C   UNL     1      -0.326   7.921 -28.891  1.00  0.00     0.015 A 
HETATM   11  C   UNL     1      -1.475   8.419 -29.519  1.00  0.00    -0.025 A 
HETATM   12  C   UNL     1      -2.246   7.585 -30.376  1.00  0.00    -0.012 A 
HETATM   13  C   UNL     1      -1.852   9.752 -29.295  1.00  0.00     0.012 A 
HETATM   14  C   UNL     1      -3.392   8.175 -30.976  1.00  0.00     0.013 A 
HETATM   15  C   UNL     1      -3.752   9.504 -30.741  1.00  0.00     0.001 A 
HETATM   16  C   UNL     1      -2.982  10.293 -29.901  1.00  0.00     0.001 A 
BRANCH   8  17
HETATM   17  O   UNL     1      -0.145   4.504 -30.052  1.00  0.00    -0.360 OA
HETATM   18  H   UNL     1       0.756   4.552 -30.440  1.00  0.00     0.217 HD
ENDBRANCH   8  17
ENDBRANCH   6   7
ENDBRANCH   2   5
BRANCH   1  19
HETATM   19  C   UNL     1      -5.677   1.873 -32.268  1.00  0.00     0.036 A 
HETATM   20  C   UNL     1      -6.004   2.114 -33.600  1.00  0.00     0.034 A 
HETATM   21  C   UNL     1      -6.555   1.085 -34.364  1.00  0.00     0.091 A 
HETATM   22  N   UNL     1      -6.766  -0.142 -33.832  1.00  0.00    -0.362 N 
HETATM   23  C   UNL     1      -6.465  -0.392 -32.538  1.00  0.00     0.091 A 
HETATM   24  C   UNL     1      -5.924   0.602 -31.738  1.00  0.00     0.034 A 
BRANCH  22  25
HETATM   25  C   UNL     1      -7.276  -1.243 -34.692  1.00  0.00     0.166 C 
BRANCH  25  26
HETATM   26  C   UNL     1      -6.386  -2.457 -34.651  1.00  0.00    -0.040 A 
HETATM   27  C   UNL     1      -5.017  -2.306 -34.375  1.00  0.00     0.009 A 
HETATM   28  C   UNL     1      -4.184  -3.422 -34.280  1.00  0.00     0.001 A 
HETATM   29  C   UNL     1      -4.707  -4.700 -34.454  1.00  0.00     0.000 A 
HETATM   30  C   UNL     1      -6.064  -4.866 -34.718  1.00  0.00     0.001 A 
HETATM   31  C   UNL     1      -6.902  -3.753 -34.811  1.00  0.00     0.009 A 
ENDBRANCH  25  26
ENDBRANCH  22  25
ENDBRANCH   1  19
TORSDOF 6
ENDMDL
MODEL 6
REMARK VINA RESULT:      -8.5      1.384      1.941
REMARK  6 active torsions:
REMARK  status: ('A' for Active; 'I' for Inactive)
REMARK    1  A    between atoms: C_4  and  C_5 
REMARK    2  A    between atoms: C_5  and  N_6 
REMARK    3  A    between atoms: C_9  and  C_10 
REMARK       I    between atoms: C_10  and  N_11 
REMARK    4  A    between atoms: N_11  and  N_12 
REMARK    5  A    between atoms: C_13  and  C_14 
REMARK    6  A    between atoms: C_15  and  O_16 
ROOT
HETATM    1  C   UNL     1      -5.611   3.106 -32.877  1.00  0.00     0.271 C 
HETATM    2  N   UNL     1      -5.646   1.975 -32.076  1.00  0.00    -0.243 N 
HETATM    3  O   UNL     1      -5.986   3.137 -34.046  1.00  0.00    -0.266 OA
HETATM    4  H   UNL     1      -5.413   1.970 -31.092  1.00  0.00     0.192 HD
ENDROOT
BRANCH   2   5
HETATM    5  N   UNL     1      -6.048   0.810 -32.657  1.00  0.00    -0.183 NA
HETATM    6  C   UNL     1      -5.129   0.022 -33.126  1.00  0.00     0.153 C 
BRANCH   6   7
HETATM    7  C   UNL     1      -5.493  -1.257 -33.793  1.00  0.00     0.027 A 
HETATM    8  C   UNL     1      -6.565  -1.273 -34.705  1.00  0.00     0.078 A 
HETATM    9  C   UNL     1      -6.935  -2.447 -35.346  1.00  0.00     0.038 A 
HETATM   10  C   UNL     1      -6.237  -3.622 -35.092  1.00  0.00     0.015 A 
HETATM   11  C   UNL     1      -5.161  -3.642 -34.194  1.00  0.00    -0.025 A 
HETATM   12  C   UNL     1      -4.762  -2.455 -33.521  1.00  0.00    -0.012 A 
HETATM   13  C   UNL     1      -4.480  -4.849 -33.973  1.00  0.00     0.012 A 
HETATM   14  C   UNL     1      -3.657  -2.567 -32.633  1.00  0.00     0.013 A 
HETATM   15  C   UNL     1      -2.991  -3.778 -32.425  1.00  0.00     0.001 A 
HETATM   16  C   UNL     1      -3.402  -4.919 -33.095  1.00  0.00     0.001 A 
BRANCH   8  17
HETATM   17  O   UNL     1      -7.316  -0.174 -35.031  1.00  0.00    -0.360 OA
HETATM   18  H   UNL     1      -8.139  -0.470 -35.480  1.00  0.00     0.217 HD
ENDBRANCH   8  17
ENDBRANCH   6   7
ENDBRANCH   2   5
BRANCH   1  19
HETATM   19  C   UNL     1      -5.070   4.368 -32.295  1.00  0.00     0.036 A 
HETATM   20  C   UNL     1      -4.709   4.526 -30.959  1.00  0.00     0.034 A 
HETATM   21  C   UNL     1      -4.129   5.726 -30.546  1.00  0.00     0.091 A 
HETATM   22  N   UNL     1      -3.905   6.731 -31.425  1.00  0.00    -0.362 N 
HETATM   23  C   UNL     1      -4.259   6.601 -32.724  1.00  0.00     0.091 A 
HETATM   24  C   UNL     1      -4.846   5.430 -33.178  1.00  0.00     0.034 A 
BRANCH  22  25
HETATM   25  C   UNL     1      -3.210   7.966 -30.975  1.00  0.00     0.166 C 
BRANCH  25  26
HETATM   26  C   UNL     1      -1.841   7.677 -30.418  1.00  0.00    -0.040 A 
HETATM   27  C   UNL     1      -0.870   7.077 -31.237  1.00  0.00     0.009 A 
HETATM   28  C   UNL     1       0.421   6.848 -30.757  1.00  0.00     0.001 A 
HETATM   29  C   UNL     1       0.759   7.221 -29.460  1.00  0.00     0.000 A 
HETATM   30  C   UNL     1      -0.190   7.826 -28.639  1.00  0.00     0.001 A 
HETATM   31  C   UNL     1      -1.482   8.060 -29.116  1.00  0.00     0.009 A 
ENDBRANCH  25  26
ENDBRANCH  22  25
ENDBRANCH   1  19
TORSDOF 6
ENDMDL
MODEL 7
REMARK VINA RESULT:      -8.2      3.737      5.194
REMARK  6 active torsions:
REMARK  status: ('A' for Active; 'I' for Inactive)
REMARK    1  A    between atoms: C_4  and  C_5 
REMARK    2  A    between atoms: C_5  and  N_6 
REMARK    3  A    between atoms: C_9  and  C_10 
REMARK       I    between atoms: C_10  and  N_11 
REMARK    4  A    between atoms: N_11  and  N_12 
REMARK    5  A    between atoms: C_13  and  C_14 
REMARK    6  A    between atoms: C_15  and  O_16 
ROOT
HETATM    1  C   UNL     1      -4.535   3.373 -32.720  1.00  0.00     0.271 C 
HETATM    2  N   UNL     1      -5.829   3.790 -32.992  1.00  0.00    -0.243 N 
HETATM    3  O   UNL     1      -4.183   2.198 -32.676  1.00  0.00    -0.266 OA
HETATM    4  H   UNL     1      -6.101   4.757 -33.107  1.00  0.00     0.192 HD
ENDROOT
BRANCH   2   5
HETATM    5  N   UNL     1      -6.779   2.825 -33.137  1.00  0.00    -0.183 NA
HETATM    6  C   UNL     1      -8.024   3.191 -33.082  1.00  0.00     0.153 C 
BRANCH   6   7
HETATM    7  C   UNL     1      -9.117   2.190 -33.211  1.00  0.00     0.027 A 
HETATM    8  C   UNL     1      -9.030   0.984 -32.489  1.00  0.00     0.078 A 
HETATM    9  C   UNL     1     -10.029   0.026 -32.584  1.00  0.00     0.038 A 
HETATM   10  C   UNL     1     -11.134   0.258 -33.395  1.00  0.00     0.015 A 
HETATM   11  C   UNL     1     -11.256   1.449 -34.124  1.00  0.00    -0.025 A 
HETATM   12  C   UNL     1     -10.246   2.448 -34.048  1.00  0.00    -0.012 A 
HETATM   13  C   UNL     1     -12.392   1.644 -34.925  1.00  0.00     0.012 A 
HETATM   14  C   UNL     1     -10.457   3.625 -34.816  1.00  0.00     0.013 A 
HETATM   15  C   UNL     1     -11.594   3.802 -35.609  1.00  0.00     0.001 A 
HETATM   16  C   UNL     1     -12.562   2.812 -35.663  1.00  0.00     0.001 A 
BRANCH   8  17
HETATM   17  O   UNL     1      -7.990   0.657 -31.659  1.00  0.00    -0.360 OA
HETATM   18  H   UNL     1      -8.120  -0.260 -31.329  1.00  0.00     0.217 HD
ENDBRANCH   8  17
ENDBRANCH   6   7
ENDBRANCH   2   5
BRANCH   1  19
HETATM   19  C   UNL     1      -3.500   4.411 -32.447  1.00  0.00     0.036 A 
HETATM   20  C   UNL     1      -3.653   5.451 -31.533  1.00  0.00     0.034 A 
HETATM   21  C   UNL     1      -2.581   6.312 -31.295  1.00  0.00     0.091 A 
HETATM   22  N   UNL     1      -1.397   6.144 -31.930  1.00  0.00    -0.362 N 
HETATM   23  C   UNL     1      -1.233   5.147 -32.828  1.00  0.00     0.091 A 
HETATM   24  C   UNL     1      -2.273   4.272 -33.104  1.00  0.00     0.034 A 
BRANCH  22  25
HETATM   25  C   UNL     1      -0.247   7.025 -31.594  1.00  0.00     0.166 C 
BRANCH  25  26
HETATM   26  C   UNL     1       0.141   6.927 -30.142  1.00  0.00    -0.040 A 
HETATM   27  C   UNL     1       0.418   5.670 -29.581  1.00  0.00     0.009 A 
HETATM   28  C   UNL     1       0.829   5.561 -28.250  1.00  0.00     0.001 A 
HETATM   29  C   UNL     1       0.975   6.703 -27.470  1.00  0.00     0.000 A 
HETATM   30  C   UNL     1       0.713   7.958 -28.016  1.00  0.00     0.001 A 
HETATM   31  C   UNL     1       0.304   8.072 -29.346  1.00  0.00     0.009 A 
ENDBRANCH  25  26
ENDBRANCH  22  25
ENDBRANCH   1  19
TORSDOF 6
ENDMDL
MODEL 8
REMARK VINA RESULT:      -8.2      2.444     10.824
REMARK  6 active torsions:
REMARK  status: ('A' for Active; 'I' for Inactive)
REMARK    1  A    between atoms: C_4  and  C_5 
REMARK    2  A    between atoms: C_5  and  N_6 
REMARK    3  A    between atoms: C_9  and  C_10 
REMARK       I    between atoms: C_10  and  N_11 
REMARK    4  A    between atoms: N_11  and  N_12 
REMARK    5  A    between atoms: C_13  and  C_14 
REMARK    6  A    between atoms: C_15  and  O_16 
ROOT
HETATM    1  C   UNL     1      -4.059   5.035 -30.960  1.00  0.00     0.271 C 
HETATM    2  N   UNL     1      -4.291   5.737 -29.787  1.00  0.00    -0.243 N 
HETATM    3  O   UNL     1      -3.212   5.344 -31.793  1.00  0.00    -0.266 OA
HETATM    4  H   UNL     1      -4.932   5.437 -29.065  1.00  0.00     0.192 HD
ENDROOT
BRANCH   2   5
HETATM    5  N   UNL     1      -3.587   6.887 -29.597  1.00  0.00    -0.183 NA
HETATM    6  C   UNL     1      -3.138   7.129 -28.403  1.00  0.00     0.153 C 
BRANCH   6   7
HETATM    7  C   UNL     1      -2.378   8.374 -28.114  1.00  0.00     0.027 A 
HETATM    8  C   UNL     1      -3.038   9.615 -28.203  1.00  0.00     0.078 A 
HETATM    9  C   UNL     1      -2.363  10.799 -27.941  1.00  0.00     0.038 A 
HETATM   10  C   UNL     1      -1.021  10.764 -27.582  1.00  0.00     0.015 A 
HETATM   11  C   UNL     1      -0.333   9.547 -27.479  1.00  0.00    -0.025 A 
HETATM   12  C   UNL     1      -0.999   8.318 -27.744  1.00  0.00    -0.012 A 
HETATM   13  C   UNL     1       1.020   9.558 -27.106  1.00  0.00     0.012 A 
HETATM   14  C   UNL     1      -0.225   7.134 -27.609  1.00  0.00     0.013 A 
HETATM   15  C   UNL     1       1.122   7.164 -27.237  1.00  0.00     0.001 A 
HETATM   16  C   UNL     1       1.744   8.376 -26.985  1.00  0.00     0.001 A 
BRANCH   8  17
HETATM   17  O   UNL     1      -4.357   9.763 -28.543  1.00  0.00    -0.360 OA
HETATM   18  H   UNL     1      -4.901   9.768 -27.724  1.00  0.00     0.217 HD
ENDBRANCH   8  17
ENDBRANCH   6   7
ENDBRANCH   2   5
BRANCH   1  19
HETATM   19  C   UNL     1      -4.896   3.834 -31.244  1.00  0.00     0.036 A 
HETATM   20  C   UNL     1      -5.229   3.394 -32.523  1.00  0.00     0.034 A 
HETATM   21  C   UNL     1      -5.944   2.205 -32.670  1.00  0.00     0.091 A 
HETATM   22  N   UNL     1      -6.308   1.472 -31.591  1.00  0.00    -0.362 N 
HETATM   23  C   UNL     1      -6.003   1.888 -30.342  1.00  0.00     0.091 A 
HETATM   24  C   UNL     1      -5.302   3.068 -30.146  1.00  0.00     0.034 A 
BRANCH  22  25
HETATM   25  C   UNL     1      -6.996   0.167 -31.782  1.00  0.00     0.166 C 
BRANCH  25  26
HETATM   26  C   UNL     1      -6.246  -0.740 -32.721  1.00  0.00    -0.040 A 
HETATM   27  C   UNL     1      -4.922  -1.104 -32.426  1.00  0.00     0.009 A 
HETATM   28  C   UNL     1      -4.226  -1.986 -33.256  1.00  0.00     0.001 A 
HETATM   29  C   UNL     1      -4.844  -2.516 -34.384  1.00  0.00     0.000 A 
HETATM   30  C   UNL     1      -6.160  -2.172 -34.684  1.00  0.00     0.001 A 
HETATM   31  C   UNL     1      -6.861  -1.293 -33.856  1.00  0.00     0.009 A 
ENDBRANCH  25  26
ENDBRANCH  22  25
ENDBRANCH   1  19
TORSDOF 6
ENDMDL
MODEL 9
REMARK VINA RESULT:      -8.0      6.186      8.821
REMARK  6 active torsions:
REMARK  status: ('A' for Active; 'I' for Inactive)
REMARK    1  A    between atoms: C_4  and  C_5 
REMARK    2  A    between atoms: C_5  and  N_6 
REMARK    3  A    between atoms: C_9  and  C_10 
REMARK       I    between atoms: C_10  and  N_11 
REMARK    4  A    between atoms: N_11  and  N_12 
REMARK    5  A    between atoms: C_13  and  C_14 
REMARK    6  A    between atoms: C_15  and  O_16 
ROOT
HETATM    1  C   UNL     1      -9.014   1.697 -32.558  1.00  0.00     0.271 C 
HETATM    2  N   UNL     1      -7.945   1.470 -33.412  1.00  0.00    -0.243 N 
HETATM    3  O   UNL     1      -9.095   1.247 -31.419  1.00  0.00    -0.266 OA
HETATM    4  H   UNL     1      -7.842   1.906 -34.318  1.00  0.00     0.192 HD
ENDROOT
BRANCH   2   5
HETATM    5  N   UNL     1      -6.968   0.626 -32.979  1.00  0.00    -0.183 NA
HETATM    6  C   UNL     1      -6.393  -0.133 -33.861  1.00  0.00     0.153 C 
BRANCH   6   7
HETATM    7  C   UNL     1      -5.332  -1.095 -33.460  1.00  0.00     0.027 A 
HETATM    8  C   UNL     1      -4.323  -0.671 -32.573  1.00  0.00     0.078 A 
HETATM    9  C   UNL     1      -3.315  -1.539 -32.176  1.00  0.00     0.038 A 
HETATM   10  C   UNL     1      -3.302  -2.845 -32.652  1.00  0.00     0.015 A 
HETATM   11  C   UNL     1      -4.292  -3.303 -33.532  1.00  0.00    -0.025 A 
HETATM   12  C   UNL     1      -5.335  -2.435 -33.957  1.00  0.00    -0.012 A 
HETATM   13  C   UNL     1      -4.243  -4.631 -33.982  1.00  0.00     0.012 A 
HETATM   14  C   UNL     1      -6.300  -2.986 -34.844  1.00  0.00     0.013 A 
HETATM   15  C   UNL     1      -6.235  -4.312 -35.282  1.00  0.00     0.001 A 
HETATM   16  C   UNL     1      -5.206  -5.135 -34.851  1.00  0.00     0.001 A 
BRANCH   8  17
HETATM   17  O   UNL     1      -4.244   0.589 -32.042  1.00  0.00    -0.360 OA
HETATM   18  H   UNL     1      -3.500   1.070 -32.468  1.00  0.00     0.217 HD
ENDBRANCH   8  17
ENDBRANCH   6   7
ENDBRANCH   2   5
BRANCH   1  19
HETATM   19  C   UNL     1     -10.150   2.528 -33.052  1.00  0.00     0.036 A 
HETATM   20  C   UNL     1     -10.759   3.541 -32.315  1.00  0.00     0.034 A 
HETATM   21  C   UNL     1     -11.755   4.314 -32.913  1.00  0.00     0.091 A 
HETATM   22  N   UNL     1     -12.129   4.098 -34.196  1.00  0.00    -0.362 N 
HETATM   23  C   UNL     1     -11.557   3.112 -34.923  1.00  0.00     0.091 A 
HETATM   24  C   UNL     1     -10.569   2.313 -34.369  1.00  0.00     0.034 A 
BRANCH  22  25
HETATM   25  C   UNL     1     -13.134   4.991 -34.833  1.00  0.00     0.166 C 
BRANCH  25  26
HETATM   26  C   UNL     1     -12.493   6.159 -35.535  1.00  0.00    -0.040 A 
HETATM   27  C   UNL     1     -13.280   7.010 -36.328  1.00  0.00     0.009 A 
HETATM   28  C   UNL     1     -12.716   8.129 -36.945  1.00  0.00     0.001 A 
HETATM   29  C   UNL     1     -11.366   8.414 -36.773  1.00  0.00     0.000 A 
HETATM   30  C   UNL     1     -10.574   7.585 -35.981  1.00  0.00     0.001 A 
HETATM   31  C   UNL     1     -11.134   6.466 -35.360  1.00  0.00     0.009 A 
ENDBRANCH  25  26
ENDBRANCH  22  25
ENDBRANCH   1  19
TORSDOF 6
ENDMDL
MODEL 10
REMARK VINA RESULT:      -8.0      6.994      9.656
REMARK  6 active torsions:
REMARK  status: ('A' for Active; 'I' for Inactive)
REMARK    1  A    between atoms: C_4  and  C_5 
REMARK    2  A    between atoms: C_5  and  N_6 
REMARK    3  A    between atoms: C_9  and  C_10 
REMARK       I    between atoms: C_10  and  N_11 
REMARK    4  A    between atoms: N_11  and  N_12 
REMARK    5  A    between atoms: C_13  and  C_14 
REMARK    6  A    between atoms: C_15  and  O_16 
ROOT
HETATM    1  C   UNL     1     -10.189   3.127 -34.579  1.00  0.00     0.271 C 
HETATM    2  N   UNL     1      -8.896   3.169 -34.080  1.00  0.00    -0.243 N 
HETATM    3  O   UNL     1     -10.842   2.097 -34.718  1.00  0.00    -0.266 OA
HETATM    4  H   UNL     1      -8.389   4.023 -33.890  1.00  0.00     0.192 HD
ENDROOT
BRANCH   2   5
HETATM    5  N   UNL     1      -8.292   1.979 -33.807  1.00  0.00    -0.183 NA
HETATM    6  C   UNL     1      -7.045   1.845 -34.139  1.00  0.00     0.153 C 
BRANCH   6   7
HETATM    7  C   UNL     1      -6.325   0.568 -33.893  1.00  0.00     0.027 A 
HETATM    8  C   UNL     1      -6.732  -0.592 -34.580  1.00  0.00     0.078 A 
HETATM    9  C   UNL     1      -6.085  -1.803 -34.376  1.00  0.00     0.038 A 
HETATM   10  C   UNL     1      -5.019  -1.875 -33.488  1.00  0.00     0.015 A 
HETATM   11  C   UNL     1      -4.583  -0.741 -32.789  1.00  0.00    -0.025 A 
HETATM   12  C   UNL     1      -5.229   0.513 -32.977  1.00  0.00    -0.012 A 
HETATM   13  C   UNL     1      -3.498  -0.858 -31.907  1.00  0.00     0.012 A 
HETATM   14  C   UNL     1      -4.716   1.610 -32.233  1.00  0.00     0.013 A 
HETATM   15  C   UNL     1      -3.634   1.475 -31.358  1.00  0.00     0.001 A 
HETATM   16  C   UNL     1      -3.025   0.241 -31.195  1.00  0.00     0.001 A 
BRANCH   8  17
HETATM   17  O   UNL     1      -7.765  -0.631 -35.480  1.00  0.00    -0.360 OA
HETATM   18  H   UNL     1      -8.593  -0.865 -35.005  1.00  0.00     0.217 HD
ENDBRANCH   8  17
ENDBRANCH   6   7
ENDBRANCH   2   5
BRANCH   1  19
HETATM   19  C   UNL     1     -10.831   4.409 -34.989  1.00  0.00     0.036 A 
HETATM   20  C   UNL     1     -12.205   4.589 -35.129  1.00  0.00     0.034 A 
HETATM   21  C   UNL     1     -12.699   5.858 -35.432  1.00  0.00     0.091 A 
HETATM   22  N   UNL     1     -11.865   6.914 -35.580  1.00  0.00    -0.362 N 
HETATM   23  C   UNL     1     -10.528   6.757 -35.459  1.00  0.00     0.091 A 
HETATM   24  C   UNL     1      -9.990   5.512 -35.168  1.00  0.00     0.034 A 
BRANCH  22  25
HETATM   25  C   UNL     1     -12.425   8.271 -35.819  1.00  0.00     0.166 C 
BRANCH  25  26
HETATM   26  C   UNL     1     -12.129   8.773 -37.207  1.00  0.00    -0.040 A 
HETATM   27  C   UNL     1     -13.025   8.496 -38.252  1.00  0.00     0.009 A 
HETATM   28  C   UNL     1     -12.796   8.996 -39.536  1.00  0.00     0.001 A 
HETATM   29  C   UNL     1     -11.676   9.781 -39.789  1.00  0.00     0.000 A 
HETATM   30  C   UNL     1     -10.783  10.073 -38.760  1.00  0.00     0.001 A 
HETATM   31  C   UNL     1     -11.010   9.577 -37.474  1.00  0.00     0.009 A 
ENDBRANCH  25  26
ENDBRANCH  22  25
ENDBRANCH   1  19
TORSDOF 6
ENDMDL
