MODEL 1
REMARK VINA RESULT:      -7.9      0.000      0.000
REMARK  10 active torsions:
REMARK  status: ('A' for Active; 'I' for Inactive)
REMARK    1  A    between atoms: C_2  and  O_3 
REMARK    2  A    between atoms: O_3  and  C_4 
REMARK    3  A    between atoms: C_4  and  C_5 
REMARK    4  A    between atoms: C_10  and  N_11 
REMARK       I    between atoms: N_11  and  C_12 
REMARK    5  A    between atoms: C_12  and  C_13 
REMARK    6  A    between atoms: C_13  and  C_14 
REMARK    7  A    between atoms: C_14  and  N_15 
REMARK    8  A    between atoms: C_19  and  C_20 
REMARK    9  A    between atoms: C_20  and  O_21 
REMARK   10  A    between atoms: O_21  and  C_22 
ROOT
HETATM    1  N   UNL     1      -7.633   2.554 -32.384  1.00  0.00    -0.324 N 
HETATM    2  C   UNL     1      -7.320   3.852 -32.608  1.00  0.00     0.223 C 
HETATM    3  O   UNL     1      -7.576   4.678 -31.725  1.00  0.00    -0.273 OA
HETATM    4  H   UNL     1      -8.067   2.462 -31.460  1.00  0.00     0.169 HD
ENDROOT
BRANCH   1   5
HETATM    5  C   UNL     1      -7.552   1.351 -33.085  1.00  0.00     0.080 A 
HETATM    6  C   UNL     1      -8.612   1.028 -33.934  1.00  0.00     0.137 A 
HETATM    7  N   UNL     1      -8.308  -0.151 -34.560  1.00  0.00    -0.349 N 
HETATM    8  H   UNL     1      -8.908  -0.603 -35.240  1.00  0.00     0.166 HD
HETATM    9  C   UNL     1      -7.108  -0.641 -34.121  1.00  0.00     0.045 A 
HETATM   10  C   UNL     1      -6.606   0.261 -33.171  1.00  0.00     0.021 A 
HETATM   11  C   UNL     1      -6.460  -1.825 -34.505  1.00  0.00     0.032 A 
HETATM   12  C   UNL     1      -5.382  -0.113 -32.569  1.00  0.00     0.035 A 
HETATM   13  C   UNL     1      -4.725  -1.297 -32.932  1.00  0.00     0.012 A 
HETATM   14  C   UNL     1      -5.250  -2.142 -33.893  1.00  0.00     0.021 A 
HETATM   15 BR   UNL     1      -3.093  -1.739 -32.077  1.00  0.00    -0.051 Br
BRANCH   6  16
HETATM   16  C   UNL     1      -9.844   1.748 -34.170  1.00  0.00     0.312 C 
HETATM   17  O   UNL     1      -9.902   2.869 -34.656  1.00  0.00    -0.258 OA
BRANCH  16  18
HETATM   18  O   UNL     1     -10.906   1.004 -33.756  1.00  0.00    -0.317 OA
BRANCH  18  19
HETATM   19  C   UNL     1     -12.160   1.699 -33.678  1.00  0.00     0.175 C 
HETATM   20  C   UNL     1     -13.128   1.150 -34.708  1.00  0.00     0.034 C 
ENDBRANCH  18  19
ENDBRANCH  16  18
ENDBRANCH   6  16
ENDBRANCH   1   5
BRANCH   2  21
HETATM   21  C   UNL     1      -6.673   4.317 -33.876  1.00  0.00     0.131 C 
BRANCH  21  22
HETATM   22  C   UNL     1      -5.640   5.390 -33.548  1.00  0.00     0.244 C 
BRANCH  22  23
HETATM   23  N   UNL     1      -4.197   4.873 -33.611  1.00  0.00    -0.071 N 
HETATM   24  H   UNL     1      -4.246   3.866 -33.817  1.00  0.00     0.279 HD
HETATM   25  C   UNL     1      -3.504   5.540 -34.788  1.00  0.00     0.235 C 
HETATM   26  C   UNL     1      -2.060   5.077 -34.898  1.00  0.00     0.042 C 
HETATM   27  C   UNL     1      -1.284   5.335 -33.606  1.00  0.00     0.088 C 
HETATM   28  C   UNL     1      -1.992   4.604 -32.460  1.00  0.00     0.042 C 
HETATM   29  C   UNL     1      -3.447   5.038 -32.306  1.00  0.00     0.235 C 
BRANCH  27  30
HETATM   30  C   UNL     1      -1.163   6.821 -33.291  1.00  0.00     0.263 C 
HETATM   31  O   UNL     1      -1.484   7.705 -34.073  1.00  0.00    -0.265 OA
BRANCH  30  32
HETATM   32  O   UNL     1      -0.601   7.018 -32.073  1.00  0.00    -0.322 OA
BRANCH  32  33
HETATM   33  C   UNL     1      -1.324   7.891 -31.185  1.00  0.00     0.174 C 
HETATM   34  C   UNL     1      -1.475   7.236 -29.823  1.00  0.00     0.034 C 
ENDBRANCH  32  33
ENDBRANCH  30  32
ENDBRANCH  27  30
ENDBRANCH  22  23
ENDBRANCH  21  22
ENDBRANCH   2  21
TORSDOF 10
ENDMDL
MODEL 2
REMARK VINA RESULT:      -7.8      1.953      2.878
REMARK  10 active torsions:
REMARK  status: ('A' for Active; 'I' for Inactive)
REMARK    1  A    between atoms: C_2  and  O_3 
REMARK    2  A    between atoms: O_3  and  C_4 
REMARK    3  A    between atoms: C_4  and  C_5 
REMARK    4  A    between atoms: C_10  and  N_11 
REMARK       I    between atoms: N_11  and  C_12 
REMARK    5  A    between atoms: C_12  and  C_13 
REMARK    6  A    between atoms: C_13  and  C_14 
REMARK    7  A    between atoms: C_14  and  N_15 
REMARK    8  A    between atoms: C_19  and  C_20 
REMARK    9  A    between atoms: C_20  and  O_21 
REMARK   10  A    between atoms: O_21  and  C_22 
ROOT
HETATM    1  N   UNL     1     -10.034   2.252 -31.678  1.00  0.00    -0.324 N 
HETATM    2  C   UNL     1      -9.982   3.461 -31.071  1.00  0.00     0.223 C 
HETATM    3  O   UNL     1     -10.698   3.653 -30.083  1.00  0.00    -0.273 OA
HETATM    4  H   UNL     1     -10.708   1.654 -31.189  1.00  0.00     0.169 HD
ENDROOT
BRANCH   1   5
HETATM    5  C   UNL     1      -9.447   1.641 -32.785  1.00  0.00     0.080 A 
HETATM    6  C   UNL     1     -10.148   1.687 -33.992  1.00  0.00     0.137 A 
HETATM    7  N   UNL     1      -9.378   1.087 -34.951  1.00  0.00    -0.349 N 
HETATM    8  H   UNL     1      -9.651   0.997 -35.923  1.00  0.00     0.166 HD
HETATM    9  C   UNL     1      -8.215   0.606 -34.414  1.00  0.00     0.045 A 
HETATM   10  C   UNL     1      -8.226   0.910 -33.044  1.00  0.00     0.021 A 
HETATM   11  C   UNL     1      -7.178  -0.082 -35.061  1.00  0.00     0.032 A 
HETATM   12  C   UNL     1      -7.112   0.441 -32.310  1.00  0.00     0.035 A 
HETATM   13  C   UNL     1      -6.070  -0.257 -32.938  1.00  0.00     0.012 A 
HETATM   14  C   UNL     1      -6.095  -0.512 -34.297  1.00  0.00     0.021 A 
HETATM   15 BR   UNL     1      -4.613  -0.864 -31.891  1.00  0.00    -0.051 Br
BRANCH   6  16
HETATM   16  C   UNL     1     -11.454   2.246 -34.268  1.00  0.00     0.312 C 
HETATM   17  O   UNL     1     -11.649   3.208 -34.998  1.00  0.00    -0.258 OA
BRANCH  16  18
HETATM   18  O   UNL     1     -12.408   1.558 -33.583  1.00  0.00    -0.317 OA
BRANCH  18  19
HETATM   19  C   UNL     1     -13.210   0.660 -34.366  1.00  0.00     0.175 C 
HETATM   20  C   UNL     1     -14.672   0.795 -33.987  1.00  0.00     0.034 C 
ENDBRANCH  18  19
ENDBRANCH  16  18
ENDBRANCH   6  16
ENDBRANCH   1   5
BRANCH   2  21
HETATM   21  C   UNL     1      -9.088   4.563 -31.549  1.00  0.00     0.131 C 
BRANCH  21  22
HETATM   22  C   UNL     1      -7.813   4.574 -30.713  1.00  0.00     0.244 C 
BRANCH  22  23
HETATM   23  N   UNL     1      -6.687   3.730 -31.324  1.00  0.00    -0.071 N 
HETATM   24  H   UNL     1      -7.034   2.762 -31.382  1.00  0.00     0.279 HD
HETATM   25  C   UNL     1      -6.453   4.209 -32.748  1.00  0.00     0.235 C 
HETATM   26  C   UNL     1      -5.335   3.416 -33.407  1.00  0.00     0.042 C 
HETATM   27  C   UNL     1      -4.039   3.488 -32.600  1.00  0.00     0.088 C 
HETATM   28  C   UNL     1      -4.314   2.950 -31.192  1.00  0.00     0.042 C 
HETATM   29  C   UNL     1      -5.427   3.717 -30.484  1.00  0.00     0.235 C 
BRANCH  27  30
HETATM   30  C   UNL     1      -3.481   4.904 -32.525  1.00  0.00     0.263 C 
HETATM   31  O   UNL     1      -2.928   5.360 -31.534  1.00  0.00    -0.265 OA
BRANCH  30  32
HETATM   32  O   UNL     1      -3.736   5.590 -33.667  1.00  0.00    -0.322 OA
BRANCH  32  33
HETATM   33  C   UNL     1      -2.595   6.199 -34.299  1.00  0.00     0.174 C 
HETATM   34  C   UNL     1      -1.689   5.127 -34.878  1.00  0.00     0.034 C 
ENDBRANCH  32  33
ENDBRANCH  30  32
ENDBRANCH  27  30
ENDBRANCH  22  23
ENDBRANCH  21  22
ENDBRANCH   2  21
TORSDOF 10
ENDMDL
MODEL 3
REMARK VINA RESULT:      -7.7      2.589      8.649
REMARK  10 active torsions:
REMARK  status: ('A' for Active; 'I' for Inactive)
REMARK    1  A    between atoms: C_2  and  O_3 
REMARK    2  A    between atoms: O_3  and  C_4 
REMARK    3  A    between atoms: C_4  and  C_5 
REMARK    4  A    between atoms: C_10  and  N_11 
REMARK       I    between atoms: N_11  and  C_12 
REMARK    5  A    between atoms: C_12  and  C_13 
REMARK    6  A    between atoms: C_13  and  C_14 
REMARK    7  A    between atoms: C_14  and  N_15 
REMARK    8  A    between atoms: C_19  and  C_20 
REMARK    9  A    between atoms: C_20  and  O_21 
REMARK   10  A    between atoms: O_21  and  C_22 
ROOT
HETATM    1  N   UNL     1      -6.129   1.986 -33.438  1.00  0.00    -0.324 N 
HETATM    2  C   UNL     1      -7.467   2.189 -33.425  1.00  0.00     0.223 C 
HETATM    3  O   UNL     1      -7.906   3.240 -33.902  1.00  0.00    -0.273 OA
HETATM    4  H   UNL     1      -5.665   2.794 -33.864  1.00  0.00     0.169 HD
ENDROOT
BRANCH   1   5
HETATM    5  C   UNL     1      -5.243   1.002 -33.000  1.00  0.00     0.080 A 
HETATM    6  C   UNL     1      -4.262   1.382 -32.082  1.00  0.00     0.137 A 
HETATM    7  N   UNL     1      -3.545   0.266 -31.743  1.00  0.00    -0.349 N 
HETATM    8  H   UNL     1      -2.777   0.265 -31.082  1.00  0.00     0.166 HD
HETATM    9  C   UNL     1      -3.986  -0.827 -32.438  1.00  0.00     0.045 A 
HETATM   10  C   UNL     1      -5.040  -0.406 -33.262  1.00  0.00     0.021 A 
HETATM   11  C   UNL     1      -3.502  -2.142 -32.387  1.00  0.00     0.032 A 
HETATM   12  C   UNL     1      -5.593  -1.405 -34.097  1.00  0.00     0.035 A 
HETATM   13  C   UNL     1      -5.115  -2.723 -34.067  1.00  0.00     0.012 A 
HETATM   14  C   UNL     1      -4.088  -3.094 -33.218  1.00  0.00     0.021 A 
HETATM   15 BR   UNL     1      -5.897  -4.006 -35.220  1.00  0.00    -0.051 Br
BRANCH   6  16
HETATM   16  C   UNL     1      -3.983   2.692 -31.534  1.00  0.00     0.312 C 
HETATM   17  O   UNL     1      -4.839   3.455 -31.108  1.00  0.00    -0.258 OA
BRANCH  16  18
HETATM   18  O   UNL     1      -2.646   2.944 -31.588  1.00  0.00    -0.317 OA
BRANCH  18  19
HETATM   19  C   UNL     1      -2.276   4.331 -31.635  1.00  0.00     0.175 C 
HETATM   20  C   UNL     1      -1.842   4.712 -33.037  1.00  0.00     0.034 C 
ENDBRANCH  18  19
ENDBRANCH  16  18
ENDBRANCH   6  16
ENDBRANCH   1   5
BRANCH   2  21
HETATM   21  C   UNL     1      -8.428   1.187 -32.862  1.00  0.00     0.131 C 
BRANCH  21  22
HETATM   22  C   UNL     1      -9.584   1.921 -32.193  1.00  0.00     0.244 C 
BRANCH  22  23
HETATM   23  N   UNL     1     -10.644   2.407 -33.190  1.00  0.00    -0.071 N 
HETATM   24  H   UNL     1     -10.162   3.006 -33.875  1.00  0.00     0.279 HD
HETATM   25  C   UNL     1     -11.176   1.200 -33.945  1.00  0.00     0.235 C 
HETATM   26  C   UNL     1     -12.243   1.615 -34.945  1.00  0.00     0.042 C 
HETATM   27  C   UNL     1     -13.389   2.368 -34.268  1.00  0.00     0.088 C 
HETATM   28  C   UNL     1     -12.811   3.600 -33.564  1.00  0.00     0.042 C 
HETATM   29  C   UNL     1     -11.736   3.235 -32.545  1.00  0.00     0.235 C 
BRANCH  27  30
HETATM   30  C   UNL     1     -14.147   1.496 -33.273  1.00  0.00     0.263 C 
HETATM   31  O   UNL     1     -14.243   0.282 -33.378  1.00  0.00    -0.265 OA
BRANCH  30  32
HETATM   32  O   UNL     1     -14.738   2.251 -32.314  1.00  0.00    -0.322 OA
BRANCH  32  33
HETATM   33  C   UNL     1     -16.177   2.221 -32.294  1.00  0.00     0.174 C 
HETATM   34  C   UNL     1     -16.721   3.621 -32.067  1.00  0.00     0.034 C 
ENDBRANCH  32  33
ENDBRANCH  30  32
ENDBRANCH  27  30
ENDBRANCH  22  23
ENDBRANCH  21  22
ENDBRANCH   2  21
TORSDOF 10
ENDMDL
MODEL 4
REMARK VINA RESULT:      -7.7      1.499      2.327
REMARK  10 active torsions:
REMARK  status: ('A' for Active; 'I' for Inactive)
REMARK    1  A    between atoms: C_2  and  O_3 
REMARK    2  A    between atoms: O_3  and  C_4 
REMARK    3  A    between atoms: C_4  and  C_5 
REMARK    4  A    between atoms: C_10  and  N_11 
REMARK       I    between atoms: N_11  and  C_12 
REMARK    5  A    between atoms: C_12  and  C_13 
REMARK    6  A    between atoms: C_13  and  C_14 
REMARK    7  A    between atoms: C_14  and  N_15 
REMARK    8  A    between atoms: C_19  and  C_20 
REMARK    9  A    between atoms: C_20  and  O_21 
REMARK   10  A    between atoms: O_21  and  C_22 
ROOT
HETATM    1  N   UNL     1      -7.660   1.847 -30.937  1.00  0.00    -0.324 N 
HETATM    2  C   UNL     1      -6.834   2.698 -30.285  1.00  0.00     0.223 C 
HETATM    3  O   UNL     1      -7.298   3.372 -29.359  1.00  0.00    -0.273 OA
HETATM    4  H   UNL     1      -8.601   1.908 -30.534  1.00  0.00     0.169 HD
ENDROOT
BRANCH   1   5
HETATM    5  C   UNL     1      -7.570   0.959 -32.008  1.00  0.00     0.080 A 
HETATM    6  C   UNL     1      -8.613   0.962 -32.936  1.00  0.00     0.137 A 
HETATM    7  N   UNL     1      -8.301   0.069 -33.926  1.00  0.00    -0.349 N 
HETATM    8  H   UNL     1      -8.889  -0.113 -34.731  1.00  0.00     0.166 HD
HETATM    9  C   UNL     1      -7.113  -0.556 -33.662  1.00  0.00     0.045 A 
HETATM   10  C   UNL     1      -6.627  -0.045 -32.450  1.00  0.00     0.021 A 
HETATM   11  C   UNL     1      -6.463  -1.542 -34.420  1.00  0.00     0.032 A 
HETATM   12  C   UNL     1      -5.418  -0.618 -31.992  1.00  0.00     0.035 A 
HETATM   13  C   UNL     1      -4.759  -1.612 -32.730  1.00  0.00     0.012 A 
HETATM   14  C   UNL     1      -5.268  -2.066 -33.934  1.00  0.00     0.021 A 
HETATM   15 BR   UNL     1      -3.148  -2.341 -32.051  1.00  0.00    -0.051 Br
BRANCH   6  16
HETATM   16  C   UNL     1      -9.837   1.734 -32.931  1.00  0.00     0.312 C 
HETATM   17  O   UNL     1     -10.110   2.581 -32.092  1.00  0.00    -0.258 OA
BRANCH  16  18
HETATM   18  O   UNL     1     -10.628   1.360 -33.973  1.00  0.00    -0.317 OA
BRANCH  18  19
HETATM   19  C   UNL     1     -12.012   1.728 -33.867  1.00  0.00     0.175 C 
HETATM   20  C   UNL     1     -12.874   0.492 -33.703  1.00  0.00     0.034 C 
ENDBRANCH  18  19
ENDBRANCH  16  18
ENDBRANCH   6  16
ENDBRANCH   1   5
BRANCH   2  21
HETATM   21  C   UNL     1      -5.387   2.845 -30.640  1.00  0.00     0.131 C 
BRANCH  21  22
HETATM   22  C   UNL     1      -5.183   4.162 -31.381  1.00  0.00     0.244 C 
BRANCH  22  23
HETATM   23  N   UNL     1      -3.908   4.900 -30.952  1.00  0.00    -0.071 N 
HETATM   24  H   UNL     1      -3.839   4.813 -29.928  1.00  0.00     0.279 HD
HETATM   25  C   UNL     1      -2.714   4.171 -31.546  1.00  0.00     0.235 C 
HETATM   26  C   UNL     1      -1.415   4.863 -31.166  1.00  0.00     0.042 C 
HETATM   27  C   UNL     1      -1.410   6.332 -31.594  1.00  0.00     0.088 C 
HETATM   28  C   UNL     1      -2.601   7.033 -30.932  1.00  0.00     0.042 C 
HETATM   29  C   UNL     1      -3.932   6.376 -31.287  1.00  0.00     0.235 C 
BRANCH  27  30
HETATM   30  C   UNL     1      -1.476   6.493 -33.109  1.00  0.00     0.263 C 
HETATM   31  O   UNL     1      -1.577   7.576 -33.668  1.00  0.00    -0.265 OA
BRANCH  30  32
HETATM   32  O   UNL     1      -1.471   5.288 -33.729  1.00  0.00    -0.322 OA
BRANCH  32  33
HETATM   33  C   UNL     1      -2.045   5.261 -35.049  1.00  0.00     0.174 C 
HETATM   34  C   UNL     1      -3.559   5.211 -34.955  1.00  0.00     0.034 C 
ENDBRANCH  32  33
ENDBRANCH  30  32
ENDBRANCH  27  30
ENDBRANCH  22  23
ENDBRANCH  21  22
ENDBRANCH   2  21
TORSDOF 10
ENDMDL
MODEL 5
REMARK VINA RESULT:      -7.7      3.203      4.609
REMARK  10 active torsions:
REMARK  status: ('A' for Active; 'I' for Inactive)
REMARK    1  A    between atoms: C_2  and  O_3 
REMARK    2  A    between atoms: O_3  and  C_4 
REMARK    3  A    between atoms: C_4  and  C_5 
REMARK    4  A    between atoms: C_10  and  N_11 
REMARK       I    between atoms: N_11  and  C_12 
REMARK    5  A    between atoms: C_12  and  C_13 
REMARK    6  A    between atoms: C_13  and  C_14 
REMARK    7  A    between atoms: C_14  and  N_15 
REMARK    8  A    between atoms: C_19  and  C_20 
REMARK    9  A    between atoms: C_20  and  O_21 
REMARK   10  A    between atoms: O_21  and  C_22 
ROOT
HETATM    1  N   UNL     1      -4.684   0.775 -31.719  1.00  0.00    -0.324 N 
HETATM    2  C   UNL     1      -3.839   1.833 -31.713  1.00  0.00     0.223 C 
HETATM    3  O   UNL     1      -2.808   1.757 -31.037  1.00  0.00    -0.273 OA
HETATM    4  H   UNL     1      -4.308   0.035 -31.116  1.00  0.00     0.169 HD
ENDROOT
BRANCH   1   5
HETATM    5  C   UNL     1      -5.915   0.456 -32.290  1.00  0.00     0.080 A 
HETATM    6  C   UNL     1      -5.958  -0.634 -33.161  1.00  0.00     0.137 A 
HETATM    7  N   UNL     1      -7.256  -0.807 -33.559  1.00  0.00    -0.349 N 
HETATM    8  H   UNL     1      -7.564  -1.540 -34.187  1.00  0.00     0.166 HD
HETATM    9  C   UNL     1      -8.064   0.157 -33.021  1.00  0.00     0.045 A 
HETATM   10  C   UNL     1      -7.257   0.992 -32.233  1.00  0.00     0.021 A 
HETATM   11  C   UNL     1      -9.444   0.334 -33.200  1.00  0.00     0.032 A 
HETATM   12  C   UNL     1      -7.923   2.084 -31.630  1.00  0.00     0.035 A 
HETATM   13  C   UNL     1      -9.300   2.283 -31.806  1.00  0.00     0.012 A 
HETATM   14  C   UNL     1     -10.056   1.417 -32.574  1.00  0.00     0.021 A 
HETATM   15 BR   UNL     1     -10.123   3.773 -30.976  1.00  0.00    -0.051 Br
BRANCH   6  16
HETATM   16  C   UNL     1      -4.877  -1.483 -33.615  1.00  0.00     0.312 C 
HETATM   17  O   UNL     1      -3.753  -1.079 -33.881  1.00  0.00    -0.258 OA
BRANCH  16  18
HETATM   18  O   UNL     1      -5.307  -2.770 -33.718  1.00  0.00    -0.317 OA
BRANCH  18  19
HETATM   19  C   UNL     1      -5.309  -3.321 -35.044  1.00  0.00     0.175 C 
HETATM   20  C   UNL     1      -6.435  -4.326 -35.193  1.00  0.00     0.034 C 
ENDBRANCH  18  19
ENDBRANCH  16  18
ENDBRANCH   6  16
ENDBRANCH   1   5
BRANCH   2  21
HETATM   21  C   UNL     1      -4.107   3.080 -32.497  1.00  0.00     0.131 C 
BRANCH  21  22
HETATM   22  C   UNL     1      -2.783   3.668 -32.974  1.00  0.00     0.244 C 
BRANCH  22  23
HETATM   23  N   UNL     1      -2.155   4.633 -31.960  1.00  0.00    -0.071 N 
HETATM   24  H   UNL     1      -1.736   4.057 -31.216  1.00  0.00     0.279 HD
HETATM   25  C   UNL     1      -1.020   5.372 -32.648  1.00  0.00     0.235 C 
HETATM   26  C   UNL     1      -0.361   6.357 -31.695  1.00  0.00     0.042 C 
HETATM   27  C   UNL     1      -1.372   7.349 -31.119  1.00  0.00     0.088 C 
HETATM   28  C   UNL     1      -2.468   6.559 -30.395  1.00  0.00     0.042 C 
HETATM   29  C   UNL     1      -3.164   5.558 -31.312  1.00  0.00     0.235 C 
BRANCH  27  30
HETATM   30  C   UNL     1      -1.985   8.241 -32.193  1.00  0.00     0.263 C 
HETATM   31  O   UNL     1      -1.651   8.206 -33.369  1.00  0.00    -0.265 OA
BRANCH  30  32
HETATM   32  O   UNL     1      -2.885   9.102 -31.658  1.00  0.00    -0.322 OA
BRANCH  32  33
HETATM   33  C   UNL     1      -2.367  10.019 -30.676  1.00  0.00     0.174 C 
HETATM   34  C   UNL     1      -3.508  10.780 -30.024  1.00  0.00     0.034 C 
ENDBRANCH  32  33
ENDBRANCH  30  32
ENDBRANCH  27  30
ENDBRANCH  22  23
ENDBRANCH  21  22
ENDBRANCH   2  21
TORSDOF 10
ENDMDL
MODEL 6
REMARK VINA RESULT:      -7.6      1.291      1.594
REMARK  10 active torsions:
REMARK  status: ('A' for Active; 'I' for Inactive)
REMARK    1  A    between atoms: C_2  and  O_3 
REMARK    2  A    between atoms: O_3  and  C_4 
REMARK    3  A    between atoms: C_4  and  C_5 
REMARK    4  A    between atoms: C_10  and  N_11 
REMARK       I    between atoms: N_11  and  C_12 
REMARK    5  A    between atoms: C_12  and  C_13 
REMARK    6  A    between atoms: C_13  and  C_14 
REMARK    7  A    between atoms: C_14  and  N_15 
REMARK    8  A    between atoms: C_19  and  C_20 
REMARK    9  A    between atoms: C_20  and  O_21 
REMARK   10  A    between atoms: O_21  and  C_22 
ROOT
HETATM    1  N   UNL     1      -7.700   2.967 -32.450  1.00  0.00    -0.324 N 
HETATM    2  C   UNL     1      -6.831   3.945 -32.101  1.00  0.00     0.223 C 
HETATM    3  O   UNL     1      -7.222   4.831 -31.334  1.00  0.00    -0.273 OA
HETATM    4  H   UNL     1      -8.603   3.135 -31.995  1.00  0.00     0.169 HD
ENDROOT
BRANCH   1   5
HETATM    5  C   UNL     1      -7.690   1.842 -33.273  1.00  0.00     0.080 A 
HETATM    6  C   UNL     1      -8.711   1.728 -34.219  1.00  0.00     0.137 A 
HETATM    7  N   UNL     1      -8.484   0.594 -34.952  1.00  0.00    -0.349 N 
HETATM    8  H   UNL     1      -9.074   0.285 -35.715  1.00  0.00     0.166 HD
HETATM    9  C   UNL     1      -7.377  -0.068 -34.496  1.00  0.00     0.045 A 
HETATM   10  C   UNL     1      -6.858   0.668 -33.421  1.00  0.00     0.021 A 
HETATM   11  C   UNL     1      -6.828  -1.270 -34.967  1.00  0.00     0.032 A 
HETATM   12  C   UNL     1      -5.727   0.101 -32.787  1.00  0.00     0.035 A 
HETATM   13  C   UNL     1      -5.171  -1.105 -33.238  1.00  0.00     0.012 A 
HETATM   14  C   UNL     1      -5.706  -1.781 -34.319  1.00  0.00     0.021 A 
HETATM   15 BR   UNL     1      -3.662  -1.810 -32.336  1.00  0.00    -0.051 Br
BRANCH   6  16
HETATM   16  C   UNL     1      -9.842   2.600 -34.451  1.00  0.00     0.312 C 
HETATM   17  O   UNL     1      -9.781   3.822 -34.430  1.00  0.00    -0.258 OA
BRANCH  16  18
HETATM   18  O   UNL     1     -10.963   1.862 -34.671  1.00  0.00    -0.317 OA
BRANCH  18  19
HETATM   19  C   UNL     1     -11.563   1.279 -33.503  1.00  0.00     0.175 C 
HETATM   20  C   UNL     1     -12.872   0.605 -33.865  1.00  0.00     0.034 C 
ENDBRANCH  18  19
ENDBRANCH  16  18
ENDBRANCH   6  16
ENDBRANCH   1   5
BRANCH   2  21
HETATM   21  C   UNL     1      -5.421   3.986 -32.604  1.00  0.00     0.131 C 
BRANCH  21  22
HETATM   22  C   UNL     1      -5.321   5.007 -33.733  1.00  0.00     0.244 C 
BRANCH  22  23
HETATM   23  N   UNL     1      -3.957   5.708 -33.789  1.00  0.00    -0.071 N 
HETATM   24  H   UNL     1      -3.973   6.334 -34.607  1.00  0.00     0.279 HD
HETATM   25  C   UNL     1      -3.822   6.584 -32.555  1.00  0.00     0.235 C 
HETATM   26  C   UNL     1      -2.481   7.300 -32.545  1.00  0.00     0.042 C 
HETATM   27  C   UNL     1      -1.314   6.315 -32.630  1.00  0.00     0.088 C 
HETATM   28  C   UNL     1      -1.468   5.491 -33.912  1.00  0.00     0.042 C 
HETATM   29  C   UNL     1      -2.800   4.748 -33.968  1.00  0.00     0.235 C 
BRANCH  27  30
HETATM   30  C   UNL     1      -1.242   5.397 -31.415  1.00  0.00     0.263 C 
HETATM   31  O   UNL     1      -1.486   4.200 -31.460  1.00  0.00    -0.265 OA
BRANCH  30  32
HETATM   32  O   UNL     1      -0.939   6.095 -30.293  1.00  0.00    -0.322 OA
BRANCH  32  33
HETATM   33  C   UNL     1       0.369   6.696 -30.264  1.00  0.00     0.174 C 
HETATM   34  C   UNL     1       0.512   7.566 -29.028  1.00  0.00     0.034 C 
ENDBRANCH  32  33
ENDBRANCH  30  32
ENDBRANCH  27  30
ENDBRANCH  22  23
ENDBRANCH  21  22
ENDBRANCH   2  21
TORSDOF 10
ENDMDL
MODEL 7
REMARK VINA RESULT:      -7.6      1.357      1.669
REMARK  10 active torsions:
REMARK  status: ('A' for Active; 'I' for Inactive)
REMARK    1  A    between atoms: C_2  and  O_3 
REMARK    2  A    between atoms: O_3  and  C_4 
REMARK    3  A    between atoms: C_4  and  C_5 
REMARK    4  A    between atoms: C_10  and  N_11 
REMARK       I    between atoms: N_11  and  C_12 
REMARK    5  A    between atoms: C_12  and  C_13 
REMARK    6  A    between atoms: C_13  and  C_14 
REMARK    7  A    between atoms: C_14  and  N_15 
REMARK    8  A    between atoms: C_19  and  C_20 
REMARK    9  A    between atoms: C_20  and  O_21 
REMARK   10  A    between atoms: O_21  and  C_22 
ROOT
HETATM    1  N   UNL     1      -7.609   2.749 -32.216  1.00  0.00    -0.324 N 
HETATM    2  C   UNL     1      -6.703   3.554 -31.612  1.00  0.00     0.223 C 
HETATM    3  O   UNL     1      -7.116   4.438 -30.856  1.00  0.00    -0.273 OA
HETATM    4  H   UNL     1      -8.554   3.026 -31.933  1.00  0.00     0.169 HD
ENDROOT
BRANCH   1   5
HETATM    5  C   UNL     1      -7.587   1.692 -33.126  1.00  0.00     0.080 A 
HETATM    6  C   UNL     1      -8.573   1.672 -34.113  1.00  0.00     0.137 A 
HETATM    7  N   UNL     1      -8.337   0.596 -34.926  1.00  0.00    -0.349 N 
HETATM    8  H   UNL     1      -8.903   0.359 -35.731  1.00  0.00     0.166 HD
HETATM    9  C   UNL     1      -7.259  -0.121 -34.484  1.00  0.00     0.045 A 
HETATM   10  C   UNL     1      -6.768   0.519 -33.336  1.00  0.00     0.021 A 
HETATM   11  C   UNL     1      -6.711  -1.292 -35.030  1.00  0.00     0.032 A 
HETATM   12  C   UNL     1      -5.671  -0.118 -32.710  1.00  0.00     0.035 A 
HETATM   13  C   UNL     1      -5.117  -1.294 -33.235  1.00  0.00     0.012 A 
HETATM   14  C   UNL     1      -5.623  -1.874 -34.384  1.00  0.00     0.021 A 
HETATM   15 BR   UNL     1      -3.654  -2.097 -32.338  1.00  0.00    -0.051 Br
BRANCH   6  16
HETATM   16  C   UNL     1      -9.680   2.582 -34.316  1.00  0.00     0.312 C 
HETATM   17  O   UNL     1     -10.833   2.225 -34.516  1.00  0.00    -0.258 OA
BRANCH  16  18
HETATM   18  O   UNL     1      -9.240   3.869 -34.271  1.00  0.00    -0.317 OA
BRANCH  18  19
HETATM   19  C   UNL     1     -10.258   4.869 -34.105  1.00  0.00     0.175 C 
HETATM   20  C   UNL     1     -10.391   5.696 -35.369  1.00  0.00     0.034 C 
ENDBRANCH  18  19
ENDBRANCH  16  18
ENDBRANCH   6  16
ENDBRANCH   1   5
BRANCH   2  21
HETATM   21  C   UNL     1      -5.228   3.406 -31.824  1.00  0.00     0.131 C 
BRANCH  21  22
HETATM   22  C   UNL     1      -4.831   4.120 -33.112  1.00  0.00     0.244 C 
BRANCH  22  23
HETATM   23  N   UNL     1      -3.312   4.267 -33.273  1.00  0.00    -0.071 N 
HETATM   24  H   UNL     1      -2.937   3.328 -33.467  1.00  0.00     0.279 HD
HETATM   25  C   UNL     1      -3.046   5.120 -34.502  1.00  0.00     0.235 C 
HETATM   26  C   UNL     1      -1.552   5.314 -34.711  1.00  0.00     0.042 C 
HETATM   27  C   UNL     1      -0.885   5.930 -33.480  1.00  0.00     0.088 C 
HETATM   28  C   UNL     1      -1.140   5.011 -32.280  1.00  0.00     0.042 C 
HETATM   29  C   UNL     1      -2.628   4.787 -32.026  1.00  0.00     0.235 C 
BRANCH  27  30
HETATM   30  C   UNL     1      -1.394   7.336 -33.188  1.00  0.00     0.263 C 
HETATM   31  O   UNL     1      -1.784   8.106 -34.054  1.00  0.00    -0.265 OA
BRANCH  30  32
HETATM   32  O   UNL     1      -1.296   7.627 -31.867  1.00  0.00    -0.322 OA
BRANCH  32  33
HETATM   33  C   UNL     1      -2.172   8.663 -31.387  1.00  0.00     0.174 C 
HETATM   34  C   UNL     1      -3.598   8.145 -31.319  1.00  0.00     0.034 C 
ENDBRANCH  32  33
ENDBRANCH  30  32
ENDBRANCH  27  30
ENDBRANCH  22  23
ENDBRANCH  21  22
ENDBRANCH   2  21
TORSDOF 10
ENDMDL
MODEL 8
REMARK VINA RESULT:      -7.6      2.209      8.209
REMARK  10 active torsions:
REMARK  status: ('A' for Active; 'I' for Inactive)
REMARK    1  A    between atoms: C_2  and  O_3 
REMARK    2  A    between atoms: O_3  and  C_4 
REMARK    3  A    between atoms: C_4  and  C_5 
REMARK    4  A    between atoms: C_10  and  N_11 
REMARK       I    between atoms: N_11  and  C_12 
REMARK    5  A    between atoms: C_12  and  C_13 
REMARK    6  A    between atoms: C_13  and  C_14 
REMARK    7  A    between atoms: C_14  and  N_15 
REMARK    8  A    between atoms: C_19  and  C_20 
REMARK    9  A    between atoms: C_20  and  O_21 
REMARK   10  A    between atoms: O_21  and  C_22 
ROOT
HETATM    1  N   UNL     1      -6.325   3.949 -32.124  1.00  0.00    -0.324 N 
HETATM    2  C   UNL     1      -7.488   4.108 -31.448  1.00  0.00     0.223 C 
HETATM    3  O   UNL     1      -8.122   5.156 -31.611  1.00  0.00    -0.273 OA
HETATM    4  H   UNL     1      -6.145   4.782 -32.693  1.00  0.00     0.169 HD
ENDROOT
BRANCH   1   5
HETATM    5  C   UNL     1      -5.322   2.985 -32.212  1.00  0.00     0.080 A 
HETATM    6  C   UNL     1      -4.050   3.335 -31.756  1.00  0.00     0.137 A 
HETATM    7  N   UNL     1      -3.240   2.239 -31.879  1.00  0.00    -0.349 N 
HETATM    8  H   UNL     1      -2.264   2.222 -31.607  1.00  0.00     0.166 HD
HETATM    9  C   UNL     1      -3.917   1.192 -32.442  1.00  0.00     0.045 A 
HETATM   10  C   UNL     1      -5.228   1.623 -32.692  1.00  0.00     0.021 A 
HETATM   11  C   UNL     1      -3.437  -0.091 -32.746  1.00  0.00     0.032 A 
HETATM   12  C   UNL     1      -6.068   0.676 -33.324  1.00  0.00     0.035 A 
HETATM   13  C   UNL     1      -5.602  -0.607 -33.645  1.00  0.00     0.012 A 
HETATM   14  C   UNL     1      -4.306  -0.993 -33.355  1.00  0.00     0.021 A 
HETATM   15 BR   UNL     1      -6.780  -1.821 -34.498  1.00  0.00    -0.051 Br
BRANCH   6  16
HETATM   16  C   UNL     1      -3.585   4.602 -31.234  1.00  0.00     0.312 C 
HETATM   17  O   UNL     1      -4.267   5.357 -30.555  1.00  0.00    -0.258 OA
BRANCH  16  18
HETATM   18  O   UNL     1      -2.301   4.825 -31.628  1.00  0.00    -0.317 OA
BRANCH  18  19
HETATM   19  C   UNL     1      -2.136   5.753 -32.712  1.00  0.00     0.175 C 
HETATM   20  C   UNL     1      -1.756   5.016 -33.981  1.00  0.00     0.034 C 
ENDBRANCH  18  19
ENDBRANCH  16  18
ENDBRANCH   6  16
ENDBRANCH   1   5
BRANCH   2  21
HETATM   21  C   UNL     1      -8.031   3.063 -30.524  1.00  0.00     0.131 C 
BRANCH  21  22
HETATM   22  C   UNL     1      -9.505   2.831 -30.838  1.00  0.00     0.244 C 
BRANCH  22  23
HETATM   23  N   UNL     1      -9.785   2.701 -32.342  1.00  0.00    -0.071 N 
HETATM   24  H   UNL     1      -8.999   3.150 -32.834  1.00  0.00     0.279 HD
HETATM   25  C   UNL     1      -9.757   1.225 -32.704  1.00  0.00     0.235 C 
HETATM   26  C   UNL     1     -10.040   1.027 -34.185  1.00  0.00     0.042 C 
HETATM   27  C   UNL     1     -11.375   1.652 -34.593  1.00  0.00     0.088 C 
HETATM   28  C   UNL     1     -11.335   3.146 -34.253  1.00  0.00     0.042 C 
HETATM   29  C   UNL     1     -11.057   3.397 -32.774  1.00  0.00     0.235 C 
BRANCH  27  30
HETATM   30  C   UNL     1     -12.561   0.985 -33.907  1.00  0.00     0.263 C 
HETATM   31  O   UNL     1     -12.514  -0.135 -33.418  1.00  0.00    -0.265 OA
BRANCH  30  32
HETATM   32  O   UNL     1     -13.667   1.766 -33.972  1.00  0.00    -0.322 OA
BRANCH  32  33
HETATM   33  C   UNL     1     -14.744   1.401 -33.090  1.00  0.00     0.174 C 
HETATM   34  C   UNL     1     -14.927   2.467 -32.025  1.00  0.00     0.034 C 
ENDBRANCH  32  33
ENDBRANCH  30  32
ENDBRANCH  27  30
ENDBRANCH  22  23
ENDBRANCH  21  22
ENDBRANCH   2  21
TORSDOF 10
ENDMDL
MODEL 9
REMARK VINA RESULT:      -7.4      2.013      3.060
REMARK  10 active torsions:
REMARK  status: ('A' for Active; 'I' for Inactive)
REMARK    1  A    between atoms: C_2  and  O_3 
REMARK    2  A    between atoms: O_3  and  C_4 
REMARK    3  A    between atoms: C_4  and  C_5 
REMARK    4  A    between atoms: C_10  and  N_11 
REMARK       I    between atoms: N_11  and  C_12 
REMARK    5  A    between atoms: C_12  and  C_13 
REMARK    6  A    between atoms: C_13  and  C_14 
REMARK    7  A    between atoms: C_14  and  N_15 
REMARK    8  A    between atoms: C_19  and  C_20 
REMARK    9  A    between atoms: C_20  and  O_21 
REMARK   10  A    between atoms: O_21  and  C_22 
ROOT
HETATM    1  N   UNL     1      -6.222   4.186 -34.104  1.00  0.00    -0.324 N 
HETATM    2  C   UNL     1      -5.066   4.657 -33.581  1.00  0.00     0.223 C 
HETATM    3  O   UNL     1      -4.631   5.736 -33.998  1.00  0.00    -0.273 OA
HETATM    4  H   UNL     1      -6.569   4.842 -34.812  1.00  0.00     0.169 HD
ENDROOT
BRANCH   1   5
HETATM    5  C   UNL     1      -7.021   3.053 -33.955  1.00  0.00     0.080 A 
HETATM    6  C   UNL     1      -8.401   3.244 -33.873  1.00  0.00     0.137 A 
HETATM    7  N   UNL     1      -8.995   2.014 -33.790  1.00  0.00    -0.349 N 
HETATM    8  H   UNL     1      -9.996   1.870 -33.730  1.00  0.00     0.166 HD
HETATM    9  C   UNL     1      -8.055   1.019 -33.767  1.00  0.00     0.045 A 
HETATM   10  C   UNL     1      -6.794   1.629 -33.844  1.00  0.00     0.021 A 
HETATM   11  C   UNL     1      -8.258  -0.365 -33.672  1.00  0.00     0.032 A 
HETATM   12  C   UNL     1      -5.690   0.747 -33.785  1.00  0.00     0.035 A 
HETATM   13  C   UNL     1      -5.873  -0.640 -33.679  1.00  0.00     0.012 A 
HETATM   14  C   UNL     1      -7.139  -1.194 -33.630  1.00  0.00     0.021 A 
HETATM   15 BR   UNL     1      -4.348  -1.760 -33.595  1.00  0.00    -0.051 Br
BRANCH   6  16
HETATM   16  C   UNL     1      -9.153   4.481 -33.869  1.00  0.00     0.312 C 
HETATM   17  O   UNL     1      -8.964   5.401 -34.652  1.00  0.00    -0.258 OA
BRANCH  16  18
HETATM   18  O   UNL     1     -10.068   4.467 -32.862  1.00  0.00    -0.317 OA
BRANCH  18  19
HETATM   19  C   UNL     1      -9.560   4.778 -31.555  1.00  0.00     0.175 C 
HETATM   20  C   UNL     1     -10.033   3.748 -30.548  1.00  0.00     0.034 C 
ENDBRANCH  18  19
ENDBRANCH  16  18
ENDBRANCH   6  16
ENDBRANCH   1   5
BRANCH   2  21
HETATM   21  C   UNL     1      -4.306   3.925 -32.520  1.00  0.00     0.131 C 
BRANCH  21  22
HETATM   22  C   UNL     1      -4.630   4.534 -31.160  1.00  0.00     0.244 C 
BRANCH  22  23
HETATM   23  N   UNL     1      -3.433   5.253 -30.523  1.00  0.00    -0.071 N 
HETATM   24  H   UNL     1      -3.323   4.871 -29.573  1.00  0.00     0.279 HD
HETATM   25  C   UNL     1      -2.184   4.879 -31.304  1.00  0.00     0.235 C 
HETATM   26  C   UNL     1      -0.959   5.571 -30.728  1.00  0.00     0.042 C 
HETATM   27  C   UNL     1      -1.132   7.090 -30.693  1.00  0.00     0.088 C 
HETATM   28  C   UNL     1      -2.373   7.418 -29.856  1.00  0.00     0.042 C 
HETATM   29  C   UNL     1      -3.633   6.748 -30.397  1.00  0.00     0.235 C 
BRANCH  27  30
HETATM   30  C   UNL     1      -1.262   7.690 -32.089  1.00  0.00     0.263 C 
HETATM   31  O   UNL     1      -1.880   8.719 -32.326  1.00  0.00    -0.265 OA
BRANCH  30  32
HETATM   32  O   UNL     1      -0.664   6.903 -33.016  1.00  0.00    -0.322 OA
BRANCH  32  33
HETATM   33  C   UNL     1      -1.336   6.810 -34.286  1.00  0.00     0.174 C 
HETATM   34  C   UNL     1      -1.264   5.385 -34.807  1.00  0.00     0.034 C 
ENDBRANCH  32  33
ENDBRANCH  30  32
ENDBRANCH  27  30
ENDBRANCH  22  23
ENDBRANCH  21  22
ENDBRANCH   2  21
TORSDOF 10
ENDMDL
MODEL 10
REMARK VINA RESULT:      -7.4      2.381      7.772
REMARK  10 active torsions:
REMARK  status: ('A' for Active; 'I' for Inactive)
REMARK    1  A    between atoms: C_2  and  O_3 
REMARK    2  A    between atoms: O_3  and  C_4 
REMARK    3  A    between atoms: C_4  and  C_5 
REMARK    4  A    between atoms: C_10  and  N_11 
REMARK       I    between atoms: N_11  and  C_12 
REMARK    5  A    between atoms: C_12  and  C_13 
REMARK    6  A    between atoms: C_13  and  C_14 
REMARK    7  A    between atoms: C_14  and  N_15 
REMARK    8  A    between atoms: C_19  and  C_20 
REMARK    9  A    between atoms: C_20  and  O_21 
REMARK   10  A    between atoms: O_21  and  C_22 
ROOT
HETATM    1  N   UNL     1      -5.934   2.612 -33.108  1.00  0.00    -0.324 N 
HETATM    2  C   UNL     1      -7.211   2.974 -32.840  1.00  0.00     0.223 C 
HETATM    3  O   UNL     1      -7.655   3.994 -33.376  1.00  0.00    -0.273 OA
HETATM    4  H   UNL     1      -5.513   3.292 -33.749  1.00  0.00     0.169 HD
ENDROOT
BRANCH   1   5
HETATM    5  C   UNL     1      -5.058   1.600 -32.717  1.00  0.00     0.080 A 
HETATM    6  C   UNL     1      -4.022   1.945 -31.847  1.00  0.00     0.137 A 
HETATM    7  N   UNL     1      -3.324   0.806 -31.548  1.00  0.00    -0.349 N 
HETATM    8  H   UNL     1      -2.526   0.778 -30.925  1.00  0.00     0.166 HD
HETATM    9  C   UNL     1      -3.832  -0.270 -32.224  1.00  0.00     0.045 A 
HETATM   10  C   UNL     1      -4.912   0.187 -32.993  1.00  0.00     0.021 A 
HETATM   11  C   UNL     1      -3.388  -1.600 -32.200  1.00  0.00     0.032 A 
HETATM   12  C   UNL     1      -5.536  -0.790 -33.804  1.00  0.00     0.035 A 
HETATM   13  C   UNL     1      -5.099  -2.122 -33.801  1.00  0.00     0.012 A 
HETATM   14  C   UNL     1      -4.043  -2.529 -33.005  1.00  0.00     0.021 A 
HETATM   15 BR   UNL     1      -5.976  -3.376 -34.918  1.00  0.00    -0.051 Br
BRANCH   6  16
HETATM   16  C   UNL     1      -3.676   3.243 -31.310  1.00  0.00     0.312 C 
HETATM   17  O   UNL     1      -4.487   4.032 -30.846  1.00  0.00    -0.258 OA
BRANCH  16  18
HETATM   18  O   UNL     1      -2.335   3.450 -31.421  1.00  0.00    -0.317 OA
BRANCH  18  19
HETATM   19  C   UNL     1      -1.946   4.663 -32.085  1.00  0.00     0.175 C 
HETATM   20  C   UNL     1      -2.151   4.530 -33.582  1.00  0.00     0.034 C 
ENDBRANCH  18  19
ENDBRANCH  16  18
ENDBRANCH   6  16
ENDBRANCH   1   5
BRANCH   2  21
HETATM   21  C   UNL     1      -8.097   2.183 -31.930  1.00  0.00     0.131 C 
BRANCH  21  22
HETATM   22  C   UNL     1      -8.912   1.194 -32.757  1.00  0.00     0.244 C 
BRANCH  22  23
HETATM   23  N   UNL     1     -10.425   1.413 -32.636  1.00  0.00    -0.071 N 
HETATM   24  H   UNL     1     -10.704   1.085 -31.701  1.00  0.00     0.279 HD
HETATM   25  C   UNL     1     -10.694   2.908 -32.686  1.00  0.00     0.235 C 
HETATM   26  C   UNL     1     -12.184   3.193 -32.582  1.00  0.00     0.042 C 
HETATM   27  C   UNL     1     -12.974   2.472 -33.676  1.00  0.00     0.088 C 
HETATM   28  C   UNL     1     -12.710   0.968 -33.554  1.00  0.00     0.042 C 
HETATM   29  C   UNL     1     -11.225   0.630 -33.656  1.00  0.00     0.235 C 
BRANCH  27  30
HETATM   30  C   UNL     1     -12.610   2.963 -35.072  1.00  0.00     0.263 C 
HETATM   31  O   UNL     1     -12.640   2.251 -36.066  1.00  0.00    -0.265 OA
BRANCH  30  32
HETATM   32  O   UNL     1     -12.194   4.253 -35.044  1.00  0.00    -0.322 OA
BRANCH  32  33
HETATM   33  C   UNL     1     -10.981   4.536 -35.764  1.00  0.00     0.174 C 
HETATM   34  C   UNL     1     -10.269   5.720 -35.135  1.00  0.00     0.034 C 
ENDBRANCH  32  33
ENDBRANCH  30  32
ENDBRANCH  27  30
ENDBRANCH  22  23
ENDBRANCH  21  22
ENDBRANCH   2  21
TORSDOF 10
ENDMDL
