MODEL 1
REMARK VINA RESULT:      -9.0      0.000      0.000
REMARK  6 active torsions:
REMARK  status: ('A' for Active; 'I' for Inactive)
REMARK    1  A    between atoms: N_7  and  C_8 
REMARK    2  A    between atoms: C_8  and  C_9 
REMARK    3  A    between atoms: C_9  and  N_10 
REMARK    4  A    between atoms: C_17  and  C_18 
REMARK    5  A    between atoms: C_18  and  N_19 
REMARK       I    between atoms: N_19  and  C_20 
REMARK    6  A    between atoms: C_20  and  C_21 
ROOT
HETATM    1  C   UNL     1      -2.313   4.267 -33.332  1.00  0.00     0.001 A 
HETATM    2  C   UNL     1      -3.054   3.272 -32.688  1.00  0.00     0.014 A 
HETATM    3  C   UNL     1      -4.453   3.301 -32.734  1.00  0.00     0.008 A 
HETATM    4  C   UNL     1      -5.097   4.321 -33.432  1.00  0.00     0.046 A 
HETATM    5  C   UNL     1      -6.570   4.339 -33.502  1.00  0.00     0.274 A 
HETATM    6  O   UNL     1      -7.154   5.193 -34.165  1.00  0.00    -0.266 OA
HETATM    7  N   UNL     1      -7.237   3.346 -32.792  1.00  0.00    -0.232 N 
HETATM    8  N   UNL     1      -6.612   2.336 -32.123  1.00  0.00    -0.172 NA
HETATM    9  C   UNL     1      -5.314   2.291 -32.078  1.00  0.00     0.084 A 
HETATM   10  C   UNL     1      -4.353   5.317 -34.078  1.00  0.00     0.018 A 
HETATM   11  C   UNL     1      -2.961   5.289 -34.025  1.00  0.00     0.001 A 
ENDROOT
BRANCH   9  12
HETATM   12  C   UNL     1      -4.688   1.120 -31.327  1.00  0.00     0.185 C 
BRANCH  12  13
HETATM   13  N   UNL     1      -5.044  -0.122 -31.982  1.00  0.00    -0.351 N 
HETATM   14  C   UNL     1      -4.262  -0.678 -32.970  1.00  0.00     0.253 C 
HETATM   15  O   UNL     1      -3.161  -0.228 -33.276  1.00  0.00    -0.268 OA
HETATM   16  H   UNL     1      -5.928  -0.560 -31.755  1.00  0.00     0.163 HD
BRANCH  14  17
HETATM   17  C   UNL     1      -4.773  -1.921 -33.627  1.00  0.00     0.048 A 
HETATM   18  C   UNL     1      -5.965  -2.051 -34.360  1.00  0.00     0.022 A 
HETATM   19  I   UNL     1      -7.287  -0.478 -34.818  1.00  0.00    -0.043 I 
HETATM   20  C   UNL     1      -6.318  -3.296 -34.905  1.00  0.00     0.019 A 
HETATM   21  C   UNL     1      -5.488  -4.406 -34.746  1.00  0.00     0.001 A 
HETATM   22  C   UNL     1      -4.296  -4.282 -34.044  1.00  0.00     0.001 A 
HETATM   23  C   UNL     1      -3.941  -3.051 -33.491  1.00  0.00     0.018 A 
ENDBRANCH  14  17
ENDBRANCH  12  13
ENDBRANCH   9  12
BRANCH   7  24
HETATM   24  C   UNL     1      -8.682   3.226 -32.940  1.00  0.00     0.182 C 
BRANCH  24  25
HETATM   25  C   UNL     1      -9.251   1.933 -32.342  1.00  0.00     0.256 C 
BRANCH  25  26
HETATM   26  N   UNL     1     -10.758   1.846 -32.516  1.00  0.00    -0.070 N 
HETATM   27  H   UNL     1     -11.163   1.558 -31.615  1.00  0.00     0.279 HD
HETATM   28  C   UNL     1     -11.167   0.804 -33.547  1.00  0.00     0.235 C 
HETATM   29  C   UNL     1     -11.749   1.609 -34.690  1.00  0.00     0.029 C 
HETATM   30  C   UNL     1     -12.415   2.770 -33.985  1.00  0.00     0.029 C 
HETATM   31  C   UNL     1     -11.394   3.161 -32.936  1.00  0.00     0.235 C 
ENDBRANCH  25  26
ENDBRANCH  24  25
ENDBRANCH   7  24
TORSDOF 6
ENDMDL
MODEL 2
REMARK VINA RESULT:      -8.8      2.134      7.273
REMARK  6 active torsions:
REMARK  status: ('A' for Active; 'I' for Inactive)
REMARK    1  A    between atoms: N_7  and  C_8 
REMARK    2  A    between atoms: C_8  and  C_9 
REMARK    3  A    between atoms: C_9  and  N_10 
REMARK    4  A    between atoms: C_17  and  C_18 
REMARK    5  A    between atoms: C_18  and  N_19 
REMARK       I    between atoms: N_19  and  C_20 
REMARK    6  A    between atoms: C_20  and  C_21 
ROOT
HETATM    1  C   UNL     1      -5.956  -3.902 -34.921  1.00  0.00     0.001 A 
HETATM    2  C   UNL     1      -6.574  -2.648 -34.930  1.00  0.00     0.014 A 
HETATM    3  C   UNL     1      -5.957  -1.559 -34.303  1.00  0.00     0.008 A 
HETATM    4  C   UNL     1      -4.723  -1.733 -33.680  1.00  0.00     0.046 A 
HETATM    5  C   UNL     1      -4.059  -0.581 -33.040  1.00  0.00     0.274 A 
HETATM    6  O   UNL     1      -2.943  -0.701 -32.542  1.00  0.00    -0.266 OA
HETATM    7  N   UNL     1      -4.762   0.620 -33.044  1.00  0.00    -0.232 N 
HETATM    8  N   UNL     1      -5.961   0.800 -33.667  1.00  0.00    -0.172 NA
HETATM    9  C   UNL     1      -6.543  -0.200 -34.260  1.00  0.00     0.084 A 
HETATM   10  C   UNL     1      -4.104  -2.990 -33.673  1.00  0.00     0.018 A 
HETATM   11  C   UNL     1      -4.723  -4.072 -34.293  1.00  0.00     0.001 A 
ENDROOT
BRANCH   9  12
HETATM   12  C   UNL     1      -7.873   0.085 -34.952  1.00  0.00     0.185 C 
BRANCH  12  13
HETATM   13  N   UNL     1      -8.568   1.144 -34.250  1.00  0.00    -0.351 N 
HETATM   14  C   UNL     1      -9.508   0.883 -33.278  1.00  0.00     0.253 C 
HETATM   15  O   UNL     1      -9.731  -0.250 -32.858  1.00  0.00    -0.268 OA
HETATM   16  H   UNL     1      -8.410   2.104 -34.530  1.00  0.00     0.163 HD
BRANCH  14  17
HETATM   17  C   UNL     1     -10.216   2.056 -32.679  1.00  0.00     0.048 A 
HETATM   18  C   UNL     1     -11.409   2.639 -33.142  1.00  0.00     0.022 A 
HETATM   19  I   UNL     1     -12.569   1.923 -34.746  1.00  0.00    -0.043 I 
HETATM   20  C   UNL     1     -11.945   3.754 -32.477  1.00  0.00     0.019 A 
HETATM   21  C   UNL     1     -11.319   4.281 -31.348  1.00  0.00     0.001 A 
HETATM   22  C   UNL     1     -10.153   3.697 -30.868  1.00  0.00     0.001 A 
HETATM   23  C   UNL     1      -9.608   2.594 -31.527  1.00  0.00     0.018 A 
ENDBRANCH  14  17
ENDBRANCH  12  13
ENDBRANCH   9  12
BRANCH   7  24
HETATM   24  C   UNL     1      -4.101   1.823 -32.557  1.00  0.00     0.182 C 
BRANCH  24  25
HETATM   25  C   UNL     1      -4.944   3.093 -32.722  1.00  0.00     0.256 C 
BRANCH  25  26
HETATM   26  N   UNL     1      -4.077   4.327 -32.910  1.00  0.00    -0.070 N 
HETATM   27  H   UNL     1      -4.089   4.858 -32.029  1.00  0.00     0.279 HD
HETATM   28  C   UNL     1      -4.604   5.248 -34.000  1.00  0.00     0.235 C 
HETATM   29  C   UNL     1      -3.567   5.168 -35.101  1.00  0.00     0.029 C 
HETATM   30  C   UNL     1      -2.271   5.006 -34.337  1.00  0.00     0.029 C 
HETATM   31  C   UNL     1      -2.634   4.003 -33.262  1.00  0.00     0.235 C 
ENDBRANCH  25  26
ENDBRANCH  24  25
ENDBRANCH   7  24
TORSDOF 6
ENDMDL
MODEL 3
REMARK VINA RESULT:      -8.7      2.238      6.966
REMARK  6 active torsions:
REMARK  status: ('A' for Active; 'I' for Inactive)
REMARK    1  A    between atoms: N_7  and  C_8 
REMARK    2  A    between atoms: C_8  and  C_9 
REMARK    3  A    between atoms: C_9  and  N_10 
REMARK    4  A    between atoms: C_17  and  C_18 
REMARK    5  A    between atoms: C_18  and  N_19 
REMARK       I    between atoms: N_19  and  C_20 
REMARK    6  A    between atoms: C_20  and  C_21 
ROOT
HETATM    1  C   UNL     1      -5.985  -4.207 -35.061  1.00  0.00     0.001 A 
HETATM    2  C   UNL     1      -6.493  -2.906 -34.990  1.00  0.00     0.014 A 
HETATM    3  C   UNL     1      -5.807  -1.926 -34.263  1.00  0.00     0.008 A 
HETATM    4  C   UNL     1      -4.615  -2.256 -33.619  1.00  0.00     0.046 A 
HETATM    5  C   UNL     1      -3.878  -1.219 -32.873  1.00  0.00     0.274 A 
HETATM    6  O   UNL     1      -2.795  -1.474 -32.353  1.00  0.00    -0.266 OA
HETATM    7  N   UNL     1      -4.474   0.037 -32.804  1.00  0.00    -0.232 N 
HETATM    8  N   UNL     1      -5.629   0.369 -33.446  1.00  0.00    -0.172 NA
HETATM    9  C   UNL     1      -6.273  -0.527 -34.132  1.00  0.00     0.084 A 
HETATM   10  C   UNL     1      -4.108  -3.559 -33.692  1.00  0.00     0.018 A 
HETATM   11  C   UNL     1      -4.796  -4.533 -34.412  1.00  0.00     0.001 A 
ENDROOT
BRANCH   9  12
HETATM   12  C   UNL     1      -7.548  -0.074 -34.839  1.00  0.00     0.185 C 
BRANCH  12  13
HETATM   13  N   UNL     1      -8.179   0.980 -34.072  1.00  0.00    -0.351 N 
HETATM   14  C   UNL     1      -9.221   0.732 -33.207  1.00  0.00     0.253 C 
HETATM   15  O   UNL     1      -9.603  -0.404 -32.936  1.00  0.00    -0.268 OA
HETATM   16  H   UNL     1      -7.892   1.939 -34.229  1.00  0.00     0.163 HD
BRANCH  14  17
HETATM   17  C   UNL     1      -9.843   1.912 -32.530  1.00  0.00     0.048 A 
HETATM   18  C   UNL     1     -10.947   2.653 -32.989  1.00  0.00     0.022 A 
HETATM   19  I   UNL     1     -12.083   2.207 -34.704  1.00  0.00    -0.043 I 
HETATM   20  C   UNL     1     -11.408   3.752 -32.244  1.00  0.00     0.019 A 
HETATM   21  C   UNL     1     -10.796   4.107 -31.043  1.00  0.00     0.001 A 
HETATM   22  C   UNL     1      -9.720   3.367 -30.570  1.00  0.00     0.001 A 
HETATM   23  C   UNL     1      -9.249   2.278 -31.306  1.00  0.00     0.018 A 
ENDBRANCH  14  17
ENDBRANCH  12  13
ENDBRANCH   9  12
BRANCH   7  24
HETATM   24  C   UNL     1      -3.728   1.137 -32.206  1.00  0.00     0.182 C 
BRANCH  24  25
HETATM   25  C   UNL     1      -4.317   2.517 -32.524  1.00  0.00     0.256 C 
BRANCH  25  26
HETATM   26  N   UNL     1      -5.570   2.798 -31.711  1.00  0.00    -0.070 N 
HETATM   27  H   UNL     1      -6.244   2.043 -31.900  1.00  0.00     0.279 HD
HETATM   28  C   UNL     1      -6.237   4.107 -32.104  1.00  0.00     0.235 C 
HETATM   29  C   UNL     1      -6.056   5.004 -30.896  1.00  0.00     0.029 C 
HETATM   30  C   UNL     1      -6.145   4.035 -29.737  1.00  0.00     0.029 C 
HETATM   31  C   UNL     1      -5.317   2.859 -30.213  1.00  0.00     0.235 C 
ENDBRANCH  25  26
ENDBRANCH  24  25
ENDBRANCH   7  24
TORSDOF 6
ENDMDL
MODEL 4
REMARK VINA RESULT:      -8.6      2.297      6.148
REMARK  6 active torsions:
REMARK  status: ('A' for Active; 'I' for Inactive)
REMARK    1  A    between atoms: N_7  and  C_8 
REMARK    2  A    between atoms: C_8  and  C_9 
REMARK    3  A    between atoms: C_9  and  N_10 
REMARK    4  A    between atoms: C_17  and  C_18 
REMARK    5  A    between atoms: C_18  and  N_19 
REMARK       I    between atoms: N_19  and  C_20 
REMARK    6  A    between atoms: C_20  and  C_21 
ROOT
HETATM    1  C   UNL     1      -3.076  -3.415 -32.257  1.00  0.00     0.001 A 
HETATM    2  C   UNL     1      -3.328  -2.085 -31.905  1.00  0.00     0.014 A 
HETATM    3  C   UNL     1      -4.248  -1.330 -32.641  1.00  0.00     0.008 A 
HETATM    4  C   UNL     1      -4.913  -1.913 -33.717  1.00  0.00     0.046 A 
HETATM    5  C   UNL     1      -5.901  -1.126 -34.478  1.00  0.00     0.274 A 
HETATM    6  O   UNL     1      -6.544  -1.642 -35.389  1.00  0.00    -0.266 OA
HETATM    7  N   UNL     1      -6.057   0.205 -34.101  1.00  0.00    -0.232 N 
HETATM    8  N   UNL     1      -5.422   0.775 -33.038  1.00  0.00    -0.172 NA
HETATM    9  C   UNL     1      -4.571   0.084 -32.341  1.00  0.00     0.084 A 
HETATM   10  C   UNL     1      -4.661  -3.246 -34.068  1.00  0.00     0.018 A 
HETATM   11  C   UNL     1      -3.740  -3.994 -33.337  1.00  0.00     0.001 A 
ENDROOT
BRANCH   9  12
HETATM   12  C   UNL     1      -3.916   0.786 -31.155  1.00  0.00     0.185 C 
BRANCH  12  13
HETATM   13  N   UNL     1      -3.153   1.924 -31.625  1.00  0.00    -0.351 N 
HETATM   14  C   UNL     1      -3.522   3.220 -31.343  1.00  0.00     0.253 C 
HETATM   15  O   UNL     1      -4.444   3.495 -30.579  1.00  0.00    -0.268 OA
HETATM   16  H   UNL     1      -2.363   1.764 -32.239  1.00  0.00     0.163 HD
BRANCH  14  17
HETATM   17  C   UNL     1      -2.700   4.312 -31.949  1.00  0.00     0.048 A 
HETATM   18  C   UNL     1      -3.022   5.064 -33.093  1.00  0.00     0.022 A 
HETATM   19  I   UNL     1      -4.817   4.913 -34.182  1.00  0.00    -0.043 I 
HETATM   20  C   UNL     1      -2.134   6.051 -33.552  1.00  0.00     0.019 A 
HETATM   21  C   UNL     1      -0.943   6.311 -32.874  1.00  0.00     0.001 A 
HETATM   22  C   UNL     1      -0.629   5.591 -31.729  1.00  0.00     0.001 A 
HETATM   23  C   UNL     1      -1.500   4.601 -31.270  1.00  0.00     0.018 A 
ENDBRANCH  14  17
ENDBRANCH  12  13
ENDBRANCH   9  12
BRANCH   7  24
HETATM   24  C   UNL     1      -7.118   0.991 -34.717  1.00  0.00     0.182 C 
BRANCH  24  25
HETATM   25  C   UNL     1      -7.520   2.223 -33.897  1.00  0.00     0.256 C 
BRANCH  25  26
HETATM   26  N   UNL     1      -8.901   2.065 -33.283  1.00  0.00    -0.070 N 
HETATM   27  H   UNL     1      -9.271   3.007 -33.093  1.00  0.00     0.279 HD
HETATM   28  C   UNL     1      -8.867   1.319 -31.958  1.00  0.00     0.235 C 
HETATM   29  C   UNL     1      -9.573   0.009 -32.241  1.00  0.00     0.029 C 
HETATM   30  C   UNL     1     -10.632   0.403 -33.247  1.00  0.00     0.029 C 
HETATM   31  C   UNL     1      -9.882   1.330 -34.182  1.00  0.00     0.235 C 
ENDBRANCH  25  26
ENDBRANCH  24  25
ENDBRANCH   7  24
TORSDOF 6
ENDMDL
MODEL 5
REMARK VINA RESULT:      -8.4      2.143      7.229
REMARK  6 active torsions:
REMARK  status: ('A' for Active; 'I' for Inactive)
REMARK    1  A    between atoms: N_7  and  C_8 
REMARK    2  A    between atoms: C_8  and  C_9 
REMARK    3  A    between atoms: C_9  and  N_10 
REMARK    4  A    between atoms: C_17  and  C_18 
REMARK    5  A    between atoms: C_18  and  N_19 
REMARK       I    between atoms: N_19  and  C_20 
REMARK    6  A    between atoms: C_20  and  C_21 
ROOT
HETATM    1  C   UNL     1      -5.438  -2.813 -34.835  1.00  0.00     0.001 A 
HETATM    2  C   UNL     1      -6.303  -1.715 -34.856  1.00  0.00     0.014 A 
HETATM    3  C   UNL     1      -6.112  -0.656 -33.961  1.00  0.00     0.008 A 
HETATM    4  C   UNL     1      -5.052  -0.702 -33.057  1.00  0.00     0.046 A 
HETATM    5  C   UNL     1      -4.835   0.424 -32.130  1.00  0.00     0.274 A 
HETATM    6  O   UNL     1      -3.870   0.430 -31.370  1.00  0.00    -0.266 OA
HETATM    7  N   UNL     1      -5.769   1.455 -32.176  1.00  0.00    -0.232 N 
HETATM    8  N   UNL     1      -6.796   1.513 -33.070  1.00  0.00    -0.172 NA
HETATM    9  C   UNL     1      -6.981   0.541 -33.913  1.00  0.00     0.084 A 
HETATM   10  C   UNL     1      -4.186  -1.803 -33.037  1.00  0.00     0.018 A 
HETATM   11  C   UNL     1      -4.382  -2.857 -33.926  1.00  0.00     0.001 A 
ENDROOT
BRANCH   9  12
HETATM   12  C   UNL     1      -8.140   0.689 -34.895  1.00  0.00     0.185 C 
BRANCH  12  13
HETATM   13  N   UNL     1      -9.035   1.732 -34.437  1.00  0.00    -0.351 N 
HETATM   14  C   UNL     1     -10.183   1.453 -33.729  1.00  0.00     0.253 C 
HETATM   15  O   UNL     1     -10.461   0.323 -33.336  1.00  0.00    -0.268 OA
HETATM   16  H   UNL     1      -8.848   2.690 -34.706  1.00  0.00     0.163 HD
BRANCH  14  17
HETATM   17  C   UNL     1     -11.067   2.607 -33.379  1.00  0.00     0.048 A 
HETATM   18  C   UNL     1     -10.956   3.432 -32.246  1.00  0.00     0.022 A 
HETATM   19  I   UNL     1      -9.428   3.317 -30.803  1.00  0.00    -0.043 I 
HETATM   20  C   UNL     1     -11.879   4.472 -32.047  1.00  0.00     0.019 A 
HETATM   21  C   UNL     1     -12.895   4.711 -32.972  1.00  0.00     0.001 A 
HETATM   22  C   UNL     1     -12.998   3.917 -34.107  1.00  0.00     0.001 A 
HETATM   23  C   UNL     1     -12.091   2.876 -34.309  1.00  0.00     0.018 A 
ENDBRANCH  14  17
ENDBRANCH  12  13
ENDBRANCH   9  12
BRANCH   7  24
HETATM   24  C   UNL     1      -5.529   2.657 -31.389  1.00  0.00     0.182 C 
BRANCH  24  25
HETATM   25  C   UNL     1      -5.500   3.940 -32.229  1.00  0.00     0.256 C 
BRANCH  25  26
HETATM   26  N   UNL     1      -4.552   3.820 -33.411  1.00  0.00    -0.070 N 
HETATM   27  H   UNL     1      -4.694   2.893 -33.836  1.00  0.00     0.279 HD
HETATM   28  C   UNL     1      -3.091   3.906 -32.997  1.00  0.00     0.235 C 
HETATM   29  C   UNL     1      -2.604   5.212 -33.592  1.00  0.00     0.029 C 
HETATM   30  C   UNL     1      -3.382   5.308 -34.886  1.00  0.00     0.029 C 
HETATM   31  C   UNL     1      -4.777   4.882 -34.476  1.00  0.00     0.235 C 
ENDBRANCH  25  26
ENDBRANCH  24  25
ENDBRANCH   7  24
TORSDOF 6
ENDMDL
MODEL 6
REMARK VINA RESULT:      -8.4      2.685      5.864
REMARK  6 active torsions:
REMARK  status: ('A' for Active; 'I' for Inactive)
REMARK    1  A    between atoms: N_7  and  C_8 
REMARK    2  A    between atoms: C_8  and  C_9 
REMARK    3  A    between atoms: C_9  and  N_10 
REMARK    4  A    between atoms: C_17  and  C_18 
REMARK    5  A    between atoms: C_18  and  N_19 
REMARK       I    between atoms: N_19  and  C_20 
REMARK    6  A    between atoms: C_20  and  C_21 
ROOT
HETATM    1  C   UNL     1      -3.387  -1.476 -32.501  1.00  0.00     0.001 A 
HETATM    2  C   UNL     1      -3.992  -0.273 -32.122  1.00  0.00     0.014 A 
HETATM    3  C   UNL     1      -5.225   0.093 -32.673  1.00  0.00     0.008 A 
HETATM    4  C   UNL     1      -5.846  -0.750 -33.592  1.00  0.00     0.046 A 
HETATM    5  C   UNL     1      -7.157  -0.377 -34.155  1.00  0.00     0.274 A 
HETATM    6  O   UNL     1      -7.749  -1.137 -34.917  1.00  0.00    -0.266 OA
HETATM    7  N   UNL     1      -7.669   0.858 -33.770  1.00  0.00    -0.232 N 
HETATM    8  N   UNL     1      -7.074   1.679 -32.858  1.00  0.00    -0.172 NA
HETATM    9  C   UNL     1      -5.933   1.348 -32.331  1.00  0.00     0.084 A 
HETATM   10  C   UNL     1      -5.239  -1.955 -33.970  1.00  0.00     0.018 A 
HETATM   11  C   UNL     1      -4.009  -2.314 -33.425  1.00  0.00     0.001 A 
ENDROOT
BRANCH   9  12
HETATM   12  C   UNL     1      -5.340   2.308 -31.304  1.00  0.00     0.185 C 
BRANCH  12  13
HETATM   13  N   UNL     1      -4.671   3.397 -31.986  1.00  0.00    -0.351 N 
HETATM   14  C   UNL     1      -3.319   3.622 -31.854  1.00  0.00     0.253 C 
HETATM   15  O   UNL     1      -2.574   2.852 -31.252  1.00  0.00    -0.268 OA
HETATM   16  H   UNL     1      -5.226   4.054 -32.522  1.00  0.00     0.163 HD
BRANCH  14  17
HETATM   17  C   UNL     1      -2.756   4.823 -32.544  1.00  0.00     0.048 A 
HETATM   18  C   UNL     1      -2.826   6.155 -32.097  1.00  0.00     0.022 A 
HETATM   19  I   UNL     1      -3.653   6.780 -30.265  1.00  0.00    -0.043 I 
HETATM   20  C   UNL     1      -2.259   7.181 -32.870  1.00  0.00     0.019 A 
HETATM   21  C   UNL     1      -1.607   6.895 -34.069  1.00  0.00     0.001 A 
HETATM   22  C   UNL     1      -1.511   5.580 -34.507  1.00  0.00     0.001 A 
HETATM   23  C   UNL     1      -2.079   4.554 -33.750  1.00  0.00     0.018 A 
ENDBRANCH  14  17
ENDBRANCH  12  13
ENDBRANCH   9  12
BRANCH   7  24
HETATM   24  C   UNL     1      -9.021   1.218 -34.177  1.00  0.00     0.182 C 
BRANCH  24  25
HETATM   25  C   UNL     1     -10.097   0.776 -33.177  1.00  0.00     0.256 C 
BRANCH  25  26
HETATM   26  N   UNL     1     -11.342   1.643 -33.268  1.00  0.00    -0.070 N 
HETATM   27  H   UNL     1     -11.524   2.033 -32.333  1.00  0.00     0.279 HD
HETATM   28  C   UNL     1     -12.575   0.850 -33.673  1.00  0.00     0.235 C 
HETATM   29  C   UNL     1     -12.923   1.367 -35.054  1.00  0.00     0.029 C 
HETATM   30  C   UNL     1     -12.539   2.828 -34.977  1.00  0.00     0.029 C 
HETATM   31  C   UNL     1     -11.207   2.792 -34.255  1.00  0.00     0.235 C 
ENDBRANCH  25  26
ENDBRANCH  24  25
ENDBRANCH   7  24
TORSDOF 6
ENDMDL
MODEL 7
REMARK VINA RESULT:      -8.2      2.315      7.190
REMARK  6 active torsions:
REMARK  status: ('A' for Active; 'I' for Inactive)
REMARK    1  A    between atoms: N_7  and  C_8 
REMARK    2  A    between atoms: C_8  and  C_9 
REMARK    3  A    between atoms: C_9  and  N_10 
REMARK    4  A    between atoms: C_17  and  C_18 
REMARK    5  A    between atoms: C_18  and  N_19 
REMARK       I    between atoms: N_19  and  C_20 
REMARK    6  A    between atoms: C_20  and  C_21 
ROOT
HETATM    1  C   UNL     1      -5.776  -2.299 -34.801  1.00  0.00     0.001 A 
HETATM    2  C   UNL     1      -6.834  -1.414 -34.570  1.00  0.00     0.014 A 
HETATM    3  C   UNL     1      -6.806  -0.566 -33.457  1.00  0.00     0.008 A 
HETATM    4  C   UNL     1      -5.716  -0.606 -32.589  1.00  0.00     0.046 A 
HETATM    5  C   UNL     1      -5.673   0.305 -31.430  1.00  0.00     0.274 A 
HETATM    6  O   UNL     1      -4.692   0.329 -30.690  1.00  0.00    -0.266 OA
HETATM    7  N   UNL     1      -6.786   1.117 -31.237  1.00  0.00    -0.232 N 
HETATM    8  N   UNL     1      -7.846   1.173 -32.092  1.00  0.00    -0.172 NA
HETATM    9  C   UNL     1      -7.883   0.398 -33.135  1.00  0.00     0.084 A 
HETATM   10  C   UNL     1      -4.657  -1.492 -32.823  1.00  0.00     0.018 A 
HETATM   11  C   UNL     1      -4.691  -2.339 -33.929  1.00  0.00     0.001 A 
ENDROOT
BRANCH   9  12
HETATM   12  C   UNL     1      -9.093   0.532 -34.055  1.00  0.00     0.185 C 
BRANCH  12  13
HETATM   13  N   UNL     1     -10.199   1.110 -33.321  1.00  0.00    -0.351 N 
HETATM   14  C   UNL     1     -10.849   2.245 -33.751  1.00  0.00     0.253 C 
HETATM   15  O   UNL     1     -10.619   2.770 -34.837  1.00  0.00    -0.268 OA
HETATM   16  H   UNL     1     -10.458   0.708 -32.428  1.00  0.00     0.163 HD
BRANCH  14  17
HETATM   17  C   UNL     1     -11.925   2.793 -32.868  1.00  0.00     0.048 A 
HETATM   18  C   UNL     1     -13.278   2.411 -32.864  1.00  0.00     0.022 A 
HETATM   19  I   UNL     1     -14.112   0.873 -34.035  1.00  0.00    -0.043 I 
HETATM   20  C   UNL     1     -14.176   3.033 -31.980  1.00  0.00     0.019 A 
HETATM   21  C   UNL     1     -13.738   4.014 -31.090  1.00  0.00     0.001 A 
HETATM   22  C   UNL     1     -12.398   4.380 -31.070  1.00  0.00     0.001 A 
HETATM   23  C   UNL     1     -11.500   3.774 -31.950  1.00  0.00     0.018 A 
ENDBRANCH  14  17
ENDBRANCH  12  13
ENDBRANCH   9  12
BRANCH   7  24
HETATM   24  C   UNL     1      -6.741   2.136 -30.197  1.00  0.00     0.182 C 
BRANCH  24  25
HETATM   25  C   UNL     1      -7.260   3.504 -30.659  1.00  0.00     0.256 C 
BRANCH  25  26
HETATM   26  N   UNL     1      -6.155   4.351 -31.268  1.00  0.00    -0.070 N 
HETATM   27  H   UNL     1      -6.311   5.327 -30.980  1.00  0.00     0.279 HD
HETATM   28  C   UNL     1      -6.170   4.322 -32.789  1.00  0.00     0.235 C 
HETATM   29  C   UNL     1      -4.902   3.585 -33.168  1.00  0.00     0.029 C 
HETATM   30  C   UNL     1      -3.927   4.009 -32.091  1.00  0.00     0.029 C 
HETATM   31  C   UNL     1      -4.761   3.932 -30.829  1.00  0.00     0.235 C 
ENDBRANCH  25  26
ENDBRANCH  24  25
ENDBRANCH   7  24
TORSDOF 6
ENDMDL
MODEL 8
REMARK VINA RESULT:      -7.9     15.744     17.180
REMARK  6 active torsions:
REMARK  status: ('A' for Active; 'I' for Inactive)
REMARK    1  A    between atoms: N_7  and  C_8 
REMARK    2  A    between atoms: C_8  and  C_9 
REMARK    3  A    between atoms: C_9  and  N_10 
REMARK    4  A    between atoms: C_17  and  C_18 
REMARK    5  A    between atoms: C_18  and  N_19 
REMARK       I    between atoms: N_19  and  C_20 
REMARK    6  A    between atoms: C_20  and  C_21 
ROOT
HETATM    1  C   UNL     1       0.005 -14.381 -40.452  1.00  0.00     0.001 A 
HETATM    2  C   UNL     1      -1.345 -14.016 -40.455  1.00  0.00     0.014 A 
HETATM    3  C   UNL     1      -2.050 -13.937 -39.249  1.00  0.00     0.008 A 
HETATM    4  C   UNL     1      -1.398 -14.216 -38.050  1.00  0.00     0.046 A 
HETATM    5  C   UNL     1      -2.134 -14.109 -36.776  1.00  0.00     0.274 A 
HETATM    6  O   UNL     1      -1.559 -14.288 -35.705  1.00  0.00    -0.266 OA
HETATM    7  N   UNL     1      -3.486 -13.793 -36.866  1.00  0.00    -0.232 N 
HETATM    8  N   UNL     1      -4.125 -13.501 -38.034  1.00  0.00    -0.172 NA
HETATM    9  C   UNL     1      -3.480 -13.563 -39.161  1.00  0.00     0.084 A 
HETATM   10  C   UNL     1      -0.045 -14.580 -38.048  1.00  0.00     0.018 A 
HETATM   11  C   UNL     1       0.653 -14.664 -39.250  1.00  0.00     0.001 A 
ENDROOT
BRANCH   9  12
HETATM   12  C   UNL     1      -4.259 -13.204 -40.424  1.00  0.00     0.185 C 
BRANCH  12  13
HETATM   13  N   UNL     1      -5.680 -13.253 -40.149  1.00  0.00    -0.351 N 
HETATM   14  C   UNL     1      -6.592 -13.689 -41.084  1.00  0.00     0.253 C 
HETATM   15  O   UNL     1      -6.256 -14.176 -42.161  1.00  0.00    -0.268 OA
HETATM   16  H   UNL     1      -6.021 -12.890 -39.267  1.00  0.00     0.163 HD
BRANCH  14  17
HETATM   17  C   UNL     1      -8.039 -13.620 -40.712  1.00  0.00     0.048 A 
HETATM   18  C   UNL     1      -8.951 -14.690 -40.701  1.00  0.00     0.022 A 
HETATM   19  I   UNL     1      -8.472 -16.700 -41.100  1.00  0.00    -0.043 I 
HETATM   20  C   UNL     1     -10.290 -14.462 -40.341  1.00  0.00     0.019 A 
HETATM   21  C   UNL     1     -10.723 -13.188 -39.973  1.00  0.00     0.001 A 
HETATM   22  C   UNL     1      -9.823 -12.129 -39.957  1.00  0.00     0.001 A 
HETATM   23  C   UNL     1      -8.493 -12.344 -40.322  1.00  0.00     0.018 A 
ENDBRANCH  14  17
ENDBRANCH  12  13
ENDBRANCH   9  12
BRANCH   7  24
HETATM   24  C   UNL     1      -4.230 -13.531 -35.641  1.00  0.00     0.182 C 
BRANCH  24  25
HETATM   25  C   UNL     1      -4.888 -14.783 -35.048  1.00  0.00     0.256 C 
BRANCH  25  26
HETATM   26  N   UNL     1      -6.386 -14.810 -35.308  1.00  0.00    -0.070 N 
HETATM   27  H   UNL     1      -6.859 -14.986 -34.411  1.00  0.00     0.279 HD
HETATM   28  C   UNL     1      -6.791 -15.927 -36.258  1.00  0.00     0.235 C 
HETATM   29  C   UNL     1      -7.260 -15.212 -37.508  1.00  0.00     0.029 C 
HETATM   30  C   UNL     1      -7.899 -13.955 -36.962  1.00  0.00     0.029 C 
HETATM   31  C   UNL     1      -6.921 -13.513 -35.893  1.00  0.00     0.235 C 
ENDBRANCH  25  26
ENDBRANCH  24  25
ENDBRANCH   7  24
TORSDOF 6
ENDMDL
MODEL 9
REMARK VINA RESULT:      -7.8     15.390     16.988
REMARK  6 active torsions:
REMARK  status: ('A' for Active; 'I' for Inactive)
REMARK    1  A    between atoms: N_7  and  C_8 
REMARK    2  A    between atoms: C_8  and  C_9 
REMARK    3  A    between atoms: C_9  and  N_10 
REMARK    4  A    between atoms: C_17  and  C_18 
REMARK    5  A    between atoms: C_18  and  N_19 
REMARK       I    between atoms: N_19  and  C_20 
REMARK    6  A    between atoms: C_20  and  C_21 
ROOT
HETATM    1  C   UNL     1      -0.131 -14.070 -38.732  1.00  0.00     0.001 A 
HETATM    2  C   UNL     1      -1.390 -13.662 -38.282  1.00  0.00     0.014 A 
HETATM    3  C   UNL     1      -2.467 -13.603 -39.174  1.00  0.00     0.008 A 
HETATM    4  C   UNL     1      -2.276 -13.962 -40.508  1.00  0.00     0.046 A 
HETATM    5  C   UNL     1      -3.415 -13.924 -41.444  1.00  0.00     0.274 A 
HETATM    6  O   UNL     1      -3.281 -14.297 -42.606  1.00  0.00    -0.266 OA
HETATM    7  N   UNL     1      -4.622 -13.456 -40.933  1.00  0.00    -0.232 N 
HETATM    8  N   UNL     1      -4.819 -13.122 -39.627  1.00  0.00    -0.172 NA
HETATM    9  C   UNL     1      -3.831 -13.179 -38.784  1.00  0.00     0.084 A 
HETATM   10  C   UNL     1      -1.014 -14.372 -40.957  1.00  0.00     0.018 A 
HETATM   11  C   UNL     1       0.057 -14.423 -40.067  1.00  0.00     0.001 A 
ENDROOT
BRANCH   9  12
HETATM   12  C   UNL     1      -4.134 -12.808 -37.336  1.00  0.00     0.185 C 
BRANCH  12  13
HETATM   13  N   UNL     1      -4.792 -13.917 -36.678  1.00  0.00    -0.351 N 
HETATM   14  C   UNL     1      -6.161 -13.980 -36.541  1.00  0.00     0.253 C 
HETATM   15  O   UNL     1      -6.918 -13.169 -37.070  1.00  0.00    -0.268 OA
HETATM   16  H   UNL     1      -4.225 -14.635 -36.243  1.00  0.00     0.163 HD
BRANCH  14  17
HETATM   17  C   UNL     1      -6.720 -15.136 -35.774  1.00  0.00     0.048 A 
HETATM   18  C   UNL     1      -6.650 -15.328 -34.383  1.00  0.00     0.022 A 
HETATM   19  I   UNL     1      -5.832 -13.962 -33.006  1.00  0.00    -0.043 I 
HETATM   20  C   UNL     1      -7.212 -16.481 -33.809  1.00  0.00     0.019 A 
HETATM   21  C   UNL     1      -7.858 -17.430 -34.600  1.00  0.00     0.001 A 
HETATM   22  C   UNL     1      -7.954 -17.237 -35.972  1.00  0.00     0.001 A 
HETATM   23  C   UNL     1      -7.391 -16.099 -36.553  1.00  0.00     0.018 A 
ENDBRANCH  14  17
ENDBRANCH  12  13
ENDBRANCH   9  12
BRANCH   7  24
HETATM   24  C   UNL     1      -5.814 -13.532 -41.767  1.00  0.00     0.182 C 
BRANCH  24  25
HETATM   25  C   UNL     1      -6.905 -14.444 -41.191  1.00  0.00     0.256 C 
BRANCH  25  26
HETATM   26  N   UNL     1      -7.666 -13.770 -40.062  1.00  0.00    -0.070 N 
HETATM   27  H   UNL     1      -7.025 -13.675 -39.262  1.00  0.00     0.279 HD
HETATM   28  C   UNL     1      -8.857 -14.591 -39.591  1.00  0.00     0.235 C 
HETATM   29  C   UNL     1     -10.067 -13.776 -40.001  1.00  0.00     0.029 C 
HETATM   30  C   UNL     1      -9.588 -12.350 -39.838  1.00  0.00     0.029 C 
HETATM   31  C   UNL     1      -8.193 -12.391 -40.427  1.00  0.00     0.235 C 
ENDBRANCH  25  26
ENDBRANCH  24  25
ENDBRANCH   7  24
TORSDOF 6
ENDMDL
MODEL 10
REMARK VINA RESULT:      -7.7     15.240     16.901
REMARK  6 active torsions:
REMARK  status: ('A' for Active; 'I' for Inactive)
REMARK    1  A    between atoms: N_7  and  C_8 
REMARK    2  A    between atoms: C_8  and  C_9 
REMARK    3  A    between atoms: C_9  and  N_10 
REMARK    4  A    between atoms: C_17  and  C_18 
REMARK    5  A    between atoms: C_18  and  N_19 
REMARK       I    between atoms: N_19  and  C_20 
REMARK    6  A    between atoms: C_20  and  C_21 
ROOT
HETATM    1  C   UNL     1       0.059 -14.073 -38.785  1.00  0.00     0.001 A 
HETATM    2  C   UNL     1      -1.130 -13.517 -38.303  1.00  0.00     0.014 A 
HETATM    3  C   UNL     1      -2.265 -13.473 -39.121  1.00  0.00     0.008 A 
HETATM    4  C   UNL     1      -2.202 -13.994 -40.413  1.00  0.00     0.046 A 
HETATM    5  C   UNL     1      -3.404 -13.971 -41.268  1.00  0.00     0.274 A 
HETATM    6  O   UNL     1      -3.386 -14.482 -42.384  1.00  0.00    -0.266 OA
HETATM    7  N   UNL     1      -4.532 -13.354 -40.736  1.00  0.00    -0.232 N 
HETATM    8  N   UNL     1      -4.604 -12.859 -39.468  1.00  0.00    -0.172 NA
HETATM    9  C   UNL     1      -3.561 -12.900 -38.693  1.00  0.00     0.084 A 
HETATM   10  C   UNL     1      -1.011 -14.552 -40.894  1.00  0.00     0.018 A 
HETATM   11  C   UNL     1       0.118 -14.588 -40.079  1.00  0.00     0.001 A 
ENDROOT
BRANCH   9  12
HETATM   12  C   UNL     1      -3.726 -12.345 -37.281  1.00  0.00     0.185 C 
BRANCH  12  13
HETATM   13  N   UNL     1      -4.720 -13.119 -36.568  1.00  0.00    -0.351 N 
HETATM   14  C   UNL     1      -4.384 -14.209 -35.796  1.00  0.00     0.253 C 
HETATM   15  O   UNL     1      -3.219 -14.523 -35.563  1.00  0.00    -0.268 OA
HETATM   16  H   UNL     1      -5.700 -12.895 -36.695  1.00  0.00     0.163 HD
BRANCH  14  17
HETATM   17  C   UNL     1      -5.505 -14.977 -35.171  1.00  0.00     0.048 A 
HETATM   18  C   UNL     1      -6.085 -16.160 -35.663  1.00  0.00     0.022 A 
HETATM   19  I   UNL     1      -5.432 -17.219 -37.361  1.00  0.00    -0.043 I 
HETATM   20  C   UNL     1      -7.149 -16.757 -34.967  1.00  0.00     0.019 A 
HETATM   21  C   UNL     1      -7.626 -16.202 -33.779  1.00  0.00     0.001 A 
HETATM   22  C   UNL     1      -7.044 -15.047 -33.273  1.00  0.00     0.001 A 
HETATM   23  C   UNL     1      -5.992 -14.441 -33.962  1.00  0.00     0.018 A 
ENDBRANCH  14  17
ENDBRANCH  12  13
ENDBRANCH   9  12
BRANCH   7  24
HETATM   24  C   UNL     1      -5.786 -13.427 -41.472  1.00  0.00     0.182 C 
BRANCH  24  25
HETATM   25  C   UNL     1      -6.822 -12.391 -41.018  1.00  0.00     0.256 C 
BRANCH  25  26
HETATM   26  N   UNL     1      -8.001 -13.043 -40.314  1.00  0.00    -0.070 N 
HETATM   27  H   UNL     1      -8.847 -12.848 -40.868  1.00  0.00     0.279 HD
HETATM   28  C   UNL     1      -8.234 -12.476 -38.922  1.00  0.00     0.235 C 
HETATM   29  C   UNL     1      -7.898 -13.617 -37.985  1.00  0.00     0.029 C 
HETATM   30  C   UNL     1      -8.348 -14.837 -38.759  1.00  0.00     0.029 C 
HETATM   31  C   UNL     1      -7.857 -14.549 -40.162  1.00  0.00     0.235 C 
ENDBRANCH  25  26
ENDBRANCH  24  25
ENDBRANCH   7  24
TORSDOF 6
ENDMDL
