MODEL 1
REMARK VINA RESULT:      -8.6      0.000      0.000
REMARK  4 active torsions:
REMARK  status: ('A' for Active; 'I' for Inactive)
REMARK    1  A    between atoms: C_9  and  N_10 
REMARK       I    between atoms: N_10  and  C_11 
REMARK    2  A    between atoms: C_11  and  C_12 
REMARK    3  A    between atoms: C_14  and  C_15 
REMARK    4  A    between atoms: C_22  and  O_23 
ROOT
HETATM    1  N   UNL     1      -3.767   3.211 -32.538  1.00  0.00    -0.322 N 
HETATM    2  C   UNL     1      -3.624   1.928 -32.022  1.00  0.00     0.265 C 
HETATM    3  O   UNL     1      -2.901   1.656 -31.066  1.00  0.00    -0.267 OA
HETATM    4  H   UNL     1      -4.508   3.322 -33.221  1.00  0.00     0.169 HD
ENDROOT
BRANCH   2   5
HETATM    5  C   UNL     1      -4.433   0.929 -32.704  1.00  0.00     0.107 A 
HETATM    6  S   UNL     1      -3.741  -0.575 -33.146  1.00  0.00    -0.081 SA
HETATM    7  C   UNL     1      -5.241  -1.194 -33.690  1.00  0.00     0.018 A 
HETATM    8  C   UNL     1      -6.238  -0.242 -33.590  1.00  0.00     0.058 A 
HETATM    9  C   UNL     1      -5.774   0.987 -33.029  1.00  0.00     0.092 A 
BRANCH   7  10
HETATM   10  C   UNL     1      -5.350  -2.585 -34.139  1.00  0.00    -0.019 A 
HETATM   11  C   UNL     1      -4.289  -3.474 -33.909  1.00  0.00     0.013 A 
HETATM   12  C   UNL     1      -4.369  -4.804 -34.329  1.00  0.00     0.001 A 
HETATM   13  C   UNL     1      -5.515  -5.261 -34.978  1.00  0.00     0.000 A 
HETATM   14  C   UNL     1      -6.578  -4.390 -35.206  1.00  0.00     0.001 A 
HETATM   15  C   UNL     1      -6.498  -3.059 -34.789  1.00  0.00     0.013 A 
ENDBRANCH   7  10
BRANCH   9  16
HETATM   16  O   UNL     1      -6.472   2.129 -32.802  1.00  0.00    -0.354 OA
HETATM   17  C   UNL     1      -7.363   2.081 -31.696  1.00  0.00     0.210 C 
ENDBRANCH   9  16
ENDBRANCH   2   5
BRANCH   1  18
HETATM   18  C   UNL     1      -3.040   4.361 -32.180  1.00  0.00     0.035 A 
HETATM   19  C   UNL     1      -3.407   5.202 -31.125  1.00  0.00     0.039 A 
HETATM   20  C   UNL     1      -2.603   6.291 -30.821  1.00  0.00    -0.022 A 
HETATM   21  C   UNL     1      -2.777   7.265 -29.710  1.00  0.00     0.274 C 
HETATM   22  C   UNL     1      -1.448   6.566 -31.553  1.00  0.00    -0.025 A 
HETATM   23  N   UNL     1      -1.680   8.305 -29.918  1.00  0.00    -0.067 N 
HETATM   24  C   UNL     1      -0.978   8.702 -28.667  1.00  0.00     0.270 C 
HETATM   25  H   UNL     1      -2.143   9.130 -30.315  1.00  0.00     0.280 HD
HETATM   26  C   UNL     1      -0.755   7.765 -31.007  1.00  0.00     0.273 C 
HETATM   27  C   UNL     1      -1.066   5.748 -32.602  1.00  0.00     0.012 A 
HETATM   28  C   UNL     1      -1.864   4.638 -32.905  1.00  0.00     0.030 A 
ENDBRANCH   1  18
TORSDOF 4
ENDMDL
MODEL 2
REMARK VINA RESULT:      -8.1      4.816      7.395
REMARK  4 active torsions:
REMARK  status: ('A' for Active; 'I' for Inactive)
REMARK    1  A    between atoms: C_9  and  N_10 
REMARK       I    between atoms: N_10  and  C_11 
REMARK    2  A    between atoms: C_11  and  C_12 
REMARK    3  A    between atoms: C_14  and  C_15 
REMARK    4  A    between atoms: C_22  and  O_23 
ROOT
HETATM    1  N   UNL     1      -9.353   2.329 -34.526  1.00  0.00    -0.322 N 
HETATM    2  C   UNL     1      -8.654   2.164 -33.336  1.00  0.00     0.265 C 
HETATM    3  O   UNL     1      -8.929   2.761 -32.297  1.00  0.00    -0.267 OA
HETATM    4  H   UNL     1      -9.125   1.666 -35.257  1.00  0.00     0.169 HD
ENDROOT
BRANCH   2   5
HETATM    5  C   UNL     1      -7.574   1.193 -33.421  1.00  0.00     0.107 A 
HETATM    6  S   UNL     1      -7.935  -0.469 -33.640  1.00  0.00    -0.081 SA
HETATM    7  C   UNL     1      -6.283  -0.886 -33.801  1.00  0.00     0.018 A 
HETATM    8  C   UNL     1      -5.471   0.219 -33.628  1.00  0.00     0.058 A 
HETATM    9  C   UNL     1      -6.213   1.419 -33.401  1.00  0.00     0.092 A 
BRANCH   7  10
HETATM   10  C   UNL     1      -5.894  -2.261 -34.127  1.00  0.00    -0.019 A 
HETATM   11  C   UNL     1      -6.845  -3.143 -34.663  1.00  0.00     0.013 A 
HETATM   12  C   UNL     1      -6.498  -4.459 -34.981  1.00  0.00     0.001 A 
HETATM   13  C   UNL     1      -5.194  -4.904 -34.772  1.00  0.00     0.000 A 
HETATM   14  C   UNL     1      -4.239  -4.036 -34.247  1.00  0.00     0.001 A 
HETATM   15  C   UNL     1      -4.586  -2.721 -33.926  1.00  0.00     0.013 A 
ENDBRANCH   7  10
BRANCH   9  16
HETATM   16  O   UNL     1      -5.743   2.674 -33.179  1.00  0.00    -0.354 OA
HETATM   17  C   UNL     1      -4.881   2.804 -32.057  1.00  0.00     0.210 C 
ENDBRANCH   9  16
ENDBRANCH   2   5
BRANCH   1  18
HETATM   18  C   UNL     1     -10.364   3.270 -34.799  1.00  0.00     0.035 A 
HETATM   19  C   UNL     1     -10.111   4.632 -34.989  1.00  0.00     0.039 A 
HETATM   20  C   UNL     1     -11.168   5.477 -35.295  1.00  0.00    -0.022 A 
HETATM   21  C   UNL     1     -11.109   6.933 -35.594  1.00  0.00     0.274 C 
HETATM   22  C   UNL     1     -12.473   4.995 -35.404  1.00  0.00    -0.025 A 
HETATM   23  N   UNL     1     -12.564   7.366 -35.747  1.00  0.00    -0.067 N 
HETATM   24  C   UNL     1     -12.807   8.275 -36.900  1.00  0.00     0.270 C 
HETATM   25  H   UNL     1     -12.806   7.859 -34.880  1.00  0.00     0.280 HD
HETATM   26  C   UNL     1     -13.408   6.094 -35.769  1.00  0.00     0.273 C 
HETATM   27  C   UNL     1     -12.746   3.650 -35.220  1.00  0.00     0.012 A 
HETATM   28  C   UNL     1     -11.681   2.789 -34.926  1.00  0.00     0.030 A 
ENDBRANCH   1  18
TORSDOF 4
ENDMDL
MODEL 3
REMARK VINA RESULT:      -8.0      2.393      9.407
REMARK  4 active torsions:
REMARK  status: ('A' for Active; 'I' for Inactive)
REMARK    1  A    between atoms: C_9  and  N_10 
REMARK       I    between atoms: N_10  and  C_11 
REMARK    2  A    between atoms: C_11  and  C_12 
REMARK    3  A    between atoms: C_14  and  C_15 
REMARK    4  A    between atoms: C_22  and  O_23 
ROOT
HETATM    1  N   UNL     1      -5.254   1.841 -32.375  1.00  0.00    -0.322 N 
HETATM    2  C   UNL     1      -5.250   3.103 -32.959  1.00  0.00     0.265 C 
HETATM    3  O   UNL     1      -5.718   3.339 -34.071  1.00  0.00    -0.267 OA
HETATM    4  H   UNL     1      -4.980   1.816 -31.400  1.00  0.00     0.169 HD
ENDROOT
BRANCH   2   5
HETATM    5  C   UNL     1      -4.660   4.135 -32.120  1.00  0.00     0.107 A 
HETATM    6  S   UNL     1      -2.971   4.139 -31.831  1.00  0.00    -0.081 SA
HETATM    7  C   UNL     1      -3.042   5.623 -30.981  1.00  0.00     0.018 A 
HETATM    8  C   UNL     1      -4.344   6.071 -30.869  1.00  0.00     0.058 A 
HETATM    9  C   UNL     1      -5.282   5.211 -31.518  1.00  0.00     0.092 A 
BRANCH   7  10
HETATM   10  C   UNL     1      -1.811   6.271 -30.516  1.00  0.00    -0.019 A 
HETATM   11  C   UNL     1      -0.629   6.128 -31.258  1.00  0.00     0.013 A 
HETATM   12  C   UNL     1       0.556   6.735 -30.834  1.00  0.00     0.001 A 
HETATM   13  C   UNL     1       0.569   7.497 -29.667  1.00  0.00     0.000 A 
HETATM   14  C   UNL     1      -0.601   7.652 -28.926  1.00  0.00     0.001 A 
HETATM   15  C   UNL     1      -1.785   7.043 -29.347  1.00  0.00     0.013 A 
ENDBRANCH   7  10
BRANCH   9  16
HETATM   16  O   UNL     1      -6.632   5.335 -31.594  1.00  0.00    -0.354 OA
HETATM   17  C   UNL     1      -7.095   6.346 -32.479  1.00  0.00     0.210 C 
ENDBRANCH   9  16
ENDBRANCH   2   5
BRANCH   1  18
HETATM   18  C   UNL     1      -5.641   0.626 -32.970  1.00  0.00     0.035 A 
HETATM   19  C   UNL     1      -4.728  -0.348 -33.387  1.00  0.00     0.039 A 
HETATM   20  C   UNL     1      -5.207  -1.533 -33.926  1.00  0.00    -0.022 A 
HETATM   21  C   UNL     1      -4.417  -2.713 -34.369  1.00  0.00     0.274 C 
HETATM   22  C   UNL     1      -6.575  -1.763 -34.069  1.00  0.00    -0.025 A 
HETATM   23  N   UNL     1      -5.439  -3.671 -34.973  1.00  0.00    -0.067 N 
HETATM   24  C   UNL     1      -5.244  -5.092 -34.577  1.00  0.00     0.270 C 
HETATM   25  H   UNL     1      -5.333  -3.593 -35.991  1.00  0.00     0.280 HD
HETATM   26  C   UNL     1      -6.821  -3.115 -34.641  1.00  0.00     0.273 C 
HETATM   27  C   UNL     1      -7.497  -0.813 -33.664  1.00  0.00     0.012 A 
HETATM   28  C   UNL     1      -7.021   0.379 -33.105  1.00  0.00     0.030 A 
ENDBRANCH   1  18
TORSDOF 4
ENDMDL
MODEL 4
REMARK VINA RESULT:      -7.7      2.891      3.792
REMARK  4 active torsions:
REMARK  status: ('A' for Active; 'I' for Inactive)
REMARK    1  A    between atoms: C_9  and  N_10 
REMARK       I    between atoms: N_10  and  C_11 
REMARK    2  A    between atoms: C_11  and  C_12 
REMARK    3  A    between atoms: C_14  and  C_15 
REMARK    4  A    between atoms: C_22  and  O_23 
ROOT
HETATM    1  N   UNL     1      -6.711   2.725 -31.536  1.00  0.00    -0.322 N 
HETATM    2  C   UNL     1      -6.605   2.767 -32.921  1.00  0.00     0.265 C 
HETATM    3  O   UNL     1      -6.394   3.797 -33.557  1.00  0.00    -0.267 OA
HETATM    4  H   UNL     1      -6.729   1.797 -31.131  1.00  0.00     0.169 HD
ENDROOT
BRANCH   2   5
HETATM    5  C   UNL     1      -6.740   1.465 -33.558  1.00  0.00     0.107 A 
HETATM    6  S   UNL     1      -5.499   0.296 -33.384  1.00  0.00    -0.081 SA
HETATM    7  C   UNL     1      -6.407  -0.903 -34.201  1.00  0.00     0.018 A 
HETATM    8  C   UNL     1      -7.611  -0.396 -34.651  1.00  0.00     0.058 A 
HETATM    9  C   UNL     1      -7.803   0.973 -34.288  1.00  0.00     0.092 A 
BRANCH   7  10
HETATM   10  C   UNL     1      -5.897  -2.273 -34.310  1.00  0.00    -0.019 A 
HETATM   11  C   UNL     1      -6.743  -3.295 -34.768  1.00  0.00     0.013 A 
HETATM   12  C   UNL     1      -6.280  -4.608 -34.879  1.00  0.00     0.001 A 
HETATM   13  C   UNL     1      -4.962  -4.912 -34.540  1.00  0.00     0.000 A 
HETATM   14  C   UNL     1      -4.110  -3.905 -34.092  1.00  0.00     0.001 A 
HETATM   15  C   UNL     1      -4.573  -2.592 -33.977  1.00  0.00     0.013 A 
ENDBRANCH   7  10
BRANCH   9  16
HETATM   16  O   UNL     1      -8.854   1.784 -34.574  1.00  0.00    -0.354 OA
HETATM   17  C   UNL     1     -10.102   1.365 -34.038  1.00  0.00     0.210 C 
ENDBRANCH   9  16
ENDBRANCH   2   5
BRANCH   1  18
HETATM   18  C   UNL     1      -6.743   3.818 -30.649  1.00  0.00     0.035 A 
HETATM   19  C   UNL     1      -5.593   4.480 -30.207  1.00  0.00     0.039 A 
HETATM   20  C   UNL     1      -5.728   5.573 -29.365  1.00  0.00    -0.022 A 
HETATM   21  C   UNL     1      -4.648   6.448 -28.834  1.00  0.00     0.274 C 
HETATM   22  C   UNL     1      -6.983   6.015 -28.945  1.00  0.00    -0.025 A 
HETATM   23  N   UNL     1      -5.350   7.412 -27.882  1.00  0.00    -0.067 N 
HETATM   24  C   UNL     1      -4.900   8.824 -28.009  1.00  0.00     0.270 C 
HETATM   25  H   UNL     1      -5.136   7.080 -26.934  1.00  0.00     0.280 HD
HETATM   26  C   UNL     1      -6.852   7.217 -28.077  1.00  0.00     0.273 C 
HETATM   27  C   UNL     1      -8.135   5.374 -29.369  1.00  0.00     0.012 A 
HETATM   28  C   UNL     1      -8.007   4.279 -30.232  1.00  0.00     0.030 A 
ENDBRANCH   1  18
TORSDOF 4
ENDMDL
MODEL 5
REMARK VINA RESULT:      -7.7      1.938      2.599
REMARK  4 active torsions:
REMARK  status: ('A' for Active; 'I' for Inactive)
REMARK    1  A    between atoms: C_9  and  N_10 
REMARK       I    between atoms: N_10  and  C_11 
REMARK    2  A    between atoms: C_11  and  C_12 
REMARK    3  A    between atoms: C_14  and  C_15 
REMARK    4  A    between atoms: C_22  and  O_23 
ROOT
HETATM    1  N   UNL     1      -5.933   3.544 -32.975  1.00  0.00    -0.322 N 
HETATM    2  C   UNL     1      -6.764   2.562 -32.449  1.00  0.00     0.265 C 
HETATM    3  O   UNL     1      -7.418   2.705 -31.418  1.00  0.00    -0.267 OA
HETATM    4  H   UNL     1      -5.577   3.357 -33.905  1.00  0.00     0.169 HD
ENDROOT
BRANCH   2   5
HETATM    5  C   UNL     1      -6.814   1.347 -33.249  1.00  0.00     0.107 A 
HETATM    6  S   UNL     1      -5.646   0.116 -33.007  1.00  0.00    -0.081 SA
HETATM    7  C   UNL     1      -6.424  -0.944 -34.102  1.00  0.00     0.018 A 
HETATM    8  C   UNL     1      -7.522  -0.340 -34.686  1.00  0.00     0.058 A 
HETATM    9  C   UNL     1      -7.745   0.985 -34.202  1.00  0.00     0.092 A 
BRANCH   7  10
HETATM   10  C   UNL     1      -5.931  -2.313 -34.285  1.00  0.00    -0.019 A 
HETATM   11  C   UNL     1      -4.604  -2.623 -33.953  1.00  0.00     0.013 A 
HETATM   12  C   UNL     1      -4.112  -3.920 -34.121  1.00  0.00     0.001 A 
HETATM   13  C   UNL     1      -4.945  -4.922 -34.616  1.00  0.00     0.000 A 
HETATM   14  C   UNL     1      -6.267  -4.628 -34.942  1.00  0.00     0.001 A 
HETATM   15  C   UNL     1      -6.759  -3.331 -34.779  1.00  0.00     0.013 A 
ENDBRANCH   7  10
BRANCH   9  16
HETATM   16  O   UNL     1      -8.714   1.865 -34.564  1.00  0.00    -0.354 OA
HETATM   17  C   UNL     1     -10.021   1.543 -34.108  1.00  0.00     0.210 C 
ENDBRANCH   9  16
ENDBRANCH   2   5
BRANCH   1  18
HETATM   18  C   UNL     1      -5.581   4.772 -32.383  1.00  0.00     0.035 A 
HETATM   19  C   UNL     1      -4.447   4.939 -31.583  1.00  0.00     0.039 A 
HETATM   20  C   UNL     1      -4.161   6.199 -31.077  1.00  0.00    -0.022 A 
HETATM   21  C   UNL     1      -2.982   6.604 -30.264  1.00  0.00     0.274 C 
HETATM   22  C   UNL     1      -4.986   7.291 -31.342  1.00  0.00    -0.025 A 
HETATM   23  N   UNL     1      -3.237   8.062 -29.895  1.00  0.00    -0.067 N 
HETATM   24  C   UNL     1      -2.041   8.937 -30.029  1.00  0.00     0.270 C 
HETATM   25  H   UNL     1      -3.536   8.058 -28.913  1.00  0.00     0.280 HD
HETATM   26  C   UNL     1      -4.442   8.525 -30.710  1.00  0.00     0.273 C 
HETATM   27  C   UNL     1      -6.115   7.148 -32.130  1.00  0.00     0.012 A 
HETATM   28  C   UNL     1      -6.402   5.883 -32.658  1.00  0.00     0.030 A 
ENDBRANCH   1  18
TORSDOF 4
ENDMDL
MODEL 6
REMARK VINA RESULT:      -7.7      4.641      7.411
REMARK  4 active torsions:
REMARK  status: ('A' for Active; 'I' for Inactive)
REMARK    1  A    between atoms: C_9  and  N_10 
REMARK       I    between atoms: N_10  and  C_11 
REMARK    2  A    between atoms: C_11  and  C_12 
REMARK    3  A    between atoms: C_14  and  C_15 
REMARK    4  A    between atoms: C_22  and  O_23 
ROOT
HETATM    1  N   UNL     1      -9.378   2.295 -33.920  1.00  0.00    -0.322 N 
HETATM    2  C   UNL     1      -8.315   2.383 -33.029  1.00  0.00     0.265 C 
HETATM    3  O   UNL     1      -8.235   3.236 -32.148  1.00  0.00    -0.267 OA
HETATM    4  H   UNL     1      -9.397   1.457 -34.490  1.00  0.00     0.169 HD
ENDROOT
BRANCH   2   5
HETATM    5  C   UNL     1      -7.307   1.350 -33.216  1.00  0.00     0.107 A 
HETATM    6  S   UNL     1      -7.786  -0.284 -33.415  1.00  0.00    -0.081 SA
HETATM    7  C   UNL     1      -6.182  -0.797 -33.724  1.00  0.00     0.018 A 
HETATM    8  C   UNL     1      -5.293   0.256 -33.614  1.00  0.00     0.058 A 
HETATM    9  C   UNL     1      -5.938   1.494 -33.314  1.00  0.00     0.092 A 
BRANCH   7  10
HETATM   10  C   UNL     1      -5.907  -2.189 -34.094  1.00  0.00    -0.019 A 
HETATM   11  C   UNL     1      -4.617  -2.712 -33.918  1.00  0.00     0.013 A 
HETATM   12  C   UNL     1      -4.331  -4.034 -34.265  1.00  0.00     0.001 A 
HETATM   13  C   UNL     1      -5.335  -4.850 -34.785  1.00  0.00     0.000 A 
HETATM   14  C   UNL     1      -6.621  -4.345 -34.957  1.00  0.00     0.001 A 
HETATM   15  C   UNL     1      -6.908  -3.021 -34.614  1.00  0.00     0.013 A 
ENDBRANCH   7  10
BRANCH   9  16
HETATM   16  O   UNL     1      -5.376   2.716 -33.124  1.00  0.00    -0.354 OA
HETATM   17  C   UNL     1      -4.632   2.856 -31.921  1.00  0.00     0.210 C 
ENDBRANCH   9  16
ENDBRANCH   2   5
BRANCH   1  18
HETATM   18  C   UNL     1     -10.441   3.204 -34.073  1.00  0.00     0.035 A 
HETATM   19  C   UNL     1     -11.618   3.141 -33.321  1.00  0.00     0.039 A 
HETATM   20  C   UNL     1     -12.594   4.108 -33.515  1.00  0.00    -0.022 A 
HETATM   21  C   UNL     1     -13.880   4.259 -32.783  1.00  0.00     0.274 C 
HETATM   22  C   UNL     1     -12.426   5.129 -34.450  1.00  0.00    -0.025 A 
HETATM   23  N   UNL     1     -14.600   5.410 -33.478  1.00  0.00    -0.067 N 
HETATM   24  C   UNL     1     -15.242   6.374 -32.543  1.00  0.00     0.270 C 
HETATM   25  H   UNL     1     -15.327   4.980 -34.060  1.00  0.00     0.280 HD
HETATM   26  C   UNL     1     -13.599   6.046 -34.439  1.00  0.00     0.273 C 
HETATM   27  C   UNL     1     -11.270   5.211 -35.206  1.00  0.00     0.012 A 
HETATM   28  C   UNL     1     -10.274   4.248 -35.004  1.00  0.00     0.030 A 
ENDBRANCH   1  18
TORSDOF 4
ENDMDL
MODEL 7
REMARK VINA RESULT:      -7.6      5.934     10.011
REMARK  4 active torsions:
REMARK  status: ('A' for Active; 'I' for Inactive)
REMARK    1  A    between atoms: C_9  and  N_10 
REMARK       I    between atoms: N_10  and  C_11 
REMARK    2  A    between atoms: C_11  and  C_12 
REMARK    3  A    between atoms: C_14  and  C_15 
REMARK    4  A    between atoms: C_22  and  O_23 
ROOT
HETATM    1  N   UNL     1      -9.688   0.923 -33.204  1.00  0.00    -0.322 N 
HETATM    2  C   UNL     1     -10.118   2.201 -33.543  1.00  0.00     0.265 C 
HETATM    3  O   UNL     1      -9.447   2.990 -34.204  1.00  0.00    -0.267 OA
HETATM    4  H   UNL     1     -10.395   0.324 -32.794  1.00  0.00     0.169 HD
ENDROOT
BRANCH   2   5
HETATM    5  C   UNL     1     -11.455   2.515 -33.064  1.00  0.00     0.107 A 
HETATM    6  S   UNL     1     -11.691   3.831 -31.991  1.00  0.00    -0.081 SA
HETATM    7  C   UNL     1     -13.394   3.663 -32.036  1.00  0.00     0.018 A 
HETATM    8  C   UNL     1     -13.767   2.580 -32.810  1.00  0.00     0.058 A 
HETATM    9  C   UNL     1     -12.651   1.911 -33.398  1.00  0.00     0.092 A 
BRANCH   7  10
HETATM   10  C   UNL     1     -14.253   4.628 -31.343  1.00  0.00    -0.019 A 
HETATM   11  C   UNL     1     -15.542   4.888 -31.833  1.00  0.00     0.013 A 
HETATM   12  C   UNL     1     -16.377   5.805 -31.191  1.00  0.00     0.001 A 
HETATM   13  C   UNL     1     -15.934   6.467 -30.047  1.00  0.00     0.000 A 
HETATM   14  C   UNL     1     -14.659   6.212 -29.546  1.00  0.00     0.001 A 
HETATM   15  C   UNL     1     -13.822   5.298 -30.189  1.00  0.00     0.013 A 
ENDBRANCH   7  10
BRANCH   9  16
HETATM   16  O   UNL     1     -12.648   0.813 -34.196  1.00  0.00    -0.354 OA
HETATM   17  C   UNL     1     -13.475  -0.255 -33.754  1.00  0.00     0.210 C 
ENDBRANCH   9  16
ENDBRANCH   2   5
BRANCH   1  18
HETATM   18  C   UNL     1      -8.412   0.367 -33.414  1.00  0.00     0.035 A 
HETATM   19  C   UNL     1      -7.464   0.220 -32.397  1.00  0.00     0.039 A 
HETATM   20  C   UNL     1      -6.248  -0.378 -32.693  1.00  0.00    -0.022 A 
HETATM   21  C   UNL     1      -5.135  -0.684 -31.753  1.00  0.00     0.274 C 
HETATM   22  C   UNL     1      -5.952  -0.821 -33.981  1.00  0.00    -0.025 A 
HETATM   23  N   UNL     1      -4.014  -1.231 -32.631  1.00  0.00    -0.067 N 
HETATM   24  C   UNL     1      -3.332  -2.428 -32.066  1.00  0.00     0.270 C 
HETATM   25  H   UNL     1      -3.329  -0.472 -32.722  1.00  0.00     0.280 HD
HETATM   26  C   UNL     1      -4.603  -1.449 -34.023  1.00  0.00     0.273 C 
HETATM   27  C   UNL     1      -6.875  -0.685 -35.004  1.00  0.00     0.012 A 
HETATM   28  C   UNL     1      -8.112  -0.097 -34.709  1.00  0.00     0.030 A 
ENDBRANCH   1  18
TORSDOF 4
ENDMDL
MODEL 8
REMARK VINA RESULT:      -7.6      5.509      9.215
REMARK  4 active torsions:
REMARK  status: ('A' for Active; 'I' for Inactive)
REMARK    1  A    between atoms: C_9  and  N_10 
REMARK       I    between atoms: N_10  and  C_11 
REMARK    2  A    between atoms: C_11  and  C_12 
REMARK    3  A    between atoms: C_14  and  C_15 
REMARK    4  A    between atoms: C_22  and  O_23 
ROOT
HETATM    1  N   UNL     1      -8.792   0.985 -33.123  1.00  0.00    -0.322 N 
HETATM    2  C   UNL     1      -8.850   2.352 -33.366  1.00  0.00     0.265 C 
HETATM    3  O   UNL     1      -7.954   2.983 -33.923  1.00  0.00    -0.267 OA
HETATM    4  H   UNL     1      -9.656   0.566 -32.801  1.00  0.00     0.169 HD
ENDROOT
BRANCH   2   5
HETATM    5  C   UNL     1     -10.088   2.973 -32.921  1.00  0.00     0.107 A 
HETATM    6  S   UNL     1     -11.595   2.337 -33.433  1.00  0.00    -0.081 SA
HETATM    7  C   UNL     1     -12.476   3.412 -32.435  1.00  0.00     0.018 A 
HETATM    8  C   UNL     1     -11.631   4.281 -31.770  1.00  0.00     0.058 A 
HETATM    9  C   UNL     1     -10.253   4.036 -32.055  1.00  0.00     0.092 A 
BRANCH   7  10
HETATM   10  C   UNL     1     -13.935   3.305 -32.336  1.00  0.00    -0.019 A 
HETATM   11  C   UNL     1     -14.562   2.081 -32.616  1.00  0.00     0.013 A 
HETATM   12  C   UNL     1     -15.951   1.956 -32.530  1.00  0.00     0.001 A 
HETATM   13  C   UNL     1     -16.727   3.052 -32.157  1.00  0.00     0.000 A 
HETATM   14  C   UNL     1     -16.116   4.271 -31.871  1.00  0.00     0.001 A 
HETATM   15  C   UNL     1     -14.727   4.398 -31.959  1.00  0.00     0.013 A 
ENDBRANCH   7  10
BRANCH   9  16
HETATM   16  O   UNL     1      -9.163   4.701 -31.593  1.00  0.00    -0.354 OA
HETATM   17  C   UNL     1      -9.219   5.068 -30.221  1.00  0.00     0.210 C 
ENDBRANCH   9  16
ENDBRANCH   2   5
BRANCH   1  18
HETATM   18  C   UNL     1      -7.694   0.128 -33.325  1.00  0.00     0.035 A 
HETATM   19  C   UNL     1      -6.613   0.046 -32.441  1.00  0.00     0.039 A 
HETATM   20  C   UNL     1      -5.596  -0.859 -32.704  1.00  0.00    -0.022 A 
HETATM   21  C   UNL     1      -4.399  -1.147 -31.868  1.00  0.00     0.274 C 
HETATM   22  C   UNL     1      -5.627  -1.677 -33.833  1.00  0.00    -0.025 A 
HETATM   23  N   UNL     1      -3.572  -2.136 -32.685  1.00  0.00    -0.067 N 
HETATM   24  C   UNL     1      -3.017  -3.262 -31.888  1.00  0.00     0.270 C 
HETATM   25  H   UNL     1      -2.795  -1.595 -33.082  1.00  0.00     0.280 HD
HETATM   26  C   UNL     1      -4.438  -2.573 -33.864  1.00  0.00     0.273 C 
HETATM   27  C   UNL     1      -6.686  -1.613 -34.722  1.00  0.00     0.012 A 
HETATM   28  C   UNL     1      -7.724  -0.712 -34.455  1.00  0.00     0.030 A 
ENDBRANCH   1  18
TORSDOF 4
ENDMDL
MODEL 9
REMARK VINA RESULT:      -7.4      4.588      6.941
REMARK  4 active torsions:
REMARK  status: ('A' for Active; 'I' for Inactive)
REMARK    1  A    between atoms: C_9  and  N_10 
REMARK       I    between atoms: N_10  and  C_11 
REMARK    2  A    between atoms: C_11  and  C_12 
REMARK    3  A    between atoms: C_14  and  C_15 
REMARK    4  A    between atoms: C_22  and  O_23 
ROOT
HETATM    1  N   UNL     1      -8.681   3.024 -34.171  1.00  0.00    -0.322 N 
HETATM    2  C   UNL     1      -8.529   2.185 -33.073  1.00  0.00     0.265 C 
HETATM    3  O   UNL     1      -9.229   2.252 -32.064  1.00  0.00    -0.267 OA
HETATM    4  H   UNL     1      -8.148   2.762 -34.992  1.00  0.00     0.169 HD
ENDROOT
BRANCH   2   5
HETATM    5  C   UNL     1      -7.477   1.194 -33.235  1.00  0.00     0.107 A 
HETATM    6  S   UNL     1      -7.884  -0.454 -33.472  1.00  0.00    -0.081 SA
HETATM    7  C   UNL     1      -6.252  -0.902 -33.726  1.00  0.00     0.018 A 
HETATM    8  C   UNL     1      -5.408   0.182 -33.570  1.00  0.00     0.058 A 
HETATM    9  C   UNL     1      -6.111   1.391 -33.279  1.00  0.00     0.092 A 
BRANCH   7  10
HETATM   10  C   UNL     1      -5.910  -2.277 -34.103  1.00  0.00    -0.019 A 
HETATM   11  C   UNL     1      -4.601  -2.745 -33.909  1.00  0.00     0.013 A 
HETATM   12  C   UNL     1      -4.252  -4.051 -34.261  1.00  0.00     0.001 A 
HETATM   13  C   UNL     1      -5.211  -4.905 -34.805  1.00  0.00     0.000 A 
HETATM   14  C   UNL     1      -6.515  -4.454 -34.996  1.00  0.00     0.001 A 
HETATM   15  C   UNL     1      -6.865  -3.147 -34.647  1.00  0.00     0.013 A 
ENDBRANCH   7  10
BRANCH   9  16
HETATM   16  O   UNL     1      -5.604   2.630 -33.053  1.00  0.00    -0.354 OA
HETATM   17  C   UNL     1      -4.559   2.687 -32.091  1.00  0.00     0.210 C 
ENDBRANCH   9  16
ENDBRANCH   2   5
BRANCH   1  18
HETATM   18  C   UNL     1      -9.522   4.148 -34.277  1.00  0.00     0.035 A 
HETATM   19  C   UNL     1     -10.781   4.108 -34.884  1.00  0.00     0.039 A 
HETATM   20  C   UNL     1     -11.555   5.259 -34.905  1.00  0.00    -0.022 A 
HETATM   21  C   UNL     1     -12.934   5.414 -35.439  1.00  0.00     0.274 C 
HETATM   22  C   UNL     1     -11.097   6.450 -34.343  1.00  0.00    -0.025 A 
HETATM   23  N   UNL     1     -13.247   6.902 -35.303  1.00  0.00    -0.067 N 
HETATM   24  C   UNL     1     -14.614   7.188 -34.788  1.00  0.00     0.270 C 
HETATM   25  H   UNL     1     -13.159   7.298 -36.245  1.00  0.00     0.280 HD
HETATM   26  C   UNL     1     -12.126   7.519 -34.470  1.00  0.00     0.273 C 
HETATM   27  C   UNL     1      -9.854   6.513 -33.737  1.00  0.00     0.012 A 
HETATM   28  C   UNL     1      -9.073   5.351 -33.699  1.00  0.00     0.030 A 
ENDBRANCH   1  18
TORSDOF 4
ENDMDL
MODEL 10
REMARK VINA RESULT:      -7.3      5.853      9.736
REMARK  4 active torsions:
REMARK  status: ('A' for Active; 'I' for Inactive)
REMARK    1  A    between atoms: C_9  and  N_10 
REMARK       I    between atoms: N_10  and  C_11 
REMARK    2  A    between atoms: C_11  and  C_12 
REMARK    3  A    between atoms: C_14  and  C_15 
REMARK    4  A    between atoms: C_22  and  O_23 
ROOT
HETATM    1  N   UNL     1      -8.787   1.775 -34.736  1.00  0.00    -0.322 N 
HETATM    2  C   UNL     1      -9.628   2.320 -33.773  1.00  0.00     0.265 C 
HETATM    3  O   UNL     1      -9.460   2.179 -32.564  1.00  0.00    -0.267 OA
HETATM    4  H   UNL     1      -8.949   2.096 -35.683  1.00  0.00     0.169 HD
ENDROOT
BRANCH   2   5
HETATM    5  C   UNL     1     -10.722   3.103 -34.327  1.00  0.00     0.107 A 
HETATM    6  S   UNL     1     -10.640   4.816 -34.314  1.00  0.00    -0.081 SA
HETATM    7  C   UNL     1     -12.087   4.970 -35.214  1.00  0.00     0.018 A 
HETATM    8  C   UNL     1     -12.652   3.733 -35.464  1.00  0.00     0.058 A 
HETATM    9  C   UNL     1     -11.871   2.655 -34.947  1.00  0.00     0.092 A 
BRANCH   7  10
HETATM   10  C   UNL     1     -12.552   6.290 -35.651  1.00  0.00    -0.019 A 
HETATM   11  C   UNL     1     -13.717   6.395 -36.426  1.00  0.00     0.013 A 
HETATM   12  C   UNL     1     -14.177   7.641 -36.855  1.00  0.00     0.001 A 
HETATM   13  C   UNL     1     -13.481   8.798 -36.508  1.00  0.00     0.000 A 
HETATM   14  C   UNL     1     -12.327   8.708 -35.733  1.00  0.00     0.001 A 
HETATM   15  C   UNL     1     -11.863   7.461 -35.306  1.00  0.00     0.013 A 
ENDBRANCH   7  10
BRANCH   9  16
HETATM   16  O   UNL     1     -12.130   1.323 -34.998  1.00  0.00    -0.354 OA
HETATM   17  C   UNL     1     -13.406   0.938 -34.503  1.00  0.00     0.210 C 
ENDBRANCH   9  16
ENDBRANCH   2   5
BRANCH   1  18
HETATM   18  C   UNL     1      -7.720   0.881 -34.530  1.00  0.00     0.035 A 
HETATM   19  C   UNL     1      -6.585   1.203 -33.778  1.00  0.00     0.039 A 
HETATM   20  C   UNL     1      -5.603   0.240 -33.597  1.00  0.00    -0.022 A 
HETATM   21  C   UNL     1      -4.359   0.354 -32.789  1.00  0.00     0.274 C 
HETATM   22  C   UNL     1      -5.723  -1.032 -34.157  1.00  0.00    -0.025 A 
HETATM   23  N   UNL     1      -3.606  -0.951 -33.034  1.00  0.00    -0.067 N 
HETATM   24  C   UNL     1      -3.019  -1.550 -31.805  1.00  0.00     0.270 C 
HETATM   25  H   UNL     1      -2.847  -0.721 -33.685  1.00  0.00     0.280 HD
HETATM   26  C   UNL     1      -4.555  -1.879 -33.788  1.00  0.00     0.273 C 
HETATM   27  C   UNL     1      -6.837  -1.372 -34.905  1.00  0.00     0.012 A 
HETATM   28  C   UNL     1      -7.840  -0.410 -35.079  1.00  0.00     0.030 A 
ENDBRANCH   1  18
TORSDOF 4
ENDMDL
