MODEL 1
REMARK VINA RESULT:      -8.3      0.000      0.000
REMARK  3 active torsions:
REMARK  status: ('A' for Active; 'I' for Inactive)
REMARK    1  A    between atoms: C_2  and  N_3 
REMARK       I    between atoms: N_3  and  C_4 
REMARK    2  A    between atoms: C_4  and  C_5 
REMARK    3  A    between atoms: C_5  and  C_6 
ROOT
HETATM    1  C   UNL     1      -5.091   0.293 -31.129  1.00  0.00     0.286 C 
HETATM    2  N   UNL     1      -6.085   0.111 -32.284  1.00  0.00    -0.056 N 
HETATM    3  H   UNL     1      -7.047   0.285 -31.945  1.00  0.00     0.278 HD
HETATM    4  H   UNL     1      -5.924   0.846 -32.988  1.00  0.00     0.278 HD
HETATM    5  C   UNL     1      -5.946  -1.251 -32.896  1.00  0.00     0.209 C 
HETATM    6  C   UNL     1      -4.526  -1.349 -33.495  1.00  0.00     0.115 C 
HETATM    7  N   UNL     1      -3.501  -1.062 -32.493  1.00  0.00    -0.353 N 
HETATM    8  C   UNL     1      -3.645  -0.078 -31.534  1.00  0.00     0.249 C 
HETATM    9  O   UNL     1      -2.659   0.394 -30.982  1.00  0.00    -0.271 OA
HETATM   10  C   UNL     1      -7.020  -1.472 -33.949  1.00  0.00     0.035 C 
HETATM   11  C   UNL     1      -6.824  -2.840 -34.604  1.00  0.00     0.002 C 
HETATM   12  C   UNL     1      -5.419  -2.996 -35.187  1.00  0.00     0.002 C 
HETATM   13  C   UNL     1      -4.321  -2.710 -34.158  1.00  0.00     0.027 C 
HETATM   14  H   UNL     1      -2.526  -1.231 -32.739  1.00  0.00     0.163 HD
ENDROOT
BRANCH   1  15
HETATM   15  C   UNL     1      -5.172   1.721 -30.603  1.00  0.00     0.146 C 
BRANCH  15  16
HETATM   16  C   UNL     1      -6.167   2.461 -31.447  1.00  0.00     0.224 C 
HETATM   17  N   UNL     1      -5.851   3.378 -32.391  1.00  0.00    -0.327 N 
HETATM   18  H   UNL     1      -6.689   3.856 -32.717  1.00  0.00     0.169 HD
HETATM   19  O   UNL     1      -7.353   2.392 -31.095  1.00  0.00    -0.273 OA
BRANCH  17  20
HETATM   20  C   UNL     1      -4.651   3.864 -32.939  1.00  0.00     0.034 A 
HETATM   21  C   UNL     1      -3.371   3.633 -32.439  1.00  0.00     0.031 A 
HETATM   22  C   UNL     1      -2.252   4.202 -33.064  1.00  0.00     0.026 A 
HETATM   23  C   UNL     1      -2.406   4.995 -34.197  1.00  0.00     0.034 A 
HETATM   24  C   UNL     1      -3.671   5.209 -34.725  1.00  0.00     0.026 A 
HETATM   25 CL   UNL     1      -1.030   5.698 -34.948  1.00  0.00    -0.084 Cl
HETATM   26  C   UNL     1      -4.786   4.635 -34.105  1.00  0.00     0.031 A 
ENDBRANCH  17  20
ENDBRANCH  15  16
ENDBRANCH   1  15
TORSDOF 3
ENDMDL
MODEL 2
REMARK VINA RESULT:      -8.2      3.721      5.351
REMARK  3 active torsions:
REMARK  status: ('A' for Active; 'I' for Inactive)
REMARK    1  A    between atoms: C_2  and  N_3 
REMARK       I    between atoms: N_3  and  C_4 
REMARK    2  A    between atoms: C_4  and  C_5 
REMARK    3  A    between atoms: C_5  and  C_6 
ROOT
HETATM    1  C   UNL     1      -5.323   0.202 -33.522  1.00  0.00     0.286 C 
HETATM    2  N   UNL     1      -4.813  -0.994 -32.706  1.00  0.00    -0.056 N 
HETATM    3  H   UNL     1      -3.999  -0.704 -32.137  1.00  0.00     0.278 HD
HETATM    4  H   UNL     1      -5.528  -1.262 -32.014  1.00  0.00     0.278 HD
HETATM    5  C   UNL     1      -4.485  -2.150 -33.604  1.00  0.00     0.209 C 
HETATM    6  C   UNL     1      -5.795  -2.591 -34.292  1.00  0.00     0.115 C 
HETATM    7  N   UNL     1      -6.431  -1.479 -34.996  1.00  0.00    -0.353 N 
HETATM    8  C   UNL     1      -6.460  -0.193 -34.494  1.00  0.00     0.249 C 
HETATM    9  O   UNL     1      -7.302   0.604 -34.888  1.00  0.00    -0.271 OA
HETATM   10  C   UNL     1      -3.857  -3.282 -32.805  1.00  0.00     0.035 C 
HETATM   11  C   UNL     1      -3.586  -4.472 -33.726  1.00  0.00     0.002 C 
HETATM   12  C   UNL     1      -4.852  -4.927 -34.454  1.00  0.00     0.002 C 
HETATM   13  C   UNL     1      -5.538  -3.785 -35.209  1.00  0.00     0.027 C 
HETATM   14  H   UNL     1      -7.228  -1.684 -35.599  1.00  0.00     0.163 HD
ENDROOT
BRANCH   1  15
HETATM   15  C   UNL     1      -5.758   1.317 -32.580  1.00  0.00     0.146 C 
BRANCH  15  16
HETATM   16  C   UNL     1      -6.381   0.677 -31.375  1.00  0.00     0.224 C 
HETATM   17  N   UNL     1      -7.713   0.586 -31.148  1.00  0.00    -0.327 N 
HETATM   18  H   UNL     1      -7.891   0.257 -30.201  1.00  0.00     0.169 HD
HETATM   19  O   UNL     1      -5.624   0.423 -30.427  1.00  0.00    -0.273 OA
BRANCH  17  20
HETATM   20  C   UNL     1      -8.868   0.920 -31.877  1.00  0.00     0.034 A 
HETATM   21  C   UNL     1      -9.682   0.028 -32.574  1.00  0.00     0.031 A 
HETATM   22  C   UNL     1     -10.795   0.494 -33.288  1.00  0.00     0.026 A 
HETATM   23  C   UNL     1     -11.106   1.851 -33.301  1.00  0.00     0.034 A 
HETATM   24  C   UNL     1     -10.324   2.746 -32.586  1.00  0.00     0.026 A 
HETATM   25 CL   UNL     1     -12.464   2.413 -34.190  1.00  0.00    -0.084 Cl
HETATM   26  C   UNL     1      -9.219   2.279 -31.867  1.00  0.00     0.031 A 
ENDBRANCH  17  20
ENDBRANCH  15  16
ENDBRANCH   1  15
TORSDOF 3
ENDMDL
MODEL 3
REMARK VINA RESULT:      -8.2      3.051      7.254
REMARK  3 active torsions:
REMARK  status: ('A' for Active; 'I' for Inactive)
REMARK    1  A    between atoms: C_2  and  N_3 
REMARK       I    between atoms: N_3  and  C_4 
REMARK    2  A    between atoms: C_4  and  C_5 
REMARK    3  A    between atoms: C_5  and  C_6 
ROOT
HETATM    1  C   UNL     1      -4.674   3.710 -32.661  1.00  0.00     0.286 C 
HETATM    2  N   UNL     1      -3.155   3.632 -32.458  1.00  0.00    -0.056 N 
HETATM    3  H   UNL     1      -2.944   3.013 -31.656  1.00  0.00     0.278 HD
HETATM    4  H   UNL     1      -2.729   3.158 -33.268  1.00  0.00     0.278 HD
HETATM    5  C   UNL     1      -2.571   5.001 -32.277  1.00  0.00     0.209 C 
HETATM    6  C   UNL     1      -2.818   5.788 -33.583  1.00  0.00     0.115 C 
HETATM    7  N   UNL     1      -4.236   5.810 -33.935  1.00  0.00    -0.353 N 
HETATM    8  C   UNL     1      -5.068   4.721 -33.764  1.00  0.00     0.249 C 
HETATM    9  O   UNL     1      -6.108   4.633 -34.404  1.00  0.00    -0.271 OA
HETATM   10  C   UNL     1      -1.090   4.908 -31.945  1.00  0.00     0.035 C 
HETATM   11  C   UNL     1      -0.500   6.313 -31.825  1.00  0.00     0.002 C 
HETATM   12  C   UNL     1      -0.746   7.144 -33.086  1.00  0.00     0.002 C 
HETATM   13  C   UNL     1      -2.226   7.193 -33.477  1.00  0.00     0.027 C 
HETATM   14  H   UNL     1      -4.533   6.415 -34.701  1.00  0.00     0.163 HD
ENDROOT
BRANCH   1  15
HETATM   15  C   UNL     1      -5.224   2.321 -32.959  1.00  0.00     0.146 C 
BRANCH  15  16
HETATM   16  C   UNL     1      -4.894   1.442 -31.789  1.00  0.00     0.224 C 
HETATM   17  N   UNL     1      -5.026   0.094 -31.772  1.00  0.00    -0.327 N 
HETATM   18  H   UNL     1      -4.895  -0.264 -30.828  1.00  0.00     0.169 HD
HETATM   19  O   UNL     1      -4.709   2.009 -30.703  1.00  0.00    -0.273 OA
BRANCH  17  20
HETATM   20  C   UNL     1      -5.383  -0.879 -32.721  1.00  0.00     0.034 A 
HETATM   21  C   UNL     1      -6.649  -1.056 -33.276  1.00  0.00     0.031 A 
HETATM   22  C   UNL     1      -6.883  -2.087 -34.197  1.00  0.00     0.026 A 
HETATM   23  C   UNL     1      -5.851  -2.941 -34.575  1.00  0.00     0.034 A 
HETATM   24  C   UNL     1      -4.577  -2.758 -34.055  1.00  0.00     0.026 A 
HETATM   25 CL   UNL     1      -6.150  -4.210 -35.693  1.00  0.00    -0.084 Cl
HETATM   26  C   UNL     1      -4.344  -1.724 -33.143  1.00  0.00     0.031 A 
ENDBRANCH  17  20
ENDBRANCH  15  16
ENDBRANCH   1  15
TORSDOF 3
ENDMDL
MODEL 4
REMARK VINA RESULT:      -8.1      3.670      4.720
REMARK  3 active torsions:
REMARK  status: ('A' for Active; 'I' for Inactive)
REMARK    1  A    between atoms: C_2  and  N_3 
REMARK       I    between atoms: N_3  and  C_4 
REMARK    2  A    between atoms: C_4  and  C_5 
REMARK    3  A    between atoms: C_5  and  C_6 
ROOT
HETATM    1  C   UNL     1      -5.466  -0.566 -32.053  1.00  0.00     0.286 C 
HETATM    2  N   UNL     1      -6.182  -0.982 -33.345  1.00  0.00    -0.056 N 
HETATM    3  H   UNL     1      -7.177  -0.702 -33.295  1.00  0.00     0.278 HD
HETATM    4  H   UNL     1      -5.802  -0.438 -34.133  1.00  0.00     0.278 HD
HETATM    5  C   UNL     1      -6.026  -2.453 -33.590  1.00  0.00     0.209 C 
HETATM    6  C   UNL     1      -4.521  -2.733 -33.790  1.00  0.00     0.115 C 
HETATM    7  N   UNL     1      -3.730  -2.252 -32.659  1.00  0.00    -0.353 N 
HETATM    8  C   UNL     1      -4.003  -1.067 -32.004  1.00  0.00     0.249 C 
HETATM    9  O   UNL     1      -3.133  -0.510 -31.348  1.00  0.00    -0.271 OA
HETATM   10  C   UNL     1      -6.846  -2.881 -34.797  1.00  0.00     0.035 C 
HETATM   11  C   UNL     1      -6.626  -4.369 -35.067  1.00  0.00     0.002 C 
HETATM   12  C   UNL     1      -5.143  -4.703 -35.243  1.00  0.00     0.002 C 
HETATM   13  C   UNL     1      -4.289  -4.218 -34.069  1.00  0.00     0.027 C 
HETATM   14  H   UNL     1      -2.743  -2.505 -32.619  1.00  0.00     0.163 HD
ENDROOT
BRANCH   1  15
HETATM   15  C   UNL     1      -5.541   0.947 -31.890  1.00  0.00     0.146 C 
BRANCH  15  16
HETATM   16  C   UNL     1      -6.401   1.234 -30.695  1.00  0.00     0.224 C 
HETATM   17  N   UNL     1      -7.718   1.542 -30.745  1.00  0.00    -0.327 N 
HETATM   18  H   UNL     1      -8.046   1.849 -29.832  1.00  0.00     0.169 HD
HETATM   19  O   UNL     1      -5.812   1.424 -29.621  1.00  0.00    -0.273 OA
BRANCH  17  20
HETATM   20  C   UNL     1      -8.680   1.617 -31.767  1.00  0.00     0.034 A 
HETATM   21  C   UNL     1      -9.067   2.773 -32.444  1.00  0.00     0.031 A 
HETATM   22  C   UNL     1     -10.064   2.719 -33.428  1.00  0.00     0.026 A 
HETATM   23  C   UNL     1     -10.673   1.509 -33.747  1.00  0.00     0.034 A 
HETATM   24  C   UNL     1     -10.277   0.344 -33.105  1.00  0.00     0.026 A 
HETATM   25 CL   UNL     1     -11.903   1.455 -34.945  1.00  0.00    -0.084 Cl
HETATM   26  C   UNL     1      -9.277   0.399 -32.129  1.00  0.00     0.031 A 
ENDBRANCH  17  20
ENDBRANCH  15  16
ENDBRANCH   1  15
TORSDOF 3
ENDMDL
MODEL 5
REMARK VINA RESULT:      -7.9      1.369      1.978
REMARK  3 active torsions:
REMARK  status: ('A' for Active; 'I' for Inactive)
REMARK    1  A    between atoms: C_2  and  N_3 
REMARK       I    between atoms: N_3  and  C_4 
REMARK    2  A    between atoms: C_4  and  C_5 
REMARK    3  A    between atoms: C_5  and  C_6 
ROOT
HETATM    1  C   UNL     1      -6.063  -0.011 -33.610  1.00  0.00     0.286 C 
HETATM    2  N   UNL     1      -6.491  -1.038 -34.668  1.00  0.00    -0.056 N 
HETATM    3  H   UNL     1      -7.505  -0.942 -34.853  1.00  0.00     0.278 HD
HETATM    4  H   UNL     1      -6.043  -0.806 -35.566  1.00  0.00     0.278 HD
HETATM    5  C   UNL     1      -6.130  -2.428 -34.238  1.00  0.00     0.209 C 
HETATM    6  C   UNL     1      -4.591  -2.495 -34.131  1.00  0.00     0.115 C 
HETATM    7  N   UNL     1      -4.069  -1.463 -33.237  1.00  0.00    -0.353 N 
HETATM    8  C   UNL     1      -4.585  -0.183 -33.190  1.00  0.00     0.249 C 
HETATM    9  O   UNL     1      -3.910   0.737 -32.745  1.00  0.00    -0.271 OA
HETATM   10  C   UNL     1      -6.673  -3.449 -35.225  1.00  0.00     0.035 C 
HETATM   11  C   UNL     1      -6.243  -4.853 -34.802  1.00  0.00     0.002 C 
HETATM   12  C   UNL     1      -4.724  -4.962 -34.654  1.00  0.00     0.002 C 
HETATM   13  C   UNL     1      -4.148  -3.898 -33.716  1.00  0.00     0.027 C 
HETATM   14  H   UNL     1      -3.082  -1.499 -32.983  1.00  0.00     0.163 HD
ENDROOT
BRANCH   1  15
HETATM   15  C   UNL     1      -6.336   1.397 -34.124  1.00  0.00     0.146 C 
BRANCH  15  16
HETATM   16  C   UNL     1      -6.566   2.279 -32.932  1.00  0.00     0.224 C 
HETATM   17  N   UNL     1      -5.798   3.341 -32.595  1.00  0.00    -0.327 N 
HETATM   18  H   UNL     1      -6.051   3.684 -31.671  1.00  0.00     0.169 HD
HETATM   19  O   UNL     1      -7.372   1.868 -32.085  1.00  0.00    -0.273 OA
BRANCH  17  20
HETATM   20  C   UNL     1      -4.702   3.998 -33.181  1.00  0.00     0.034 A 
HETATM   21  C   UNL     1      -4.729   4.743 -34.359  1.00  0.00     0.031 A 
HETATM   22  C   UNL     1      -3.555   5.327 -34.856  1.00  0.00     0.026 A 
HETATM   23  C   UNL     1      -2.351   5.178 -34.173  1.00  0.00     0.034 A 
HETATM   24  C   UNL     1      -2.314   4.466 -32.983  1.00  0.00     0.026 A 
HETATM   25 CL   UNL     1      -0.916   5.886 -34.797  1.00  0.00    -0.084 Cl
HETATM   26  C   UNL     1      -3.487   3.890 -32.485  1.00  0.00     0.031 A 
ENDBRANCH  17  20
ENDBRANCH  15  16
ENDBRANCH   1  15
TORSDOF 3
ENDMDL
MODEL 6
REMARK VINA RESULT:      -7.8      2.211      2.831
REMARK  3 active torsions:
REMARK  status: ('A' for Active; 'I' for Inactive)
REMARK    1  A    between atoms: C_2  and  N_3 
REMARK       I    between atoms: N_3  and  C_4 
REMARK    2  A    between atoms: C_4  and  C_5 
REMARK    3  A    between atoms: C_5  and  C_6 
ROOT
HETATM    1  C   UNL     1      -6.193   3.031 -32.192  1.00  0.00     0.286 C 
HETATM    2  N   UNL     1      -6.425   2.512 -33.617  1.00  0.00    -0.056 N 
HETATM    3  H   UNL     1      -7.242   2.992 -34.032  1.00  0.00     0.278 HD
HETATM    4  H   UNL     1      -5.632   2.791 -34.213  1.00  0.00     0.278 HD
HETATM    5  C   UNL     1      -6.592   1.021 -33.621  1.00  0.00     0.209 C 
HETATM    6  C   UNL     1      -5.268   0.405 -33.119  1.00  0.00     0.115 C 
HETATM    7  N   UNL     1      -4.889   0.937 -31.812  1.00  0.00    -0.353 N 
HETATM    8  C   UNL     1      -5.064   2.262 -31.464  1.00  0.00     0.249 C 
HETATM    9  O   UNL     1      -4.407   2.753 -30.554  1.00  0.00    -0.271 OA
HETATM   10  C   UNL     1      -6.953   0.530 -35.014  1.00  0.00     0.035 C 
HETATM   11  C   UNL     1      -7.058  -0.995 -35.010  1.00  0.00     0.002 C 
HETATM   12  C   UNL     1      -5.778  -1.653 -34.492  1.00  0.00     0.002 C 
HETATM   13  C   UNL     1      -5.359  -1.121 -33.119  1.00  0.00     0.027 C 
HETATM   14  H   UNL     1      -4.107   0.502 -31.323  1.00  0.00     0.163 HD
ENDROOT
BRANCH   1  15
HETATM   15  C   UNL     1      -5.911   4.527 -32.231  1.00  0.00     0.146 C 
BRANCH  15  16
HETATM   16  C   UNL     1      -5.537   4.883 -33.639  1.00  0.00     0.224 C 
HETATM   17  N   UNL     1      -4.331   5.362 -34.023  1.00  0.00    -0.327 N 
HETATM   18  H   UNL     1      -4.365   5.678 -34.990  1.00  0.00     0.169 HD
HETATM   19  O   UNL     1      -6.465   4.958 -34.457  1.00  0.00    -0.273 OA
BRANCH  17  20
HETATM   20  C   UNL     1      -3.106   5.597 -33.374  1.00  0.00     0.034 A 
HETATM   21  C   UNL     1      -2.316   4.636 -32.745  1.00  0.00     0.031 A 
HETATM   22  C   UNL     1      -1.123   5.005 -32.106  1.00  0.00     0.026 A 
HETATM   23  C   UNL     1      -0.709   6.333 -32.103  1.00  0.00     0.034 A 
HETATM   24  C   UNL     1      -1.468   7.297 -32.753  1.00  0.00     0.026 A 
HETATM   25 CL   UNL     1       0.747   6.778 -31.307  1.00  0.00    -0.084 Cl
HETATM   26  C   UNL     1      -2.653   6.926 -33.396  1.00  0.00     0.031 A 
ENDBRANCH  17  20
ENDBRANCH  15  16
ENDBRANCH   1  15
TORSDOF 3
ENDMDL
MODEL 7
REMARK VINA RESULT:      -7.6      2.921      6.574
REMARK  3 active torsions:
REMARK  status: ('A' for Active; 'I' for Inactive)
REMARK    1  A    between atoms: C_2  and  N_3 
REMARK       I    between atoms: N_3  and  C_4 
REMARK    2  A    between atoms: C_4  and  C_5 
REMARK    3  A    between atoms: C_5  and  C_6 
ROOT
HETATM    1  C   UNL     1      -5.395   1.351 -30.623  1.00  0.00     0.286 C 
HETATM    2  N   UNL     1      -4.431   2.357 -31.266  1.00  0.00    -0.056 N 
HETATM    3  H   UNL     1      -3.583   2.448 -30.679  1.00  0.00     0.278 HD
HETATM    4  H   UNL     1      -4.086   1.974 -32.158  1.00  0.00     0.278 HD
HETATM    5  C   UNL     1      -5.106   3.679 -31.481  1.00  0.00     0.209 C 
HETATM    6  C   UNL     1      -6.263   3.452 -32.479  1.00  0.00     0.115 C 
HETATM    7  N   UNL     1      -7.175   2.410 -32.014  1.00  0.00    -0.353 N 
HETATM    8  C   UNL     1      -6.742   1.262 -31.380  1.00  0.00     0.249 C 
HETATM    9  O   UNL     1      -7.451   0.265 -31.356  1.00  0.00    -0.271 OA
HETATM   10  C   UNL     1      -4.110   4.707 -31.994  1.00  0.00     0.035 C 
HETATM   11  C   UNL     1      -4.829   6.028 -32.266  1.00  0.00     0.002 C 
HETATM   12  C   UNL     1      -6.004   5.850 -33.228  1.00  0.00     0.002 C 
HETATM   13  C   UNL     1      -6.984   4.768 -32.764  1.00  0.00     0.027 C 
HETATM   14  H   UNL     1      -8.048   2.271 -32.524  1.00  0.00     0.163 HD
ENDROOT
BRANCH   1  15
HETATM   15  C   UNL     1      -4.722  -0.012 -30.523  1.00  0.00     0.146 C 
BRANCH  15  16
HETATM   16  C   UNL     1      -3.518   0.009 -31.416  1.00  0.00     0.224 C 
HETATM   17  N   UNL     1      -3.397  -0.688 -32.570  1.00  0.00    -0.327 N 
HETATM   18  H   UNL     1      -2.441  -0.641 -32.916  1.00  0.00     0.169 HD
HETATM   19  O   UNL     1      -2.488   0.515 -30.948  1.00  0.00    -0.273 OA
BRANCH  17  20
HETATM   20  C   UNL     1      -4.251  -1.512 -33.325  1.00  0.00     0.034 A 
HETATM   21  C   UNL     1      -5.436  -1.114 -33.942  1.00  0.00     0.031 A 
HETATM   22  C   UNL     1      -6.215  -2.043 -34.646  1.00  0.00     0.026 A 
HETATM   23  C   UNL     1      -5.811  -3.371 -34.744  1.00  0.00     0.034 A 
HETATM   24  C   UNL     1      -4.618  -3.775 -34.162  1.00  0.00     0.026 A 
HETATM   25 CL   UNL     1      -6.780  -4.504 -35.597  1.00  0.00    -0.084 Cl
HETATM   26  C   UNL     1      -3.837  -2.846 -33.467  1.00  0.00     0.031 A 
ENDBRANCH  17  20
ENDBRANCH  15  16
ENDBRANCH   1  15
TORSDOF 3
ENDMDL
MODEL 8
REMARK VINA RESULT:      -7.6      3.024      6.605
REMARK  3 active torsions:
REMARK  status: ('A' for Active; 'I' for Inactive)
REMARK    1  A    between atoms: C_2  and  N_3 
REMARK       I    between atoms: N_3  and  C_4 
REMARK    2  A    between atoms: C_4  and  C_5 
REMARK    3  A    between atoms: C_5  and  C_6 
ROOT
HETATM    1  C   UNL     1      -6.834   3.520 -33.117  1.00  0.00     0.286 C 
HETATM    2  N   UNL     1      -5.401   2.980 -33.218  1.00  0.00    -0.056 N 
HETATM    3  H   UNL     1      -5.331   2.085 -32.703  1.00  0.00     0.278 HD
HETATM    4  H   UNL     1      -5.201   2.730 -34.197  1.00  0.00     0.278 HD
HETATM    5  C   UNL     1      -4.415   3.992 -32.717  1.00  0.00     0.209 C 
HETATM    6  C   UNL     1      -4.505   5.226 -33.642  1.00  0.00     0.115 C 
HETATM    7  N   UNL     1      -5.870   5.742 -33.716  1.00  0.00    -0.353 N 
HETATM    8  C   UNL     1      -6.980   4.922 -33.756  1.00  0.00     0.249 C 
HETATM    9  O   UNL     1      -8.041   5.342 -34.199  1.00  0.00    -0.271 OA
HETATM   10  C   UNL     1      -3.013   3.403 -32.695  1.00  0.00     0.035 C 
HETATM   11  C   UNL     1      -2.014   4.467 -32.241  1.00  0.00     0.002 C 
HETATM   12  C   UNL     1      -2.087   5.724 -33.110  1.00  0.00     0.002 C 
HETATM   13  C   UNL     1      -3.505   6.294 -33.201  1.00  0.00     0.027 C 
HETATM   14  H   UNL     1      -6.023   6.634 -34.186  1.00  0.00     0.163 HD
ENDROOT
BRANCH   1  15
HETATM   15  C   UNL     1      -7.803   2.522 -33.739  1.00  0.00     0.146 C 
BRANCH  15  16
HETATM   16  C   UNL     1      -8.351   1.670 -32.633  1.00  0.00     0.224 C 
HETATM   17  N   UNL     1      -8.027   0.373 -32.422  1.00  0.00    -0.327 N 
HETATM   18  H   UNL     1      -8.638  -0.037 -31.719  1.00  0.00     0.169 HD
HETATM   19  O   UNL     1      -9.329   2.119 -32.019  1.00  0.00    -0.273 OA
BRANCH  17  20
HETATM   20  C   UNL     1      -7.123  -0.531 -33.007  1.00  0.00     0.034 A 
HETATM   21  C   UNL     1      -7.400  -1.400 -34.061  1.00  0.00     0.031 A 
HETATM   22  C   UNL     1      -6.414  -2.276 -34.536  1.00  0.00     0.026 A 
HETATM   23  C   UNL     1      -5.144  -2.282 -33.967  1.00  0.00     0.034 A 
HETATM   24  C   UNL     1      -4.843  -1.402 -32.938  1.00  0.00     0.026 A 
HETATM   25 CL   UNL     1      -3.947  -3.369 -34.547  1.00  0.00    -0.084 Cl
HETATM   26  C   UNL     1      -5.825  -0.522 -32.470  1.00  0.00     0.031 A 
ENDBRANCH  17  20
ENDBRANCH  15  16
ENDBRANCH   1  15
TORSDOF 3
ENDMDL
MODEL 9
REMARK VINA RESULT:      -7.5      3.432      7.374
REMARK  3 active torsions:
REMARK  status: ('A' for Active; 'I' for Inactive)
REMARK    1  A    between atoms: C_2  and  N_3 
REMARK       I    between atoms: N_3  and  C_4 
REMARK    2  A    between atoms: C_4  and  C_5 
REMARK    3  A    between atoms: C_5  and  C_6 
ROOT
HETATM    1  C   UNL     1      -3.235   3.041 -31.489  1.00  0.00     0.286 C 
HETATM    2  N   UNL     1      -2.227   3.937 -32.221  1.00  0.00    -0.056 N 
HETATM    3  H   UNL     1      -1.450   3.359 -32.586  1.00  0.00     0.278 HD
HETATM    4  H   UNL     1      -2.673   4.330 -33.063  1.00  0.00     0.278 HD
HETATM    5  C   UNL     1      -1.735   5.031 -31.321  1.00  0.00     0.209 C 
HETATM    6  C   UNL     1      -2.950   5.912 -30.954  1.00  0.00     0.115 C 
HETATM    7  N   UNL     1      -4.026   5.121 -30.362  1.00  0.00    -0.353 N 
HETATM    8  C   UNL     1      -4.358   3.856 -30.806  1.00  0.00     0.249 C 
HETATM    9  O   UNL     1      -5.468   3.392 -30.574  1.00  0.00    -0.271 OA
HETATM   10  C   UNL     1      -0.641   5.833 -32.008  1.00  0.00     0.035 C 
HETATM   11  C   UNL     1      -0.197   6.979 -31.100  1.00  0.00     0.002 C 
HETATM   12  C   UNL     1      -1.373   7.865 -30.684  1.00  0.00     0.002 C 
HETATM   13  C   UNL     1      -2.515   7.066 -30.052  1.00  0.00     0.027 C 
HETATM   14  H   UNL     1      -4.821   5.616 -29.956  1.00  0.00     0.163 HD
ENDROOT
BRANCH   1  15
HETATM   15  C   UNL     1      -3.805   2.012 -32.458  1.00  0.00     0.146 C 
BRANCH  15  16
HETATM   16  C   UNL     1      -3.761   0.675 -31.781  1.00  0.00     0.224 C 
HETATM   17  N   UNL     1      -4.820  -0.156 -31.638  1.00  0.00    -0.327 N 
HETATM   18  H   UNL     1      -4.587  -0.924 -31.012  1.00  0.00     0.169 HD
HETATM   19  O   UNL     1      -2.747   0.424 -31.113  1.00  0.00    -0.273 OA
BRANCH  17  20
HETATM   20  C   UNL     1      -6.155  -0.144 -32.076  1.00  0.00     0.034 A 
HETATM   21  C   UNL     1      -6.625  -0.663 -33.282  1.00  0.00     0.031 A 
HETATM   22  C   UNL     1      -7.983  -0.563 -33.616  1.00  0.00     0.026 A 
HETATM   23  C   UNL     1      -8.880   0.047 -32.743  1.00  0.00     0.034 A 
HETATM   24  C   UNL     1      -8.433   0.541 -31.526  1.00  0.00     0.026 A 
HETATM   25 CL   UNL     1     -10.539   0.178 -33.168  1.00  0.00    -0.084 Cl
HETATM   26  C   UNL     1      -7.079   0.433 -31.190  1.00  0.00     0.031 A 
ENDBRANCH  17  20
ENDBRANCH  15  16
ENDBRANCH   1  15
TORSDOF 3
ENDMDL
MODEL 10
REMARK VINA RESULT:      -7.5      3.763      7.282
REMARK  3 active torsions:
REMARK  status: ('A' for Active; 'I' for Inactive)
REMARK    1  A    between atoms: C_2  and  N_3 
REMARK       I    between atoms: N_3  and  C_4 
REMARK    2  A    between atoms: C_4  and  C_5 
REMARK    3  A    between atoms: C_5  and  C_6 
ROOT
HETATM    1  C   UNL     1      -3.330   5.869 -33.775  1.00  0.00     0.286 C 
HETATM    2  N   UNL     1      -3.429   5.813 -32.245  1.00  0.00    -0.056 N 
HETATM    3  H   UNL     1      -4.374   6.112 -31.947  1.00  0.00     0.278 HD
HETATM    4  H   UNL     1      -3.361   4.832 -31.937  1.00  0.00     0.278 HD
HETATM    5  C   UNL     1      -2.354   6.644 -31.611  1.00  0.00     0.209 C 
HETATM    6  C   UNL     1      -0.995   6.026 -32.005  1.00  0.00     0.115 C 
HETATM    7  N   UNL     1      -0.856   5.916 -33.455  1.00  0.00    -0.353 N 
HETATM    8  C   UNL     1      -1.902   5.559 -34.284  1.00  0.00     0.249 C 
HETATM    9  O   UNL     1      -1.679   5.106 -35.399  1.00  0.00    -0.271 OA
HETATM   10  C   UNL     1      -2.538   6.691 -30.102  1.00  0.00     0.035 C 
HETATM   11  C   UNL     1      -1.400   7.491 -29.470  1.00  0.00     0.002 C 
HETATM   12  C   UNL     1      -0.029   6.933 -29.856  1.00  0.00     0.002 C 
HETATM   13  C   UNL     1       0.151   6.814 -31.372  1.00  0.00     0.027 C 
HETATM   14  H   UNL     1       0.053   5.650 -33.834  1.00  0.00     0.163 HD
ENDROOT
BRANCH   1  15
HETATM   15  C   UNL     1      -4.357   4.926 -34.390  1.00  0.00     0.146 C 
BRANCH  15  16
HETATM   16  C   UNL     1      -5.555   4.907 -33.489  1.00  0.00     0.224 C 
HETATM   17  N   UNL     1      -6.259   3.799 -33.159  1.00  0.00    -0.327 N 
HETATM   18  H   UNL     1      -7.114   4.053 -32.669  1.00  0.00     0.169 HD
HETATM   19  O   UNL     1      -6.062   6.005 -33.217  1.00  0.00    -0.273 OA
BRANCH  17  20
HETATM   20  C   UNL     1      -6.119   2.424 -33.416  1.00  0.00     0.034 A 
HETATM   21  C   UNL     1      -5.289   1.543 -32.725  1.00  0.00     0.031 A 
HETATM   22  C   UNL     1      -5.219   0.193 -33.099  1.00  0.00     0.026 A 
HETATM   23  C   UNL     1      -5.985  -0.285 -34.157  1.00  0.00     0.034 A 
HETATM   24  C   UNL     1      -6.840   0.573 -34.835  1.00  0.00     0.026 A 
HETATM   25 CL   UNL     1      -5.882  -1.937 -34.617  1.00  0.00    -0.084 Cl
HETATM   26  C   UNL     1      -6.915   1.917 -34.456  1.00  0.00     0.031 A 
ENDBRANCH  17  20
ENDBRANCH  15  16
ENDBRANCH   1  15
TORSDOF 3
ENDMDL
