MODEL 1
REMARK VINA RESULT:      -8.1      0.000      0.000
REMARK  6 active torsions:
REMARK  status: ('A' for Active; 'I' for Inactive)
REMARK    1  A    between atoms: C_2  and  N_3 
REMARK    2  A    between atoms: N_3  and  C_5 
REMARK    3  A    between atoms: C_5  and  C_6 
REMARK    4  A    between atoms: C_6  and  N_7 
REMARK       I    between atoms: N_7  and  C_8 
REMARK    5  A    between atoms: C_8  and  C_9 
REMARK    6  A    between atoms: C_10  and  C_11 
ROOT
HETATM    1  N   UNL     1      -2.910   3.788 -31.055  1.00  0.00    -0.354 N 
HETATM    2  C   UNL     1      -3.991   3.240 -31.721  1.00  0.00     0.255 C 
HETATM    3  O   UNL     1      -4.076   3.322 -32.942  1.00  0.00    -0.268 OA
HETATM    4  H   UNL     1      -2.868   3.708 -30.047  1.00  0.00     0.162 HD
ENDROOT
BRANCH   2   5
HETATM    5  C   UNL     1      -4.965   2.556 -30.880  1.00  0.00     0.080 A 
HETATM    6  C   UNL     1      -5.380   1.180 -30.908  1.00  0.00     0.104 A 
HETATM    7  N   UNL     1      -6.335   0.951 -29.991  1.00  0.00    -0.174 NA
HETATM    8  N   UNL     1      -6.528   2.122 -29.386  1.00  0.00    -0.288 N 
HETATM    9  H   UNL     1      -7.226   2.171 -28.651  1.00  0.00     0.188 HD
HETATM   10  C   UNL     1      -5.734   3.117 -29.871  1.00  0.00     0.128 A 
BRANCH   6  11
HETATM   11  C   UNL     1      -4.925   0.069 -31.748  1.00  0.00    -0.002 A 
HETATM   12  C   UNL     1      -3.892  -0.781 -31.344  1.00  0.00     0.056 A 
HETATM   13  C   UNL     1      -3.505  -1.839 -32.160  1.00  0.00     0.117 A 
HETATM   14  F   UNL     1      -2.505  -2.639 -31.763  1.00  0.00    -0.206 F 
HETATM   15  C   UNL     1      -4.138  -2.088 -33.372  1.00  0.00     0.042 A 
HETATM   16  C   UNL     1      -5.182  -1.262 -33.778  1.00  0.00     0.004 A 
HETATM   17  C   UNL     1      -5.574  -0.191 -32.970  1.00  0.00     0.014 A 
ENDBRANCH   6  11
ENDBRANCH   2   5
BRANCH   1  18
HETATM   18  C   UNL     1      -1.889   4.539 -31.756  1.00  0.00     0.162 C 
BRANCH  18  19
HETATM   19  C   UNL     1      -1.416   5.875 -31.096  1.00  0.00     0.143 C 
HETATM   20  C   UNL     1      -2.510   6.948 -30.896  1.00  0.00     0.041 C 
HETATM   21  C   UNL     1      -2.605   7.736 -32.197  1.00  0.00     0.003 C 
HETATM   22  C   UNL     1      -1.287   7.510 -32.923  1.00  0.00     0.003 C 
HETATM   23  C   UNL     1      -0.430   6.655 -31.994  1.00  0.00     0.041 C 
BRANCH  19  24
HETATM   24  N   UNL     1      -0.745   5.580 -29.705  1.00  0.00    -0.065 N 
HETATM   25  H   UNL     1      -1.300   4.828 -29.273  1.00  0.00     0.280 HD
HETATM   26  C   UNL     1       0.660   4.992 -29.839  1.00  0.00     0.270 C 
BRANCH  24  27
HETATM   27  C   UNL     1      -0.684   6.708 -28.682  1.00  0.00     0.231 C 
HETATM   28  C   UNL     1       0.662   7.397 -28.627  1.00  0.00     0.034 C 
ENDBRANCH  24  27
ENDBRANCH  19  24
ENDBRANCH  18  19
ENDBRANCH   1  18
TORSDOF 6
ENDMDL
MODEL 2
REMARK VINA RESULT:      -8.1      2.129      2.698
REMARK  6 active torsions:
REMARK  status: ('A' for Active; 'I' for Inactive)
REMARK    1  A    between atoms: C_2  and  N_3 
REMARK    2  A    between atoms: N_3  and  C_5 
REMARK    3  A    between atoms: C_5  and  C_6 
REMARK    4  A    between atoms: C_6  and  N_7 
REMARK       I    between atoms: N_7  and  C_8 
REMARK    5  A    between atoms: C_8  and  C_9 
REMARK    6  A    between atoms: C_10  and  C_11 
ROOT
HETATM    1  N   UNL     1      -3.287   4.021 -31.197  1.00  0.00    -0.354 N 
HETATM    2  C   UNL     1      -3.857   2.819 -31.576  1.00  0.00     0.255 C 
HETATM    3  O   UNL     1      -3.290   2.091 -32.385  1.00  0.00    -0.268 OA
HETATM    4  H   UNL     1      -3.779   4.603 -30.531  1.00  0.00     0.162 HD
ENDROOT
BRANCH   2   5
HETATM    5  C   UNL     1      -5.121   2.492 -30.931  1.00  0.00     0.080 A 
HETATM    6  C   UNL     1      -6.133   1.556 -31.339  1.00  0.00     0.104 A 
HETATM    7  N   UNL     1      -7.174   1.578 -30.490  1.00  0.00    -0.174 NA
HETATM    8  N   UNL     1      -6.852   2.481 -29.565  1.00  0.00    -0.288 N 
HETATM    9  H   UNL     1      -7.518   2.660 -28.819  1.00  0.00     0.188 HD
HETATM   10  C   UNL     1      -5.636   3.057 -29.773  1.00  0.00     0.128 A 
BRANCH   6  11
HETATM   11  C   UNL     1      -6.172   0.641 -32.482  1.00  0.00    -0.002 A 
HETATM   12  C   UNL     1      -6.659   1.045 -33.729  1.00  0.00     0.056 A 
HETATM   13  C   UNL     1      -6.657   0.152 -34.796  1.00  0.00     0.117 A 
HETATM   14  F   UNL     1      -7.137   0.552 -35.982  1.00  0.00    -0.206 F 
HETATM   15  C   UNL     1      -6.161  -1.139 -34.660  1.00  0.00     0.042 A 
HETATM   16  C   UNL     1      -5.655  -1.548 -33.429  1.00  0.00     0.004 A 
HETATM   17  C   UNL     1      -5.659  -0.663 -32.348  1.00  0.00     0.014 A 
ENDBRANCH   6  11
ENDBRANCH   2   5
BRANCH   1  18
HETATM   18  C   UNL     1      -2.056   4.498 -31.792  1.00  0.00     0.162 C 
BRANCH  18  19
HETATM   19  C   UNL     1      -2.146   5.797 -32.659  1.00  0.00     0.143 C 
HETATM   20  C   UNL     1      -3.505   6.047 -33.351  1.00  0.00     0.041 C 
HETATM   21  C   UNL     1      -3.482   5.284 -34.670  1.00  0.00     0.003 C 
HETATM   22  C   UNL     1      -2.014   5.048 -34.993  1.00  0.00     0.003 C 
HETATM   23  C   UNL     1      -1.217   5.744 -33.892  1.00  0.00     0.041 C 
BRANCH  19  24
HETATM   24  N   UNL     1      -1.791   7.053 -31.783  1.00  0.00    -0.065 N 
HETATM   25  H   UNL     1      -1.148   7.624 -32.348  1.00  0.00     0.280 HD
HETATM   26  C   UNL     1      -2.996   7.962 -31.536  1.00  0.00     0.270 C 
BRANCH  24  27
HETATM   27  C   UNL     1      -1.097   6.824 -30.445  1.00  0.00     0.231 C 
HETATM   28  C   UNL     1       0.409   6.951 -30.521  1.00  0.00     0.034 C 
ENDBRANCH  24  27
ENDBRANCH  19  24
ENDBRANCH  18  19
ENDBRANCH   1  18
TORSDOF 6
ENDMDL
MODEL 3
REMARK VINA RESULT:      -8.0      2.171      3.460
REMARK  6 active torsions:
REMARK  status: ('A' for Active; 'I' for Inactive)
REMARK    1  A    between atoms: C_2  and  N_3 
REMARK    2  A    between atoms: N_3  and  C_5 
REMARK    3  A    between atoms: C_5  and  C_6 
REMARK    4  A    between atoms: C_6  and  N_7 
REMARK       I    between atoms: N_7  and  C_8 
REMARK    5  A    between atoms: C_8  and  C_9 
REMARK    6  A    between atoms: C_10  and  C_11 
ROOT
HETATM    1  N   UNL     1      -3.478   3.289 -31.262  1.00  0.00    -0.354 N 
HETATM    2  C   UNL     1      -3.868   2.053 -31.747  1.00  0.00     0.255 C 
HETATM    3  O   UNL     1      -3.332   1.580 -32.743  1.00  0.00    -0.268 OA
HETATM    4  H   UNL     1      -3.940   3.656 -30.441  1.00  0.00     0.162 HD
ENDROOT
BRANCH   2   5
HETATM    5  C   UNL     1      -4.906   1.377 -30.980  1.00  0.00     0.080 A 
HETATM    6  C   UNL     1      -5.713   0.245 -31.347  1.00  0.00     0.104 A 
HETATM    7  N   UNL     1      -6.590  -0.051 -30.373  1.00  0.00    -0.174 NA
HETATM    8  N   UNL     1      -6.360   0.842 -29.412  1.00  0.00    -0.288 N 
HETATM    9  H   UNL     1      -6.931   0.798 -28.573  1.00  0.00     0.188 HD
HETATM   10  C   UNL     1      -5.363   1.717 -29.715  1.00  0.00     0.128 A 
BRANCH   6  11
HETATM   11  C   UNL     1      -5.700  -0.575 -32.562  1.00  0.00    -0.002 A 
HETATM   12  C   UNL     1      -4.724  -1.551 -32.777  1.00  0.00     0.056 A 
HETATM   13  C   UNL     1      -4.761  -2.325 -33.932  1.00  0.00     0.117 A 
HETATM   14  F   UNL     1      -3.811  -3.251 -34.129  1.00  0.00    -0.206 F 
HETATM   15  C   UNL     1      -5.765  -2.164 -34.880  1.00  0.00     0.042 A 
HETATM   16  C   UNL     1      -6.754  -1.209 -34.669  1.00  0.00     0.004 A 
HETATM   17  C   UNL     1      -6.723  -0.420 -33.516  1.00  0.00     0.014 A 
ENDBRANCH   6  11
ENDBRANCH   2   5
BRANCH   1  18
HETATM   18  C   UNL     1      -2.491   4.096 -31.949  1.00  0.00     0.162 C 
BRANCH  18  19
HETATM   19  C   UNL     1      -3.027   5.141 -32.981  1.00  0.00     0.143 C 
HETATM   20  C   UNL     1      -2.554   4.946 -34.439  1.00  0.00     0.041 C 
HETATM   21  C   UNL     1      -1.208   5.650 -34.570  1.00  0.00     0.003 C 
HETATM   22  C   UNL     1      -1.148   6.656 -33.430  1.00  0.00     0.003 C 
HETATM   23  C   UNL     1      -2.490   6.563 -32.708  1.00  0.00     0.041 C 
BRANCH  19  24
HETATM   24  N   UNL     1      -4.599   5.157 -32.964  1.00  0.00    -0.065 N 
HETATM   25  H   UNL     1      -4.884   4.485 -32.238  1.00  0.00     0.280 HD
HETATM   26  C   UNL     1      -5.172   6.495 -32.495  1.00  0.00     0.270 C 
BRANCH  24  27
HETATM   27  C   UNL     1      -5.336   4.752 -34.235  1.00  0.00     0.231 C 
HETATM   28  C   UNL     1      -6.225   3.541 -34.054  1.00  0.00     0.034 C 
ENDBRANCH  24  27
ENDBRANCH  19  24
ENDBRANCH  18  19
ENDBRANCH   1  18
TORSDOF 6
ENDMDL
MODEL 4
REMARK VINA RESULT:      -7.8      3.033      4.987
REMARK  6 active torsions:
REMARK  status: ('A' for Active; 'I' for Inactive)
REMARK    1  A    between atoms: C_2  and  N_3 
REMARK    2  A    between atoms: N_3  and  C_5 
REMARK    3  A    between atoms: C_5  and  C_6 
REMARK    4  A    between atoms: C_6  and  N_7 
REMARK       I    between atoms: N_7  and  C_8 
REMARK    5  A    between atoms: C_8  and  C_9 
REMARK    6  A    between atoms: C_10  and  C_11 
ROOT
HETATM    1  N   UNL     1      -3.563   1.132 -32.310  1.00  0.00    -0.354 N 
HETATM    2  C   UNL     1      -4.059   0.015 -31.661  1.00  0.00     0.255 C 
HETATM    3  O   UNL     1      -4.368   0.072 -30.475  1.00  0.00    -0.268 OA
HETATM    4  H   UNL     1      -3.314   1.054 -33.287  1.00  0.00     0.162 HD
ENDROOT
BRANCH   2   5
HETATM    5  C   UNL     1      -4.208  -1.176 -32.486  1.00  0.00     0.080 A 
HETATM    6  C   UNL     1      -5.280  -1.539 -33.371  1.00  0.00     0.104 A 
HETATM    7  N   UNL     1      -5.058  -2.745 -33.921  1.00  0.00    -0.174 NA
HETATM    8  N   UNL     1      -3.890  -3.147 -33.423  1.00  0.00    -0.288 N 
HETATM    9  H   UNL     1      -3.534  -4.054 -33.710  1.00  0.00     0.188 HD
HETATM   10  C   UNL     1      -3.332  -2.249 -32.564  1.00  0.00     0.128 A 
BRANCH   6  11
HETATM   11  C   UNL     1      -6.500  -0.812 -33.731  1.00  0.00    -0.002 A 
HETATM   12  C   UNL     1      -7.611  -0.779 -32.882  1.00  0.00     0.056 A 
HETATM   13  C   UNL     1      -8.742  -0.057 -33.249  1.00  0.00     0.117 A 
HETATM   14  F   UNL     1      -9.803  -0.044 -32.430  1.00  0.00    -0.206 F 
HETATM   15  C   UNL     1      -8.792   0.655 -34.442  1.00  0.00     0.042 A 
HETATM   16  C   UNL     1      -7.686   0.647 -35.287  1.00  0.00     0.004 A 
HETATM   17  C   UNL     1      -6.546  -0.080 -34.932  1.00  0.00     0.014 A 
ENDBRANCH   6  11
ENDBRANCH   2   5
BRANCH   1  18
HETATM   18  C   UNL     1      -3.318   2.372 -31.605  1.00  0.00     0.162 C 
BRANCH  18  19
HETATM   19  C   UNL     1      -4.203   3.599 -32.002  1.00  0.00     0.143 C 
HETATM   20  C   UNL     1      -5.121   4.150 -30.888  1.00  0.00     0.041 C 
HETATM   21  C   UNL     1      -6.408   3.332 -30.924  1.00  0.00     0.003 C 
HETATM   22  C   UNL     1      -6.470   2.710 -32.311  1.00  0.00     0.003 C 
HETATM   23  C   UNL     1      -5.257   3.239 -33.072  1.00  0.00     0.041 C 
BRANCH  19  24
HETATM   24  N   UNL     1      -3.294   4.770 -32.526  1.00  0.00    -0.065 N 
HETATM   25  H   UNL     1      -3.916   5.404 -33.046  1.00  0.00     0.280 HD
HETATM   26  C   UNL     1      -2.726   5.629 -31.396  1.00  0.00     0.270 C 
BRANCH  24  27
HETATM   27  C   UNL     1      -2.150   4.423 -33.472  1.00  0.00     0.231 C 
HETATM   28  C   UNL     1      -2.236   5.134 -34.805  1.00  0.00     0.034 C 
ENDBRANCH  24  27
ENDBRANCH  19  24
ENDBRANCH  18  19
ENDBRANCH   1  18
TORSDOF 6
ENDMDL
MODEL 5
REMARK VINA RESULT:      -7.8      2.223      3.033
REMARK  6 active torsions:
REMARK  status: ('A' for Active; 'I' for Inactive)
REMARK    1  A    between atoms: C_2  and  N_3 
REMARK    2  A    between atoms: N_3  and  C_5 
REMARK    3  A    between atoms: C_5  and  C_6 
REMARK    4  A    between atoms: C_6  and  N_7 
REMARK       I    between atoms: N_7  and  C_8 
REMARK    5  A    between atoms: C_8  and  C_9 
REMARK    6  A    between atoms: C_10  and  C_11 
ROOT
HETATM    1  N   UNL     1      -4.979   2.687 -32.524  1.00  0.00    -0.354 N 
HETATM    2  C   UNL     1      -5.531   2.366 -31.297  1.00  0.00     0.255 C 
HETATM    3  O   UNL     1      -4.888   2.529 -30.265  1.00  0.00    -0.268 OA
HETATM    4  H   UNL     1      -5.532   2.539 -33.359  1.00  0.00     0.162 HD
ENDROOT
BRANCH   2   5
HETATM    5  C   UNL     1      -6.900   1.869 -31.335  1.00  0.00     0.080 A 
HETATM    6  C   UNL     1      -7.428   0.716 -32.012  1.00  0.00     0.104 A 
HETATM    7  N   UNL     1      -8.757   0.624 -31.831  1.00  0.00    -0.174 NA
HETATM    8  N   UNL     1      -9.079   1.664 -31.064  1.00  0.00    -0.288 N 
HETATM    9  H   UNL     1     -10.054   1.787 -30.810  1.00  0.00     0.188 HD
HETATM   10  C   UNL     1      -8.011   2.441 -30.731  1.00  0.00     0.128 A 
BRANCH   6  11
HETATM   11  C   UNL     1      -6.751  -0.304 -32.816  1.00  0.00    -0.002 A 
HETATM   12  C   UNL     1      -5.497  -0.807 -32.457  1.00  0.00     0.056 A 
HETATM   13  C   UNL     1      -4.898  -1.793 -33.235  1.00  0.00     0.117 A 
HETATM   14  F   UNL     1      -3.690  -2.258 -32.883  1.00  0.00    -0.206 F 
HETATM   15  C   UNL     1      -5.527  -2.311 -34.361  1.00  0.00     0.042 A 
HETATM   16  C   UNL     1      -6.785  -1.832 -34.718  1.00  0.00     0.004 A 
HETATM   17  C   UNL     1      -7.393  -0.837 -33.949  1.00  0.00     0.014 A 
ENDBRANCH   6  11
ENDBRANCH   2   5
BRANCH   1  18
HETATM   18  C   UNL     1      -3.612   3.147 -32.644  1.00  0.00     0.162 C 
BRANCH  18  19
HETATM   19  C   UNL     1      -3.391   4.691 -32.758  1.00  0.00     0.143 C 
HETATM   20  C   UNL     1      -4.274   5.418 -33.798  1.00  0.00     0.041 C 
HETATM   21  C   UNL     1      -3.559   5.314 -35.140  1.00  0.00     0.003 C 
HETATM   22  C   UNL     1      -2.100   5.028 -34.818  1.00  0.00     0.003 C 
HETATM   23  C   UNL     1      -1.988   5.044 -33.296  1.00  0.00     0.041 C 
BRANCH  19  24
HETATM   24  N   UNL     1      -3.607   5.370 -31.356  1.00  0.00    -0.065 N 
HETATM   25  H   UNL     1      -3.640   4.604 -30.669  1.00  0.00     0.280 HD
HETATM   26  C   UNL     1      -2.416   6.225 -30.924  1.00  0.00     0.270 C 
BRANCH  24  27
HETATM   27  C   UNL     1      -4.875   6.189 -31.142  1.00  0.00     0.231 C 
HETATM   28  C   UNL     1      -5.552   5.914 -29.818  1.00  0.00     0.034 C 
ENDBRANCH  24  27
ENDBRANCH  19  24
ENDBRANCH  18  19
ENDBRANCH   1  18
TORSDOF 6
ENDMDL
MODEL 6
REMARK VINA RESULT:      -7.7      2.435      3.058
REMARK  6 active torsions:
REMARK  status: ('A' for Active; 'I' for Inactive)
REMARK    1  A    between atoms: C_2  and  N_3 
REMARK    2  A    between atoms: N_3  and  C_5 
REMARK    3  A    between atoms: C_5  and  C_6 
REMARK    4  A    between atoms: C_6  and  N_7 
REMARK       I    between atoms: N_7  and  C_8 
REMARK    5  A    between atoms: C_8  and  C_9 
REMARK    6  A    between atoms: C_10  and  C_11 
ROOT
HETATM    1  N   UNL     1      -3.467   3.380 -31.165  1.00  0.00    -0.354 N 
HETATM    2  C   UNL     1      -4.187   2.598 -32.051  1.00  0.00     0.255 C 
HETATM    3  O   UNL     1      -4.855   3.120 -32.938  1.00  0.00    -0.268 OA
HETATM    4  H   UNL     1      -2.928   2.923 -30.441  1.00  0.00     0.162 HD
ENDROOT
BRANCH   2   5
HETATM    5  C   UNL     1      -4.060   1.159 -31.864  1.00  0.00     0.080 A 
HETATM    6  C   UNL     1      -4.956   0.110 -32.266  1.00  0.00     0.104 A 
HETATM    7  N   UNL     1      -4.496  -1.089 -31.870  1.00  0.00    -0.174 NA
HETATM    8  N   UNL     1      -3.347  -0.834 -31.246  1.00  0.00    -0.288 N 
HETATM    9  H   UNL     1      -2.830  -1.617 -30.857  1.00  0.00     0.188 HD
HETATM   10  C   UNL     1      -3.032   0.491 -31.216  1.00  0.00     0.128 A 
BRANCH   6  11
HETATM   11  C   UNL     1      -6.221   0.173 -33.004  1.00  0.00    -0.002 A 
HETATM   12  C   UNL     1      -7.453   0.216 -32.345  1.00  0.00     0.056 A 
HETATM   13  C   UNL     1      -8.630   0.300 -33.082  1.00  0.00     0.117 A 
HETATM   14  F   UNL     1      -9.804   0.329 -32.436  1.00  0.00    -0.206 F 
HETATM   15  C   UNL     1      -8.613   0.361 -34.471  1.00  0.00     0.042 A 
HETATM   16  C   UNL     1      -7.392   0.340 -35.139  1.00  0.00     0.004 A 
HETATM   17  C   UNL     1      -6.203   0.248 -34.409  1.00  0.00     0.014 A 
ENDBRANCH   6  11
ENDBRANCH   2   5
BRANCH   1  18
HETATM   18  C   UNL     1      -3.536   4.825 -31.200  1.00  0.00     0.162 C 
BRANCH  18  19
HETATM   19  C   UNL     1      -2.216   5.589 -31.548  1.00  0.00     0.143 C 
HETATM   20  C   UNL     1      -2.396   6.939 -32.277  1.00  0.00     0.041 C 
HETATM   21  C   UNL     1      -2.497   6.632 -33.767  1.00  0.00     0.003 C 
HETATM   22  C   UNL     1      -1.871   5.258 -33.956  1.00  0.00     0.003 C 
HETATM   23  C   UNL     1      -1.357   4.831 -32.583  1.00  0.00     0.041 C 
BRANCH  19  24
HETATM   24  N   UNL     1      -1.377   5.834 -30.241  1.00  0.00    -0.065 N 
HETATM   25  H   UNL     1      -1.933   5.444 -29.467  1.00  0.00     0.280 HD
HETATM   26  C   UNL     1      -0.073   5.036 -30.217  1.00  0.00     0.270 C 
BRANCH  24  27
HETATM   27  C   UNL     1      -1.053   7.272 -29.854  1.00  0.00     0.231 C 
HETATM   28  C   UNL     1       0.325   7.436 -29.252  1.00  0.00     0.034 C 
ENDBRANCH  24  27
ENDBRANCH  19  24
ENDBRANCH  18  19
ENDBRANCH   1  18
TORSDOF 6
ENDMDL
MODEL 7
REMARK VINA RESULT:      -7.6      1.902      2.629
REMARK  6 active torsions:
REMARK  status: ('A' for Active; 'I' for Inactive)
REMARK    1  A    between atoms: C_2  and  N_3 
REMARK    2  A    between atoms: N_3  and  C_5 
REMARK    3  A    between atoms: C_5  and  C_6 
REMARK    4  A    between atoms: C_6  and  N_7 
REMARK       I    between atoms: N_7  and  C_8 
REMARK    5  A    between atoms: C_8  and  C_9 
REMARK    6  A    between atoms: C_10  and  C_11 
ROOT
HETATM    1  N   UNL     1      -3.481   2.977 -31.975  1.00  0.00    -0.354 N 
HETATM    2  C   UNL     1      -4.754   2.510 -32.249  1.00  0.00     0.255 C 
HETATM    3  O   UNL     1      -5.290   2.761 -33.324  1.00  0.00    -0.268 OA
HETATM    4  H   UNL     1      -3.066   2.757 -31.079  1.00  0.00     0.162 HD
ENDROOT
BRANCH   2   5
HETATM    5  C   UNL     1      -5.363   1.697 -31.205  1.00  0.00     0.080 A 
HETATM    6  C   UNL     1      -5.708   0.302 -31.226  1.00  0.00     0.104 A 
HETATM    7  N   UNL     1      -6.293  -0.062 -30.072  1.00  0.00    -0.174 NA
HETATM    8  N   UNL     1      -6.320   1.043 -29.329  1.00  0.00    -0.288 N 
HETATM    9  H   UNL     1      -6.735   0.987 -28.404  1.00  0.00     0.188 HD
HETATM   10  C   UNL     1      -5.774   2.125 -29.951  1.00  0.00     0.128 A 
BRANCH   6  11
HETATM   11  C   UNL     1      -5.515  -0.707 -32.271  1.00  0.00    -0.002 A 
HETATM   12  C   UNL     1      -6.509  -0.983 -33.215  1.00  0.00     0.056 A 
HETATM   13  C   UNL     1      -6.277  -1.932 -34.206  1.00  0.00     0.117 A 
HETATM   14  F   UNL     1      -7.244  -2.194 -35.098  1.00  0.00    -0.206 F 
HETATM   15  C   UNL     1      -5.065  -2.607 -34.295  1.00  0.00     0.042 A 
HETATM   16  C   UNL     1      -4.061  -2.326 -33.373  1.00  0.00     0.004 A 
HETATM   17  C   UNL     1      -4.284  -1.381 -32.369  1.00  0.00     0.014 A 
ENDBRANCH   6  11
ENDBRANCH   2   5
BRANCH   1  18
HETATM   18  C   UNL     1      -2.773   3.837 -32.900  1.00  0.00     0.162 C 
BRANCH  18  19
HETATM   19  C   UNL     1      -2.661   5.349 -32.516  1.00  0.00     0.143 C 
HETATM   20  C   UNL     1      -3.008   5.695 -31.051  1.00  0.00     0.041 C 
HETATM   21  C   UNL     1      -4.519   5.890 -30.985  1.00  0.00     0.003 C 
HETATM   22  C   UNL     1      -4.968   6.181 -32.409  1.00  0.00     0.003 C 
HETATM   23  C   UNL     1      -3.699   6.220 -33.257  1.00  0.00     0.041 C 
BRANCH  19  24
HETATM   24  N   UNL     1      -1.211   5.875 -32.824  1.00  0.00    -0.065 N 
HETATM   25  H   UNL     1      -0.575   5.090 -32.632  1.00  0.00     0.280 HD
HETATM   26  C   UNL     1      -0.999   6.189 -34.306  1.00  0.00     0.270 C 
BRANCH  24  27
HETATM   27  C   UNL     1      -0.689   7.058 -32.016  1.00  0.00     0.231 C 
HETATM   28  C   UNL     1       0.522   6.721 -31.174  1.00  0.00     0.034 C 
ENDBRANCH  24  27
ENDBRANCH  19  24
ENDBRANCH  18  19
ENDBRANCH   1  18
TORSDOF 6
ENDMDL
MODEL 8
REMARK VINA RESULT:      -7.5      3.302      4.596
REMARK  6 active torsions:
REMARK  status: ('A' for Active; 'I' for Inactive)
REMARK    1  A    between atoms: C_2  and  N_3 
REMARK    2  A    between atoms: N_3  and  C_5 
REMARK    3  A    between atoms: C_5  and  C_6 
REMARK    4  A    between atoms: C_6  and  N_7 
REMARK       I    between atoms: N_7  and  C_8 
REMARK    5  A    between atoms: C_8  and  C_9 
REMARK    6  A    between atoms: C_10  and  C_11 
ROOT
HETATM    1  N   UNL     1      -6.944   4.560 -33.799  1.00  0.00    -0.354 N 
HETATM    2  C   UNL     1      -7.925   3.981 -33.015  1.00  0.00     0.255 C 
HETATM    3  O   UNL     1      -8.149   4.406 -31.886  1.00  0.00    -0.268 OA
HETATM    4  H   UNL     1      -6.778   4.186 -34.725  1.00  0.00     0.162 HD
ENDROOT
BRANCH   2   5
HETATM    5  C   UNL     1      -8.661   2.887 -33.636  1.00  0.00     0.080 A 
HETATM    6  C   UNL     1      -8.353   1.483 -33.656  1.00  0.00     0.104 A 
HETATM    7  N   UNL     1      -9.265   0.805 -34.374  1.00  0.00    -0.174 NA
HETATM    8  N   UNL     1     -10.132   1.724 -34.794  1.00  0.00    -0.288 N 
HETATM    9  H   UNL     1     -10.911   1.417 -35.370  1.00  0.00     0.188 HD
HETATM   10  C   UNL     1      -9.827   2.985 -34.381  1.00  0.00     0.128 A 
BRANCH   6  11
HETATM   11  C   UNL     1      -7.250   0.745 -33.036  1.00  0.00    -0.002 A 
HETATM   12  C   UNL     1      -6.115   0.375 -33.763  1.00  0.00     0.056 A 
HETATM   13  C   UNL     1      -5.078  -0.305 -33.131  1.00  0.00     0.117 A 
HETATM   14  F   UNL     1      -4.001  -0.662 -33.844  1.00  0.00    -0.206 F 
HETATM   15  C   UNL     1      -5.133  -0.613 -31.776  1.00  0.00     0.042 A 
HETATM   16  C   UNL     1      -6.249  -0.233 -31.036  1.00  0.00     0.004 A 
HETATM   17  C   UNL     1      -7.300   0.443 -31.662  1.00  0.00     0.014 A 
ENDBRANCH   6  11
ENDBRANCH   2   5
BRANCH   1  18
HETATM   18  C   UNL     1      -6.101   5.624 -33.296  1.00  0.00     0.162 C 
BRANCH  18  19
HETATM   19  C   UNL     1      -4.630   5.245 -32.923  1.00  0.00     0.143 C 
HETATM   20  C   UNL     1      -4.287   3.740 -32.998  1.00  0.00     0.041 C 
HETATM   21  C   UNL     1      -4.683   3.125 -31.660  1.00  0.00     0.003 C 
HETATM   22  C   UNL     1      -4.744   4.279 -30.669  1.00  0.00     0.003 C 
HETATM   23  C   UNL     1      -4.311   5.525 -31.438  1.00  0.00     0.041 C 
BRANCH  19  24
HETATM   24  N   UNL     1      -3.623   6.033 -33.838  1.00  0.00    -0.065 N 
HETATM   25  H   UNL     1      -4.177   6.761 -34.312  1.00  0.00     0.280 HD
HETATM   26  C   UNL     1      -2.576   6.806 -33.036  1.00  0.00     0.270 C 
BRANCH  24  27
HETATM   27  C   UNL     1      -2.898   5.265 -34.937  1.00  0.00     0.231 C 
HETATM   28  C   UNL     1      -1.392   5.296 -34.797  1.00  0.00     0.034 C 
ENDBRANCH  24  27
ENDBRANCH  19  24
ENDBRANCH  18  19
ENDBRANCH   1  18
TORSDOF 6
ENDMDL
MODEL 9
REMARK VINA RESULT:      -7.5      3.143      7.959
REMARK  6 active torsions:
REMARK  status: ('A' for Active; 'I' for Inactive)
REMARK    1  A    between atoms: C_2  and  N_3 
REMARK    2  A    between atoms: N_3  and  C_5 
REMARK    3  A    between atoms: C_5  and  C_6 
REMARK    4  A    between atoms: C_6  and  N_7 
REMARK       I    between atoms: N_7  and  C_8 
REMARK    5  A    between atoms: C_8  and  C_9 
REMARK    6  A    between atoms: C_10  and  C_11 
ROOT
HETATM    1  N   UNL     1      -3.993   3.592 -32.500  1.00  0.00    -0.354 N 
HETATM    2  C   UNL     1      -2.694   3.980 -32.221  1.00  0.00     0.255 C 
HETATM    3  O   UNL     1      -2.109   3.532 -31.241  1.00  0.00    -0.268 OA
HETATM    4  H   UNL     1      -4.451   3.980 -33.313  1.00  0.00     0.162 HD
ENDROOT
BRANCH   2   5
HETATM    5  C   UNL     1      -2.096   4.903 -33.176  1.00  0.00     0.080 A 
HETATM    6  C   UNL     1      -1.357   6.111 -32.929  1.00  0.00     0.104 A 
HETATM    7  N   UNL     1      -1.009   6.702 -34.085  1.00  0.00    -0.174 NA
HETATM    8  N   UNL     1      -1.492   5.912 -35.042  1.00  0.00    -0.288 N 
HETATM    9  H   UNL     1      -1.342   6.186 -36.008  1.00  0.00     0.188 HD
HETATM   10  C   UNL     1      -2.147   4.819 -34.560  1.00  0.00     0.128 A 
BRANCH   6  11
HETATM   11  C   UNL     1      -0.957   6.736 -31.666  1.00  0.00    -0.002 A 
HETATM   12  C   UNL     1      -1.839   7.534 -30.931  1.00  0.00     0.056 A 
HETATM   13  C   UNL     1      -1.429   8.090 -29.724  1.00  0.00     0.117 A 
HETATM   14  F   UNL     1      -2.283   8.862 -29.037  1.00  0.00    -0.206 F 
HETATM   15  C   UNL     1      -0.157   7.858 -29.214  1.00  0.00     0.042 A 
HETATM   16  C   UNL     1       0.725   7.049 -29.926  1.00  0.00     0.004 A 
HETATM   17  C   UNL     1       0.327   6.491 -31.143  1.00  0.00     0.014 A 
ENDBRANCH   6  11
ENDBRANCH   2   5
BRANCH   1  18
HETATM   18  C   UNL     1      -4.729   2.717 -31.612  1.00  0.00     0.162 C 
BRANCH  18  19
HETATM   19  C   UNL     1      -5.042   1.277 -32.138  1.00  0.00     0.143 C 
HETATM   20  C   UNL     1      -5.885   1.205 -33.430  1.00  0.00     0.041 C 
HETATM   21  C   UNL     1      -7.350   1.266 -33.012  1.00  0.00     0.003 C 
HETATM   22  C   UNL     1      -7.386   0.849 -31.549  1.00  0.00     0.003 C 
HETATM   23  C   UNL     1      -5.952   0.486 -31.173  1.00  0.00     0.041 C 
BRANCH  19  24
HETATM   24  N   UNL     1      -3.702   0.486 -32.370  1.00  0.00    -0.065 N 
HETATM   25  H   UNL     1      -3.062   1.140 -32.841  1.00  0.00     0.280 HD
HETATM   26  C   UNL     1      -2.994   0.129 -31.063  1.00  0.00     0.270 C 
BRANCH  24  27
HETATM   27  C   UNL     1      -3.748  -0.767 -33.236  1.00  0.00     0.231 C 
HETATM   28  C   UNL     1      -3.621  -2.050 -32.443  1.00  0.00     0.034 C 
ENDBRANCH  24  27
ENDBRANCH  19  24
ENDBRANCH  18  19
ENDBRANCH   1  18
TORSDOF 6
ENDMDL
MODEL 10
REMARK VINA RESULT:      -7.4      5.343      8.506
REMARK  6 active torsions:
REMARK  status: ('A' for Active; 'I' for Inactive)
REMARK    1  A    between atoms: C_2  and  N_3 
REMARK    2  A    between atoms: N_3  and  C_5 
REMARK    3  A    between atoms: C_5  and  C_6 
REMARK    4  A    between atoms: C_6  and  N_7 
REMARK       I    between atoms: N_7  and  C_8 
REMARK    5  A    between atoms: C_8  and  C_9 
REMARK    6  A    between atoms: C_10  and  C_11 
ROOT
HETATM    1  N   UNL     1     -10.061   1.752 -32.545  1.00  0.00    -0.354 N 
HETATM    2  C   UNL     1      -8.776   2.247 -32.673  1.00  0.00     0.255 C 
HETATM    3  O   UNL     1      -8.462   2.916 -33.652  1.00  0.00    -0.268 OA
HETATM    4  H   UNL     1     -10.290   1.200 -31.729  1.00  0.00     0.162 HD
ENDROOT
BRANCH   2   5
HETATM    5  C   UNL     1      -7.873   1.943 -31.571  1.00  0.00     0.080 A 
HETATM    6  C   UNL     1      -6.897   0.893 -31.460  1.00  0.00     0.104 A 
HETATM    7  N   UNL     1      -6.293   0.927 -30.260  1.00  0.00    -0.174 NA
HETATM    8  N   UNL     1      -6.844   1.957 -29.620  1.00  0.00    -0.288 N 
HETATM    9  H   UNL     1      -6.529   2.158 -28.676  1.00  0.00     0.188 HD
HETATM   10  C   UNL     1      -7.791   2.605 -30.355  1.00  0.00     0.128 A 
BRANCH   6  11
HETATM   11  C   UNL     1      -6.499  -0.137 -32.423  1.00  0.00    -0.002 A 
HETATM   12  C   UNL     1      -5.230  -0.722 -32.388  1.00  0.00     0.056 A 
HETATM   13  C   UNL     1      -4.899  -1.715 -33.305  1.00  0.00     0.117 A 
HETATM   14  F   UNL     1      -3.675  -2.259 -33.266  1.00  0.00    -0.206 F 
HETATM   15  C   UNL     1      -5.813  -2.159 -34.254  1.00  0.00     0.042 A 
HETATM   16  C   UNL     1      -7.087  -1.599 -34.287  1.00  0.00     0.004 A 
HETATM   17  C   UNL     1      -7.428  -0.596 -33.376  1.00  0.00     0.014 A 
ENDBRANCH   6  11
ENDBRANCH   2   5
BRANCH   1  18
HETATM   18  C   UNL     1     -11.051   1.934 -33.586  1.00  0.00     0.162 C 
BRANCH  18  19
HETATM   19  C   UNL     1     -12.297   2.811 -33.231  1.00  0.00     0.143 C 
HETATM   20  C   UNL     1     -12.810   3.733 -34.360  1.00  0.00     0.041 C 
HETATM   21  C   UNL     1     -12.002   5.023 -34.284  1.00  0.00     0.003 C 
HETATM   22  C   UNL     1     -11.433   5.081 -32.874  1.00  0.00     0.003 C 
HETATM   23  C   UNL     1     -11.984   3.860 -32.142  1.00  0.00     0.041 C 
BRANCH  19  24
HETATM   24  N   UNL     1     -13.482   1.893 -32.757  1.00  0.00    -0.065 N 
HETATM   25  H   UNL     1     -13.101   1.297 -32.009  1.00  0.00     0.280 HD
HETATM   26  C   UNL     1     -14.607   2.680 -32.085  1.00  0.00     0.270 C 
BRANCH  24  27
HETATM   27  C   UNL     1     -14.113   0.951 -33.775  1.00  0.00     0.231 C 
HETATM   28  C   UNL     1     -13.653  -0.484 -33.632  1.00  0.00     0.034 C 
ENDBRANCH  24  27
ENDBRANCH  19  24
ENDBRANCH  18  19
ENDBRANCH   1  18
TORSDOF 6
ENDMDL
