MODEL 1
REMARK VINA RESULT:      -9.2      0.000      0.000
REMARK  5 active torsions:
REMARK  status: ('A' for Active; 'I' for Inactive)
REMARK    1  A    between atoms: C_4  and  N_5 
REMARK    2  A    between atoms: C_9  and  C_10 
REMARK    3  A    between atoms: C_13  and  O_14 
REMARK    4  A    between atoms: C_17  and  C_18 
REMARK       I    between atoms: C_18  and  N_19 
REMARK    5  A    between atoms: N_19  and  C_20 
ROOT
HETATM    1  N   UNL     1      -5.068   3.871 -31.714  1.00  0.00    -0.292 N 
HETATM    2  C   UNL     1      -6.276   4.194 -31.056  1.00  0.00     0.179 C 
HETATM    3  S   UNL     1      -6.875   5.716 -30.664  1.00  0.00    -0.040 SA
HETATM    4  N   UNL     1      -7.065   3.142 -30.680  1.00  0.00    -0.354 N 
HETATM    5  C   UNL     1      -7.030   1.832 -31.289  1.00  0.00     0.158 C 
HETATM    6  C   UNL     1      -5.657   1.553 -31.816  1.00  0.00     0.060 C 
HETATM    7  C   UNL     1      -4.742   2.528 -32.035  1.00  0.00     0.030 C 
HETATM    8  C   UNL     1      -3.366   2.251 -32.611  1.00  0.00     0.070 C 
HETATM    9  H   UNL     1      -7.952   3.422 -30.277  1.00  0.00     0.163 HD
ENDROOT
BRANCH   6  10
HETATM   10  C   UNL     1      -5.409   0.104 -32.090  1.00  0.00     0.257 C 
HETATM   11  N   UNL     1      -5.244  -0.189 -33.427  1.00  0.00    -0.306 N 
HETATM   12  H   UNL     1      -5.262   0.556 -34.106  1.00  0.00     0.170 HD
HETATM   13  O   UNL     1      -5.337  -0.680 -31.154  1.00  0.00    -0.267 OA
BRANCH  11  14
HETATM   14  C   UNL     1      -5.259  -1.481 -33.927  1.00  0.00     0.160 A 
HETATM   15  N   UNL     1      -4.260  -2.363 -33.841  1.00  0.00    -0.110 NA
HETATM   16  O   UNL     1      -4.729  -3.541 -34.382  1.00  0.00    -0.216 OA
HETATM   17  C   UNL     1      -6.012  -3.370 -34.787  1.00  0.00     0.078 A 
HETATM   18  C   UNL     1      -6.685  -4.561 -35.333  1.00  0.00     0.079 C 
HETATM   19  C   UNL     1      -6.384  -2.069 -34.555  1.00  0.00     0.087 A 
ENDBRANCH  11  14
ENDBRANCH   6  10
BRANCH   5  20
HETATM   20  C   UNL     1      -8.173   1.710 -32.286  1.00  0.00    -0.031 A 
HETATM   21  C   UNL     1      -9.116   0.671 -32.213  1.00  0.00     0.012 A 
HETATM   22  C   UNL     1     -10.147   0.573 -33.152  1.00  0.00     0.037 A 
HETATM   23  C   UNL     1     -10.235   1.510 -34.175  1.00  0.00     0.065 A 
HETATM   24  C   UNL     1      -9.308   2.538 -34.277  1.00  0.00     0.037 A 
HETATM   25  C   UNL     1      -8.280   2.639 -33.337  1.00  0.00     0.012 A 
BRANCH  23  26
HETATM   26  O   UNL     1     -11.226   1.454 -35.109  1.00  0.00    -0.361 OA
HETATM   27  H   UNL     1     -11.367   0.524 -35.350  1.00  0.00     0.217 HD
ENDBRANCH  23  26
ENDBRANCH   5  20
BRANCH   1  28
HETATM   28  C   UNL     1      -4.110   4.928 -31.922  1.00  0.00     0.048 A 
HETATM   29  C   UNL     1      -3.344   5.349 -30.818  1.00  0.00     0.037 A 
HETATM   30  C   UNL     1      -2.404   6.379 -30.937  1.00  0.00    -0.060 A 
HETATM   31  C   UNL     1      -1.630   6.835 -29.736  1.00  0.00     0.048 C 
HETATM   32  C   UNL     1      -2.187   6.949 -32.191  1.00  0.00     0.007 A 
HETATM   33  C   UNL     1      -2.938   6.538 -33.295  1.00  0.00     0.009 A 
HETATM   34  C   UNL     1      -3.925   5.545 -33.173  1.00  0.00    -0.035 A 
HETATM   35  C   UNL     1      -4.740   5.220 -34.395  1.00  0.00     0.050 C 
ENDBRANCH   1  28
TORSDOF 5
ENDMDL
MODEL 2
REMARK VINA RESULT:      -8.4      2.852      5.747
REMARK  5 active torsions:
REMARK  status: ('A' for Active; 'I' for Inactive)
REMARK    1  A    between atoms: C_4  and  N_5 
REMARK    2  A    between atoms: C_9  and  C_10 
REMARK    3  A    between atoms: C_13  and  O_14 
REMARK    4  A    between atoms: C_17  and  C_18 
REMARK       I    between atoms: C_18  and  N_19 
REMARK    5  A    between atoms: N_19  and  C_20 
ROOT
HETATM    1  N   UNL     1      -6.885   3.865 -32.131  1.00  0.00    -0.292 N 
HETATM    2  C   UNL     1      -5.939   3.736 -33.173  1.00  0.00     0.179 C 
HETATM    3  S   UNL     1      -4.366   4.329 -33.233  1.00  0.00    -0.040 SA
HETATM    4  N   UNL     1      -6.345   3.048 -34.284  1.00  0.00    -0.354 N 
HETATM    5  C   UNL     1      -7.410   2.072 -34.298  1.00  0.00     0.158 C 
HETATM    6  C   UNL     1      -8.421   2.406 -33.244  1.00  0.00     0.060 C 
HETATM    7  C   UNL     1      -8.155   3.239 -32.210  1.00  0.00     0.030 C 
HETATM    8  C   UNL     1      -9.164   3.543 -31.118  1.00  0.00     0.070 C 
HETATM    9  H   UNL     1      -5.614   2.919 -34.973  1.00  0.00     0.163 HD
ENDROOT
BRANCH   6  10
HETATM   10  C   UNL     1      -9.734   1.716 -33.441  1.00  0.00     0.257 C 
HETATM   11  N   UNL     1     -10.605   2.402 -34.258  1.00  0.00    -0.306 N 
HETATM   12  H   UNL     1     -10.312   3.267 -34.686  1.00  0.00     0.170 HD
HETATM   13  O   UNL     1      -9.922   0.626 -32.919  1.00  0.00    -0.267 OA
BRANCH  11  14
HETATM   14  C   UNL     1     -11.948   2.083 -34.373  1.00  0.00     0.160 A 
HETATM   15  N   UNL     1     -12.528   1.512 -35.433  1.00  0.00    -0.110 NA
HETATM   16  O   UNL     1     -13.844   1.290 -35.087  1.00  0.00    -0.216 OA
HETATM   17  C   UNL     1     -14.054   1.719 -33.818  1.00  0.00     0.078 A 
HETATM   18  C   UNL     1     -15.403   1.495 -33.271  1.00  0.00     0.079 C 
HETATM   19  C   UNL     1     -12.892   2.266 -33.333  1.00  0.00     0.087 A 
ENDBRANCH  11  14
ENDBRANCH   6  10
BRANCH   5  20
HETATM   20  C   UNL     1      -6.813   0.674 -34.241  1.00  0.00    -0.031 A 
HETATM   21  C   UNL     1      -5.769   0.346 -33.358  1.00  0.00     0.012 A 
HETATM   22  C   UNL     1      -5.228  -0.943 -33.337  1.00  0.00     0.037 A 
HETATM   23  C   UNL     1      -5.720  -1.908 -34.208  1.00  0.00     0.065 A 
HETATM   24  C   UNL     1      -6.740  -1.606 -35.099  1.00  0.00     0.037 A 
HETATM   25  C   UNL     1      -7.285  -0.320 -35.117  1.00  0.00     0.012 A 
BRANCH  23  26
HETATM   26  O   UNL     1      -5.223  -3.177 -34.219  1.00  0.00    -0.361 OA
HETATM   27  H   UNL     1      -5.501  -3.621 -33.402  1.00  0.00     0.217 HD
ENDBRANCH  23  26
ENDBRANCH   5  20
BRANCH   1  28
HETATM   28  C   UNL     1      -6.578   4.768 -31.050  1.00  0.00     0.048 A 
HETATM   29  C   UNL     1      -6.914   6.126 -31.212  1.00  0.00     0.037 A 
HETATM   30  C   UNL     1      -6.635   7.066 -30.213  1.00  0.00    -0.060 A 
HETATM   31  C   UNL     1      -6.967   8.513 -30.426  1.00  0.00     0.048 C 
HETATM   32  C   UNL     1      -6.071   6.627 -29.015  1.00  0.00     0.007 A 
HETATM   33  C   UNL     1      -5.736   5.283 -28.842  1.00  0.00     0.009 A 
HETATM   34  C   UNL     1      -5.958   4.341 -29.861  1.00  0.00    -0.035 A 
HETATM   35  C   UNL     1      -5.496   2.931 -29.619  1.00  0.00     0.050 C 
ENDBRANCH   1  28
TORSDOF 5
ENDMDL
MODEL 3
REMARK VINA RESULT:      -8.4      3.875      7.018
REMARK  5 active torsions:
REMARK  status: ('A' for Active; 'I' for Inactive)
REMARK    1  A    between atoms: C_4  and  N_5 
REMARK    2  A    between atoms: C_9  and  C_10 
REMARK    3  A    between atoms: C_13  and  O_14 
REMARK    4  A    between atoms: C_17  and  C_18 
REMARK       I    between atoms: C_18  and  N_19 
REMARK    5  A    between atoms: N_19  and  C_20 
ROOT
HETATM    1  N   UNL     1      -7.544   2.267 -33.017  1.00  0.00    -0.292 N 
HETATM    2  C   UNL     1      -7.817   1.647 -34.257  1.00  0.00     0.179 C 
HETATM    3  S   UNL     1      -6.915   0.475 -35.058  1.00  0.00    -0.040 SA
HETATM    4  N   UNL     1      -8.956   2.047 -34.901  1.00  0.00    -0.354 N 
HETATM    5  C   UNL     1     -10.099   2.644 -34.248  1.00  0.00     0.158 C 
HETATM    6  C   UNL     1      -9.655   3.394 -33.031  1.00  0.00     0.060 C 
HETATM    7  C   UNL     1      -8.451   3.193 -32.442  1.00  0.00     0.030 C 
HETATM    8  C   UNL     1      -8.020   3.921 -31.183  1.00  0.00     0.070 C 
HETATM    9  H   UNL     1      -9.149   1.526 -35.748  1.00  0.00     0.163 HD
ENDROOT
BRANCH   6  10
HETATM   10  C   UNL     1     -10.675   4.365 -32.527  1.00  0.00     0.257 C 
HETATM   11  N   UNL     1     -11.555   3.824 -31.615  1.00  0.00    -0.306 N 
HETATM   12  H   UNL     1     -11.445   2.865 -31.325  1.00  0.00     0.170 HD
HETATM   13  O   UNL     1     -10.640   5.526 -32.912  1.00  0.00    -0.267 OA
BRANCH  11  14
HETATM   14  C   UNL     1     -12.720   4.459 -31.216  1.00  0.00     0.160 A 
HETATM   15  N   UNL     1     -12.800   5.470 -30.346  1.00  0.00    -0.110 NA
HETATM   16  O   UNL     1     -14.123   5.855 -30.313  1.00  0.00    -0.216 OA
HETATM   17  C   UNL     1     -14.838   5.082 -31.169  1.00  0.00     0.078 A 
HETATM   18  C   UNL     1     -16.268   5.409 -31.300  1.00  0.00     0.079 C 
HETATM   19  C   UNL     1     -14.001   4.156 -31.740  1.00  0.00     0.087 A 
ENDBRANCH  11  14
ENDBRANCH   6  10
BRANCH   5  20
HETATM   20  C   UNL     1     -11.168   1.583 -34.034  1.00  0.00    -0.031 A 
HETATM   21  C   UNL     1     -12.477   1.737 -34.519  1.00  0.00     0.012 A 
HETATM   22  C   UNL     1     -13.444   0.753 -34.295  1.00  0.00     0.037 A 
HETATM   23  C   UNL     1     -13.109  -0.388 -33.574  1.00  0.00     0.065 A 
HETATM   24  C   UNL     1     -11.826  -0.558 -33.072  1.00  0.00     0.037 A 
HETATM   25  C   UNL     1     -10.858   0.423 -33.300  1.00  0.00     0.012 A 
BRANCH  23  26
HETATM   26  O   UNL     1     -14.020  -1.373 -33.335  1.00  0.00    -0.361 OA
HETATM   27  H   UNL     1     -14.811  -1.193 -33.867  1.00  0.00     0.217 HD
ENDBRANCH  23  26
ENDBRANCH   5  20
BRANCH   1  28
HETATM   28  C   UNL     1      -6.250   2.042 -32.422  1.00  0.00     0.048 A 
HETATM   29  C   UNL     1      -5.189   2.877 -32.820  1.00  0.00     0.037 A 
HETATM   30  C   UNL     1      -3.901   2.713 -32.297  1.00  0.00    -0.060 A 
HETATM   31  C   UNL     1      -2.778   3.590 -32.767  1.00  0.00     0.048 C 
HETATM   32  C   UNL     1      -3.691   1.740 -31.320  1.00  0.00     0.007 A 
HETATM   33  C   UNL     1      -4.736   0.907 -30.915  1.00  0.00     0.009 A 
HETATM   34  C   UNL     1      -6.020   1.026 -31.475  1.00  0.00    -0.035 A 
HETATM   35  C   UNL     1      -7.065   0.038 -31.038  1.00  0.00     0.050 C 
ENDBRANCH   1  28
TORSDOF 5
ENDMDL
MODEL 4
REMARK VINA RESULT:      -8.3      2.150      2.939
REMARK  5 active torsions:
REMARK  status: ('A' for Active; 'I' for Inactive)
REMARK    1  A    between atoms: C_4  and  N_5 
REMARK    2  A    between atoms: C_9  and  C_10 
REMARK    3  A    between atoms: C_13  and  O_14 
REMARK    4  A    between atoms: C_17  and  C_18 
REMARK       I    between atoms: C_18  and  N_19 
REMARK    5  A    between atoms: N_19  and  C_20 
ROOT
HETATM    1  N   UNL     1      -7.870   3.575 -32.056  1.00  0.00    -0.292 N 
HETATM    2  C   UNL     1      -8.923   3.330 -31.146  1.00  0.00     0.179 C 
HETATM    3  S   UNL     1      -9.636   4.400 -30.062  1.00  0.00    -0.040 SA
HETATM    4  N   UNL     1      -9.434   2.060 -31.132  1.00  0.00    -0.354 N 
HETATM    5  C   UNL     1      -9.347   1.130 -32.234  1.00  0.00     0.158 C 
HETATM    6  C   UNL     1      -8.111   1.404 -33.033  1.00  0.00     0.060 C 
HETATM    7  C   UNL     1      -7.431   2.573 -32.958  1.00  0.00     0.030 C 
HETATM    8  C   UNL     1      -6.204   2.867 -33.802  1.00  0.00     0.070 C 
HETATM    9  H   UNL     1     -10.232   1.950 -30.518  1.00  0.00     0.163 HD
ENDROOT
BRANCH   6  10
HETATM   10  C   UNL     1      -7.719   0.270 -33.928  1.00  0.00     0.257 C 
HETATM   11  N   UNL     1      -7.032  -0.735 -33.283  1.00  0.00    -0.306 N 
HETATM   12  H   UNL     1      -6.871  -0.671 -32.290  1.00  0.00     0.170 HD
HETATM   13  O   UNL     1      -8.052   0.293 -35.105  1.00  0.00    -0.267 OA
BRANCH  11  14
HETATM   14  C   UNL     1      -6.360  -1.744 -33.953  1.00  0.00     0.160 A 
HETATM   15  N   UNL     1      -5.043  -1.794 -34.173  1.00  0.00    -0.110 NA
HETATM   16  O   UNL     1      -4.793  -3.004 -34.785  1.00  0.00    -0.216 OA
HETATM   17  C   UNL     1      -5.957  -3.685 -34.926  1.00  0.00     0.078 A 
HETATM   18  C   UNL     1      -5.854  -5.033 -35.509  1.00  0.00     0.079 C 
HETATM   19  C   UNL     1      -6.987  -2.914 -34.449  1.00  0.00     0.087 A 
ENDBRANCH  11  14
ENDBRANCH   6  10
BRANCH   5  20
HETATM   20  C   UNL     1     -10.661   1.134 -33.000  1.00  0.00    -0.031 A 
HETATM   21  C   UNL     1     -11.152   2.289 -33.632  1.00  0.00     0.012 A 
HETATM   22  C   UNL     1     -12.370   2.268 -34.316  1.00  0.00     0.037 A 
HETATM   23  C   UNL     1     -13.111   1.092 -34.363  1.00  0.00     0.065 A 
HETATM   24  C   UNL     1     -12.655  -0.059 -33.736  1.00  0.00     0.037 A 
HETATM   25  C   UNL     1     -11.435  -0.040 -33.056  1.00  0.00     0.012 A 
BRANCH  23  26
HETATM   26  O   UNL     1     -14.302   1.027 -35.022  1.00  0.00    -0.361 OA
HETATM   27  H   UNL     1     -14.880   0.408 -34.547  1.00  0.00     0.217 HD
ENDBRANCH  23  26
ENDBRANCH   5  20
BRANCH   1  28
HETATM   28  C   UNL     1      -7.160   4.824 -31.943  1.00  0.00     0.048 A 
HETATM   29  C   UNL     1      -6.026   4.862 -31.109  1.00  0.00     0.037 A 
HETATM   30  C   UNL     1      -5.291   6.041 -30.937  1.00  0.00    -0.060 A 
HETATM   31  C   UNL     1      -4.110   6.066 -30.013  1.00  0.00     0.048 C 
HETATM   32  C   UNL     1      -5.663   7.176 -31.659  1.00  0.00     0.007 A 
HETATM   33  C   UNL     1      -6.784   7.149 -32.491  1.00  0.00     0.009 A 
HETATM   34  C   UNL     1      -7.562   5.987 -32.625  1.00  0.00    -0.035 A 
HETATM   35  C   UNL     1      -8.795   6.070 -33.481  1.00  0.00     0.050 C 
ENDBRANCH   1  28
TORSDOF 5
ENDMDL
MODEL 5
REMARK VINA RESULT:      -8.3      2.692      6.227
REMARK  5 active torsions:
REMARK  status: ('A' for Active; 'I' for Inactive)
REMARK    1  A    between atoms: C_4  and  N_5 
REMARK    2  A    between atoms: C_9  and  C_10 
REMARK    3  A    between atoms: C_13  and  O_14 
REMARK    4  A    between atoms: C_17  and  C_18 
REMARK       I    between atoms: C_18  and  N_19 
REMARK    5  A    between atoms: N_19  and  C_20 
ROOT
HETATM    1  N   UNL     1      -9.705   3.049 -33.192  1.00  0.00    -0.292 N 
HETATM    2  C   UNL     1      -9.082   4.144 -33.832  1.00  0.00     0.179 C 
HETATM    3  S   UNL     1      -9.717   5.670 -34.143  1.00  0.00    -0.040 SA
HETATM    4  N   UNL     1      -7.798   3.949 -34.264  1.00  0.00    -0.354 N 
HETATM    5  C   UNL     1      -6.895   2.958 -33.724  1.00  0.00     0.158 C 
HETATM    6  C   UNL     1      -7.673   1.785 -33.213  1.00  0.00     0.060 C 
HETATM    7  C   UNL     1      -8.999   1.845 -32.943  1.00  0.00     0.030 C 
HETATM    8  C   UNL     1      -9.778   0.669 -32.383  1.00  0.00     0.070 C 
HETATM    9  H   UNL     1      -7.368   4.780 -34.651  1.00  0.00     0.163 HD
ENDROOT
BRANCH   6  10
HETATM   10  C   UNL     1      -6.837   0.560 -33.015  1.00  0.00     0.257 C 
HETATM   11  N   UNL     1      -6.309   0.054 -34.182  1.00  0.00    -0.306 N 
HETATM   12  H   UNL     1      -6.474   0.533 -35.054  1.00  0.00     0.170 HD
HETATM   13  O   UNL     1      -6.659   0.132 -31.883  1.00  0.00    -0.267 OA
BRANCH  11  14
HETATM   14  C   UNL     1      -5.725  -1.200 -34.269  1.00  0.00     0.160 A 
HETATM   15  N   UNL     1      -4.490  -1.516 -33.869  1.00  0.00    -0.110 NA
HETATM   16  O   UNL     1      -4.355  -2.875 -34.051  1.00  0.00    -0.216 OA
HETATM   17  C   UNL     1      -5.509  -3.379 -34.554  1.00  0.00     0.078 A 
HETATM   18  C   UNL     1      -5.551  -4.838 -34.749  1.00  0.00     0.079 C 
HETATM   19  C   UNL     1      -6.399  -2.351 -34.746  1.00  0.00     0.087 A 
ENDBRANCH  11  14
ENDBRANCH   6  10
BRANCH   5  20
HETATM   20  C   UNL     1      -5.950   3.625 -32.735  1.00  0.00    -0.031 A 
HETATM   21  C   UNL     1      -6.299   3.818 -31.388  1.00  0.00     0.012 A 
HETATM   22  C   UNL     1      -5.417   4.448 -30.504  1.00  0.00     0.037 A 
HETATM   23  C   UNL     1      -4.185   4.897 -30.967  1.00  0.00     0.065 A 
HETATM   24  C   UNL     1      -3.823   4.730 -32.296  1.00  0.00     0.037 A 
HETATM   25  C   UNL     1      -4.701   4.097 -33.178  1.00  0.00     0.012 A 
BRANCH  23  26
HETATM   26  O   UNL     1      -3.295   5.513 -30.138  1.00  0.00    -0.361 OA
HETATM   27  H   UNL     1      -3.109   6.397 -30.493  1.00  0.00     0.217 HD
ENDBRANCH  23  26
ENDBRANCH   5  20
BRANCH   1  28
HETATM   28  C   UNL     1     -11.119   3.138 -32.929  1.00  0.00     0.048 A 
HETATM   29  C   UNL     1     -11.528   3.753 -31.730  1.00  0.00     0.037 A 
HETATM   30  C   UNL     1     -12.883   3.865 -31.397  1.00  0.00    -0.060 A 
HETATM   31  C   UNL     1     -13.290   4.489 -30.095  1.00  0.00     0.048 C 
HETATM   32  C   UNL     1     -13.838   3.410 -32.306  1.00  0.00     0.007 A 
HETATM   33  C   UNL     1     -13.446   2.801 -33.499  1.00  0.00     0.009 A 
HETATM   34  C   UNL     1     -12.087   2.632 -33.817  1.00  0.00    -0.035 A 
HETATM   35  C   UNL     1     -11.755   1.896 -35.085  1.00  0.00     0.050 C 
ENDBRANCH   1  28
TORSDOF 5
ENDMDL
MODEL 6
REMARK VINA RESULT:      -8.3      3.754      8.159
REMARK  5 active torsions:
REMARK  status: ('A' for Active; 'I' for Inactive)
REMARK    1  A    between atoms: C_4  and  N_5 
REMARK    2  A    between atoms: C_9  and  C_10 
REMARK    3  A    between atoms: C_13  and  O_14 
REMARK    4  A    between atoms: C_17  and  C_18 
REMARK       I    between atoms: C_18  and  N_19 
REMARK    5  A    between atoms: N_19  and  C_20 
ROOT
HETATM    1  N   UNL     1      -5.802   3.298 -32.108  1.00  0.00    -0.292 N 
HETATM    2  C   UNL     1      -6.886   4.204 -32.079  1.00  0.00     0.179 C 
HETATM    3  S   UNL     1      -8.532   3.862 -32.047  1.00  0.00    -0.040 SA
HETATM    4  N   UNL     1      -6.568   5.535 -32.082  1.00  0.00    -0.354 N 
HETATM    5  C   UNL     1      -5.303   6.075 -31.639  1.00  0.00     0.158 C 
HETATM    6  C   UNL     1      -4.215   5.071 -31.860  1.00  0.00     0.060 C 
HETATM    7  C   UNL     1      -4.461   3.754 -32.059  1.00  0.00     0.030 C 
HETATM    8  C   UNL     1      -3.356   2.729 -32.239  1.00  0.00     0.070 C 
HETATM    9  H   UNL     1      -7.370   6.146 -31.988  1.00  0.00     0.163 HD
ENDROOT
BRANCH   6  10
HETATM   10  C   UNL     1      -2.842   5.665 -31.819  1.00  0.00     0.257 C 
HETATM   11  N   UNL     1      -2.180   5.454 -30.630  1.00  0.00    -0.306 N 
HETATM   12  H   UNL     1      -2.620   4.909 -29.904  1.00  0.00     0.170 HD
HETATM   13  O   UNL     1      -2.407   6.237 -32.809  1.00  0.00    -0.267 OA
BRANCH  11  14
HETATM   14  C   UNL     1      -1.017   6.121 -30.280  1.00  0.00     0.160 A 
HETATM   15  N   UNL     1       0.040   6.315 -31.073  1.00  0.00    -0.110 NA
HETATM   16  O   UNL     1       0.924   7.098 -30.363  1.00  0.00    -0.216 OA
HETATM   17  C   UNL     1       0.397   7.382 -29.146  1.00  0.00     0.078 A 
HETATM   18  C   UNL     1       1.195   8.268 -28.282  1.00  0.00     0.079 C 
HETATM   19  C   UNL     1      -0.819   6.754 -29.029  1.00  0.00     0.087 A 
ENDBRANCH  11  14
ENDBRANCH   6  10
BRANCH   5  20
HETATM   20  C   UNL     1      -5.452   6.608 -30.221  1.00  0.00    -0.031 A 
HETATM   21  C   UNL     1      -5.550   5.752 -29.111  1.00  0.00     0.012 A 
HETATM   22  C   UNL     1      -5.703   6.268 -27.821  1.00  0.00     0.037 A 
HETATM   23  C   UNL     1      -5.769   7.644 -27.636  1.00  0.00     0.065 A 
HETATM   24  C   UNL     1      -5.689   8.511 -28.717  1.00  0.00     0.037 A 
HETATM   25  C   UNL     1      -5.532   7.996 -30.006  1.00  0.00     0.012 A 
BRANCH  23  26
HETATM   26  O   UNL     1      -5.915   8.189 -26.395  1.00  0.00    -0.361 OA
HETATM   27  H   UNL     1      -5.716   9.137 -26.452  1.00  0.00     0.217 HD
ENDBRANCH  23  26
ENDBRANCH   5  20
BRANCH   1  28
HETATM   28  C   UNL     1      -6.095   1.904 -32.333  1.00  0.00     0.048 A 
HETATM   29  C   UNL     1      -6.354   1.491 -33.654  1.00  0.00     0.037 A 
HETATM   30  C   UNL     1      -6.660   0.158 -33.951  1.00  0.00    -0.060 A 
HETATM   31  C   UNL     1      -6.970  -0.248 -35.361  1.00  0.00     0.048 C 
HETATM   32  C   UNL     1      -6.645  -0.781 -32.919  1.00  0.00     0.007 A 
HETATM   33  C   UNL     1      -6.388  -0.384 -31.605  1.00  0.00     0.009 A 
HETATM   34  C   UNL     1      -6.137   0.962 -31.288  1.00  0.00    -0.035 A 
HETATM   35  C   UNL     1      -5.947   1.312 -29.838  1.00  0.00     0.050 C 
ENDBRANCH   1  28
TORSDOF 5
ENDMDL
MODEL 7
REMARK VINA RESULT:      -8.2      3.473      8.183
REMARK  5 active torsions:
REMARK  status: ('A' for Active; 'I' for Inactive)
REMARK    1  A    between atoms: C_4  and  N_5 
REMARK    2  A    between atoms: C_9  and  C_10 
REMARK    3  A    between atoms: C_13  and  O_14 
REMARK    4  A    between atoms: C_17  and  C_18 
REMARK       I    between atoms: C_18  and  N_19 
REMARK    5  A    between atoms: N_19  and  C_20 
ROOT
HETATM    1  N   UNL     1      -7.975   2.349 -33.112  1.00  0.00    -0.292 N 
HETATM    2  C   UNL     1      -6.967   1.590 -33.748  1.00  0.00     0.179 C 
HETATM    3  S   UNL     1      -7.088   0.652 -35.139  1.00  0.00    -0.040 SA
HETATM    4  N   UNL     1      -5.730   1.607 -33.163  1.00  0.00    -0.354 N 
HETATM    5  C   UNL     1      -5.251   2.656 -32.292  1.00  0.00     0.158 C 
HETATM    6  C   UNL     1      -6.403   3.281 -31.568  1.00  0.00     0.060 C 
HETATM    7  C   UNL     1      -7.687   3.148 -31.977  1.00  0.00     0.030 C 
HETATM    8  C   UNL     1      -8.850   3.818 -31.268  1.00  0.00     0.070 C 
HETATM    9  H   UNL     1      -5.023   1.110 -33.691  1.00  0.00     0.163 HD
ENDROOT
BRANCH   6  10
HETATM   10  C   UNL     1      -5.989   4.075 -30.369  1.00  0.00     0.257 C 
HETATM   11  N   UNL     1      -5.878   5.427 -30.608  1.00  0.00    -0.306 N 
HETATM   12  H   UNL     1      -6.105   5.792 -31.520  1.00  0.00     0.170 HD
HETATM   13  O   UNL     1      -5.822   3.503 -29.300  1.00  0.00    -0.267 OA
BRANCH  11  14
HETATM   14  C   UNL     1      -5.271   6.306 -29.726  1.00  0.00     0.160 A 
HETATM   15  N   UNL     1      -5.862   6.899 -28.685  1.00  0.00    -0.110 NA
HETATM   16  O   UNL     1      -4.879   7.609 -28.029  1.00  0.00    -0.216 OA
HETATM   17  C   UNL     1      -3.696   7.438 -28.670  1.00  0.00     0.078 A 
HETATM   18  C   UNL     1      -2.524   8.084 -28.056  1.00  0.00     0.079 C 
HETATM   19  C   UNL     1      -3.898   6.649 -29.776  1.00  0.00     0.087 A 
ENDBRANCH  11  14
ENDBRANCH   6  10
BRANCH   5  20
HETATM   20  C   UNL     1      -4.360   3.601 -33.085  1.00  0.00    -0.031 A 
HETATM   21  C   UNL     1      -4.861   4.398 -34.127  1.00  0.00     0.012 A 
HETATM   22  C   UNL     1      -4.016   5.246 -34.849  1.00  0.00     0.037 A 
HETATM   23  C   UNL     1      -2.661   5.292 -34.539  1.00  0.00     0.065 A 
HETATM   24  C   UNL     1      -2.139   4.504 -33.524  1.00  0.00     0.037 A 
HETATM   25  C   UNL     1      -2.983   3.660 -32.798  1.00  0.00     0.012 A 
BRANCH  23  26
HETATM   26  O   UNL     1      -1.803   6.106 -35.216  1.00  0.00    -0.361 OA
HETATM   27  H   UNL     1      -1.873   5.905 -36.163  1.00  0.00     0.217 HD
ENDBRANCH  23  26
ENDBRANCH   5  20
BRANCH   1  28
HETATM   28  C   UNL     1      -9.333   2.177 -33.563  1.00  0.00     0.048 A 
HETATM   29  C   UNL     1      -9.882   3.173 -34.394  1.00  0.00     0.037 A 
HETATM   30  C   UNL     1     -11.199   3.084 -34.861  1.00  0.00    -0.060 A 
HETATM   31  C   UNL     1     -11.772   4.178 -35.712  1.00  0.00     0.048 C 
HETATM   32  C   UNL     1     -11.951   1.954 -34.540  1.00  0.00     0.007 A 
HETATM   33  C   UNL     1     -11.417   0.958 -33.719  1.00  0.00     0.009 A 
HETATM   34  C   UNL     1     -10.116   1.066 -33.198  1.00  0.00    -0.035 A 
HETATM   35  C   UNL     1      -9.650  -0.013 -32.260  1.00  0.00     0.050 C 
ENDBRANCH   1  28
TORSDOF 5
ENDMDL
MODEL 8
REMARK VINA RESULT:      -8.1      3.530      8.225
REMARK  5 active torsions:
REMARK  status: ('A' for Active; 'I' for Inactive)
REMARK    1  A    between atoms: C_4  and  N_5 
REMARK    2  A    between atoms: C_9  and  C_10 
REMARK    3  A    between atoms: C_13  and  O_14 
REMARK    4  A    between atoms: C_17  and  C_18 
REMARK       I    between atoms: C_18  and  N_19 
REMARK    5  A    between atoms: N_19  and  C_20 
ROOT
HETATM    1  N   UNL     1      -9.036   2.053 -33.168  1.00  0.00    -0.292 N 
HETATM    2  C   UNL     1      -7.999   1.276 -33.732  1.00  0.00     0.179 C 
HETATM    3  S   UNL     1      -8.016   0.395 -35.164  1.00  0.00    -0.040 SA
HETATM    4  N   UNL     1      -6.826   1.222 -33.028  1.00  0.00    -0.354 N 
HETATM    5  C   UNL     1      -6.398   2.218 -32.074  1.00  0.00     0.158 C 
HETATM    6  C   UNL     1      -7.591   2.863 -31.441  1.00  0.00     0.060 C 
HETATM    7  C   UNL     1      -8.833   2.798 -31.979  1.00  0.00     0.030 C 
HETATM    8  C   UNL     1     -10.034   3.489 -31.361  1.00  0.00     0.070 C 
HETATM    9  H   UNL     1      -6.090   0.715 -33.504  1.00  0.00     0.163 HD
ENDROOT
BRANCH   6  10
HETATM   10  C   UNL     1      -7.270   3.596 -30.176  1.00  0.00     0.257 C 
HETATM   11  N   UNL     1      -7.100   4.952 -30.348  1.00  0.00    -0.306 N 
HETATM   12  H   UNL     1      -7.231   5.360 -31.260  1.00  0.00     0.170 HD
HETATM   13  O   UNL     1      -7.218   2.977 -29.122  1.00  0.00    -0.267 OA
BRANCH  11  14
HETATM   14  C   UNL     1      -6.555   5.776 -29.377  1.00  0.00     0.160 A 
HETATM   15  N   UNL     1      -7.223   6.346 -28.370  1.00  0.00    -0.110 NA
HETATM   16  O   UNL     1      -6.287   6.999 -27.597  1.00  0.00    -0.216 OA
HETATM   17  C   UNL     1      -5.055   6.816 -28.134  1.00  0.00     0.078 A 
HETATM   18  C   UNL     1      -3.928   7.401 -27.388  1.00  0.00     0.079 C 
HETATM   19  C   UNL     1      -5.174   6.079 -29.286  1.00  0.00     0.087 A 
ENDBRANCH  11  14
ENDBRANCH   6  10
BRANCH   5  20
HETATM   20  C   UNL     1      -5.397   3.153 -32.737  1.00  0.00    -0.031 A 
HETATM   21  C   UNL     1      -4.044   3.184 -32.358  1.00  0.00     0.012 A 
HETATM   22  C   UNL     1      -3.149   4.064 -32.974  1.00  0.00     0.037 A 
HETATM   23  C   UNL     1      -3.606   4.927 -33.964  1.00  0.00     0.065 A 
HETATM   24  C   UNL     1      -4.940   4.925 -34.346  1.00  0.00     0.037 A 
HETATM   25  C   UNL     1      -5.834   4.043 -33.735  1.00  0.00     0.012 A 
BRANCH  23  26
HETATM   26  O   UNL     1      -2.767   5.798 -34.592  1.00  0.00    -0.361 OA
HETATM   27  H   UNL     1      -3.294   6.355 -35.188  1.00  0.00     0.217 HD
ENDBRANCH  23  26
ENDBRANCH   5  20
BRANCH   1  28
HETATM   28  C   UNL     1     -10.348   1.953 -33.756  1.00  0.00     0.048 A 
HETATM   29  C   UNL     1     -11.141   0.841 -33.412  1.00  0.00     0.037 A 
HETATM   30  C   UNL     1     -12.420   0.666 -33.952  1.00  0.00    -0.060 A 
HETATM   31  C   UNL     1     -13.228  -0.547 -33.599  1.00  0.00     0.048 C 
HETATM   32  C   UNL     1     -12.933   1.650 -34.797  1.00  0.00     0.007 A 
HETATM   33  C   UNL     1     -12.158   2.759 -35.144  1.00  0.00     0.009 A 
HETATM   34  C   UNL     1     -10.850   2.914 -34.653  1.00  0.00    -0.035 A 
HETATM   35  C   UNL     1     -10.060   4.097 -35.139  1.00  0.00     0.050 C 
ENDBRANCH   1  28
TORSDOF 5
ENDMDL
MODEL 9
REMARK VINA RESULT:      -8.1      2.614      6.180
REMARK  5 active torsions:
REMARK  status: ('A' for Active; 'I' for Inactive)
REMARK    1  A    between atoms: C_4  and  N_5 
REMARK    2  A    between atoms: C_9  and  C_10 
REMARK    3  A    between atoms: C_13  and  O_14 
REMARK    4  A    between atoms: C_17  and  C_18 
REMARK       I    between atoms: C_18  and  N_19 
REMARK    5  A    between atoms: N_19  and  C_20 
ROOT
HETATM    1  N   UNL     1      -8.963   3.053 -32.769  1.00  0.00    -0.292 N 
HETATM    2  C   UNL     1      -8.338   4.031 -33.574  1.00  0.00     0.179 C 
HETATM    3  S   UNL     1      -8.847   5.603 -33.889  1.00  0.00    -0.040 SA
HETATM    4  N   UNL     1      -7.171   3.663 -34.186  1.00  0.00    -0.354 N 
HETATM    5  C   UNL     1      -6.304   2.603 -33.724  1.00  0.00     0.158 C 
HETATM    6  C   UNL     1      -7.110   1.559 -33.016  1.00  0.00     0.060 C 
HETATM    7  C   UNL     1      -8.360   1.789 -32.548  1.00  0.00     0.030 C 
HETATM    8  C   UNL     1      -9.160   0.744 -31.791  1.00  0.00     0.070 C 
HETATM    9  H   UNL     1      -6.722   4.417 -34.693  1.00  0.00     0.163 HD
ENDROOT
BRANCH   6  10
HETATM   10  C   UNL     1      -6.391   0.255 -32.865  1.00  0.00     0.257 C 
HETATM   11  N   UNL     1      -6.203  -0.416 -34.053  1.00  0.00    -0.306 N 
HETATM   12  H   UNL     1      -6.510   0.002 -34.917  1.00  0.00     0.170 HD
HETATM   13  O   UNL     1      -6.006  -0.092 -31.757  1.00  0.00    -0.267 OA
BRANCH  11  14
HETATM   14  C   UNL     1      -5.795  -1.739 -34.120  1.00  0.00     0.160 A 
HETATM   15  N   UNL     1      -6.525  -2.759 -34.579  1.00  0.00    -0.110 NA
HETATM   16  O   UNL     1      -5.708  -3.869 -34.553  1.00  0.00    -0.216 OA
HETATM   17  C   UNL     1      -4.485  -3.516 -34.087  1.00  0.00     0.078 A 
HETATM   18  C   UNL     1      -3.468  -4.581 -34.057  1.00  0.00     0.079 C 
HETATM   19  C   UNL     1      -4.498  -2.182 -33.761  1.00  0.00     0.087 A 
ENDBRANCH  11  14
ENDBRANCH   6  10
BRANCH   5  20
HETATM   20  C   UNL     1      -5.144   3.204 -32.945  1.00  0.00    -0.031 A 
HETATM   21  C   UNL     1      -3.922   3.528 -33.559  1.00  0.00     0.012 A 
HETATM   22  C   UNL     1      -2.868   4.065 -32.816  1.00  0.00     0.037 A 
HETATM   23  C   UNL     1      -3.025   4.271 -31.450  1.00  0.00     0.065 A 
HETATM   24  C   UNL     1      -4.217   3.947 -30.817  1.00  0.00     0.037 A 
HETATM   25  C   UNL     1      -5.273   3.415 -31.560  1.00  0.00     0.012 A 
BRANCH  23  26
HETATM   26  O   UNL     1      -2.024   4.795 -30.689  1.00  0.00    -0.361 OA
HETATM   27  H   UNL     1      -1.387   4.089 -30.494  1.00  0.00     0.217 HD
ENDBRANCH  23  26
ENDBRANCH   5  20
BRANCH   1  28
HETATM   28  C   UNL     1     -10.297   3.322 -32.295  1.00  0.00     0.048 A 
HETATM   29  C   UNL     1     -11.377   2.888 -33.088  1.00  0.00     0.037 A 
HETATM   30  C   UNL     1     -12.702   3.125 -32.702  1.00  0.00    -0.060 A 
HETATM   31  C   UNL     1     -13.833   2.687 -33.584  1.00  0.00     0.048 C 
HETATM   32  C   UNL     1     -12.945   3.748 -31.478  1.00  0.00     0.007 A 
HETATM   33  C   UNL     1     -11.882   4.180 -30.682  1.00  0.00     0.009 A 
HETATM   34  C   UNL     1     -10.549   4.000 -31.087  1.00  0.00    -0.035 A 
HETATM   35  C   UNL     1      -9.470   4.565 -30.206  1.00  0.00     0.050 C 
ENDBRANCH   1  28
TORSDOF 5
ENDMDL
MODEL 10
REMARK VINA RESULT:      -8.1      3.379      7.568
REMARK  5 active torsions:
REMARK  status: ('A' for Active; 'I' for Inactive)
REMARK    1  A    between atoms: C_4  and  N_5 
REMARK    2  A    between atoms: C_9  and  C_10 
REMARK    3  A    between atoms: C_13  and  O_14 
REMARK    4  A    between atoms: C_17  and  C_18 
REMARK       I    between atoms: C_18  and  N_19 
REMARK    5  A    between atoms: N_19  and  C_20 
ROOT
HETATM    1  N   UNL     1      -7.119   0.408 -32.729  1.00  0.00    -0.292 N 
HETATM    2  C   UNL     1      -7.291   0.435 -31.327  1.00  0.00     0.179 C 
HETATM    3  S   UNL     1      -6.430  -0.410 -30.154  1.00  0.00    -0.040 SA
HETATM    4  N   UNL     1      -8.285   1.245 -30.850  1.00  0.00    -0.354 N 
HETATM    5  C   UNL     1      -8.820   2.386 -31.556  1.00  0.00     0.158 C 
HETATM    6  C   UNL     1      -8.712   2.167 -33.033  1.00  0.00     0.060 C 
HETATM    7  C   UNL     1      -7.887   1.242 -33.580  1.00  0.00     0.030 C 
HETATM    8  C   UNL     1      -7.745   1.051 -35.078  1.00  0.00     0.070 C 
HETATM    9  H   UNL     1      -8.324   1.288 -29.838  1.00  0.00     0.163 HD
ENDROOT
BRANCH   6  10
HETATM   10  C   UNL     1      -9.588   3.079 -33.834  1.00  0.00     0.257 C 
HETATM   11  N   UNL     1      -9.053   4.333 -34.028  1.00  0.00    -0.306 N 
HETATM   12  H   UNL     1      -8.134   4.545 -33.671  1.00  0.00     0.170 HD
HETATM   13  O   UNL     1     -10.650   2.658 -34.271  1.00  0.00    -0.267 OA
BRANCH  11  14
HETATM   14  C   UNL     1      -9.787   5.403 -34.513  1.00  0.00     0.160 A 
HETATM   15  N   UNL     1      -9.721   5.898 -35.752  1.00  0.00    -0.110 NA
HETATM   16  O   UNL     1     -10.679   6.887 -35.831  1.00  0.00    -0.216 OA
HETATM   17  C   UNL     1     -11.325   6.982 -34.643  1.00  0.00     0.078 A 
HETATM   18  C   UNL     1     -12.429   7.956 -34.580  1.00  0.00     0.079 C 
HETATM   19  C   UNL     1     -10.772   6.088 -33.760  1.00  0.00     0.087 A 
ENDBRANCH  11  14
ENDBRANCH   6  10
BRANCH   5  20
HETATM   20  C   UNL     1      -8.184   3.657 -31.014  1.00  0.00    -0.031 A 
HETATM   21  C   UNL     1      -6.815   3.930 -31.171  1.00  0.00     0.012 A 
HETATM   22  C   UNL     1      -6.254   5.099 -30.649  1.00  0.00     0.037 A 
HETATM   23  C   UNL     1      -7.058   5.997 -29.956  1.00  0.00     0.065 A 
HETATM   24  C   UNL     1      -8.410   5.744 -29.775  1.00  0.00     0.037 A 
HETATM   25  C   UNL     1      -8.973   4.579 -30.300  1.00  0.00     0.012 A 
BRANCH  23  26
HETATM   26  O   UNL     1      -6.552   7.150 -29.434  1.00  0.00    -0.361 OA
HETATM   27  H   UNL     1      -7.255   7.593 -28.934  1.00  0.00     0.217 HD
ENDBRANCH  23  26
ENDBRANCH   5  20
BRANCH   1  28
HETATM   28  C   UNL     1      -6.243  -0.595 -33.281  1.00  0.00     0.048 A 
HETATM   29  C   UNL     1      -6.829  -1.755 -33.823  1.00  0.00     0.037 A 
HETATM   30  C   UNL     1      -6.044  -2.779 -34.365  1.00  0.00    -0.060 A 
HETATM   31  C   UNL     1      -6.692  -4.022 -34.900  1.00  0.00     0.048 C 
HETATM   32  C   UNL     1      -4.661  -2.609 -34.420  1.00  0.00     0.007 A 
HETATM   33  C   UNL     1      -4.068  -1.463 -33.888  1.00  0.00     0.009 A 
HETATM   34  C   UNL     1      -4.842  -0.454 -33.289  1.00  0.00    -0.035 A 
HETATM   35  C   UNL     1      -4.116   0.709 -32.673  1.00  0.00     0.050 C 
ENDBRANCH   1  28
TORSDOF 5
ENDMDL
