MODEL 1
REMARK VINA RESULT:      -8.1      0.000      0.000
REMARK  11 active torsions:
REMARK  status: ('A' for Active; 'I' for Inactive)
REMARK    1  A    between atoms: C_2  and  O_3 
REMARK    2  A    between atoms: O_3  and  C_4 
REMARK    3  A    between atoms: C_5  and  O_6 
REMARK    4  A    between atoms: C_9  and  C_10 
REMARK    5  A    between atoms: N_11  and  C_12 
REMARK    6  A    between atoms: C_12  and  C_13 
REMARK    7  A    between atoms: C_13  and  C_14 
REMARK    8  A    between atoms: C_14  and  N_15 
REMARK    9  A    between atoms: C_27  and  O_28 
REMARK   10  A    between atoms: C_27  and  C_29 
REMARK   11  A    between atoms: C_30  and  C_31 
ROOT
HETATM    1  C   UNL     1      -5.651   0.692 -32.035  1.00  0.00     0.161 C 
HETATM    2  N   UNL     1      -4.191   0.783 -31.973  1.00  0.00    -0.332 N 
HETATM    3  C   UNL     1      -3.599  -0.423 -32.286  1.00  0.00     0.295 C 
HETATM    4  O   UNL     1      -2.451  -0.747 -32.047  1.00  0.00    -0.264 OA
HETATM    5  C   UNL     1      -5.918  -0.476 -32.961  1.00  0.00     0.058 C 
HETATM    6  C   UNL     1      -4.688  -1.300 -32.914  1.00  0.00     0.250 C 
HETATM    7  O   UNL     1      -4.554  -2.445 -33.288  1.00  0.00    -0.282 OA
HETATM    8  C   UNL     1      -6.946  -0.821 -33.753  1.00  0.00     0.078 C 
ENDROOT
BRANCH   1   9
HETATM    9  C   UNL     1      -6.366   1.996 -32.287  1.00  0.00    -0.028 A 
HETATM   10  C   UNL     1      -6.176   2.740 -33.463  1.00  0.00     0.012 A 
HETATM   11  C   UNL     1      -6.888   3.921 -33.668  1.00  0.00     0.040 A 
HETATM   12  C   UNL     1      -7.789   4.357 -32.704  1.00  0.00     0.099 A 
HETATM   13  C   UNL     1      -8.003   3.641 -31.523  1.00  0.00     0.102 A 
HETATM   14  C   UNL     1      -7.290   2.461 -31.323  1.00  0.00     0.049 A 
BRANCH  12  15
HETATM   15  O   UNL     1      -8.477   5.514 -32.942  1.00  0.00    -0.358 OA
HETATM   16  H   UNL     1      -8.838   5.421 -33.845  1.00  0.00     0.218 HD
ENDBRANCH  12  15
BRANCH  13  17
HETATM   17  O   UNL     1      -8.917   4.189 -30.662  1.00  0.00    -0.349 OA
BRANCH  17  18
HETATM   18  C   UNL     1     -10.128   3.461 -30.450  1.00  0.00     0.171 C 
HETATM   19  C   UNL     1     -11.254   4.187 -31.163  1.00  0.00     0.034 C 
ENDBRANCH  17  18
ENDBRANCH  13  17
ENDBRANCH   1   9
BRANCH   2  20
HETATM   20  C   UNL     1      -3.463   1.855 -31.311  1.00  0.00     0.129 C 
BRANCH  20  21
HETATM   21  C   UNL     1      -3.019   3.005 -32.214  1.00  0.00     0.048 C 
BRANCH  21  22
HETATM   22  C   UNL     1      -3.257   4.431 -31.715  1.00  0.00     0.236 C 
BRANCH  22  23
HETATM   23  N   UNL     1      -2.336   5.466 -32.300  1.00  0.00    -0.067 N 
HETATM   24  H   UNL     1      -1.458   5.461 -31.739  1.00  0.00     0.280 HD
HETATM   25  C   UNL     1      -1.984   5.269 -33.768  1.00  0.00     0.261 C 
HETATM   26  C   UNL     1      -1.047   6.390 -34.233  1.00  0.00     0.195 C 
HETATM   27  O   UNL     1      -1.646   7.673 -34.030  1.00  0.00    -0.388 OA
HETATM   28  C   UNL     1      -1.911   7.913 -32.644  1.00  0.00     0.195 C 
HETATM   29  C   UNL     1      -2.896   6.877 -32.093  1.00  0.00     0.261 C 
ENDBRANCH  22  23
ENDBRANCH  21  22
ENDBRANCH  20  21
ENDBRANCH   2  20
BRANCH   8  30
HETATM   30  O   UNL     1      -6.998  -1.995 -34.474  1.00  0.00    -0.360 OA
HETATM   31  H   UNL     1      -7.059  -1.807 -35.433  1.00  0.00     0.217 HD
ENDBRANCH   8  30
BRANCH   8  32
HETATM   32  C   UNL     1      -8.075   0.039 -34.013  1.00  0.00     0.038 C 
HETATM   33  C   UNL     1      -9.237   0.054 -33.347  1.00  0.00     0.014 C 
BRANCH  33  34
HETATM   34  C   UNL     1     -10.290   1.010 -33.720  1.00  0.00    -0.036 A 
HETATM   35  C   UNL     1     -11.644   0.734 -33.482  1.00  0.00     0.011 A 
HETATM   36  C   UNL     1     -12.635   1.629 -33.891  1.00  0.00     0.001 A 
HETATM   37  C   UNL     1     -12.280   2.814 -34.530  1.00  0.00     0.000 A 
HETATM   38  C   UNL     1     -10.936   3.109 -34.750  1.00  0.00     0.001 A 
HETATM   39  C   UNL     1      -9.943   2.214 -34.343  1.00  0.00     0.011 A 
ENDBRANCH  33  34
ENDBRANCH   8  32
TORSDOF 11
ENDMDL
MODEL 2
REMARK VINA RESULT:      -7.9      0.920      2.032
REMARK  11 active torsions:
REMARK  status: ('A' for Active; 'I' for Inactive)
REMARK    1  A    between atoms: C_2  and  O_3 
REMARK    2  A    between atoms: O_3  and  C_4 
REMARK    3  A    between atoms: C_5  and  O_6 
REMARK    4  A    between atoms: C_9  and  C_10 
REMARK    5  A    between atoms: N_11  and  C_12 
REMARK    6  A    between atoms: C_12  and  C_13 
REMARK    7  A    between atoms: C_13  and  C_14 
REMARK    8  A    between atoms: C_14  and  N_15 
REMARK    9  A    between atoms: C_27  and  O_28 
REMARK   10  A    between atoms: C_27  and  C_29 
REMARK   11  A    between atoms: C_30  and  C_31 
ROOT
HETATM    1  C   UNL     1      -5.783   0.373 -31.799  1.00  0.00     0.161 C 
HETATM    2  N   UNL     1      -4.347   0.615 -31.944  1.00  0.00    -0.332 N 
HETATM    3  C   UNL     1      -3.707  -0.476 -32.494  1.00  0.00     0.295 C 
HETATM    4  O   UNL     1      -2.510  -0.698 -32.473  1.00  0.00    -0.264 OA
HETATM    5  C   UNL     1      -6.089  -0.705 -32.816  1.00  0.00     0.058 C 
HETATM    6  C   UNL     1      -4.799  -1.390 -33.059  1.00  0.00     0.250 C 
HETATM    7  O   UNL     1      -4.625  -2.464 -33.593  1.00  0.00    -0.282 OA
HETATM    8  C   UNL     1      -7.197  -1.069 -33.483  1.00  0.00     0.078 C 
ENDROOT
BRANCH   1   9
HETATM    9  C   UNL     1      -6.644   1.612 -31.771  1.00  0.00    -0.028 A 
HETATM   10  C   UNL     1      -7.621   1.823 -30.786  1.00  0.00     0.012 A 
HETATM   11  C   UNL     1      -8.367   3.001 -30.779  1.00  0.00     0.040 A 
HETATM   12  C   UNL     1      -8.136   3.966 -31.751  1.00  0.00     0.099 A 
HETATM   13  C   UNL     1      -7.171   3.789 -32.746  1.00  0.00     0.102 A 
HETATM   14  C   UNL     1      -6.427   2.611 -32.748  1.00  0.00     0.049 A 
BRANCH  12  15
HETATM   15  O   UNL     1      -8.879   5.113 -31.708  1.00  0.00    -0.358 OA
HETATM   16  H   UNL     1      -9.249   5.218 -32.606  1.00  0.00     0.218 HD
ENDBRANCH  12  15
BRANCH  13  17
HETATM   17  O   UNL     1      -7.052   4.821 -33.639  1.00  0.00    -0.349 OA
BRANCH  17  18
HETATM   18  C   UNL     1      -5.752   5.389 -33.808  1.00  0.00     0.171 C 
HETATM   19  C   UNL     1      -5.478   6.312 -32.634  1.00  0.00     0.034 C 
ENDBRANCH  17  18
ENDBRANCH  13  17
ENDBRANCH   1   9
BRANCH   2  20
HETATM   20  C   UNL     1      -3.621   1.680 -31.267  1.00  0.00     0.129 C 
BRANCH  20  21
HETATM   21  C   UNL     1      -3.135   2.819 -32.161  1.00  0.00     0.048 C 
BRANCH  21  22
HETATM   22  C   UNL     1      -2.579   4.069 -31.478  1.00  0.00     0.236 C 
BRANCH  22  23
HETATM   23  N   UNL     1      -1.767   4.967 -32.369  1.00  0.00    -0.067 N 
HETATM   24  H   UNL     1      -0.760   4.757 -32.195  1.00  0.00     0.280 HD
HETATM   25  C   UNL     1      -2.047   4.832 -33.859  1.00  0.00     0.261 C 
HETATM   26  C   UNL     1      -1.157   5.801 -34.645  1.00  0.00     0.195 C 
HETATM   27  O   UNL     1      -1.366   7.150 -34.216  1.00  0.00    -0.388 OA
HETATM   28  C   UNL     1      -1.030   7.318 -32.835  1.00  0.00     0.195 C 
HETATM   29  C   UNL     1      -1.914   6.434 -31.951  1.00  0.00     0.261 C 
ENDBRANCH  22  23
ENDBRANCH  21  22
ENDBRANCH  20  21
ENDBRANCH   2  20
BRANCH   8  30
HETATM   30  O   UNL     1      -7.258  -2.153 -34.333  1.00  0.00    -0.360 OA
HETATM   31  H   UNL     1      -7.014  -1.890 -35.245  1.00  0.00     0.217 HD
ENDBRANCH   8  30
BRANCH   8  32
HETATM   32  C   UNL     1      -8.425  -0.314 -33.460  1.00  0.00     0.038 C 
HETATM   33  C   UNL     1      -8.791   0.641 -34.325  1.00  0.00     0.014 C 
BRANCH  33  34
HETATM   34  C   UNL     1     -10.092   1.310 -34.180  1.00  0.00    -0.036 A 
HETATM   35  C   UNL     1     -10.256   2.665 -34.503  1.00  0.00     0.011 A 
HETATM   36  C   UNL     1     -11.485   3.299 -34.310  1.00  0.00     0.001 A 
HETATM   37  C   UNL     1     -12.565   2.581 -33.803  1.00  0.00     0.000 A 
HETATM   38  C   UNL     1     -12.420   1.228 -33.501  1.00  0.00     0.001 A 
HETATM   39  C   UNL     1     -11.190   0.593 -33.693  1.00  0.00     0.011 A 
ENDBRANCH  33  34
ENDBRANCH   8  32
TORSDOF 11
ENDMDL
MODEL 3
REMARK VINA RESULT:      -7.8      2.311      7.441
REMARK  11 active torsions:
REMARK  status: ('A' for Active; 'I' for Inactive)
REMARK    1  A    between atoms: C_2  and  O_3 
REMARK    2  A    between atoms: O_3  and  C_4 
REMARK    3  A    between atoms: C_5  and  O_6 
REMARK    4  A    between atoms: C_9  and  C_10 
REMARK    5  A    between atoms: N_11  and  C_12 
REMARK    6  A    between atoms: C_12  and  C_13 
REMARK    7  A    between atoms: C_13  and  C_14 
REMARK    8  A    between atoms: C_14  and  N_15 
REMARK    9  A    between atoms: C_27  and  O_28 
REMARK   10  A    between atoms: C_27  and  C_29 
REMARK   11  A    between atoms: C_30  and  C_31 
ROOT
HETATM    1  C   UNL     1      -5.717   1.466 -33.497  1.00  0.00     0.161 C 
HETATM    2  N   UNL     1      -6.861   0.553 -33.501  1.00  0.00    -0.332 N 
HETATM    3  C   UNL     1      -6.468  -0.746 -33.250  1.00  0.00     0.295 C 
HETATM    4  O   UNL     1      -7.116  -1.752 -33.469  1.00  0.00    -0.264 OA
HETATM    5  C   UNL     1      -4.671   0.758 -32.662  1.00  0.00     0.058 C 
HETATM    6  C   UNL     1      -5.031  -0.678 -32.722  1.00  0.00     0.250 C 
HETATM    7  O   UNL     1      -4.336  -1.624 -32.421  1.00  0.00    -0.282 OA
HETATM    8  C   UNL     1      -3.623   1.174 -31.933  1.00  0.00     0.078 C 
ENDROOT
BRANCH   1   9
HETATM    9  C   UNL     1      -6.045   2.905 -33.183  1.00  0.00    -0.028 A 
HETATM   10  C   UNL     1      -5.759   3.950 -34.076  1.00  0.00     0.012 A 
HETATM   11  C   UNL     1      -6.115   5.260 -33.759  1.00  0.00     0.040 A 
HETATM   12  C   UNL     1      -6.757   5.526 -32.556  1.00  0.00     0.099 A 
HETATM   13  C   UNL     1      -7.057   4.510 -31.644  1.00  0.00     0.102 A 
HETATM   14  C   UNL     1      -6.701   3.202 -31.966  1.00  0.00     0.049 A 
BRANCH  12  15
HETATM   15  O   UNL     1      -7.101   6.820 -32.282  1.00  0.00    -0.358 OA
HETATM   16  H   UNL     1      -6.284   7.243 -31.952  1.00  0.00     0.218 HD
ENDBRANCH  12  15
BRANCH  13  17
HETATM   17  O   UNL     1      -7.689   4.916 -30.499  1.00  0.00    -0.349 OA
BRANCH  17  18
HETATM   18  C   UNL     1      -7.176   4.419 -29.261  1.00  0.00     0.171 C 
HETATM   19  C   UNL     1      -6.133   5.396 -28.750  1.00  0.00     0.034 C 
ENDBRANCH  17  18
ENDBRANCH  13  17
ENDBRANCH   1   9
BRANCH   2  20
HETATM   20  C   UNL     1      -8.165   0.872 -34.063  1.00  0.00     0.129 C 
BRANCH  20  21
HETATM   21  C   UNL     1      -9.287   1.080 -33.047  1.00  0.00     0.048 C 
BRANCH  21  22
HETATM   22  C   UNL     1     -10.468   0.109 -33.087  1.00  0.00     0.236 C 
BRANCH  22  23
HETATM   23  N   UNL     1     -11.801   0.749 -33.362  1.00  0.00    -0.067 N 
HETATM   24  H   UNL     1     -12.087   1.265 -32.503  1.00  0.00     0.280 HD
HETATM   25  C   UNL     1     -11.832   1.707 -34.545  1.00  0.00     0.261 C 
HETATM   26  C   UNL     1     -13.243   2.281 -34.712  1.00  0.00     0.195 C 
HETATM   27  O   UNL     1     -14.202   1.235 -34.891  1.00  0.00    -0.388 OA
HETATM   28  C   UNL     1     -14.249   0.367 -33.752  1.00  0.00     0.195 C 
HETATM   29  C   UNL     1     -12.893  -0.312 -33.534  1.00  0.00     0.261 C 
ENDBRANCH  22  23
ENDBRANCH  21  22
ENDBRANCH  20  21
ENDBRANCH   2  20
BRANCH   8  30
HETATM   30  O   UNL     1      -2.747   0.322 -31.295  1.00  0.00    -0.360 OA
HETATM   31  H   UNL     1      -3.185  -0.529 -31.087  1.00  0.00     0.217 HD
ENDBRANCH   8  30
BRANCH   8  32
HETATM   32  C   UNL     1      -3.347   2.563 -31.655  1.00  0.00     0.038 C 
HETATM   33  C   UNL     1      -2.636   3.403 -32.418  1.00  0.00     0.014 C 
BRANCH  33  34
HETATM   34  C   UNL     1      -2.459   4.804 -32.007  1.00  0.00    -0.036 A 
HETATM   35  C   UNL     1      -3.391   5.444 -31.177  1.00  0.00     0.011 A 
HETATM   36  C   UNL     1      -3.236   6.789 -30.839  1.00  0.00     0.001 A 
HETATM   37  C   UNL     1      -2.142   7.505 -31.317  1.00  0.00     0.000 A 
HETATM   38  C   UNL     1      -1.197   6.872 -32.124  1.00  0.00     0.001 A 
HETATM   39  C   UNL     1      -1.351   5.525 -32.463  1.00  0.00     0.011 A 
ENDBRANCH  33  34
ENDBRANCH   8  32
TORSDOF 11
ENDMDL
MODEL 4
REMARK VINA RESULT:      -7.8      3.045      6.256
REMARK  11 active torsions:
REMARK  status: ('A' for Active; 'I' for Inactive)
REMARK    1  A    between atoms: C_2  and  O_3 
REMARK    2  A    between atoms: O_3  and  C_4 
REMARK    3  A    between atoms: C_5  and  O_6 
REMARK    4  A    between atoms: C_9  and  C_10 
REMARK    5  A    between atoms: N_11  and  C_12 
REMARK    6  A    between atoms: C_12  and  C_13 
REMARK    7  A    between atoms: C_13  and  C_14 
REMARK    8  A    between atoms: C_14  and  N_15 
REMARK    9  A    between atoms: C_27  and  O_28 
REMARK   10  A    between atoms: C_27  and  C_29 
REMARK   11  A    between atoms: C_30  and  C_31 
ROOT
HETATM    1  C   UNL     1      -8.111   3.059 -32.069  1.00  0.00     0.161 C 
HETATM    2  N   UNL     1      -8.904   3.639 -30.984  1.00  0.00    -0.332 N 
HETATM    3  C   UNL     1     -10.198   3.895 -31.390  1.00  0.00     0.295 C 
HETATM    4  O   UNL     1     -10.998   4.622 -30.833  1.00  0.00    -0.264 OA
HETATM    5  C   UNL     1      -9.134   2.438 -32.996  1.00  0.00     0.058 C 
HETATM    6  C   UNL     1     -10.400   3.155 -32.716  1.00  0.00     0.250 C 
HETATM    7  O   UNL     1     -11.403   3.169 -33.395  1.00  0.00    -0.282 OA
HETATM    8  C   UNL     1      -9.094   1.436 -33.890  1.00  0.00     0.078 C 
ENDROOT
BRANCH   1   9
HETATM    9  C   UNL     1      -6.930   2.229 -31.629  1.00  0.00    -0.028 A 
HETATM   10  C   UNL     1      -7.076   1.082 -30.832  1.00  0.00     0.012 A 
HETATM   11  C   UNL     1      -5.960   0.325 -30.481  1.00  0.00     0.040 A 
HETATM   12  C   UNL     1      -4.701   0.709 -30.928  1.00  0.00     0.099 A 
HETATM   13  C   UNL     1      -4.519   1.844 -31.723  1.00  0.00     0.102 A 
HETATM   14  C   UNL     1      -5.638   2.597 -32.072  1.00  0.00     0.049 A 
BRANCH  12  15
HETATM   15  O   UNL     1      -3.629  -0.062 -30.573  1.00  0.00    -0.358 OA
HETATM   16  H   UNL     1      -3.786  -0.314 -29.642  1.00  0.00     0.218 HD
ENDBRANCH  12  15
BRANCH  13  17
HETATM   17  O   UNL     1      -3.225   2.104 -32.087  1.00  0.00    -0.349 OA
BRANCH  17  18
HETATM   18  C   UNL     1      -2.961   3.375 -32.687  1.00  0.00     0.171 C 
HETATM   19  C   UNL     1      -2.298   4.264 -31.651  1.00  0.00     0.034 C 
ENDBRANCH  17  18
ENDBRANCH  13  17
ENDBRANCH   1   9
BRANCH   2  20
HETATM   20  C   UNL     1      -8.340   4.223 -29.776  1.00  0.00     0.129 C 
BRANCH  20  21
HETATM   21  C   UNL     1      -7.444   5.442 -29.990  1.00  0.00     0.048 C 
BRANCH  21  22
HETATM   22  C   UNL     1      -5.983   5.332 -29.554  1.00  0.00     0.236 C 
BRANCH  22  23
HETATM   23  N   UNL     1      -5.494   6.465 -28.694  1.00  0.00    -0.067 N 
HETATM   24  H   UNL     1      -4.620   6.834 -29.124  1.00  0.00     0.280 HD
HETATM   25  C   UNL     1      -6.476   7.613 -28.510  1.00  0.00     0.261 C 
HETATM   26  C   UNL     1      -5.854   8.691 -27.614  1.00  0.00     0.195 C 
HETATM   27  O   UNL     1      -5.478   8.146 -26.346  1.00  0.00    -0.388 OA
HETATM   28  C   UNL     1      -4.492   7.117 -26.490  1.00  0.00     0.195 C 
HETATM   29  C   UNL     1      -5.040   5.954 -27.322  1.00  0.00     0.261 C 
ENDBRANCH  22  23
ENDBRANCH  21  22
ENDBRANCH  20  21
ENDBRANCH   2  20
BRANCH   8  30
HETATM   30  O   UNL     1     -10.160   1.080 -34.688  1.00  0.00    -0.360 OA
HETATM   31  H   UNL     1      -9.858   0.890 -35.601  1.00  0.00     0.217 HD
ENDBRANCH   8  30
BRANCH   8  32
HETATM   32  C   UNL     1      -7.961   0.559 -34.053  1.00  0.00     0.038 C 
HETATM   33  C   UNL     1      -7.946  -0.768 -33.863  1.00  0.00     0.014 C 
BRANCH  33  34
HETATM   34  C   UNL     1      -6.711  -1.532 -34.091  1.00  0.00    -0.036 A 
HETATM   35  C   UNL     1      -6.744  -2.840 -34.596  1.00  0.00     0.011 A 
HETATM   36  C   UNL     1      -5.566  -3.571 -34.757  1.00  0.00     0.001 A 
HETATM   37  C   UNL     1      -4.341  -2.996 -34.427  1.00  0.00     0.000 A 
HETATM   38  C   UNL     1      -4.294  -1.688 -33.947  1.00  0.00     0.001 A 
HETATM   39  C   UNL     1      -5.473  -0.956 -33.784  1.00  0.00     0.011 A 
ENDBRANCH  33  34
ENDBRANCH   8  32
TORSDOF 11
ENDMDL
MODEL 5
REMARK VINA RESULT:      -7.4      3.197      6.058
REMARK  11 active torsions:
REMARK  status: ('A' for Active; 'I' for Inactive)
REMARK    1  A    between atoms: C_2  and  O_3 
REMARK    2  A    between atoms: O_3  and  C_4 
REMARK    3  A    between atoms: C_5  and  O_6 
REMARK    4  A    between atoms: C_9  and  C_10 
REMARK    5  A    between atoms: N_11  and  C_12 
REMARK    6  A    between atoms: C_12  and  C_13 
REMARK    7  A    between atoms: C_13  and  C_14 
REMARK    8  A    between atoms: C_14  and  N_15 
REMARK    9  A    between atoms: C_27  and  O_28 
REMARK   10  A    between atoms: C_27  and  C_29 
REMARK   11  A    between atoms: C_30  and  C_31 
ROOT
HETATM    1  C   UNL     1      -2.507   4.597 -32.262  1.00  0.00     0.161 C 
HETATM    2  N   UNL     1      -1.870   5.657 -31.479  1.00  0.00    -0.332 N 
HETATM    3  C   UNL     1      -1.428   6.683 -32.290  1.00  0.00     0.295 C 
HETATM    4  O   UNL     1      -0.622   7.544 -31.989  1.00  0.00    -0.264 OA
HETATM    5  C   UNL     1      -2.950   5.283 -33.537  1.00  0.00     0.058 C 
HETATM    6  C   UNL     1      -2.082   6.477 -33.660  1.00  0.00     0.250 C 
HETATM    7  O   UNL     1      -1.908   7.162 -34.644  1.00  0.00    -0.282 OA
HETATM    8  C   UNL     1      -3.912   5.037 -34.442  1.00  0.00     0.078 C 
ENDROOT
BRANCH   1   9
HETATM    9  C   UNL     1      -3.504   3.753 -31.508  1.00  0.00    -0.028 A 
HETATM   10  C   UNL     1      -4.570   4.315 -30.788  1.00  0.00     0.012 A 
HETATM   11  C   UNL     1      -5.489   3.493 -30.137  1.00  0.00     0.040 A 
HETATM   12  C   UNL     1      -5.346   2.113 -30.208  1.00  0.00     0.099 A 
HETATM   13  C   UNL     1      -4.298   1.519 -30.916  1.00  0.00     0.102 A 
HETATM   14  C   UNL     1      -3.383   2.345 -31.566  1.00  0.00     0.049 A 
BRANCH  12  15
HETATM   15  O   UNL     1      -6.270   1.336 -29.566  1.00  0.00    -0.358 OA
HETATM   16  H   UNL     1      -5.827   1.019 -28.756  1.00  0.00     0.218 HD
ENDBRANCH  12  15
BRANCH  13  17
HETATM   17  O   UNL     1      -4.279   0.149 -30.898  1.00  0.00    -0.349 OA
BRANCH  17  18
HETATM   18  C   UNL     1      -4.047  -0.514 -32.142  1.00  0.00     0.171 C 
HETATM   19  C   UNL     1      -3.315  -1.814 -31.862  1.00  0.00     0.034 C 
ENDBRANCH  17  18
ENDBRANCH  13  17
ENDBRANCH   1   9
BRANCH   2  20
HETATM   20  C   UNL     1      -1.413   5.502 -30.106  1.00  0.00     0.129 C 
BRANCH  20  21
HETATM   21  C   UNL     1       0.068   5.167 -29.937  1.00  0.00     0.048 C 
BRANCH  21  22
HETATM   22  C   UNL     1       0.754   5.618 -28.648  1.00  0.00     0.236 C 
BRANCH  22  23
HETATM   23  N   UNL     1       0.110   6.795 -27.969  1.00  0.00    -0.067 N 
HETATM   24  H   UNL     1      -0.680   7.113 -28.571  1.00  0.00     0.280 HD
HETATM   25  C   UNL     1      -0.417   6.530 -26.566  1.00  0.00     0.261 C 
HETATM   26  C   UNL     1      -1.042   7.809 -25.995  1.00  0.00     0.195 C 
HETATM   27  O   UNL     1      -0.092   8.878 -25.980  1.00  0.00    -0.388 OA
HETATM   28  C   UNL     1       0.356   9.200 -27.301  1.00  0.00     0.195 C 
HETATM   29  C   UNL     1       1.058   7.999 -27.942  1.00  0.00     0.261 C 
ENDBRANCH  22  23
ENDBRANCH  21  22
ENDBRANCH  20  21
ENDBRANCH   2  20
BRANCH   8  30
HETATM   30  O   UNL     1      -4.092   5.779 -35.590  1.00  0.00    -0.360 OA
HETATM   31  H   UNL     1      -4.933   5.535 -36.029  1.00  0.00     0.217 HD
ENDBRANCH   8  30
BRANCH   8  32
HETATM   32  C   UNL     1      -4.926   4.026 -34.271  1.00  0.00     0.038 C 
HETATM   33  C   UNL     1      -6.212   4.231 -33.957  1.00  0.00     0.014 C 
BRANCH  33  34
HETATM   34  C   UNL     1      -7.134   3.092 -33.838  1.00  0.00    -0.036 A 
HETATM   35  C   UNL     1      -8.522   3.280 -33.773  1.00  0.00     0.011 A 
HETATM   36  C   UNL     1      -9.381   2.191 -33.607  1.00  0.00     0.001 A 
HETATM   37  C   UNL     1      -8.860   0.903 -33.517  1.00  0.00     0.000 A 
HETATM   38  C   UNL     1      -7.483   0.703 -33.604  1.00  0.00     0.001 A 
HETATM   39  C   UNL     1      -6.623   1.792 -33.769  1.00  0.00     0.011 A 
ENDBRANCH  33  34
ENDBRANCH   8  32
TORSDOF 11
ENDMDL
MODEL 6
REMARK VINA RESULT:      -7.2      3.579      6.374
REMARK  11 active torsions:
REMARK  status: ('A' for Active; 'I' for Inactive)
REMARK    1  A    between atoms: C_2  and  O_3 
REMARK    2  A    between atoms: O_3  and  C_4 
REMARK    3  A    between atoms: C_5  and  O_6 
REMARK    4  A    between atoms: C_9  and  C_10 
REMARK    5  A    between atoms: N_11  and  C_12 
REMARK    6  A    between atoms: C_12  and  C_13 
REMARK    7  A    between atoms: C_13  and  C_14 
REMARK    8  A    between atoms: C_14  and  N_15 
REMARK    9  A    between atoms: C_27  and  O_28 
REMARK   10  A    between atoms: C_27  and  C_29 
REMARK   11  A    between atoms: C_30  and  C_31 
ROOT
HETATM    1  C   UNL     1      -2.881   5.036 -31.989  1.00  0.00     0.161 C 
HETATM    2  N   UNL     1      -2.501   6.270 -31.300  1.00  0.00    -0.332 N 
HETATM    3  C   UNL     1      -2.048   7.222 -32.189  1.00  0.00     0.295 C 
HETATM    4  O   UNL     1      -1.402   8.217 -31.915  1.00  0.00    -0.264 OA
HETATM    5  C   UNL     1      -3.182   5.472 -33.407  1.00  0.00     0.058 C 
HETATM    6  C   UNL     1      -2.442   6.742 -33.590  1.00  0.00     0.250 C 
HETATM    7  O   UNL     1      -2.185   7.301 -34.634  1.00  0.00    -0.282 OA
HETATM    8  C   UNL     1      -3.950   4.976 -34.392  1.00  0.00     0.078 C 
ENDROOT
BRANCH   1   9
HETATM    9  C   UNL     1      -3.889   4.179 -31.264  1.00  0.00    -0.028 A 
HETATM   10  C   UNL     1      -5.026   4.722 -30.644  1.00  0.00     0.012 A 
HETATM   11  C   UNL     1      -5.950   3.887 -30.017  1.00  0.00     0.040 A 
HETATM   12  C   UNL     1      -5.742   2.513 -30.012  1.00  0.00     0.099 A 
HETATM   13  C   UNL     1      -4.622   1.939 -30.620  1.00  0.00     0.102 A 
HETATM   14  C   UNL     1      -3.702   2.777 -31.246  1.00  0.00     0.049 A 
BRANCH  12  15
HETATM   15  O   UNL     1      -6.673   1.724 -29.397  1.00  0.00    -0.358 OA
HETATM   16  H   UNL     1      -6.273   1.464 -28.544  1.00  0.00     0.218 HD
ENDBRANCH  12  15
BRANCH  13  17
HETATM   17  O   UNL     1      -4.544   0.574 -30.536  1.00  0.00    -0.349 OA
BRANCH  17  18
HETATM   18  C   UNL     1      -3.687  -0.087 -31.469  1.00  0.00     0.171 C 
HETATM   19  C   UNL     1      -4.544  -0.663 -32.581  1.00  0.00     0.034 C 
ENDBRANCH  17  18
ENDBRANCH  13  17
ENDBRANCH   1   9
BRANCH   2  20
HETATM   20  C   UNL     1      -2.261   6.370 -29.868  1.00  0.00     0.129 C 
BRANCH  20  21
HETATM   21  C   UNL     1      -3.040   7.469 -29.145  1.00  0.00     0.048 C 
BRANCH  21  22
HETATM   22  C   UNL     1      -3.782   7.085 -27.864  1.00  0.00     0.236 C 
BRANCH  22  23
HETATM   23  N   UNL     1      -3.530   7.995 -26.693  1.00  0.00    -0.067 N 
HETATM   24  H   UNL     1      -3.409   8.961 -27.064  1.00  0.00     0.280 HD
HETATM   25  C   UNL     1      -4.621   8.009 -25.632  1.00  0.00     0.261 C 
HETATM   26  C   UNL     1      -4.235   8.970 -24.502  1.00  0.00     0.195 C 
HETATM   27  O   UNL     1      -2.979   8.601 -23.924  1.00  0.00    -0.388 OA
HETATM   28  C   UNL     1      -1.922   8.661 -24.888  1.00  0.00     0.195 C 
HETATM   29  C   UNL     1      -2.181   7.682 -26.037  1.00  0.00     0.261 C 
ENDBRANCH  22  23
ENDBRANCH  21  22
ENDBRANCH  20  21
ENDBRANCH   2  20
BRANCH   8  30
HETATM   30  O   UNL     1      -4.020   5.520 -35.656  1.00  0.00    -0.360 OA
HETATM   31  H   UNL     1      -4.756   5.118 -36.164  1.00  0.00     0.217 HD
ENDBRANCH   8  30
BRANCH   8  32
HETATM   32  C   UNL     1      -4.861   3.873 -34.212  1.00  0.00     0.038 C 
HETATM   33  C   UNL     1      -6.182   3.954 -34.006  1.00  0.00     0.014 C 
BRANCH  33  34
HETATM   34  C   UNL     1      -6.984   2.731 -33.861  1.00  0.00    -0.036 A 
HETATM   35  C   UNL     1      -6.741   1.600 -34.655  1.00  0.00     0.011 A 
HETATM   36  C   UNL     1      -7.545   0.465 -34.540  1.00  0.00     0.001 A 
HETATM   37  C   UNL     1      -8.593   0.444 -33.623  1.00  0.00     0.000 A 
HETATM   38  C   UNL     1      -8.828   1.554 -32.813  1.00  0.00     0.001 A 
HETATM   39  C   UNL     1      -8.024   2.691 -32.927  1.00  0.00     0.011 A 
ENDBRANCH  33  34
ENDBRANCH   8  32
TORSDOF 11
ENDMDL
MODEL 7
REMARK VINA RESULT:      -7.2      2.513      5.442
REMARK  11 active torsions:
REMARK  status: ('A' for Active; 'I' for Inactive)
REMARK    1  A    between atoms: C_2  and  O_3 
REMARK    2  A    between atoms: O_3  and  C_4 
REMARK    3  A    between atoms: C_5  and  O_6 
REMARK    4  A    between atoms: C_9  and  C_10 
REMARK    5  A    between atoms: N_11  and  C_12 
REMARK    6  A    between atoms: C_12  and  C_13 
REMARK    7  A    between atoms: C_13  and  C_14 
REMARK    8  A    between atoms: C_14  and  N_15 
REMARK    9  A    between atoms: C_27  and  O_28 
REMARK   10  A    between atoms: C_27  and  C_29 
REMARK   11  A    between atoms: C_30  and  C_31 
ROOT
HETATM    1  C   UNL     1      -6.976   4.434 -33.086  1.00  0.00     0.161 C 
HETATM    2  N   UNL     1      -7.484   5.440 -32.152  1.00  0.00    -0.332 N 
HETATM    3  C   UNL     1      -8.796   5.764 -32.428  1.00  0.00     0.295 C 
HETATM    4  O   UNL     1      -9.396   6.747 -32.034  1.00  0.00    -0.264 OA
HETATM    5  C   UNL     1      -8.215   3.732 -33.596  1.00  0.00     0.058 C 
HETATM    6  C   UNL     1      -9.322   4.694 -33.391  1.00  0.00     0.250 C 
HETATM    7  O   UNL     1     -10.428   4.660 -33.884  1.00  0.00    -0.282 OA
HETATM    8  C   UNL     1      -8.452   2.511 -34.104  1.00  0.00     0.078 C 
ENDROOT
BRANCH   1   9
HETATM    9  C   UNL     1      -5.828   3.601 -32.570  1.00  0.00    -0.028 A 
HETATM   10  C   UNL     1      -4.584   3.557 -33.219  1.00  0.00     0.012 A 
HETATM   11  C   UNL     1      -3.541   2.802 -32.685  1.00  0.00     0.040 A 
HETATM   12  C   UNL     1      -3.738   2.096 -31.504  1.00  0.00     0.099 A 
HETATM   13  C   UNL     1      -4.963   2.117 -30.833  1.00  0.00     0.102 A 
HETATM   14  C   UNL     1      -6.002   2.874 -31.369  1.00  0.00     0.049 A 
BRANCH  12  15
HETATM   15  O   UNL     1      -2.690   1.374 -31.004  1.00  0.00    -0.358 OA
HETATM   16  H   UNL     1      -1.983   2.026 -30.833  1.00  0.00     0.218 HD
ENDBRANCH  12  15
BRANCH  13  17
HETATM   17  O   UNL     1      -5.016   1.373 -29.684  1.00  0.00    -0.349 OA
BRANCH  17  18
HETATM   18  C   UNL     1      -6.225   0.654 -29.429  1.00  0.00     0.171 C 
HETATM   19  C   UNL     1      -6.399  -0.388 -30.519  1.00  0.00     0.034 C 
ENDBRANCH  17  18
ENDBRANCH  13  17
ENDBRANCH   1   9
BRANCH   2  20
HETATM   20  C   UNL     1      -6.644   6.269 -31.300  1.00  0.00     0.129 C 
BRANCH  20  21
HETATM   21  C   UNL     1      -5.726   7.248 -32.032  1.00  0.00     0.048 C 
BRANCH  21  22
HETATM   22  C   UNL     1      -4.621   7.924 -31.220  1.00  0.00     0.236 C 
BRANCH  22  23
HETATM   23  N   UNL     1      -3.249   7.341 -31.414  1.00  0.00    -0.067 N 
HETATM   24  H   UNL     1      -2.558   8.114 -31.303  1.00  0.00     0.280 HD
HETATM   25  C   UNL     1      -2.880   6.212 -30.461  1.00  0.00     0.261 C 
HETATM   26  C   UNL     1      -1.465   5.711 -30.771  1.00  0.00     0.195 C 
HETATM   27  O   UNL     1      -1.364   5.273 -32.129  1.00  0.00    -0.388 OA
HETATM   28  C   UNL     1      -1.626   6.343 -33.045  1.00  0.00     0.195 C 
HETATM   29  C   UNL     1      -3.050   6.876 -32.860  1.00  0.00     0.261 C 
ENDBRANCH  22  23
ENDBRANCH  21  22
ENDBRANCH  20  21
ENDBRANCH   2  20
BRANCH   8  30
HETATM   30  O   UNL     1      -9.681   2.102 -34.577  1.00  0.00    -0.360 OA
HETATM   31  H   UNL     1      -9.699   1.129 -34.694  1.00  0.00     0.217 HD
ENDBRANCH   8  30
BRANCH   8  32
HETATM   32  C   UNL     1      -7.470   1.454 -34.128  1.00  0.00     0.038 C 
HETATM   33  C   UNL     1      -7.714   0.137 -34.115  1.00  0.00     0.014 C 
BRANCH  33  34
HETATM   34  C   UNL     1      -6.600  -0.821 -34.165  1.00  0.00    -0.036 A 
HETATM   35  C   UNL     1      -5.312  -0.465 -33.740  1.00  0.00     0.011 A 
HETATM   36  C   UNL     1      -4.254  -1.370 -33.843  1.00  0.00     0.001 A 
HETATM   37  C   UNL     1      -4.476  -2.644 -34.360  1.00  0.00     0.000 A 
HETATM   38  C   UNL     1      -5.758  -3.016 -34.762  1.00  0.00     0.001 A 
HETATM   39  C   UNL     1      -6.818  -2.111 -34.661  1.00  0.00     0.011 A 
ENDBRANCH  33  34
ENDBRANCH   8  32
TORSDOF 11
ENDMDL
MODEL 8
REMARK VINA RESULT:      -7.1      2.767      7.573
REMARK  11 active torsions:
REMARK  status: ('A' for Active; 'I' for Inactive)
REMARK    1  A    between atoms: C_2  and  O_3 
REMARK    2  A    between atoms: O_3  and  C_4 
REMARK    3  A    between atoms: C_5  and  O_6 
REMARK    4  A    between atoms: C_9  and  C_10 
REMARK    5  A    between atoms: N_11  and  C_12 
REMARK    6  A    between atoms: C_12  and  C_13 
REMARK    7  A    between atoms: C_13  and  C_14 
REMARK    8  A    between atoms: C_14  and  N_15 
REMARK    9  A    between atoms: C_27  and  O_28 
REMARK   10  A    between atoms: C_27  and  C_29 
REMARK   11  A    between atoms: C_30  and  C_31 
ROOT
HETATM    1  C   UNL     1      -6.140   2.658 -32.313  1.00  0.00     0.161 C 
HETATM    2  N   UNL     1      -7.410   2.133 -31.807  1.00  0.00    -0.332 N 
HETATM    3  C   UNL     1      -7.350   0.767 -31.622  1.00  0.00     0.295 C 
HETATM    4  O   UNL     1      -8.297   0.013 -31.496  1.00  0.00    -0.264 OA
HETATM    5  C   UNL     1      -5.111   1.633 -31.887  1.00  0.00     0.058 C 
HETATM    6  C   UNL     1      -5.870   0.376 -31.690  1.00  0.00     0.250 C 
HETATM    7  O   UNL     1      -5.424  -0.747 -31.603  1.00  0.00    -0.282 OA
HETATM    8  C   UNL     1      -3.790   1.683 -31.648  1.00  0.00     0.078 C 
ENDROOT
BRANCH   1   9
HETATM    9  C   UNL     1      -5.882   4.114 -32.014  1.00  0.00    -0.028 A 
HETATM   10  C   UNL     1      -5.760   5.077 -33.028  1.00  0.00     0.012 A 
HETATM   11  C   UNL     1      -5.560   6.418 -32.702  1.00  0.00     0.040 A 
HETATM   12  C   UNL     1      -5.485   6.797 -31.368  1.00  0.00     0.099 A 
HETATM   13  C   UNL     1      -5.603   5.865 -30.333  1.00  0.00     0.102 A 
HETATM   14  C   UNL     1      -5.804   4.526 -30.663  1.00  0.00     0.049 A 
BRANCH  12  15
HETATM   15  O   UNL     1      -5.298   8.121 -31.084  1.00  0.00    -0.358 OA
HETATM   16  H   UNL     1      -4.682   8.141 -30.326  1.00  0.00     0.218 HD
ENDBRANCH  12  15
BRANCH  13  17
HETATM   17  O   UNL     1      -5.507   6.378 -29.067  1.00  0.00    -0.349 OA
BRANCH  17  18
HETATM   18  C   UNL     1      -6.422   5.877 -28.090  1.00  0.00     0.171 C 
HETATM   19  C   UNL     1      -7.749   6.592 -28.266  1.00  0.00     0.034 C 
ENDBRANCH  17  18
ENDBRANCH  13  17
ENDBRANCH   1   9
BRANCH   2  20
HETATM   20  C   UNL     1      -8.673   2.854 -31.852  1.00  0.00     0.129 C 
BRANCH  20  21
HETATM   21  C   UNL     1      -9.138   3.283 -33.243  1.00  0.00     0.048 C 
BRANCH  21  22
HETATM   22  C   UNL     1      -9.318   2.191 -34.298  1.00  0.00     0.236 C 
BRANCH  22  23
HETATM   23  N   UNL     1     -10.747   1.862 -34.627  1.00  0.00    -0.067 N 
HETATM   24  H   UNL     1     -10.760   1.417 -35.570  1.00  0.00     0.280 HD
HETATM   25  C   UNL     1     -11.449   0.941 -33.639  1.00  0.00     0.261 C 
HETATM   26  C   UNL     1     -12.892   0.693 -34.093  1.00  0.00     0.195 C 
HETATM   27  O   UNL     1     -13.606   1.926 -34.222  1.00  0.00    -0.388 OA
HETATM   28  C   UNL     1     -13.010   2.776 -35.208  1.00  0.00     0.195 C 
HETATM   29  C   UNL     1     -11.575   3.139 -34.814  1.00  0.00     0.261 C 
ENDBRANCH  22  23
ENDBRANCH  21  22
ENDBRANCH  20  21
ENDBRANCH   2  20
BRANCH   8  30
HETATM   30  O   UNL     1      -3.027   0.580 -31.328  1.00  0.00    -0.360 OA
HETATM   31  H   UNL     1      -2.279   0.485 -31.953  1.00  0.00     0.217 HD
ENDBRANCH   8  30
BRANCH   8  32
HETATM   32  C   UNL     1      -3.033   2.910 -31.609  1.00  0.00     0.038 C 
HETATM   33  C   UNL     1      -2.579   3.602 -32.662  1.00  0.00     0.014 C 
BRANCH  33  34
HETATM   34  C   UNL     1      -1.836   4.854 -32.459  1.00  0.00    -0.036 A 
HETATM   35  C   UNL     1      -1.819   5.860 -33.436  1.00  0.00     0.011 A 
HETATM   36  C   UNL     1      -1.066   7.021 -33.249  1.00  0.00     0.001 A 
HETATM   37  C   UNL     1      -0.333   7.193 -32.078  1.00  0.00     0.000 A 
HETATM   38  C   UNL     1      -0.363   6.210 -31.089  1.00  0.00     0.001 A 
HETATM   39  C   UNL     1      -1.115   5.048 -31.276  1.00  0.00     0.011 A 
ENDBRANCH  33  34
ENDBRANCH   8  32
TORSDOF 11
ENDMDL
MODEL 9
REMARK VINA RESULT:      -7.1     16.789     19.772
REMARK  11 active torsions:
REMARK  status: ('A' for Active; 'I' for Inactive)
REMARK    1  A    between atoms: C_2  and  O_3 
REMARK    2  A    between atoms: O_3  and  C_4 
REMARK    3  A    between atoms: C_5  and  O_6 
REMARK    4  A    between atoms: C_9  and  C_10 
REMARK    5  A    between atoms: N_11  and  C_12 
REMARK    6  A    between atoms: C_12  and  C_13 
REMARK    7  A    between atoms: C_13  and  C_14 
REMARK    8  A    between atoms: C_14  and  N_15 
REMARK    9  A    between atoms: C_27  and  O_28 
REMARK   10  A    between atoms: C_27  and  C_29 
REMARK   11  A    between atoms: C_30  and  C_31 
ROOT
HETATM    1  C   UNL     1      -5.332 -14.772 -36.529  1.00  0.00     0.161 C 
HETATM    2  N   UNL     1      -6.394 -13.851 -36.122  1.00  0.00    -0.332 N 
HETATM    3  C   UNL     1      -6.611 -13.905 -34.761  1.00  0.00     0.295 C 
HETATM    4  O   UNL     1      -7.592 -13.494 -34.169  1.00  0.00    -0.264 OA
HETATM    5  C   UNL     1      -4.510 -14.978 -35.275  1.00  0.00     0.058 C 
HETATM    6  C   UNL     1      -5.421 -14.655 -34.153  1.00  0.00     0.250 C 
HETATM    7  O   UNL     1      -5.273 -14.928 -32.982  1.00  0.00    -0.282 OA
HETATM    8  C   UNL     1      -3.232 -15.324 -35.044  1.00  0.00     0.078 C 
ENDROOT
BRANCH   1   9
HETATM    9  C   UNL     1      -4.623 -14.409 -37.810  1.00  0.00    -0.028 A 
HETATM   10  C   UNL     1      -4.077 -13.134 -38.030  1.00  0.00     0.012 A 
HETATM   11  C   UNL     1      -3.398 -12.856 -39.215  1.00  0.00     0.040 A 
HETATM   12  C   UNL     1      -3.261 -13.849 -40.178  1.00  0.00     0.099 A 
HETATM   13  C   UNL     1      -3.790 -15.129 -39.992  1.00  0.00     0.102 A 
HETATM   14  C   UNL     1      -4.467 -15.403 -38.805  1.00  0.00     0.049 A 
BRANCH  12  15
HETATM   15  O   UNL     1      -2.580 -13.545 -41.323  1.00  0.00    -0.358 OA
HETATM   16  H   UNL     1      -2.989 -14.091 -42.023  1.00  0.00     0.218 HD
ENDBRANCH  12  15
BRANCH  13  17
HETATM   17  O   UNL     1      -3.582 -16.006 -41.023  1.00  0.00    -0.349 OA
BRANCH  17  18
HETATM   18  C   UNL     1      -2.718 -17.116 -40.769  1.00  0.00     0.171 C 
HETATM   19  C   UNL     1      -1.431 -16.907 -41.547  1.00  0.00     0.034 C 
ENDBRANCH  17  18
ENDBRANCH  13  17
ENDBRANCH   1   9
BRANCH   2  20
HETATM   20  C   UNL     1      -7.353 -13.247 -37.037  1.00  0.00     0.129 C 
BRANCH  20  21
HETATM   21  C   UNL     1      -8.376 -14.205 -37.645  1.00  0.00     0.048 C 
BRANCH  21  22
HETATM   22  C   UNL     1      -8.118 -14.710 -39.065  1.00  0.00     0.236 C 
BRANCH  22  23
HETATM   23  N   UNL     1      -9.218 -14.420 -40.048  1.00  0.00    -0.067 N 
HETATM   24  H   UNL     1      -8.788 -13.955 -40.875  1.00  0.00     0.280 HD
HETATM   25  C   UNL     1     -10.006 -15.634 -40.520  1.00  0.00     0.261 C 
HETATM   26  C   UNL     1     -11.092 -15.196 -41.510  1.00  0.00     0.195 C 
HETATM   27  O   UNL     1     -11.966 -14.232 -40.916  1.00  0.00    -0.388 OA
HETATM   28  C   UNL     1     -11.258 -13.046 -40.538  1.00  0.00     0.195 C 
HETATM   29  C   UNL     1     -10.183 -13.367 -39.494  1.00  0.00     0.261 C 
ENDBRANCH  22  23
ENDBRANCH  21  22
ENDBRANCH  20  21
ENDBRANCH   2  20
BRANCH   8  30
HETATM   30  O   UNL     1      -2.707 -15.521 -33.785  1.00  0.00    -0.360 OA
HETATM   31  H   UNL     1      -2.447 -16.458 -33.663  1.00  0.00     0.217 HD
ENDBRANCH   8  30
BRANCH   8  32
HETATM   32  C   UNL     1      -2.238 -15.439 -36.083  1.00  0.00     0.038 C 
HETATM   33  C   UNL     1      -1.118 -14.713 -36.200  1.00  0.00     0.014 C 
BRANCH  33  34
HETATM   34  C   UNL     1      -0.188 -14.964 -37.310  1.00  0.00    -0.036 A 
HETATM   35  C   UNL     1      -0.244 -14.212 -38.493  1.00  0.00     0.011 A 
HETATM   36  C   UNL     1       0.612 -14.497 -39.558  1.00  0.00     0.001 A 
HETATM   37  C   UNL     1       1.540 -15.530 -39.447  1.00  0.00     0.000 A 
HETATM   38  C   UNL     1       1.620 -16.268 -38.267  1.00  0.00     0.001 A 
HETATM   39  C   UNL     1       0.763 -15.983 -37.200  1.00  0.00     0.011 A 
ENDBRANCH  33  34
ENDBRANCH   8  32
TORSDOF 11
ENDMDL
MODEL 10
REMARK VINA RESULT:      -7.0      4.222      9.538
REMARK  11 active torsions:
REMARK  status: ('A' for Active; 'I' for Inactive)
REMARK    1  A    between atoms: C_2  and  O_3 
REMARK    2  A    between atoms: O_3  and  C_4 
REMARK    3  A    between atoms: C_5  and  O_6 
REMARK    4  A    between atoms: C_9  and  C_10 
REMARK    5  A    between atoms: N_11  and  C_12 
REMARK    6  A    between atoms: C_12  and  C_13 
REMARK    7  A    between atoms: C_13  and  C_14 
REMARK    8  A    between atoms: C_14  and  N_15 
REMARK    9  A    between atoms: C_27  and  O_28 
REMARK   10  A    between atoms: C_27  and  C_29 
REMARK   11  A    between atoms: C_30  and  C_31 
ROOT
HETATM    1  C   UNL     1      -3.223   7.148 -31.850  1.00  0.00     0.161 C 
HETATM    2  N   UNL     1      -4.472   6.468 -32.198  1.00  0.00    -0.332 N 
HETATM    3  C   UNL     1      -4.234   5.331 -32.942  1.00  0.00     0.295 C 
HETATM    4  O   UNL     1      -5.047   4.725 -33.615  1.00  0.00    -0.264 OA
HETATM    5  C   UNL     1      -2.169   6.064 -31.927  1.00  0.00     0.058 C 
HETATM    6  C   UNL     1      -2.736   5.031 -32.824  1.00  0.00     0.250 C 
HETATM    7  O   UNL     1      -2.145   4.125 -33.370  1.00  0.00    -0.282 OA
HETATM    8  C   UNL     1      -0.967   5.891 -31.352  1.00  0.00     0.078 C 
ENDROOT
BRANCH   1   9
HETATM    9  C   UNL     1      -3.285   8.014 -30.616  1.00  0.00    -0.028 A 
HETATM   10  C   UNL     1      -3.079   9.402 -30.664  1.00  0.00     0.012 A 
HETATM   11  C   UNL     1      -3.183  10.167 -29.504  1.00  0.00     0.040 A 
HETATM   12  C   UNL     1      -3.497   9.550 -28.299  1.00  0.00     0.099 A 
HETATM   13  C   UNL     1      -3.709   8.171 -28.215  1.00  0.00     0.102 A 
HETATM   14  C   UNL     1      -3.605   7.410 -29.378  1.00  0.00     0.049 A 
BRANCH  12  15
HETATM   15  O   UNL     1      -3.601  10.332 -27.183  1.00  0.00    -0.358 OA
HETATM   16  H   UNL     1      -2.927  11.031 -27.290  1.00  0.00     0.218 HD
ENDBRANCH  12  15
BRANCH  13  17
HETATM   17  O   UNL     1      -4.007   7.698 -26.965  1.00  0.00    -0.349 OA
BRANCH  17  18
HETATM   18  C   UNL     1      -3.061   6.813 -26.361  1.00  0.00     0.171 C 
HETATM   19  C   UNL     1      -2.247   7.600 -25.351  1.00  0.00     0.034 C 
ENDBRANCH  17  18
ENDBRANCH  13  17
ENDBRANCH   1   9
BRANCH   2  20
HETATM   20  C   UNL     1      -5.790   7.080 -32.117  1.00  0.00     0.129 C 
BRANCH  20  21
HETATM   21  C   UNL     1      -6.695   6.553 -31.004  1.00  0.00     0.048 C 
BRANCH  21  22
HETATM   22  C   UNL     1      -6.336   5.204 -30.379  1.00  0.00     0.236 C 
BRANCH  22  23
HETATM   23  N   UNL     1      -6.915   4.009 -31.084  1.00  0.00    -0.067 N 
HETATM   24  H   UNL     1      -6.994   4.246 -32.096  1.00  0.00     0.280 HD
HETATM   25  C   UNL     1      -6.118   2.719 -30.942  1.00  0.00     0.261 C 
HETATM   26  C   UNL     1      -6.819   1.588 -31.703  1.00  0.00     0.195 C 
HETATM   27  O   UNL     1      -8.156   1.405 -31.228  1.00  0.00    -0.388 OA
HETATM   28  C   UNL     1      -8.948   2.581 -31.427  1.00  0.00     0.195 C 
HETATM   29  C   UNL     1      -8.364   3.765 -30.650  1.00  0.00     0.261 C 
ENDBRANCH  22  23
ENDBRANCH  21  22
ENDBRANCH  20  21
ENDBRANCH   2  20
BRANCH   8  30
HETATM   30  O   UNL     1      -0.131   4.830 -31.630  1.00  0.00    -0.360 OA
HETATM   31  H   UNL     1       0.407   5.016 -32.428  1.00  0.00     0.217 HD
ENDBRANCH   8  30
BRANCH   8  32
HETATM   32  C   UNL     1      -0.453   6.743 -30.308  1.00  0.00     0.038 C 
HETATM   33  C   UNL     1      -0.183   6.384 -29.046  1.00  0.00     0.014 C 
BRANCH  33  34
HETATM   34  C   UNL     1       0.360   7.369 -28.099  1.00  0.00    -0.036 A 
HETATM   35  C   UNL     1      -0.004   8.722 -28.164  1.00  0.00     0.011 A 
HETATM   36  C   UNL     1       0.560   9.653 -27.290  1.00  0.00     0.001 A 
HETATM   37  C   UNL     1       1.485   9.239 -26.335  1.00  0.00     0.000 A 
HETATM   38  C   UNL     1       1.835   7.893 -26.246  1.00  0.00     0.001 A 
HETATM   39  C   UNL     1       1.272   6.960 -27.120  1.00  0.00     0.011 A 
ENDBRANCH  33  34
ENDBRANCH   8  32
TORSDOF 11
ENDMDL
