MODEL 1
REMARK VINA RESULT:      -9.4      0.000      0.000
REMARK  9 active torsions:
REMARK  status: ('A' for Active; 'I' for Inactive)
REMARK    1  A    between atoms: C_3  and  O_4 
REMARK    2  A    between atoms: C_5  and  C_6 
REMARK    3  A    between atoms: C_16  and  N_17 
REMARK    4  A    between atoms: N_17  and  C_18 
REMARK    5  A    between atoms: C_18  and  N_19 
REMARK       I    between atoms: N_19  and  C_20 
REMARK    6  A    between atoms: C_20  and  C_21 
REMARK    7  A    between atoms: C_24  and  O_25 
REMARK    8  A    between atoms: O_25  and  C_26 
REMARK    9  A    between atoms: C_26  and  C_27 
ROOT
HETATM    1  N   UNL     1      -2.163   4.001 -31.187  1.00  0.00    -0.333 N 
HETATM    2  H   UNL     1      -1.557   3.486 -30.554  1.00  0.00     0.168 HD
ENDROOT
BRANCH   1   3
HETATM    3  C   UNL     1      -3.420   3.412 -31.435  1.00  0.00     0.035 A 
HETATM    4  C   UNL     1      -3.603   2.156 -32.013  1.00  0.00     0.048 A 
HETATM    5  C   UNL     1      -4.889   1.604 -32.183  1.00  0.00     0.053 A 
HETATM    6  C   UNL     1      -6.001   2.339 -31.733  1.00  0.00     0.086 A 
HETATM    7  C   UNL     1      -5.839   3.605 -31.152  1.00  0.00    -0.026 A 
HETATM    8  C   UNL     1      -7.010   4.387 -30.623  1.00  0.00     0.051 C 
HETATM    9  C   UNL     1      -4.543   4.120 -30.994  1.00  0.00     0.039 A 
BRANCH   5  10
HETATM   10  C   UNL     1      -4.982   0.292 -32.821  1.00  0.00     0.183 A 
HETATM   11  O   UNL     1      -6.176  -0.019 -33.425  1.00  0.00    -0.289 OA
HETATM   12  C   UNL     1      -5.985  -1.284 -33.901  1.00  0.00     0.106 A 
HETATM   13  C   UNL     1      -4.693  -1.668 -33.580  1.00  0.00     0.093 A 
HETATM   14  C   UNL     1      -6.899  -2.072 -34.588  1.00  0.00     0.040 A 
HETATM   15  N   UNL     1      -4.064  -0.657 -32.895  1.00  0.00    -0.221 NA
HETATM   16  C   UNL     1      -4.247  -2.937 -33.967  1.00  0.00     0.034 A 
HETATM   17  C   UNL     1      -5.140  -3.765 -34.664  1.00  0.00     0.002 A 
HETATM   18  C   UNL     1      -6.441  -3.339 -34.967  1.00  0.00     0.003 A 
ENDBRANCH   5  10
BRANCH   6  19
HETATM   19  O   UNL     1      -7.287   1.872 -31.829  1.00  0.00    -0.359 OA
HETATM   20  H   UNL     1      -7.282   0.899 -31.764  1.00  0.00     0.218 HD
ENDBRANCH   6  19
ENDBRANCH   1   3
BRANCH   1  21
HETATM   21  C   UNL     1      -1.515   5.068 -31.756  1.00  0.00     0.179 C 
HETATM   22  S   UNL     1      -1.649   5.217 -33.416  1.00  0.00    -0.040 SA
BRANCH  21  23
HETATM   23  N   UNL     1      -0.751   5.849 -30.916  1.00  0.00    -0.299 N 
HETATM   24  C   UNL     1       0.118   5.425 -29.914  1.00  0.00     0.257 C 
HETATM   25  O   UNL     1       0.742   4.372 -29.908  1.00  0.00    -0.267 OA
HETATM   26  H   UNL     1      -1.135   6.775 -30.810  1.00  0.00     0.171 HD
BRANCH  24  27
HETATM   27  C   UNL     1       0.342   6.388 -28.805  1.00  0.00     0.032 A 
HETATM   28  C   UNL     1       0.909   7.653 -29.003  1.00  0.00     0.020 A 
HETATM   29  C   UNL     1       1.066   8.527 -27.919  1.00  0.00     0.038 A 
HETATM   30  C   UNL     1       0.665   8.141 -26.638  1.00  0.00     0.068 A 
HETATM   31  C   UNL     1       0.144   6.862 -26.440  1.00  0.00     0.038 A 
HETATM   32  C   UNL     1      -0.021   5.988 -27.514  1.00  0.00     0.020 A 
BRANCH  30  33
HETATM   33  O   UNL     1       0.756   8.899 -25.506  1.00  0.00    -0.351 OA
BRANCH  33  34
HETATM   34  C   UNL     1       1.989   9.570 -25.234  1.00  0.00     0.179 C 
BRANCH  34  35
HETATM   35  C   UNL     1       2.688   9.023 -23.977  1.00  0.00     0.002 C 
HETATM   36  C   UNL     1       4.191   9.314 -24.002  1.00  0.00     0.011 C 
HETATM   37  C   UNL     1       2.053   9.612 -22.719  1.00  0.00     0.011 C 
ENDBRANCH  34  35
ENDBRANCH  33  34
ENDBRANCH  30  33
ENDBRANCH  24  27
ENDBRANCH  21  23
ENDBRANCH   1  21
TORSDOF 9
ENDMDL
MODEL 2
REMARK VINA RESULT:      -9.2      1.227      1.740
REMARK  9 active torsions:
REMARK  status: ('A' for Active; 'I' for Inactive)
REMARK    1  A    between atoms: C_3  and  O_4 
REMARK    2  A    between atoms: C_5  and  C_6 
REMARK    3  A    between atoms: C_16  and  N_17 
REMARK    4  A    between atoms: N_17  and  C_18 
REMARK    5  A    between atoms: C_18  and  N_19 
REMARK       I    between atoms: N_19  and  C_20 
REMARK    6  A    between atoms: C_20  and  C_21 
REMARK    7  A    between atoms: C_24  and  O_25 
REMARK    8  A    between atoms: O_25  and  C_26 
REMARK    9  A    between atoms: C_26  and  C_27 
ROOT
HETATM    1  N   UNL     1      -2.304   3.927 -32.254  1.00  0.00    -0.333 N 
HETATM    2  H   UNL     1      -1.481   3.363 -32.059  1.00  0.00     0.168 HD
ENDROOT
BRANCH   1   3
HETATM    3  C   UNL     1      -3.541   3.298 -32.006  1.00  0.00     0.035 A 
HETATM    4  C   UNL     1      -3.927   2.072 -32.549  1.00  0.00     0.048 A 
HETATM    5  C   UNL     1      -5.159   1.475 -32.216  1.00  0.00     0.053 A 
HETATM    6  C   UNL     1      -5.997   2.130 -31.296  1.00  0.00     0.086 A 
HETATM    7  C   UNL     1      -5.630   3.364 -30.741  1.00  0.00    -0.026 A 
HETATM    8  C   UNL     1      -6.491   4.059 -29.721  1.00  0.00     0.051 C 
HETATM    9  C   UNL     1      -4.394   3.927 -31.092  1.00  0.00     0.039 A 
BRANCH   5  10
HETATM   10  C   UNL     1      -5.487   0.201 -32.854  1.00  0.00     0.183 A 
HETATM   11  O   UNL     1      -4.431  -0.610 -33.196  1.00  0.00    -0.289 OA
HETATM   12  C   UNL     1      -5.022  -1.691 -33.783  1.00  0.00     0.106 A 
HETATM   13  C   UNL     1      -6.393  -1.493 -33.754  1.00  0.00     0.093 A 
HETATM   14  C   UNL     1      -4.392  -2.805 -34.321  1.00  0.00     0.040 A 
HETATM   15  N   UNL     1      -6.677  -0.288 -33.159  1.00  0.00    -0.221 NA
HETATM   16  C   UNL     1      -7.231  -2.474 -34.298  1.00  0.00     0.034 A 
HETATM   17  C   UNL     1      -6.634  -3.618 -34.852  1.00  0.00     0.002 A 
HETATM   18  C   UNL     1      -5.242  -3.777 -34.863  1.00  0.00     0.003 A 
ENDBRANCH   5  10
BRANCH   6  19
HETATM   19  O   UNL     1      -7.200   1.612 -30.889  1.00  0.00    -0.359 OA
HETATM   20  H   UNL     1      -7.925   2.116 -31.304  1.00  0.00     0.218 HD
ENDBRANCH   6  19
ENDBRANCH   1   3
BRANCH   1  21
HETATM   21  C   UNL     1      -1.975   5.112 -32.863  1.00  0.00     0.179 C 
HETATM   22  S   UNL     1      -2.292   5.215 -34.502  1.00  0.00    -0.040 SA
BRANCH  21  23
HETATM   23  N   UNL     1      -1.341   6.055 -32.084  1.00  0.00    -0.299 N 
HETATM   24  C   UNL     1      -0.461   5.834 -31.027  1.00  0.00     0.257 C 
HETATM   25  O   UNL     1       0.285   4.871 -30.909  1.00  0.00    -0.267 OA
HETATM   26  H   UNL     1      -1.838   6.932 -32.074  1.00  0.00     0.171 HD
BRANCH  24  27
HETATM   27  C   UNL     1      -0.393   6.914 -30.009  1.00  0.00     0.032 A 
HETATM   28  C   UNL     1      -1.437   7.823 -29.797  1.00  0.00     0.020 A 
HETATM   29  C   UNL     1      -1.323   8.801 -28.800  1.00  0.00     0.038 A 
HETATM   30  C   UNL     1      -0.169   8.878 -28.018  1.00  0.00     0.068 A 
HETATM   31  C   UNL     1       0.886   7.999 -28.265  1.00  0.00     0.038 A 
HETATM   32  C   UNL     1       0.779   7.020 -29.252  1.00  0.00     0.020 A 
BRANCH  30  33
HETATM   33  O   UNL     1       0.061   9.774 -27.013  1.00  0.00    -0.351 OA
BRANCH  33  34
HETATM   34  C   UNL     1       0.112   9.288 -25.669  1.00  0.00     0.179 C 
BRANCH  34  35
HETATM   35  C   UNL     1       1.372   9.760 -24.923  1.00  0.00     0.002 C 
HETATM   36  C   UNL     1       1.072  10.067 -23.454  1.00  0.00     0.011 C 
HETATM   37  C   UNL     1       2.477   8.710 -25.032  1.00  0.00     0.011 C 
ENDBRANCH  34  35
ENDBRANCH  33  34
ENDBRANCH  30  33
ENDBRANCH  24  27
ENDBRANCH  21  23
ENDBRANCH   1  21
TORSDOF 9
ENDMDL
MODEL 3
REMARK VINA RESULT:      -9.0      3.045      4.565
REMARK  9 active torsions:
REMARK  status: ('A' for Active; 'I' for Inactive)
REMARK    1  A    between atoms: C_3  and  O_4 
REMARK    2  A    between atoms: C_5  and  C_6 
REMARK    3  A    between atoms: C_16  and  N_17 
REMARK    4  A    between atoms: N_17  and  C_18 
REMARK    5  A    between atoms: C_18  and  N_19 
REMARK       I    between atoms: N_19  and  C_20 
REMARK    6  A    between atoms: C_20  and  C_21 
REMARK    7  A    between atoms: C_24  and  O_25 
REMARK    8  A    between atoms: O_25  and  C_26 
REMARK    9  A    between atoms: C_26  and  C_27 
ROOT
HETATM    1  N   UNL     1      -7.165   5.648 -33.586  1.00  0.00    -0.333 N 
HETATM    2  H   UNL     1      -7.139   6.301 -34.365  1.00  0.00     0.168 HD
ENDROOT
BRANCH   1   3
HETATM    3  C   UNL     1      -7.735   4.390 -33.870  1.00  0.00     0.035 A 
HETATM    4  C   UNL     1      -7.036   3.183 -33.845  1.00  0.00     0.048 A 
HETATM    5  C   UNL     1      -7.681   1.953 -34.088  1.00  0.00     0.053 A 
HETATM    6  C   UNL     1      -9.065   1.959 -34.336  1.00  0.00     0.086 A 
HETATM    7  C   UNL     1      -9.786   3.160 -34.368  1.00  0.00    -0.026 A 
HETATM    8  C   UNL     1     -11.274   3.183 -34.586  1.00  0.00     0.051 C 
HETATM    9  C   UNL     1      -9.111   4.365 -34.117  1.00  0.00     0.039 A 
BRANCH   5  10
HETATM   10  C   UNL     1      -6.860   0.744 -34.065  1.00  0.00     0.183 A 
HETATM   11  O   UNL     1      -7.349  -0.350 -34.738  1.00  0.00    -0.289 OA
HETATM   12  C   UNL     1      -6.408  -1.315 -34.528  1.00  0.00     0.106 A 
HETATM   13  C   UNL     1      -5.397  -0.762 -33.759  1.00  0.00     0.093 A 
HETATM   14  C   UNL     1      -6.429  -2.625 -34.987  1.00  0.00     0.040 A 
HETATM   15  N   UNL     1      -5.694   0.549 -33.473  1.00  0.00    -0.221 NA
HETATM   16  C   UNL     1      -4.301  -1.558 -33.407  1.00  0.00     0.034 A 
HETATM   17  C   UNL     1      -4.282  -2.889 -33.852  1.00  0.00     0.002 A 
HETATM   18  C   UNL     1      -5.328  -3.411 -34.626  1.00  0.00     0.003 A 
ENDBRANCH   5  10
BRANCH   6  19
HETATM   19  O   UNL     1      -9.783   0.810 -34.554  1.00  0.00    -0.359 OA
HETATM   20  H   UNL     1     -10.633   0.866 -34.078  1.00  0.00     0.218 HD
ENDBRANCH   6  19
ENDBRANCH   1   3
BRANCH   1  21
HETATM   21  C   UNL     1      -6.772   6.241 -32.413  1.00  0.00     0.179 C 
HETATM   22  S   UNL     1      -7.975   6.524 -31.286  1.00  0.00    -0.040 SA
BRANCH  21  23
HETATM   23  N   UNL     1      -5.450   6.621 -32.323  1.00  0.00    -0.299 N 
HETATM   24  C   UNL     1      -4.370   6.125 -33.047  1.00  0.00     0.257 C 
HETATM   25  O   UNL     1      -4.420   5.671 -34.183  1.00  0.00    -0.267 OA
HETATM   26  H   UNL     1      -5.236   7.027 -31.425  1.00  0.00     0.171 HD
BRANCH  24  27
HETATM   27  C   UNL     1      -3.043   6.238 -32.386  1.00  0.00     0.032 A 
HETATM   28  C   UNL     1      -2.313   7.431 -32.353  1.00  0.00     0.020 A 
HETATM   29  C   UNL     1      -1.081   7.480 -31.687  1.00  0.00     0.038 A 
HETATM   30  C   UNL     1      -0.574   6.340 -31.060  1.00  0.00     0.068 A 
HETATM   31  C   UNL     1      -1.285   5.142 -31.137  1.00  0.00     0.038 A 
HETATM   32  C   UNL     1      -2.514   5.086 -31.793  1.00  0.00     0.020 A 
BRANCH  30  33
HETATM   33  O   UNL     1       0.604   6.258 -30.373  1.00  0.00    -0.351 OA
BRANCH  33  34
HETATM   34  C   UNL     1       0.602   5.618 -29.095  1.00  0.00     0.179 C 
BRANCH  34  35
HETATM   35  C   UNL     1       0.593   6.626 -27.934  1.00  0.00     0.002 C 
HETATM   36  C   UNL     1       1.076   8.006 -28.387  1.00  0.00     0.011 C 
HETATM   37  C   UNL     1      -0.806   6.726 -27.329  1.00  0.00     0.011 C 
ENDBRANCH  34  35
ENDBRANCH  33  34
ENDBRANCH  30  33
ENDBRANCH  24  27
ENDBRANCH  21  23
ENDBRANCH   1  21
TORSDOF 9
ENDMDL
MODEL 4
REMARK VINA RESULT:      -8.9      2.337      3.165
REMARK  9 active torsions:
REMARK  status: ('A' for Active; 'I' for Inactive)
REMARK    1  A    between atoms: C_3  and  O_4 
REMARK    2  A    between atoms: C_5  and  C_6 
REMARK    3  A    between atoms: C_16  and  N_17 
REMARK    4  A    between atoms: N_17  and  C_18 
REMARK    5  A    between atoms: C_18  and  N_19 
REMARK       I    between atoms: N_19  and  C_20 
REMARK    6  A    between atoms: C_20  and  C_21 
REMARK    7  A    between atoms: C_24  and  O_25 
REMARK    8  A    between atoms: O_25  and  C_26 
REMARK    9  A    between atoms: C_26  and  C_27 
ROOT
HETATM    1  N   UNL     1      -4.959   3.823 -32.455  1.00  0.00    -0.333 N 
HETATM    2  H   UNL     1      -4.414   4.404 -33.087  1.00  0.00     0.168 HD
ENDROOT
BRANCH   1   3
HETATM    3  C   UNL     1      -5.907   2.982 -33.074  1.00  0.00     0.035 A 
HETATM    4  C   UNL     1      -5.721   1.619 -33.305  1.00  0.00     0.048 A 
HETATM    5  C   UNL     1      -6.733   0.825 -33.882  1.00  0.00     0.053 A 
HETATM    6  C   UNL     1      -7.960   1.432 -34.205  1.00  0.00     0.086 A 
HETATM    7  C   UNL     1      -8.167   2.800 -33.984  1.00  0.00    -0.026 A 
HETATM    8  C   UNL     1      -9.487   3.458 -34.280  1.00  0.00     0.051 C 
HETATM    9  C   UNL     1      -7.138   3.558 -33.403  1.00  0.00     0.039 A 
BRANCH   5  10
HETATM   10  C   UNL     1      -6.437  -0.589 -34.108  1.00  0.00     0.183 A 
HETATM   11  O   UNL     1      -5.197  -1.032 -33.715  1.00  0.00    -0.289 OA
HETATM   12  C   UNL     1      -5.192  -2.351 -34.064  1.00  0.00     0.106 A 
HETATM   13  C   UNL     1      -6.422  -2.645 -34.630  1.00  0.00     0.093 A 
HETATM   14  C   UNL     1      -4.159  -3.263 -33.895  1.00  0.00     0.040 A 
HETATM   15  N   UNL     1      -7.207  -1.517 -34.650  1.00  0.00    -0.221 NA
HETATM   16  C   UNL     1      -6.671  -3.950 -35.071  1.00  0.00     0.034 A 
HETATM   17  C   UNL     1      -5.652  -4.903 -34.918  1.00  0.00     0.002 A 
HETATM   18  C   UNL     1      -4.420  -4.563 -34.342  1.00  0.00     0.003 A 
ENDBRANCH   5  10
BRANCH   6  19
HETATM   19  O   UNL     1      -9.013   0.735 -34.742  1.00  0.00    -0.359 OA
HETATM   20  H   UNL     1      -9.641   0.503 -34.033  1.00  0.00     0.218 HD
ENDBRANCH   6  19
ENDBRANCH   1   3
BRANCH   1  21
HETATM   21  C   UNL     1      -4.723   4.139 -31.142  1.00  0.00     0.179 C 
HETATM   22  S   UNL     1      -5.644   3.326 -30.007  1.00  0.00    -0.040 SA
BRANCH  21  23
HETATM   23  N   UNL     1      -3.820   5.152 -30.900  1.00  0.00    -0.299 N 
HETATM   24  C   UNL     1      -2.644   5.428 -31.593  1.00  0.00     0.257 C 
HETATM   25  O   UNL     1      -2.440   5.191 -32.776  1.00  0.00    -0.267 OA
HETATM   26  H   UNL     1      -3.860   5.472 -29.945  1.00  0.00     0.171 HD
BRANCH  24  27
HETATM   27  C   UNL     1      -1.591   6.137 -30.819  1.00  0.00     0.032 A 
HETATM   28  C   UNL     1      -0.261   6.217 -31.248  1.00  0.00     0.020 A 
HETATM   29  C   UNL     1       0.678   6.926 -30.488  1.00  0.00     0.038 A 
HETATM   30  C   UNL     1       0.296   7.550 -29.299  1.00  0.00     0.068 A 
HETATM   31  C   UNL     1      -1.021   7.427 -28.853  1.00  0.00     0.038 A 
HETATM   32  C   UNL     1      -1.963   6.727 -29.606  1.00  0.00     0.020 A 
BRANCH  30  33
HETATM   33  O   UNL     1       1.108   8.275 -28.475  1.00  0.00    -0.351 OA
BRANCH  33  34
HETATM   34  C   UNL     1       0.504   9.199 -27.566  1.00  0.00     0.179 C 
BRANCH  34  35
HETATM   35  C   UNL     1       1.233   9.251 -26.213  1.00  0.00     0.002 C 
HETATM   36  C   UNL     1       0.273   9.596 -25.072  1.00  0.00     0.011 C 
HETATM   37  C   UNL     1       1.932   7.921 -25.935  1.00  0.00     0.011 C 
ENDBRANCH  34  35
ENDBRANCH  33  34
ENDBRANCH  30  33
ENDBRANCH  24  27
ENDBRANCH  21  23
ENDBRANCH   1  21
TORSDOF 9
ENDMDL
MODEL 5
REMARK VINA RESULT:      -8.8      4.090      5.775
REMARK  9 active torsions:
REMARK  status: ('A' for Active; 'I' for Inactive)
REMARK    1  A    between atoms: C_3  and  O_4 
REMARK    2  A    between atoms: C_5  and  C_6 
REMARK    3  A    between atoms: C_16  and  N_17 
REMARK    4  A    between atoms: N_17  and  C_18 
REMARK    5  A    between atoms: C_18  and  N_19 
REMARK       I    between atoms: N_19  and  C_20 
REMARK    6  A    between atoms: C_20  and  C_21 
REMARK    7  A    between atoms: C_24  and  O_25 
REMARK    8  A    between atoms: O_25  and  C_26 
REMARK    9  A    between atoms: C_26  and  C_27 
ROOT
HETATM    1  N   UNL     1      -6.407   4.801 -33.879  1.00  0.00    -0.333 N 
HETATM    2  H   UNL     1      -6.301   5.089 -34.849  1.00  0.00     0.168 HD
ENDROOT
BRANCH   1   3
HETATM    3  C   UNL     1      -6.820   3.467 -33.687  1.00  0.00     0.035 A 
HETATM    4  C   UNL     1      -8.141   3.029 -33.779  1.00  0.00     0.048 A 
HETATM    5  C   UNL     1      -8.478   1.668 -33.627  1.00  0.00     0.053 A 
HETATM    6  C   UNL     1      -7.445   0.742 -33.400  1.00  0.00     0.086 A 
HETATM    7  C   UNL     1      -6.111   1.161 -33.302  1.00  0.00    -0.026 A 
HETATM    8  C   UNL     1      -4.987   0.181 -33.105  1.00  0.00     0.051 C 
HETATM    9  C   UNL     1      -5.813   2.523 -33.463  1.00  0.00     0.039 A 
BRANCH   5  10
HETATM   10  C   UNL     1      -9.893   1.309 -33.716  1.00  0.00     0.183 A 
HETATM   11  O   UNL     1     -10.724   2.213 -34.330  1.00  0.00    -0.289 OA
HETATM   12  C   UNL     1     -11.958   1.637 -34.246  1.00  0.00     0.106 A 
HETATM   13  C   UNL     1     -11.814   0.417 -33.606  1.00  0.00     0.093 A 
HETATM   14  C   UNL     1     -13.161   2.153 -34.709  1.00  0.00     0.040 A 
HETATM   15  N   UNL     1     -10.496   0.217 -33.276  1.00  0.00    -0.221 NA
HETATM   16  C   UNL     1     -12.948  -0.378 -33.400  1.00  0.00     0.034 A 
HETATM   17  C   UNL     1     -14.185   0.106 -33.854  1.00  0.00     0.002 A 
HETATM   18  C   UNL     1     -14.287   1.349 -34.494  1.00  0.00     0.003 A 
ENDBRANCH   5  10
BRANCH   6  19
HETATM   19  O   UNL     1      -7.673  -0.605 -33.269  1.00  0.00    -0.359 OA
HETATM   20  H   UNL     1      -6.894  -1.096 -33.592  1.00  0.00     0.218 HD
ENDBRANCH   6  19
ENDBRANCH   1   3
BRANCH   1  21
HETATM   21  C   UNL     1      -6.263   5.858 -33.017  1.00  0.00     0.179 C 
HETATM   22  S   UNL     1      -7.674   6.612 -32.528  1.00  0.00    -0.040 SA
BRANCH  21  23
HETATM   23  N   UNL     1      -4.975   6.242 -32.715  1.00  0.00    -0.299 N 
HETATM   24  C   UNL     1      -3.820   6.004 -33.455  1.00  0.00     0.257 C 
HETATM   25  O   UNL     1      -3.763   5.882 -34.671  1.00  0.00    -0.267 OA
HETATM   26  H   UNL     1      -4.848   6.389 -31.725  1.00  0.00     0.171 HD
BRANCH  24  27
HETATM   27  C   UNL     1      -2.552   5.973 -32.679  1.00  0.00     0.032 A 
HETATM   28  C   UNL     1      -1.565   6.958 -32.802  1.00  0.00     0.020 A 
HETATM   29  C   UNL     1      -0.404   6.887 -32.020  1.00  0.00     0.038 A 
HETATM   30  C   UNL     1      -0.223   5.834 -31.121  1.00  0.00     0.068 A 
HETATM   31  C   UNL     1      -1.190   4.831 -31.037  1.00  0.00     0.038 A 
HETATM   32  C   UNL     1      -2.350   4.897 -31.808  1.00  0.00     0.020 A 
BRANCH  30  33
HETATM   33  O   UNL     1       0.853   5.656 -30.299  1.00  0.00    -0.351 OA
BRANCH  33  34
HETATM   34  C   UNL     1       0.673   5.846 -28.893  1.00  0.00     0.179 C 
BRANCH  34  35
HETATM   35  C   UNL     1       0.094   7.231 -28.558  1.00  0.00     0.002 C 
HETATM   36  C   UNL     1      -1.020   7.135 -27.514  1.00  0.00     0.011 C 
HETATM   37  C   UNL     1       1.201   8.164 -28.069  1.00  0.00     0.011 C 
ENDBRANCH  34  35
ENDBRANCH  33  34
ENDBRANCH  30  33
ENDBRANCH  24  27
ENDBRANCH  21  23
ENDBRANCH   1  21
TORSDOF 9
ENDMDL
MODEL 6
REMARK VINA RESULT:      -8.8      5.817     10.689
REMARK  9 active torsions:
REMARK  status: ('A' for Active; 'I' for Inactive)
REMARK    1  A    between atoms: C_3  and  O_4 
REMARK    2  A    between atoms: C_5  and  C_6 
REMARK    3  A    between atoms: C_16  and  N_17 
REMARK    4  A    between atoms: N_17  and  C_18 
REMARK    5  A    between atoms: C_18  and  N_19 
REMARK       I    between atoms: N_19  and  C_20 
REMARK    6  A    between atoms: C_20  and  C_21 
REMARK    7  A    between atoms: C_24  and  O_25 
REMARK    8  A    between atoms: O_25  and  C_26 
REMARK    9  A    between atoms: C_26  and  C_27 
ROOT
HETATM    1  N   UNL     1     -10.309   3.197 -34.589  1.00  0.00    -0.333 N 
HETATM    2  H   UNL     1     -10.378   3.214 -35.604  1.00  0.00     0.168 HD
ENDROOT
BRANCH   1   3
HETATM    3  C   UNL     1      -9.568   4.249 -34.016  1.00  0.00     0.035 A 
HETATM    4  C   UNL     1      -8.176   4.284 -33.938  1.00  0.00     0.048 A 
HETATM    5  C   UNL     1      -7.496   5.395 -33.397  1.00  0.00     0.053 A 
HETATM    6  C   UNL     1      -8.251   6.494 -32.952  1.00  0.00     0.086 A 
HETATM    7  C   UNL     1      -9.651   6.478 -33.019  1.00  0.00    -0.026 A 
HETATM    8  C   UNL     1     -10.476   7.662 -32.590  1.00  0.00     0.051 C 
HETATM    9  C   UNL     1     -10.294   5.358 -33.567  1.00  0.00     0.039 A 
BRANCH   5  10
HETATM   10  C   UNL     1      -6.036   5.329 -33.336  1.00  0.00     0.183 A 
HETATM   11  O   UNL     1      -5.363   5.373 -34.533  1.00  0.00    -0.289 OA
HETATM   12  C   UNL     1      -4.050   5.269 -34.178  1.00  0.00     0.106 A 
HETATM   13  C   UNL     1      -3.990   5.184 -32.796  1.00  0.00     0.093 A 
HETATM   14  C   UNL     1      -2.948   5.250 -35.022  1.00  0.00     0.040 A 
HETATM   15  N   UNL     1      -5.259   5.226 -32.271  1.00  0.00    -0.221 NA
HETATM   16  C   UNL     1      -2.739   5.073 -32.178  1.00  0.00     0.034 A 
HETATM   17  C   UNL     1      -1.598   5.051 -32.996  1.00  0.00     0.002 A 
HETATM   18  C   UNL     1      -1.704   5.137 -34.391  1.00  0.00     0.003 A 
ENDBRANCH   5  10
BRANCH   6  19
HETATM   19  O   UNL     1      -7.677   7.629 -32.439  1.00  0.00    -0.359 OA
HETATM   20  H   UNL     1      -7.238   8.121 -33.158  1.00  0.00     0.218 HD
ENDBRANCH   6  19
ENDBRANCH   1   3
BRANCH   1  21
HETATM   21  C   UNL     1     -10.837   2.045 -34.064  1.00  0.00     0.179 C 
HETATM   22  S   UNL     1     -12.495   2.025 -33.841  1.00  0.00    -0.040 SA
BRANCH  21  23
HETATM   23  N   UNL     1      -9.943   1.065 -33.694  1.00  0.00    -0.299 N 
HETATM   24  C   UNL     1      -9.112   1.048 -32.576  1.00  0.00     0.257 C 
HETATM   25  O   UNL     1      -9.349   1.586 -31.503  1.00  0.00    -0.267 OA
HETATM   26  H   UNL     1      -9.640   0.513 -34.482  1.00  0.00     0.171 HD
BRANCH  24  27
HETATM   27  C   UNL     1      -7.873   0.237 -32.706  1.00  0.00     0.032 A 
HETATM   28  C   UNL     1      -6.866   0.233 -31.733  1.00  0.00     0.020 A 
HETATM   29  C   UNL     1      -5.735  -0.577 -31.901  1.00  0.00     0.038 A 
HETATM   30  C   UNL     1      -5.603  -1.377 -33.037  1.00  0.00     0.068 A 
HETATM   31  C   UNL     1      -6.588  -1.333 -34.024  1.00  0.00     0.038 A 
HETATM   32  C   UNL     1      -7.719  -0.533 -33.863  1.00  0.00     0.020 A 
BRANCH  30  33
HETATM   33  O   UNL     1      -4.559  -2.213 -33.313  1.00  0.00    -0.351 OA
BRANCH  33  34
HETATM   34  C   UNL     1      -4.439  -2.734 -34.639  1.00  0.00     0.179 C 
BRANCH  34  35
HETATM   35  C   UNL     1      -4.424  -4.272 -34.665  1.00  0.00     0.002 C 
HETATM   36  C   UNL     1      -3.693  -4.846 -33.449  1.00  0.00     0.011 C 
HETATM   37  C   UNL     1      -5.850  -4.815 -34.734  1.00  0.00     0.011 C 
ENDBRANCH  34  35
ENDBRANCH  33  34
ENDBRANCH  30  33
ENDBRANCH  24  27
ENDBRANCH  21  23
ENDBRANCH   1  21
TORSDOF 9
ENDMDL
MODEL 7
REMARK VINA RESULT:      -8.6      2.781     11.109
REMARK  9 active torsions:
REMARK  status: ('A' for Active; 'I' for Inactive)
REMARK    1  A    between atoms: C_3  and  O_4 
REMARK    2  A    between atoms: C_5  and  C_6 
REMARK    3  A    between atoms: C_16  and  N_17 
REMARK    4  A    between atoms: N_17  and  C_18 
REMARK    5  A    between atoms: C_18  and  N_19 
REMARK       I    between atoms: N_19  and  C_20 
REMARK    6  A    between atoms: C_20  and  C_21 
REMARK    7  A    between atoms: C_24  and  O_25 
REMARK    8  A    between atoms: O_25  and  C_26 
REMARK    9  A    between atoms: C_26  and  C_27 
ROOT
HETATM    1  N   UNL     1      -6.433   6.079 -31.667  1.00  0.00    -0.333 N 
HETATM    2  H   UNL     1      -7.012   6.692 -32.235  1.00  0.00     0.168 HD
ENDROOT
BRANCH   1   3
HETATM    3  C   UNL     1      -5.049   6.142 -31.928  1.00  0.00     0.035 A 
HETATM    4  C   UNL     1      -4.082   6.487 -30.984  1.00  0.00     0.048 A 
HETATM    5  C   UNL     1      -2.709   6.479 -31.300  1.00  0.00     0.053 A 
HETATM    6  C   UNL     1      -2.319   6.088 -32.593  1.00  0.00     0.086 A 
HETATM    7  C   UNL     1      -3.275   5.740 -33.558  1.00  0.00    -0.026 A 
HETATM    8  C   UNL     1      -2.877   5.276 -34.933  1.00  0.00     0.051 C 
HETATM    9  C   UNL     1      -4.633   5.756 -33.206  1.00  0.00     0.039 A 
BRANCH   5  10
HETATM   10  C   UNL     1      -1.772   6.879 -30.251  1.00  0.00     0.183 A 
HETATM   11  O   UNL     1      -2.232   6.829 -28.957  1.00  0.00    -0.289 OA
HETATM   12  C   UNL     1      -1.177   7.272 -28.214  1.00  0.00     0.106 A 
HETATM   13  C   UNL     1      -0.134   7.551 -29.082  1.00  0.00     0.093 A 
HETATM   14  C   UNL     1      -1.124   7.427 -26.836  1.00  0.00     0.040 A 
HETATM   15  N   UNL     1      -0.523   7.295 -30.375  1.00  0.00    -0.221 NA
HETATM   16  C   UNL     1       1.076   8.022 -28.559  1.00  0.00     0.034 A 
HETATM   17  C   UNL     1       1.172   8.192 -27.169  1.00  0.00     0.002 A 
HETATM   18  C   UNL     1       0.091   7.900 -26.325  1.00  0.00     0.003 A 
ENDBRANCH   5  10
BRANCH   6  19
HETATM   19  O   UNL     1      -1.006   6.021 -32.983  1.00  0.00    -0.359 OA
HETATM   20  H   UNL     1      -0.481   5.598 -32.278  1.00  0.00     0.218 HD
ENDBRANCH   6  19
ENDBRANCH   1   3
BRANCH   1  21
HETATM   21  C   UNL     1      -7.191   5.234 -30.897  1.00  0.00     0.179 C 
HETATM   22  S   UNL     1      -7.888   5.901 -29.530  1.00  0.00    -0.040 SA
BRANCH  21  23
HETATM   23  N   UNL     1      -7.226   3.910 -31.279  1.00  0.00    -0.299 N 
HETATM   24  C   UNL     1      -6.269   2.929 -31.036  1.00  0.00     0.257 C 
HETATM   25  O   UNL     1      -5.514   2.889 -30.073  1.00  0.00    -0.267 OA
HETATM   26  H   UNL     1      -7.820   3.765 -32.081  1.00  0.00     0.171 HD
BRANCH  24  27
HETATM   27  C   UNL     1      -6.233   1.807 -32.011  1.00  0.00     0.032 A 
HETATM   28  C   UNL     1      -5.840   0.511 -31.659  1.00  0.00     0.020 A 
HETATM   29  C   UNL     1      -5.857  -0.511 -32.619  1.00  0.00     0.038 A 
HETATM   30  C   UNL     1      -6.260  -0.241 -33.928  1.00  0.00     0.068 A 
HETATM   31  C   UNL     1      -6.606   1.064 -34.283  1.00  0.00     0.038 A 
HETATM   32  C   UNL     1      -6.596   2.085 -33.333  1.00  0.00     0.020 A 
BRANCH  30  33
HETATM   33  O   UNL     1      -6.329  -1.144 -34.950  1.00  0.00    -0.351 OA
BRANCH  33  34
HETATM   34  C   UNL     1      -6.657  -2.500 -34.635  1.00  0.00     0.179 C 
BRANCH  34  35
HETATM   35  C   UNL     1      -5.620  -3.496 -35.182  1.00  0.00     0.002 C 
HETATM   36  C   UNL     1      -4.409  -3.609 -34.254  1.00  0.00     0.011 C 
HETATM   37  C   UNL     1      -6.259  -4.868 -35.391  1.00  0.00     0.011 C 
ENDBRANCH  34  35
ENDBRANCH  33  34
ENDBRANCH  30  33
ENDBRANCH  24  27
ENDBRANCH  21  23
ENDBRANCH   1  21
TORSDOF 9
ENDMDL
MODEL 8
REMARK VINA RESULT:      -8.6      2.173      2.780
REMARK  9 active torsions:
REMARK  status: ('A' for Active; 'I' for Inactive)
REMARK    1  A    between atoms: C_3  and  O_4 
REMARK    2  A    between atoms: C_5  and  C_6 
REMARK    3  A    between atoms: C_16  and  N_17 
REMARK    4  A    between atoms: N_17  and  C_18 
REMARK    5  A    between atoms: C_18  and  N_19 
REMARK       I    between atoms: N_19  and  C_20 
REMARK    6  A    between atoms: C_20  and  C_21 
REMARK    7  A    between atoms: C_24  and  O_25 
REMARK    8  A    between atoms: O_25  and  C_26 
REMARK    9  A    between atoms: C_26  and  C_27 
ROOT
HETATM    1  N   UNL     1      -5.005   5.593 -33.381  1.00  0.00    -0.333 N 
HETATM    2  H   UNL     1      -5.622   6.326 -33.722  1.00  0.00     0.168 HD
ENDROOT
BRANCH   1   3
HETATM    3  C   UNL     1      -5.650   4.480 -32.804  1.00  0.00     0.035 A 
HETATM    4  C   UNL     1      -5.465   3.160 -33.213  1.00  0.00     0.048 A 
HETATM    5  C   UNL     1      -6.104   2.088 -32.555  1.00  0.00     0.053 A 
HETATM    6  C   UNL     1      -6.923   2.372 -31.448  1.00  0.00     0.086 A 
HETATM    7  C   UNL     1      -7.125   3.692 -31.022  1.00  0.00    -0.026 A 
HETATM    8  C   UNL     1      -7.961   4.013 -29.813  1.00  0.00     0.051 C 
HETATM    9  C   UNL     1      -6.470   4.733 -31.698  1.00  0.00     0.039 A 
BRANCH   5  10
HETATM   10  C   UNL     1      -5.867   0.741 -33.072  1.00  0.00     0.183 A 
HETATM   11  O   UNL     1      -6.967   0.044 -33.509  1.00  0.00    -0.289 OA
HETATM   12  C   UNL     1      -6.460  -1.160 -33.903  1.00  0.00     0.106 A 
HETATM   13  C   UNL     1      -5.090  -1.129 -33.702  1.00  0.00     0.093 A 
HETATM   14  C   UNL     1      -7.163  -2.242 -34.416  1.00  0.00     0.040 A 
HETATM   15  N   UNL     1      -4.723   0.086 -33.176  1.00  0.00    -0.221 NA
HETATM   16  C   UNL     1      -4.330  -2.257 -34.036  1.00  0.00     0.034 A 
HETATM   17  C   UNL     1      -5.002  -3.373 -34.559  1.00  0.00     0.002 A 
HETATM   18  C   UNL     1      -6.391  -3.364 -34.743  1.00  0.00     0.003 A 
ENDBRANCH   5  10
BRANCH   6  19
HETATM   19  O   UNL     1      -7.561   1.394 -30.728  1.00  0.00    -0.359 OA
HETATM   20  H   UNL     1      -7.316   1.475 -29.788  1.00  0.00     0.218 HD
ENDBRANCH   6  19
ENDBRANCH   1   3
BRANCH   1  21
HETATM   21  C   UNL     1      -3.688   5.969 -33.440  1.00  0.00     0.179 C 
HETATM   22  S   UNL     1      -2.803   5.368 -34.726  1.00  0.00    -0.040 SA
BRANCH  21  23
HETATM   23  N   UNL     1      -3.211   6.725 -32.392  1.00  0.00    -0.299 N 
HETATM   24  C   UNL     1      -2.118   7.588 -32.392  1.00  0.00     0.257 C 
HETATM   25  O   UNL     1      -1.702   8.214 -33.358  1.00  0.00    -0.267 OA
HETATM   26  H   UNL     1      -3.472   6.338 -31.498  1.00  0.00     0.171 HD
BRANCH  24  27
HETATM   27  C   UNL     1      -1.465   7.802 -31.074  1.00  0.00     0.032 A 
HETATM   28  C   UNL     1      -0.364   7.052 -30.644  1.00  0.00     0.020 A 
HETATM   29  C   UNL     1       0.226   7.323 -29.401  1.00  0.00     0.038 A 
HETATM   30  C   UNL     1      -0.283   8.336 -28.586  1.00  0.00     0.068 A 
HETATM   31  C   UNL     1      -1.410   9.048 -29.000  1.00  0.00     0.038 A 
HETATM   32  C   UNL     1      -1.999   8.788 -30.237  1.00  0.00     0.020 A 
BRANCH  30  33
HETATM   33  O   UNL     1       0.203   8.703 -27.364  1.00  0.00    -0.351 OA
BRANCH  33  34
HETATM   34  C   UNL     1      -0.303   8.039 -26.203  1.00  0.00     0.179 C 
BRANCH  34  35
HETATM   35  C   UNL     1      -1.417   8.840 -25.508  1.00  0.00     0.002 C 
HETATM   36  C   UNL     1      -2.548   7.928 -25.029  1.00  0.00     0.011 C 
HETATM   37  C   UNL     1      -0.845   9.637 -24.336  1.00  0.00     0.011 C 
ENDBRANCH  34  35
ENDBRANCH  33  34
ENDBRANCH  30  33
ENDBRANCH  24  27
ENDBRANCH  21  23
ENDBRANCH   1  21
TORSDOF 9
ENDMDL
MODEL 9
REMARK VINA RESULT:      -8.5      6.578     12.223
REMARK  9 active torsions:
REMARK  status: ('A' for Active; 'I' for Inactive)
REMARK    1  A    between atoms: C_3  and  O_4 
REMARK    2  A    between atoms: C_5  and  C_6 
REMARK    3  A    between atoms: C_16  and  N_17 
REMARK    4  A    between atoms: N_17  and  C_18 
REMARK    5  A    between atoms: C_18  and  N_19 
REMARK       I    between atoms: N_19  and  C_20 
REMARK    6  A    between atoms: C_20  and  C_21 
REMARK    7  A    between atoms: C_24  and  O_25 
REMARK    8  A    between atoms: O_25  and  C_26 
REMARK    9  A    between atoms: C_26  and  C_27 
ROOT
HETATM    1  N   UNL     1      -8.870   3.194 -34.198  1.00  0.00    -0.333 N 
HETATM    2  H   UNL     1      -8.905   2.950 -35.185  1.00  0.00     0.168 HD
ENDROOT
BRANCH   1   3
HETATM    3  C   UNL     1      -7.931   2.475 -33.431  1.00  0.00     0.035 A 
HETATM    4  C   UNL     1      -7.431   1.217 -33.771  1.00  0.00     0.048 A 
HETATM    5  C   UNL     1      -6.452   0.577 -32.984  1.00  0.00     0.053 A 
HETATM    6  C   UNL     1      -5.962   1.244 -31.847  1.00  0.00     0.086 A 
HETATM    7  C   UNL     1      -6.452   2.507 -31.487  1.00  0.00    -0.026 A 
HETATM    8  C   UNL     1      -5.908   3.257 -30.301  1.00  0.00     0.051 C 
HETATM    9  C   UNL     1      -7.423   3.116 -32.296  1.00  0.00     0.039 A 
BRANCH   5  10
HETATM   10  C   UNL     1      -6.008  -0.750 -33.406  1.00  0.00     0.183 A 
HETATM   11  O   UNL     1      -6.936  -1.542 -34.038  1.00  0.00    -0.289 OA
HETATM   12  C   UNL     1      -6.264  -2.703 -34.289  1.00  0.00     0.106 A 
HETATM   13  C   UNL     1      -4.970  -2.555 -33.816  1.00  0.00     0.093 A 
HETATM   14  C   UNL     1      -6.757  -3.845 -34.905  1.00  0.00     0.040 A 
HETATM   15  N   UNL     1      -4.818  -1.308 -33.259  1.00  0.00    -0.221 NA
HETATM   16  C   UNL     1      -4.071  -3.618 -33.959  1.00  0.00     0.034 A 
HETATM   17  C   UNL     1      -4.529  -4.791 -34.577  1.00  0.00     0.002 A 
HETATM   18  C   UNL     1      -5.848  -4.901 -35.039  1.00  0.00     0.003 A 
ENDBRANCH   5  10
BRANCH   6  19
HETATM   19  O   UNL     1      -4.989   0.714 -31.038  1.00  0.00    -0.359 OA
HETATM   20  H   UNL     1      -4.333   1.404 -30.827  1.00  0.00     0.218 HD
ENDBRANCH   6  19
ENDBRANCH   1   3
BRANCH   1  21
HETATM   21  C   UNL     1      -9.873   4.063 -33.853  1.00  0.00     0.179 C 
HETATM   22  S   UNL     1      -9.565   5.688 -34.105  1.00  0.00    -0.040 SA
BRANCH  21  23
HETATM   23  N   UNL     1     -10.988   3.518 -33.254  1.00  0.00    -0.299 N 
HETATM   24  C   UNL     1     -11.699   2.387 -33.648  1.00  0.00     0.257 C 
HETATM   25  O   UNL     1     -11.232   1.418 -34.233  1.00  0.00    -0.267 OA
HETATM   26  H   UNL     1     -11.500   4.201 -32.718  1.00  0.00     0.171 HD
BRANCH  24  27
HETATM   27  C   UNL     1     -13.129   2.352 -33.245  1.00  0.00     0.032 A 
HETATM   28  C   UNL     1     -13.661   3.199 -32.266  1.00  0.00     0.020 A 
HETATM   29  C   UNL     1     -15.026   3.137 -31.952  1.00  0.00     0.038 A 
HETATM   30  C   UNL     1     -15.858   2.228 -32.608  1.00  0.00     0.068 A 
HETATM   31  C   UNL     1     -15.312   1.354 -33.549  1.00  0.00     0.038 A 
HETATM   32  C   UNL     1     -13.956   1.413 -33.871  1.00  0.00     0.020 A 
BRANCH  30  33
HETATM   33  O   UNL     1     -17.199   2.075 -32.401  1.00  0.00    -0.351 OA
BRANCH  33  34
HETATM   34  C   UNL     1     -17.874   3.031 -31.580  1.00  0.00     0.179 C 
BRANCH  34  35
HETATM   35  C   UNL     1     -18.836   3.921 -32.386  1.00  0.00     0.002 C 
HETATM   36  C   UNL     1     -18.201   5.272 -32.721  1.00  0.00     0.011 C 
HETATM   37  C   UNL     1     -19.272   3.207 -33.665  1.00  0.00     0.011 C 
ENDBRANCH  34  35
ENDBRANCH  33  34
ENDBRANCH  30  33
ENDBRANCH  24  27
ENDBRANCH  21  23
ENDBRANCH   1  21
TORSDOF 9
ENDMDL
MODEL 10
REMARK VINA RESULT:      -8.5      8.483     11.506
REMARK  9 active torsions:
REMARK  status: ('A' for Active; 'I' for Inactive)
REMARK    1  A    between atoms: C_3  and  O_4 
REMARK    2  A    between atoms: C_5  and  C_6 
REMARK    3  A    between atoms: C_16  and  N_17 
REMARK    4  A    between atoms: N_17  and  C_18 
REMARK    5  A    between atoms: C_18  and  N_19 
REMARK       I    between atoms: N_19  and  C_20 
REMARK    6  A    between atoms: C_20  and  C_21 
REMARK    7  A    between atoms: C_24  and  O_25 
REMARK    8  A    between atoms: O_25  and  C_26 
REMARK    9  A    between atoms: C_26  and  C_27 
ROOT
HETATM    1  N   UNL     1     -11.712   1.724 -32.867  1.00  0.00    -0.333 N 
HETATM    2  H   UNL     1     -11.969   1.612 -31.889  1.00  0.00     0.168 HD
ENDROOT
BRANCH   1   3
HETATM    3  C   UNL     1     -10.327   1.771 -33.127  1.00  0.00     0.035 A 
HETATM    4  C   UNL     1      -9.531   0.652 -33.372  1.00  0.00     0.048 A 
HETATM    5  C   UNL     1      -8.161   0.776 -33.677  1.00  0.00     0.053 A 
HETATM    6  C   UNL     1      -7.604   2.065 -33.756  1.00  0.00     0.086 A 
HETATM    7  C   UNL     1      -8.385   3.203 -33.510  1.00  0.00    -0.026 A 
HETATM    8  C   UNL     1      -7.819   4.591 -33.633  1.00  0.00     0.051 C 
HETATM    9  C   UNL     1      -9.747   3.041 -33.214  1.00  0.00     0.039 A 
BRANCH   5  10
HETATM   10  C   UNL     1      -7.403  -0.455 -33.895  1.00  0.00     0.183 A 
HETATM   11  O   UNL     1      -6.096  -0.461 -33.472  1.00  0.00    -0.289 OA
HETATM   12  C   UNL     1      -5.642  -1.700 -33.820  1.00  0.00     0.106 A 
HETATM   13  C   UNL     1      -6.689  -2.384 -34.416  1.00  0.00     0.093 A 
HETATM   14  C   UNL     1      -4.367  -2.214 -33.626  1.00  0.00     0.040 A 
HETATM   15  N   UNL     1      -7.805  -1.584 -34.455  1.00  0.00    -0.221 NA
HETATM   16  C   UNL     1      -6.476  -3.694 -34.862  1.00  0.00     0.034 A 
HETATM   17  C   UNL     1      -5.201  -4.252 -34.684  1.00  0.00     0.002 A 
HETATM   18  C   UNL     1      -4.167  -3.524 -34.079  1.00  0.00     0.003 A 
ENDBRANCH   5  10
BRANCH   6  19
HETATM   19  O   UNL     1      -6.288   2.286 -34.075  1.00  0.00    -0.359 OA
HETATM   20  H   UNL     1      -6.013   1.654 -34.765  1.00  0.00     0.218 HD
ENDBRANCH   6  19
ENDBRANCH   1   3
BRANCH   1  21
HETATM   21  C   UNL     1     -12.809   1.957 -33.657  1.00  0.00     0.179 C 
HETATM   22  S   UNL     1     -13.823   0.654 -33.919  1.00  0.00    -0.040 SA
BRANCH  21  23
HETATM   23  N   UNL     1     -12.912   3.210 -34.221  1.00  0.00    -0.299 N 
HETATM   24  C   UNL     1     -12.486   3.613 -35.484  1.00  0.00     0.257 C 
HETATM   25  O   UNL     1     -12.419   2.899 -36.476  1.00  0.00    -0.267 OA
HETATM   26  H   UNL     1     -12.979   3.934 -33.522  1.00  0.00     0.171 HD
BRANCH  24  27
HETATM   27  C   UNL     1     -12.162   5.056 -35.626  1.00  0.00     0.032 A 
HETATM   28  C   UNL     1     -10.856   5.552 -35.534  1.00  0.00     0.020 A 
HETATM   29  C   UNL     1     -10.613   6.921 -35.707  1.00  0.00     0.038 A 
HETATM   30  C   UNL     1     -11.669   7.797 -35.966  1.00  0.00     0.068 A 
HETATM   31  C   UNL     1     -12.974   7.303 -36.010  1.00  0.00     0.038 A 
HETATM   32  C   UNL     1     -13.224   5.941 -35.844  1.00  0.00     0.020 A 
BRANCH  30  33
HETATM   33  O   UNL     1     -11.565   9.144 -36.162  1.00  0.00    -0.351 OA
BRANCH  33  34
HETATM   34  C   UNL     1     -12.481   9.773 -37.062  1.00  0.00     0.179 C 
BRANCH  34  35
HETATM   35  C   UNL     1     -11.894   9.940 -38.473  1.00  0.00     0.002 C 
HETATM   36  C   UNL     1     -10.374   9.755 -38.474  1.00  0.00     0.011 C 
HETATM   37  C   UNL     1     -12.549   8.957 -39.441  1.00  0.00     0.011 C 
ENDBRANCH  34  35
ENDBRANCH  33  34
ENDBRANCH  30  33
ENDBRANCH  24  27
ENDBRANCH  21  23
ENDBRANCH   1  21
TORSDOF 9
ENDMDL
