MODEL 1
REMARK VINA RESULT:      -8.8      0.000      0.000
REMARK  6 active torsions:
REMARK  status: ('A' for Active; 'I' for Inactive)
REMARK    1  A    between atoms: N_6  and  C_7 
REMARK    2  A    between atoms: C_8  and  N_9 
REMARK    3  A    between atoms: N_9  and  C_10 
REMARK    4  A    between atoms: C_10  and  N_11 
REMARK       I    between atoms: N_11  and  C_12 
REMARK    5  A    between atoms: C_12  and  C_13 
REMARK    6  A    between atoms: C_14  and  O_15 
ROOT
HETATM    1  C   UNL     1      -8.202   3.499 -32.983  1.00  0.00     0.179 C 
HETATM    2  S   UNL     1      -8.714   4.839 -33.861  1.00  0.00    -0.040 SA
ENDROOT
BRANCH   1   3
HETATM    3  N   UNL     1      -7.468   3.566 -31.798  1.00  0.00    -0.331 N 
HETATM    4  H   UNL     1      -7.173   2.668 -31.423  1.00  0.00     0.168 HD
BRANCH   3   5
HETATM    5  C   UNL     1      -6.680   4.664 -31.372  1.00  0.00     0.061 A 
HETATM    6  C   UNL     1      -5.317   4.760 -31.760  1.00  0.00     0.057 A 
HETATM    7  C   UNL     1      -4.547   5.714 -31.063  1.00  0.00     0.031 A 
HETATM    8  C   UNL     1      -5.110   6.597 -30.131  1.00  0.00     0.002 A 
HETATM    9  C   UNL     1      -6.462   6.534 -29.838  1.00  0.00     0.002 A 
HETATM   10  C   UNL     1      -7.242   5.556 -30.440  1.00  0.00     0.032 A 
BRANCH   6  11
HETATM   11  N   UNL     1      -4.771   3.960 -32.798  1.00  0.00    -0.376 N 
HETATM   12  C   UNL     1      -3.455   3.306 -32.577  1.00  0.00     0.150 C 
HETATM   13  C   UNL     1      -2.265   4.266 -32.848  1.00  0.00     0.254 C 
HETATM   14  N   UNL     1      -2.376   4.922 -34.224  1.00  0.00    -0.072 N 
HETATM   15  C   UNL     1      -1.271   5.905 -34.471  1.00  0.00     0.269 C 
HETATM   16  H   UNL     1      -2.290   4.175 -34.925  1.00  0.00     0.279 HD
HETATM   17  C   UNL     1      -3.747   5.569 -34.423  1.00  0.00     0.254 C 
HETATM   18  C   UNL     1      -4.859   4.533 -34.173  1.00  0.00     0.150 C 
ENDBRANCH   6  11
ENDBRANCH   3   5
ENDBRANCH   1   3
BRANCH   1  19
HETATM   19  N   UNL     1      -8.384   2.169 -33.359  1.00  0.00    -0.299 N 
HETATM   20  C   UNL     1      -8.263   1.116 -32.472  1.00  0.00     0.260 C 
HETATM   21  O   UNL     1      -9.066   0.929 -31.563  1.00  0.00    -0.267 OA
HETATM   22  H   UNL     1      -7.979   1.985 -34.268  1.00  0.00     0.171 HD
BRANCH  20  23
HETATM   23  C   UNL     1      -7.137   0.155 -32.683  1.00  0.00     0.068 C 
HETATM   24  C   UNL     1      -5.902   0.197 -32.018  1.00  0.00     0.102 C 
HETATM   25  C   UNL     1      -4.893  -0.724 -32.385  1.00  0.00     0.056 C 
HETATM   26 BR   UNL     1      -3.103  -0.474 -31.737  1.00  0.00    -0.047 Br
HETATM   27  C   UNL     1      -5.159  -1.794 -33.293  1.00  0.00    -0.006 A 
HETATM   28  C   UNL     1      -6.440  -1.857 -33.888  1.00  0.00    -0.024 A 
HETATM   29  C   UNL     1      -4.237  -2.813 -33.649  1.00  0.00     0.014 A 
HETATM   30  C   UNL     1      -7.392  -0.873 -33.603  1.00  0.00     0.032 C 
HETATM   31  C   UNL     1      -6.767  -2.898 -34.774  1.00  0.00     0.012 A 
HETATM   32  C   UNL     1      -5.843  -3.891 -35.088  1.00  0.00     0.001 A 
HETATM   33  C   UNL     1      -4.575  -3.847 -34.527  1.00  0.00     0.001 A 
BRANCH  24  34
HETATM   34  O   UNL     1      -5.706   1.190 -31.084  1.00  0.00    -0.353 OA
HETATM   35  C   UNL     1      -5.942   0.755 -29.736  1.00  0.00     0.210 C 
ENDBRANCH  24  34
ENDBRANCH  20  23
ENDBRANCH   1  19
TORSDOF 6
ENDMDL
MODEL 2
REMARK VINA RESULT:      -8.5      3.720      6.428
REMARK  6 active torsions:
REMARK  status: ('A' for Active; 'I' for Inactive)
REMARK    1  A    between atoms: N_6  and  C_7 
REMARK    2  A    between atoms: C_8  and  N_9 
REMARK    3  A    between atoms: N_9  and  C_10 
REMARK    4  A    between atoms: C_10  and  N_11 
REMARK       I    between atoms: N_11  and  C_12 
REMARK    5  A    between atoms: C_12  and  C_13 
REMARK    6  A    between atoms: C_14  and  O_15 
ROOT
HETATM    1  C   UNL     1      -9.573   2.585 -34.384  1.00  0.00     0.179 C 
HETATM    2  S   UNL     1      -8.472   3.643 -33.677  1.00  0.00    -0.040 SA
ENDROOT
BRANCH   1   3
HETATM    3  N   UNL     1     -10.810   2.967 -34.906  1.00  0.00    -0.331 N 
HETATM    4  H   UNL     1     -10.798   3.239 -35.885  1.00  0.00     0.168 HD
BRANCH   3   5
HETATM    5  C   UNL     1     -12.076   2.542 -34.432  1.00  0.00     0.061 A 
HETATM    6  C   UNL     1     -12.615   3.093 -33.238  1.00  0.00     0.057 A 
HETATM    7  C   UNL     1     -13.725   2.413 -32.696  1.00  0.00     0.031 A 
HETATM    8  C   UNL     1     -14.337   1.335 -33.350  1.00  0.00     0.002 A 
HETATM    9  C   UNL     1     -13.839   0.877 -34.557  1.00  0.00     0.002 A 
HETATM   10  C   UNL     1     -12.697   1.464 -35.087  1.00  0.00     0.032 A 
BRANCH   6  11
HETATM   11  N   UNL     1     -12.081   4.266 -32.642  1.00  0.00    -0.376 N 
HETATM   12  C   UNL     1     -11.891   4.293 -31.168  1.00  0.00     0.150 C 
HETATM   13  C   UNL     1     -13.200   4.642 -30.409  1.00  0.00     0.254 C 
HETATM   14  N   UNL     1     -13.836   5.923 -30.947  1.00  0.00    -0.072 N 
HETATM   15  C   UNL     1     -15.138   6.234 -30.272  1.00  0.00     0.269 C 
HETATM   16  H   UNL     1     -13.187   6.694 -30.742  1.00  0.00     0.279 HD
HETATM   17  C   UNL     1     -14.000   5.868 -32.467  1.00  0.00     0.254 C 
HETATM   18  C   UNL     1     -12.646   5.557 -33.132  1.00  0.00     0.150 C 
ENDBRANCH   6  11
ENDBRANCH   3   5
ENDBRANCH   1   3
BRANCH   1  19
HETATM   19  N   UNL     1      -9.421   1.203 -34.474  1.00  0.00    -0.299 N 
HETATM   20  C   UNL     1      -9.079   0.414 -33.391  1.00  0.00     0.260 C 
HETATM   21  O   UNL     1      -9.843   0.231 -32.447  1.00  0.00    -0.267 OA
HETATM   22  H   UNL     1      -8.954   0.940 -35.333  1.00  0.00     0.171 HD
BRANCH  20  23
HETATM   23  C   UNL     1      -7.751  -0.270 -33.420  1.00  0.00     0.068 C 
HETATM   24  C   UNL     1      -6.577   0.214 -32.822  1.00  0.00     0.102 C 
HETATM   25  C   UNL     1      -5.368  -0.496 -33.008  1.00  0.00     0.056 C 
HETATM   26 BR   UNL     1      -3.706   0.315 -32.490  1.00  0.00    -0.047 Br
HETATM   27  C   UNL     1      -5.348  -1.772 -33.648  1.00  0.00    -0.006 A 
HETATM   28  C   UNL     1      -6.562  -2.272 -34.173  1.00  0.00    -0.024 A 
HETATM   29  C   UNL     1      -4.199  -2.593 -33.799  1.00  0.00     0.014 A 
HETATM   30  C   UNL     1      -7.729  -1.507 -34.081  1.00  0.00     0.032 C 
HETATM   31  C   UNL     1      -6.608  -3.531 -34.795  1.00  0.00     0.012 A 
HETATM   32  C   UNL     1      -5.465  -4.317 -34.911  1.00  0.00     0.001 A 
HETATM   33  C   UNL     1      -4.258  -3.847 -34.416  1.00  0.00     0.001 A 
BRANCH  24  34
HETATM   34  O   UNL     1      -6.647   1.408 -32.137  1.00  0.00    -0.353 OA
HETATM   35  C   UNL     1      -6.808   1.239 -30.720  1.00  0.00     0.210 C 
ENDBRANCH  24  34
ENDBRANCH  20  23
ENDBRANCH   1  19
TORSDOF 6
ENDMDL
MODEL 3
REMARK VINA RESULT:      -8.3      3.487      6.348
REMARK  6 active torsions:
REMARK  status: ('A' for Active; 'I' for Inactive)
REMARK    1  A    between atoms: N_6  and  C_7 
REMARK    2  A    between atoms: C_8  and  N_9 
REMARK    3  A    between atoms: N_9  and  C_10 
REMARK    4  A    between atoms: C_10  and  N_11 
REMARK       I    between atoms: N_11  and  C_12 
REMARK    5  A    between atoms: C_12  and  C_13 
REMARK    6  A    between atoms: C_14  and  O_15 
ROOT
HETATM    1  C   UNL     1      -8.325   3.235 -33.822  1.00  0.00     0.179 C 
HETATM    2  S   UNL     1      -6.971   4.233 -33.782  1.00  0.00    -0.040 SA
ENDROOT
BRANCH   1   3
HETATM    3  N   UNL     1      -9.557   3.555 -33.252  1.00  0.00    -0.331 N 
HETATM    4  H   UNL     1      -9.537   3.725 -32.250  1.00  0.00     0.168 HD
BRANCH   3   5
HETATM    5  C   UNL     1     -10.651   4.157 -33.924  1.00  0.00     0.061 A 
HETATM    6  C   UNL     1     -11.942   3.569 -33.857  1.00  0.00     0.057 A 
HETATM    7  C   UNL     1     -12.889   4.064 -34.778  1.00  0.00     0.031 A 
HETATM    8  C   UNL     1     -12.617   5.147 -35.625  1.00  0.00     0.002 A 
HETATM    9  C   UNL     1     -11.373   5.755 -35.604  1.00  0.00     0.002 A 
HETATM   10  C   UNL     1     -10.384   5.247 -34.771  1.00  0.00     0.032 A 
BRANCH   6  11
HETATM   11  N   UNL     1     -12.264   2.562 -32.910  1.00  0.00    -0.376 N 
HETATM   12  C   UNL     1     -12.979   1.345 -33.377  1.00  0.00     0.150 C 
HETATM   13  C   UNL     1     -14.511   1.566 -33.490  1.00  0.00     0.254 C 
HETATM   14  N   UNL     1     -15.093   2.134 -32.195  1.00  0.00    -0.072 N 
HETATM   15  C   UNL     1     -16.560   2.419 -32.313  1.00  0.00     0.269 C 
HETATM   16  H   UNL     1     -14.973   1.417 -31.468  1.00  0.00     0.279 HD
HETATM   17  C   UNL     1     -14.323   3.372 -31.735  1.00  0.00     0.254 C 
HETATM   18  C   UNL     1     -12.823   3.046 -31.614  1.00  0.00     0.150 C 
ENDBRANCH   6  11
ENDBRANCH   3   5
ENDBRANCH   1   3
BRANCH   1  19
HETATM   19  N   UNL     1      -8.365   1.952 -34.363  1.00  0.00    -0.299 N 
HETATM   20  C   UNL     1      -8.453   0.812 -33.584  1.00  0.00     0.260 C 
HETATM   21  O   UNL     1      -9.461   0.534 -32.942  1.00  0.00    -0.267 OA
HETATM   22  H   UNL     1      -7.730   1.862 -35.146  1.00  0.00     0.171 HD
BRANCH  20  23
HETATM   23  C   UNL     1      -7.285  -0.121 -33.584  1.00  0.00     0.068 C 
HETATM   24  C   UNL     1      -6.043   0.137 -32.985  1.00  0.00     0.102 C 
HETATM   25  C   UNL     1      -4.997  -0.803 -33.143  1.00  0.00     0.056 C 
HETATM   26 BR   UNL     1      -3.210  -0.323 -32.627  1.00  0.00    -0.047 Br
HETATM   27  C   UNL     1      -5.226  -2.074 -33.753  1.00  0.00    -0.006 A 
HETATM   28  C   UNL     1      -6.512  -2.337 -34.277  1.00  0.00    -0.024 A 
HETATM   29  C   UNL     1      -4.261  -3.109 -33.872  1.00  0.00     0.014 A 
HETATM   30  C   UNL     1      -7.505  -1.354 -34.215  1.00  0.00     0.032 C 
HETATM   31  C   UNL     1      -6.803  -3.577 -34.870  1.00  0.00     0.012 A 
HETATM   32  C   UNL     1      -5.837  -4.576 -34.956  1.00  0.00     0.001 A 
HETATM   33  C   UNL     1      -4.563  -4.341 -34.460  1.00  0.00     0.001 A 
BRANCH  24  34
HETATM   34  O   UNL     1      -5.879   1.337 -32.330  1.00  0.00    -0.353 OA
HETATM   35  C   UNL     1      -6.159   1.258 -30.924  1.00  0.00     0.210 C 
ENDBRANCH  24  34
ENDBRANCH  20  23
ENDBRANCH   1  19
TORSDOF 6
ENDMDL
MODEL 4
REMARK VINA RESULT:      -8.3      3.452      6.019
REMARK  6 active torsions:
REMARK  status: ('A' for Active; 'I' for Inactive)
REMARK    1  A    between atoms: N_6  and  C_7 
REMARK    2  A    between atoms: C_8  and  N_9 
REMARK    3  A    between atoms: N_9  and  C_10 
REMARK    4  A    between atoms: C_10  and  N_11 
REMARK       I    between atoms: N_11  and  C_12 
REMARK    5  A    between atoms: C_12  and  C_13 
REMARK    6  A    between atoms: C_14  and  O_15 
ROOT
HETATM    1  C   UNL     1      -8.631   1.970 -33.107  1.00  0.00     0.179 C 
HETATM    2  S   UNL     1      -9.020   1.958 -31.471  1.00  0.00    -0.040 SA
ENDROOT
BRANCH   1   3
HETATM    3  N   UNL     1      -9.565   2.079 -34.139  1.00  0.00    -0.331 N 
HETATM    4  H   UNL     1      -9.213   1.850 -35.064  1.00  0.00     0.168 HD
BRANCH   3   5
HETATM    5  C   UNL     1     -10.970   1.953 -34.002  1.00  0.00     0.061 A 
HETATM    6  C   UNL     1     -11.768   3.098 -33.735  1.00  0.00     0.057 A 
HETATM    7  C   UNL     1     -13.094   2.841 -33.332  1.00  0.00     0.031 A 
HETATM    8  C   UNL     1     -13.633   1.547 -33.308  1.00  0.00     0.002 A 
HETATM    9  C   UNL     1     -12.853   0.459 -33.658  1.00  0.00     0.002 A 
HETATM   10  C   UNL     1     -11.517   0.658 -33.983  1.00  0.00     0.032 A 
BRANCH   6  11
HETATM   11  N   UNL     1     -11.266   4.418 -33.886  1.00  0.00    -0.376 N 
HETATM   12  C   UNL     1     -11.631   5.440 -32.871  1.00  0.00     0.150 C 
HETATM   13  C   UNL     1     -13.028   6.064 -33.135  1.00  0.00     0.254 C 
HETATM   14  N   UNL     1     -13.147   6.585 -34.568  1.00  0.00    -0.072 N 
HETATM   15  C   UNL     1     -14.514   7.126 -34.860  1.00  0.00     0.269 C 
HETATM   16  H   UNL     1     -12.478   7.358 -34.667  1.00  0.00     0.279 HD
HETATM   17  C   UNL     1     -12.747   5.514 -35.584  1.00  0.00     0.254 C 
HETATM   18  C   UNL     1     -11.337   4.984 -35.264  1.00  0.00     0.150 C 
ENDBRANCH   6  11
ENDBRANCH   3   5
ENDBRANCH   1   3
BRANCH   1  19
HETATM   19  N   UNL     1      -7.352   1.807 -33.634  1.00  0.00    -0.299 N 
HETATM   20  C   UNL     1      -7.036   0.813 -34.542  1.00  0.00     0.260 C 
HETATM   21  O   UNL     1      -7.468   0.814 -35.691  1.00  0.00    -0.267 OA
HETATM   22  H   UNL     1      -6.641   1.955 -32.928  1.00  0.00     0.171 HD
BRANCH  20  23
HETATM   23  C   UNL     1      -6.091  -0.258 -34.100  1.00  0.00     0.068 C 
HETATM   24  C   UNL     1      -5.061  -0.092 -33.162  1.00  0.00     0.102 C 
HETATM   25  C   UNL     1      -4.184  -1.172 -32.907  1.00  0.00     0.056 C 
HETATM   26 BR   UNL     1      -2.582  -0.871 -31.893  1.00  0.00    -0.047 Br
HETATM   27  C   UNL     1      -4.425  -2.469 -33.455  1.00  0.00    -0.006 A 
HETATM   28  C   UNL     1      -5.519  -2.626 -34.336  1.00  0.00    -0.024 A 
HETATM   29  C   UNL     1      -3.651  -3.628 -33.182  1.00  0.00     0.014 A 
HETATM   30  C   UNL     1      -6.310  -1.521 -34.669  1.00  0.00     0.032 C 
HETATM   31  C   UNL     1      -5.818  -3.881 -34.891  1.00  0.00     0.012 A 
HETATM   32  C   UNL     1      -5.047  -5.001 -34.589  1.00  0.00     0.001 A 
HETATM   33  C   UNL     1      -3.961  -4.874 -33.737  1.00  0.00     0.001 A 
BRANCH  24  34
HETATM   34  O   UNL     1      -4.907   1.149 -32.585  1.00  0.00    -0.353 OA
HETATM   35  C   UNL     1      -5.253   1.173 -31.191  1.00  0.00     0.210 C 
ENDBRANCH  24  34
ENDBRANCH  20  23
ENDBRANCH   1  19
TORSDOF 6
ENDMDL
MODEL 5
REMARK VINA RESULT:      -8.3      3.669      5.297
REMARK  6 active torsions:
REMARK  status: ('A' for Active; 'I' for Inactive)
REMARK    1  A    between atoms: N_6  and  C_7 
REMARK    2  A    between atoms: C_8  and  N_9 
REMARK    3  A    between atoms: N_9  and  C_10 
REMARK    4  A    between atoms: C_10  and  N_11 
REMARK       I    between atoms: N_11  and  C_12 
REMARK    5  A    between atoms: C_12  and  C_13 
REMARK    6  A    between atoms: C_14  and  O_15 
ROOT
HETATM    1  C   UNL     1      -4.014   4.772 -31.435  1.00  0.00     0.179 C 
HETATM    2  S   UNL     1      -4.173   5.162 -33.063  1.00  0.00    -0.040 SA
ENDROOT
BRANCH   1   3
HETATM    3  N   UNL     1      -3.398   5.588 -30.485  1.00  0.00    -0.331 N 
HETATM    4  H   UNL     1      -3.881   5.649 -29.593  1.00  0.00     0.168 HD
BRANCH   3   5
HETATM    5  C   UNL     1      -2.015   5.890 -30.423  1.00  0.00     0.061 A 
HETATM    6  C   UNL     1      -1.568   7.060 -29.753  1.00  0.00     0.057 A 
HETATM    7  C   UNL     1      -0.227   7.426 -29.989  1.00  0.00     0.031 A 
HETATM    8  C   UNL     1       0.649   6.627 -30.737  1.00  0.00     0.002 A 
HETATM    9  C   UNL     1       0.203   5.446 -31.305  1.00  0.00     0.002 A 
HETATM   10  C   UNL     1      -1.131   5.088 -31.167  1.00  0.00     0.032 A 
BRANCH   6  11
HETATM   11  N   UNL     1      -2.413   7.802 -28.886  1.00  0.00    -0.376 N 
HETATM   12  C   UNL     1      -2.235   9.275 -28.806  1.00  0.00     0.150 C 
HETATM   13  C   UNL     1      -1.086   9.681 -27.844  1.00  0.00     0.254 C 
HETATM   14  N   UNL     1      -1.247   9.029 -26.471  1.00  0.00    -0.072 N 
HETATM   15  C   UNL     1      -0.107   9.354 -25.554  1.00  0.00     0.269 C 
HETATM   16  H   UNL     1      -2.103   9.412 -26.051  1.00  0.00     0.279 HD
HETATM   17  C   UNL     1      -1.446   7.517 -26.593  1.00  0.00     0.254 C 
HETATM   18  C   UNL     1      -2.628   7.214 -27.532  1.00  0.00     0.150 C 
ENDBRANCH   6  11
ENDBRANCH   3   5
ENDBRANCH   1   3
BRANCH   1  19
HETATM   19  N   UNL     1      -4.410   3.571 -30.850  1.00  0.00    -0.299 N 
HETATM   20  C   UNL     1      -3.936   2.341 -31.268  1.00  0.00     0.260 C 
HETATM   21  O   UNL     1      -2.770   1.996 -31.098  1.00  0.00    -0.267 OA
HETATM   22  H   UNL     1      -5.400   3.574 -30.637  1.00  0.00     0.171 HD
BRANCH  20  23
HETATM   23  C   UNL     1      -4.909   1.398 -31.898  1.00  0.00     0.068 C 
HETATM   24  C   UNL     1      -6.305   1.540 -31.877  1.00  0.00     0.102 C 
HETATM   25  C   UNL     1      -7.108   0.520 -32.438  1.00  0.00     0.056 C 
HETATM   26 BR   UNL     1      -9.003   0.528 -32.125  1.00  0.00    -0.047 Br
HETATM   27  C   UNL     1      -6.530  -0.564 -33.167  1.00  0.00    -0.006 A 
HETATM   28  C   UNL     1      -5.120  -0.638 -33.240  1.00  0.00    -0.024 A 
HETATM   29  C   UNL     1      -7.261  -1.580 -33.837  1.00  0.00     0.014 A 
HETATM   30  C   UNL     1      -4.336   0.316 -32.584  1.00  0.00     0.032 C 
HETATM   31  C   UNL     1      -4.495  -1.670 -33.960  1.00  0.00     0.012 A 
HETATM   32  C   UNL     1      -5.243  -2.642 -34.620  1.00  0.00     0.001 A 
HETATM   33  C   UNL     1      -6.627  -2.599 -34.555  1.00  0.00     0.001 A 
BRANCH  24  34
HETATM   34  O   UNL     1      -6.831   2.642 -31.239  1.00  0.00    -0.353 OA
HETATM   35  C   UNL     1      -7.483   3.557 -32.133  1.00  0.00     0.210 C 
ENDBRANCH  24  34
ENDBRANCH  20  23
ENDBRANCH   1  19
TORSDOF 6
ENDMDL
MODEL 6
REMARK VINA RESULT:      -8.2      2.858      5.382
REMARK  6 active torsions:
REMARK  status: ('A' for Active; 'I' for Inactive)
REMARK    1  A    between atoms: N_6  and  C_7 
REMARK    2  A    between atoms: C_8  and  N_9 
REMARK    3  A    between atoms: N_9  and  C_10 
REMARK    4  A    between atoms: C_10  and  N_11 
REMARK       I    between atoms: N_11  and  C_12 
REMARK    5  A    between atoms: C_12  and  C_13 
REMARK    6  A    between atoms: C_14  and  O_15 
ROOT
HETATM    1  C   UNL     1      -7.186   3.248 -33.791  1.00  0.00     0.179 C 
HETATM    2  S   UNL     1      -5.624   3.819 -33.538  1.00  0.00    -0.040 SA
ENDROOT
BRANCH   1   3
HETATM    3  N   UNL     1      -8.335   4.038 -33.721  1.00  0.00    -0.331 N 
HETATM    4  H   UNL     1      -8.661   4.404 -34.611  1.00  0.00     0.168 HD
BRANCH   3   5
HETATM    5  C   UNL     1      -9.336   3.957 -32.720  1.00  0.00     0.061 A 
HETATM    6  C   UNL     1     -10.658   3.563 -33.061  1.00  0.00     0.057 A 
HETATM    7  C   UNL     1     -11.638   3.789 -32.074  1.00  0.00     0.031 A 
HETATM    8  C   UNL     1     -11.319   4.260 -30.793  1.00  0.00     0.002 A 
HETATM    9  C   UNL     1     -10.006   4.552 -30.464  1.00  0.00     0.002 A 
HETATM   10  C   UNL     1      -9.019   4.423 -31.432  1.00  0.00     0.032 A 
BRANCH   6  11
HETATM   11  N   UNL     1     -10.966   2.961 -34.310  1.00  0.00    -0.376 N 
HETATM   12  C   UNL     1     -12.115   3.488 -35.091  1.00  0.00     0.150 C 
HETATM   13  C   UNL     1     -13.473   2.912 -34.608  1.00  0.00     0.254 C 
HETATM   14  N   UNL     1     -13.446   1.384 -34.553  1.00  0.00    -0.072 N 
HETATM   15  C   UNL     1     -14.727   0.815 -34.021  1.00  0.00     0.269 C 
HETATM   16  H   UNL     1     -13.334   1.048 -35.518  1.00  0.00     0.279 HD
HETATM   17  C   UNL     1     -12.242   0.877 -33.758  1.00  0.00     0.254 C 
HETATM   18  C   UNL     1     -10.943   1.470 -34.334  1.00  0.00     0.150 C 
ENDBRANCH   6  11
ENDBRANCH   3   5
ENDBRANCH   1   3
BRANCH   1  19
HETATM   19  N   UNL     1      -7.531   1.920 -34.033  1.00  0.00    -0.299 N 
HETATM   20  C   UNL     1      -7.559   0.960 -33.038  1.00  0.00     0.260 C 
HETATM   21  O   UNL     1      -8.394   0.974 -32.138  1.00  0.00    -0.267 OA
HETATM   22  H   UNL     1      -7.137   1.591 -34.906  1.00  0.00     0.171 HD
BRANCH  20  23
HETATM   23  C   UNL     1      -6.562  -0.151 -33.115  1.00  0.00     0.068 C 
HETATM   24  C   UNL     1      -5.342  -0.193 -32.423  1.00  0.00     0.102 C 
HETATM   25  C   UNL     1      -4.454  -1.268 -32.662  1.00  0.00     0.056 C 
HETATM   26 BR   UNL     1      -2.657  -1.176 -31.992  1.00  0.00    -0.047 Br
HETATM   27  C   UNL     1      -4.840  -2.386 -33.461  1.00  0.00    -0.006 A 
HETATM   28  C   UNL     1      -6.110  -2.352 -34.083  1.00  0.00    -0.024 A 
HETATM   29  C   UNL     1      -4.050  -3.546 -33.681  1.00  0.00     0.014 A 
HETATM   30  C   UNL     1      -6.931  -1.231 -33.929  1.00  0.00     0.032 C 
HETATM   31  C   UNL     1      -6.553  -3.432 -34.865  1.00  0.00     0.012 A 
HETATM   32  C   UNL     1      -5.758  -4.561 -35.046  1.00  0.00     0.001 A 
HETATM   33  C   UNL     1      -4.504  -4.617 -34.457  1.00  0.00     0.001 A 
BRANCH  24  34
HETATM   34  O   UNL     1      -5.035   0.862 -31.591  1.00  0.00    -0.353 OA
HETATM   35  C   UNL     1      -5.394   0.626 -30.221  1.00  0.00     0.210 C 
ENDBRANCH  24  34
ENDBRANCH  20  23
ENDBRANCH   1  19
TORSDOF 6
ENDMDL
MODEL 7
REMARK VINA RESULT:      -8.1      2.212      3.503
REMARK  6 active torsions:
REMARK  status: ('A' for Active; 'I' for Inactive)
REMARK    1  A    between atoms: N_6  and  C_7 
REMARK    2  A    between atoms: C_8  and  N_9 
REMARK    3  A    between atoms: N_9  and  C_10 
REMARK    4  A    between atoms: C_10  and  N_11 
REMARK       I    between atoms: N_11  and  C_12 
REMARK    5  A    between atoms: C_12  and  C_13 
REMARK    6  A    between atoms: C_14  and  O_15 
ROOT
HETATM    1  C   UNL     1      -6.295   4.931 -32.922  1.00  0.00     0.179 C 
HETATM    2  S   UNL     1      -7.029   5.152 -31.425  1.00  0.00    -0.040 SA
ENDROOT
BRANCH   1   3
HETATM    3  N   UNL     1      -5.469   5.870 -33.541  1.00  0.00    -0.331 N 
HETATM    4  H   UNL     1      -5.868   6.799 -33.635  1.00  0.00     0.168 HD
BRANCH   3   5
HETATM    5  C   UNL     1      -4.052   5.837 -33.566  1.00  0.00     0.061 A 
HETATM    6  C   UNL     1      -3.302   6.597 -32.629  1.00  0.00     0.057 A 
HETATM    7  C   UNL     1      -1.927   6.732 -32.909  1.00  0.00     0.031 A 
HETATM    8  C   UNL     1      -1.309   6.063 -33.976  1.00  0.00     0.002 A 
HETATM    9  C   UNL     1      -2.055   5.259 -34.821  1.00  0.00     0.002 A 
HETATM   10  C   UNL     1      -3.427   5.163 -34.631  1.00  0.00     0.032 A 
BRANCH   6  11
HETATM   11  N   UNL     1      -3.898   7.168 -31.473  1.00  0.00    -0.376 N 
HETATM   12  C   UNL     1      -3.785   8.635 -31.263  1.00  0.00     0.150 C 
HETATM   13  C   UNL     1      -2.430   9.039 -30.623  1.00  0.00     0.254 C 
HETATM   14  N   UNL     1      -2.148   8.236 -29.353  1.00  0.00    -0.072 N 
HETATM   15  C   UNL     1      -0.809   8.564 -28.763  1.00  0.00     0.269 C 
HETATM   16  H   UNL     1      -2.864   8.496 -28.663  1.00  0.00     0.279 HD
HETATM   17  C   UNL     1      -2.290   6.733 -29.601  1.00  0.00     0.254 C 
HETATM   18  C   UNL     1      -3.676   6.426 -30.197  1.00  0.00     0.150 C 
ENDBRANCH   6  11
ENDBRANCH   3   5
ENDBRANCH   1   3
BRANCH   1  19
HETATM   19  N   UNL     1      -6.473   3.827 -33.753  1.00  0.00    -0.299 N 
HETATM   20  C   UNL     1      -7.112   2.673 -33.340  1.00  0.00     0.260 C 
HETATM   21  O   UNL     1      -8.316   2.640 -33.102  1.00  0.00    -0.267 OA
HETATM   22  H   UNL     1      -5.651   3.657 -34.320  1.00  0.00     0.171 HD
BRANCH  20  23
HETATM   23  C   UNL     1      -6.297   1.424 -33.239  1.00  0.00     0.068 C 
HETATM   24  C   UNL     1      -5.269   1.201 -32.310  1.00  0.00     0.102 C 
HETATM   25  C   UNL     1      -4.519   0.004 -32.390  1.00  0.00     0.056 C 
HETATM   26 BR   UNL     1      -2.908  -0.173 -31.360  1.00  0.00    -0.047 Br
HETATM   27  C   UNL     1      -4.891  -1.047 -33.283  1.00  0.00    -0.006 A 
HETATM   28  C   UNL     1      -5.983  -0.824 -34.153  1.00  0.00    -0.024 A 
HETATM   29  C   UNL     1      -4.253  -2.313 -33.367  1.00  0.00     0.014 A 
HETATM   30  C   UNL     1      -6.643   0.408 -34.142  1.00  0.00     0.032 C 
HETATM   31  C   UNL     1      -6.408  -1.828 -35.039  1.00  0.00     0.012 A 
HETATM   32  C   UNL     1      -5.768  -3.065 -35.084  1.00  0.00     0.001 A 
HETATM   33  C   UNL     1      -4.688  -3.306 -34.249  1.00  0.00     0.001 A 
BRANCH  24  34
HETATM   34  O   UNL     1      -4.989   2.201 -31.405  1.00  0.00    -0.353 OA
HETATM   35  C   UNL     1      -5.582   1.979 -30.116  1.00  0.00     0.210 C 
ENDBRANCH  24  34
ENDBRANCH  20  23
ENDBRANCH   1  19
TORSDOF 6
ENDMDL
MODEL 8
REMARK VINA RESULT:      -8.0      1.756      2.013
REMARK  6 active torsions:
REMARK  status: ('A' for Active; 'I' for Inactive)
REMARK    1  A    between atoms: N_6  and  C_7 
REMARK    2  A    between atoms: C_8  and  N_9 
REMARK    3  A    between atoms: N_9  and  C_10 
REMARK    4  A    between atoms: C_10  and  N_11 
REMARK       I    between atoms: N_11  and  C_12 
REMARK    5  A    between atoms: C_12  and  C_13 
REMARK    6  A    between atoms: C_14  and  O_15 
ROOT
HETATM    1  C   UNL     1      -6.532   3.631 -33.211  1.00  0.00     0.179 C 
HETATM    2  S   UNL     1      -7.289   3.527 -31.712  1.00  0.00    -0.040 SA
ENDROOT
BRANCH   1   3
HETATM    3  N   UNL     1      -5.969   4.798 -33.731  1.00  0.00    -0.331 N 
HETATM    4  H   UNL     1      -6.148   4.959 -34.718  1.00  0.00     0.168 HD
BRANCH   3   5
HETATM    5  C   UNL     1      -5.660   5.969 -32.994  1.00  0.00     0.061 A 
HETATM    6  C   UNL     1      -4.314   6.259 -32.644  1.00  0.00     0.057 A 
HETATM    7  C   UNL     1      -4.137   7.271 -31.679  1.00  0.00     0.031 A 
HETATM    8  C   UNL     1      -5.206   8.030 -31.182  1.00  0.00     0.002 A 
HETATM    9  C   UNL     1      -6.498   7.779 -31.610  1.00  0.00     0.002 A 
HETATM   10  C   UNL     1      -6.729   6.736 -32.497  1.00  0.00     0.032 A 
BRANCH   6  11
HETATM   11  N   UNL     1      -3.217   5.585 -33.243  1.00  0.00    -0.376 N 
HETATM   12  C   UNL     1      -2.540   4.505 -32.479  1.00  0.00     0.150 C 
HETATM   13  C   UNL     1      -1.499   5.060 -31.469  1.00  0.00     0.254 C 
HETATM   14  N   UNL     1      -0.514   6.013 -32.145  1.00  0.00    -0.072 N 
HETATM   15  C   UNL     1       0.454   6.612 -31.169  1.00  0.00     0.269 C 
HETATM   16  H   UNL     1       0.028   5.461 -32.822  1.00  0.00     0.279 HD
HETATM   17  C   UNL     1      -1.245   7.099 -32.937  1.00  0.00     0.254 C 
HETATM   18  C   UNL     1      -2.223   6.455 -33.936  1.00  0.00     0.150 C 
ENDBRANCH   6  11
ENDBRANCH   3   5
ENDBRANCH   1   3
BRANCH   1  19
HETATM   19  N   UNL     1      -6.434   2.597 -34.139  1.00  0.00    -0.299 N 
HETATM   20  C   UNL     1      -7.063   1.377 -33.972  1.00  0.00     0.260 C 
HETATM   21  O   UNL     1      -8.284   1.257 -34.024  1.00  0.00    -0.267 OA
HETATM   22  H   UNL     1      -5.494   2.523 -34.510  1.00  0.00     0.171 HD
BRANCH  20  23
HETATM   23  C   UNL     1      -6.202   0.171 -33.776  1.00  0.00     0.068 C 
HETATM   24  C   UNL     1      -5.075   0.108 -32.943  1.00  0.00     0.102 C 
HETATM   25  C   UNL     1      -4.300  -1.075 -32.925  1.00  0.00     0.056 C 
HETATM   26 BR   UNL     1      -2.584  -1.069 -32.062  1.00  0.00    -0.047 Br
HETATM   27  C   UNL     1      -4.731  -2.256 -33.604  1.00  0.00    -0.006 A 
HETATM   28  C   UNL     1      -5.915  -2.185 -34.373  1.00  0.00    -0.024 A 
HETATM   29  C   UNL     1      -4.065  -3.509 -33.567  1.00  0.00     0.014 A 
HETATM   30  C   UNL     1      -6.610  -0.975 -34.473  1.00  0.00     0.032 C 
HETATM   31  C   UNL     1      -6.400  -3.318 -35.047  1.00  0.00     0.012 A 
HETATM   32  C   UNL     1      -5.730  -4.537 -34.976  1.00  0.00     0.001 A 
HETATM   33  C   UNL     1      -4.559  -4.632 -34.239  1.00  0.00     0.001 A 
BRANCH  24  34
HETATM   34  O   UNL     1      -4.733   1.238 -32.233  1.00  0.00    -0.353 OA
HETATM   35  C   UNL     1      -4.988   1.121 -30.824  1.00  0.00     0.210 C 
ENDBRANCH  24  34
ENDBRANCH  20  23
ENDBRANCH   1  19
TORSDOF 6
ENDMDL
MODEL 9
REMARK VINA RESULT:      -7.8      3.083      4.395
REMARK  6 active torsions:
REMARK  status: ('A' for Active; 'I' for Inactive)
REMARK    1  A    between atoms: N_6  and  C_7 
REMARK    2  A    between atoms: C_8  and  N_9 
REMARK    3  A    between atoms: N_9  and  C_10 
REMARK    4  A    between atoms: C_10  and  N_11 
REMARK       I    between atoms: N_11  and  C_12 
REMARK    5  A    between atoms: C_12  and  C_13 
REMARK    6  A    between atoms: C_14  and  O_15 
ROOT
HETATM    1  C   UNL     1      -9.164   1.319 -33.327  1.00  0.00     0.179 C 
HETATM    2  S   UNL     1      -9.990  -0.067 -32.854  1.00  0.00    -0.040 SA
ENDROOT
BRANCH   1   3
HETATM    3  N   UNL     1      -9.777   2.527 -33.661  1.00  0.00    -0.331 N 
HETATM    4  H   UNL     1      -9.883   2.695 -34.658  1.00  0.00     0.168 HD
BRANCH   3   5
HETATM    5  C   UNL     1     -10.687   3.248 -32.848  1.00  0.00     0.061 A 
HETATM    6  C   UNL     1     -10.224   3.935 -31.693  1.00  0.00     0.057 A 
HETATM    7  C   UNL     1     -11.223   4.373 -30.799  1.00  0.00     0.031 A 
HETATM    8  C   UNL     1     -12.591   4.249 -31.083  1.00  0.00     0.002 A 
HETATM    9  C   UNL     1     -13.008   3.652 -32.260  1.00  0.00     0.002 A 
HETATM   10  C   UNL     1     -12.059   3.132 -33.131  1.00  0.00     0.032 A 
BRANCH   6  11
HETATM   11  N   UNL     1      -8.845   4.181 -31.464  1.00  0.00    -0.376 N 
HETATM   12  C   UNL     1      -8.359   4.272 -30.063  1.00  0.00     0.150 C 
HETATM   13  C   UNL     1      -8.594   5.677 -29.446  1.00  0.00     0.254 C 
HETATM   14  N   UNL     1      -8.032   6.783 -30.339  1.00  0.00    -0.072 N 
HETATM   15  C   UNL     1      -8.314   8.150 -29.791  1.00  0.00     0.269 C 
HETATM   16  H   UNL     1      -7.012   6.663 -30.367  1.00  0.00     0.279 HD
HETATM   17  C   UNL     1      -8.538   6.648 -31.776  1.00  0.00     0.254 C 
HETATM   18  C   UNL     1      -8.226   5.239 -32.315  1.00  0.00     0.150 C 
ENDBRANCH   6  11
ENDBRANCH   3   5
ENDBRANCH   1   3
BRANCH   1  19
HETATM   19  N   UNL     1      -7.786   1.415 -33.507  1.00  0.00    -0.299 N 
HETATM   20  C   UNL     1      -7.111   0.734 -34.504  1.00  0.00     0.260 C 
HETATM   21  O   UNL     1      -7.248   1.007 -35.692  1.00  0.00    -0.267 OA
HETATM   22  H   UNL     1      -7.298   1.427 -32.620  1.00  0.00     0.171 HD
BRANCH  20  23
HETATM   23  C   UNL     1      -6.148  -0.331 -34.088  1.00  0.00     0.068 C 
HETATM   24  C   UNL     1      -5.121  -0.172 -33.146  1.00  0.00     0.102 C 
HETATM   25  C   UNL     1      -4.226  -1.243 -32.917  1.00  0.00     0.056 C 
HETATM   26 BR   UNL     1      -2.629  -0.939 -31.895  1.00  0.00    -0.047 Br
HETATM   27  C   UNL     1      -4.443  -2.529 -33.499  1.00  0.00    -0.006 A 
HETATM   28  C   UNL     1      -5.534  -2.682 -34.385  1.00  0.00    -0.024 A 
HETATM   29  C   UNL     1      -3.649  -3.681 -33.256  1.00  0.00     0.014 A 
HETATM   30  C   UNL     1      -6.344  -1.584 -34.690  1.00  0.00     0.032 C 
HETATM   31  C   UNL     1      -5.810  -3.928 -34.972  1.00  0.00     0.012 A 
HETATM   32  C   UNL     1      -5.020  -5.042 -34.698  1.00  0.00     0.001 A 
HETATM   33  C   UNL     1      -3.937  -4.918 -33.842  1.00  0.00     0.001 A 
BRANCH  24  34
HETATM   34  O   UNL     1      -4.990   1.057 -32.537  1.00  0.00    -0.353 OA
HETATM   35  C   UNL     1      -5.425   1.061 -31.169  1.00  0.00     0.210 C 
ENDBRANCH  24  34
ENDBRANCH  20  23
ENDBRANCH   1  19
TORSDOF 6
ENDMDL
MODEL 10
REMARK VINA RESULT:      -7.5      3.345      6.100
REMARK  6 active torsions:
REMARK  status: ('A' for Active; 'I' for Inactive)
REMARK    1  A    between atoms: N_6  and  C_7 
REMARK    2  A    between atoms: C_8  and  N_9 
REMARK    3  A    between atoms: N_9  and  C_10 
REMARK    4  A    between atoms: C_10  and  N_11 
REMARK       I    between atoms: N_11  and  C_12 
REMARK    5  A    between atoms: C_12  and  C_13 
REMARK    6  A    between atoms: C_14  and  O_15 
ROOT
HETATM    1  C   UNL     1      -8.136   5.335 -32.124  1.00  0.00     0.179 C 
HETATM    2  S   UNL     1      -8.625   6.628 -31.165  1.00  0.00    -0.040 SA
ENDROOT
BRANCH   1   3
HETATM    3  N   UNL     1      -9.003   4.529 -32.862  1.00  0.00    -0.331 N 
HETATM    4  H   UNL     1      -9.111   3.581 -32.513  1.00  0.00     0.168 HD
BRANCH   3   5
HETATM    5  C   UNL     1     -10.083   4.984 -33.659  1.00  0.00     0.061 A 
HETATM    6  C   UNL     1     -11.291   4.239 -33.720  1.00  0.00     0.057 A 
HETATM    7  C   UNL     1     -12.186   4.605 -34.745  1.00  0.00     0.031 A 
HETATM    8  C   UNL     1     -11.961   5.710 -35.579  1.00  0.00     0.002 A 
HETATM    9  C   UNL     1     -10.812   6.469 -35.436  1.00  0.00     0.002 A 
HETATM   10  C   UNL     1      -9.864   6.095 -34.493  1.00  0.00     0.032 A 
BRANCH   6  11
HETATM   11  N   UNL     1     -11.585   3.204 -32.793  1.00  0.00    -0.376 N 
HETATM   12  C   UNL     1     -11.291   1.798 -33.177  1.00  0.00     0.150 C 
HETATM   13  C   UNL     1     -12.412   1.176 -34.052  1.00  0.00     0.254 C 
HETATM   14  N   UNL     1     -13.786   1.336 -33.401  1.00  0.00    -0.072 N 
HETATM   15  C   UNL     1     -14.887   0.804 -34.267  1.00  0.00     0.269 C 
HETATM   16  H   UNL     1     -13.777   0.784 -32.534  1.00  0.00     0.279 HD
HETATM   17  C   UNL     1     -14.048   2.790 -33.003  1.00  0.00     0.254 C 
HETATM   18  C   UNL     1     -12.906   3.305 -32.107  1.00  0.00     0.150 C 
ENDBRANCH   6  11
ENDBRANCH   3   5
ENDBRANCH   1   3
BRANCH   1  19
HETATM   19  N   UNL     1      -6.828   4.871 -32.246  1.00  0.00    -0.299 N 
HETATM   20  C   UNL     1      -6.361   4.235 -33.382  1.00  0.00     0.260 C 
HETATM   21  O   UNL     1      -6.213   4.823 -34.448  1.00  0.00    -0.267 OA
HETATM   22  H   UNL     1      -6.503   4.454 -31.383  1.00  0.00     0.171 HD
BRANCH  20  23
HETATM   23  C   UNL     1      -5.983   2.793 -33.265  1.00  0.00     0.068 C 
HETATM   24  C   UNL     1      -5.092   2.264 -32.319  1.00  0.00     0.102 C 
HETATM   25  C   UNL     1      -4.756   0.892 -32.384  1.00  0.00     0.056 C 
HETATM   26 BR   UNL     1      -3.300   0.223 -31.326  1.00  0.00    -0.047 Br
HETATM   27  C   UNL     1      -5.427   0.005 -33.281  1.00  0.00    -0.006 A 
HETATM   28  C   UNL     1      -6.379   0.554 -34.170  1.00  0.00    -0.024 A 
HETATM   29  C   UNL     1      -5.219  -1.398 -33.352  1.00  0.00     0.014 A 
HETATM   30  C   UNL     1      -6.618   1.932 -34.172  1.00  0.00     0.032 C 
HETATM   31  C   UNL     1      -7.085  -0.271 -35.061  1.00  0.00     0.012 A 
HETATM   32  C   UNL     1      -6.867  -1.646 -35.093  1.00  0.00     0.001 A 
HETATM   33  C   UNL     1      -5.931  -2.210 -34.240  1.00  0.00     0.001 A 
BRANCH  24  34
HETATM   34  O   UNL     1      -4.526   3.131 -31.410  1.00  0.00    -0.353 OA
HETATM   35  C   UNL     1      -5.149   3.083 -30.117  1.00  0.00     0.210 C 
ENDBRANCH  24  34
ENDBRANCH  20  23
ENDBRANCH   1  19
TORSDOF 6
ENDMDL
