MODEL 1
REMARK VINA RESULT:      -9.1      0.000      0.000
REMARK  6 active torsions:
REMARK  status: ('A' for Active; 'I' for Inactive)
REMARK    1  A    between atoms: C_2  and  C_3 
REMARK    2  A    between atoms: C_2  and  C_9 
REMARK    3  A    between atoms: C_9  and  C_10 
REMARK    4  A    between atoms: C_10  and  C_11 
REMARK       I    between atoms: C_11  and  N_12 
REMARK    5  A    between atoms: N_12  and  C_13 
REMARK    6  A    between atoms: C_20  and  C_21 
REMARK       I    between atoms: C_21  and  N_22 
ROOT
HETATM    1  C   UNL     1      -9.357   2.779 -32.884  1.00  0.00     0.035 A 
HETATM    2  C   UNL     1     -10.415   1.862 -32.952  1.00  0.00     0.046 A 
HETATM    3  C   UNL     1     -11.351   1.961 -33.999  1.00  0.00     0.030 A 
HETATM    4  C   UNL     1     -11.155   2.920 -34.984  1.00  0.00     0.063 A 
HETATM    5  N   UNL     1     -12.204   2.769 -35.847  1.00  0.00    -0.277 N 
HETATM    6  H   UNL     1     -12.384   3.298 -36.693  1.00  0.00     0.189 HD
HETATM    7  N   UNL     1     -13.086   1.820 -35.490  1.00  0.00    -0.168 NA
HETATM    8  C   UNL     1     -12.569   1.310 -34.350  1.00  0.00     0.156 A 
HETATM    9  C   UNL     1     -10.068   3.798 -34.985  1.00  0.00     0.034 A 
HETATM   10  C   UNL     1      -9.174   3.711 -33.908  1.00  0.00     0.032 A 
ENDROOT
BRANCH   1  11
HETATM   11  N   UNL     1      -8.511   2.681 -31.771  1.00  0.00    -0.327 N 
HETATM   12  C   UNL     1      -7.264   2.153 -31.617  1.00  0.00     0.222 C 
HETATM   13  O   UNL     1      -6.814   2.065 -30.469  1.00  0.00    -0.273 OA
HETATM   14  H   UNL     1      -8.812   3.160 -30.928  1.00  0.00     0.169 HD
BRANCH  12  15
HETATM   15  C   UNL     1      -6.401   1.756 -32.800  1.00  0.00     0.104 C 
BRANCH  15  16
HETATM   16  C   UNL     1      -6.077   0.261 -32.955  1.00  0.00     0.023 C 
BRANCH  16  17
HETATM   17  C   UNL     1      -6.876  -0.558 -34.019  1.00  0.00    -0.020 C 
HETATM   18  C   UNL     1      -7.059   0.268 -35.313  1.00  0.00     0.020 C 
HETATM   19  C   UNL     1      -8.314  -0.761 -33.462  1.00  0.00     0.020 C 
BRANCH  17  20
HETATM   20  C   UNL     1      -6.244  -1.943 -34.247  1.00  0.00    -0.050 A 
HETATM   21  C   UNL     1      -6.989  -3.052 -34.677  1.00  0.00     0.008 A 
HETATM   22  C   UNL     1      -6.392  -4.304 -34.860  1.00  0.00     0.001 A 
HETATM   23  C   UNL     1      -5.033  -4.474 -34.619  1.00  0.00     0.000 A 
HETATM   24  C   UNL     1      -4.268  -3.391 -34.202  1.00  0.00     0.001 A 
HETATM   25  C   UNL     1      -4.867  -2.141 -34.020  1.00  0.00     0.008 A 
ENDBRANCH  17  20
ENDBRANCH  16  17
ENDBRANCH  15  16
ENDBRANCH  12  15
ENDBRANCH   1  11
BRANCH   8  26
HETATM   26  C   UNL     1     -13.250   0.244 -33.603  1.00  0.00     0.270 C 
HETATM   27  N   UNL     1     -14.477   0.598 -33.113  1.00  0.00    -0.365 N 
HETATM   28  H   UNL     1     -14.811   1.541 -33.274  1.00  0.00     0.159 HD
HETATM   29  H   UNL     1     -15.001  -0.057 -32.555  1.00  0.00     0.159 HD
HETATM   30  O   UNL     1     -12.780  -0.872 -33.405  1.00  0.00    -0.266 OA
ENDBRANCH   8  26
TORSDOF 6
ENDMDL
MODEL 2
REMARK VINA RESULT:      -8.9      3.537      6.574
REMARK  6 active torsions:
REMARK  status: ('A' for Active; 'I' for Inactive)
REMARK    1  A    between atoms: C_2  and  C_3 
REMARK    2  A    between atoms: C_2  and  C_9 
REMARK    3  A    between atoms: C_9  and  C_10 
REMARK    4  A    between atoms: C_10  and  C_11 
REMARK       I    between atoms: C_11  and  N_12 
REMARK    5  A    between atoms: N_12  and  C_13 
REMARK    6  A    between atoms: C_20  and  C_21 
REMARK       I    between atoms: C_21  and  N_22 
ROOT
HETATM    1  C   UNL     1      -6.466   3.450 -32.479  1.00  0.00     0.035 A 
HETATM    2  C   UNL     1      -5.435   3.914 -33.308  1.00  0.00     0.046 A 
HETATM    3  C   UNL     1      -4.129   4.025 -32.792  1.00  0.00     0.030 A 
HETATM    4  C   UNL     1      -3.883   3.597 -31.494  1.00  0.00     0.063 A 
HETATM    5  N   UNL     1      -2.551   3.823 -31.287  1.00  0.00    -0.277 N 
HETATM    6  H   UNL     1      -2.017   3.623 -30.449  1.00  0.00     0.189 HD
HETATM    7  N   UNL     1      -1.916   4.395 -32.325  1.00  0.00    -0.168 NA
HETATM    8  C   UNL     1      -2.880   4.523 -33.263  1.00  0.00     0.156 A 
HETATM    9  C   UNL     1      -4.874   3.059 -30.670  1.00  0.00     0.034 A 
HETATM   10  C   UNL     1      -6.176   3.001 -31.189  1.00  0.00     0.032 A 
ENDROOT
BRANCH   1  11
HETATM   11  N   UNL     1      -7.756   3.446 -33.025  1.00  0.00    -0.327 N 
HETATM   12  C   UNL     1      -8.529   2.443 -33.531  1.00  0.00     0.222 C 
HETATM   13  O   UNL     1      -9.582   2.757 -34.094  1.00  0.00    -0.273 OA
HETATM   14  H   UNL     1      -8.277   4.316 -32.969  1.00  0.00     0.169 HD
BRANCH  12  15
HETATM   15  C   UNL     1      -8.176   0.978 -33.349  1.00  0.00     0.104 C 
BRANCH  15  16
HETATM   16  C   UNL     1      -6.876   0.489 -34.008  1.00  0.00     0.023 C 
BRANCH  16  17
HETATM   17  C   UNL     1      -5.928  -0.430 -33.172  1.00  0.00    -0.020 C 
HETATM   18  C   UNL     1      -6.359  -0.444 -31.687  1.00  0.00     0.020 C 
HETATM   19  C   UNL     1      -4.520   0.229 -33.178  1.00  0.00     0.020 C 
BRANCH  17  20
HETATM   20  C   UNL     1      -5.812  -1.830 -33.801  1.00  0.00    -0.050 A 
HETATM   21  C   UNL     1      -6.918  -2.512 -34.335  1.00  0.00     0.008 A 
HETATM   22  C   UNL     1      -6.787  -3.791 -34.886  1.00  0.00     0.001 A 
HETATM   23  C   UNL     1      -5.546  -4.417 -34.919  1.00  0.00     0.000 A 
HETATM   24  C   UNL     1      -4.432  -3.762 -34.406  1.00  0.00     0.001 A 
HETATM   25  C   UNL     1      -4.565  -2.484 -33.856  1.00  0.00     0.008 A 
ENDBRANCH  17  20
ENDBRANCH  16  17
ENDBRANCH  15  16
ENDBRANCH  12  15
ENDBRANCH   1  11
BRANCH   8  26
HETATM   26  C   UNL     1      -2.608   5.140 -34.569  1.00  0.00     0.270 C 
HETATM   27  N   UNL     1      -1.280   5.221 -34.886  1.00  0.00    -0.365 N 
HETATM   28  H   UNL     1      -0.599   4.882 -34.216  1.00  0.00     0.159 HD
HETATM   29  H   UNL     1      -0.996   5.664 -35.745  1.00  0.00     0.159 HD
HETATM   30  O   UNL     1      -3.473   5.569 -35.326  1.00  0.00    -0.266 OA
ENDBRANCH   8  26
TORSDOF 6
ENDMDL
MODEL 3
REMARK VINA RESULT:      -8.5      5.006      6.882
REMARK  6 active torsions:
REMARK  status: ('A' for Active; 'I' for Inactive)
REMARK    1  A    between atoms: C_2  and  C_3 
REMARK    2  A    between atoms: C_2  and  C_9 
REMARK    3  A    between atoms: C_9  and  C_10 
REMARK    4  A    between atoms: C_10  and  C_11 
REMARK       I    between atoms: C_11  and  N_12 
REMARK    5  A    between atoms: N_12  and  C_13 
REMARK    6  A    between atoms: C_20  and  C_21 
REMARK       I    between atoms: C_21  and  N_22 
ROOT
HETATM    1  C   UNL     1      -3.740   2.687 -31.345  1.00  0.00     0.035 A 
HETATM    2  C   UNL     1      -3.074   3.591 -32.184  1.00  0.00     0.046 A 
HETATM    3  C   UNL     1      -3.560   4.907 -32.308  1.00  0.00     0.030 A 
HETATM    4  C   UNL     1      -4.645   5.296 -31.533  1.00  0.00     0.063 A 
HETATM    5  N   UNL     1      -4.875   6.602 -31.866  1.00  0.00    -0.277 N 
HETATM    6  H   UNL     1      -5.589   7.215 -31.490  1.00  0.00     0.189 HD
HETATM    7  N   UNL     1      -4.057   7.086 -32.817  1.00  0.00    -0.168 NA
HETATM    8  C   UNL     1      -3.237   6.048 -33.097  1.00  0.00     0.156 A 
HETATM    9  C   UNL     1      -5.282   4.439 -30.633  1.00  0.00     0.034 A 
HETATM   10  C   UNL     1      -4.809   3.121 -30.559  1.00  0.00     0.032 A 
ENDROOT
BRANCH   1  11
HETATM   11  N   UNL     1      -3.259   1.370 -31.333  1.00  0.00    -0.327 N 
HETATM   12  C   UNL     1      -3.885   0.169 -31.492  1.00  0.00     0.222 C 
HETATM   13  O   UNL     1      -3.227  -0.854 -31.277  1.00  0.00    -0.273 OA
HETATM   14  H   UNL     1      -2.252   1.255 -31.289  1.00  0.00     0.169 HD
BRANCH  12  15
HETATM   15  C   UNL     1      -5.312   0.060 -31.997  1.00  0.00     0.104 C 
BRANCH  15  16
HETATM   16  C   UNL     1      -5.530   0.228 -33.510  1.00  0.00     0.023 C 
BRANCH  16  17
HETATM   17  C   UNL     1      -6.607  -0.667 -34.202  1.00  0.00    -0.020 C 
HETATM   18  C   UNL     1      -7.084  -0.018 -35.521  1.00  0.00     0.020 C 
HETATM   19  C   UNL     1      -7.861  -0.678 -33.280  1.00  0.00     0.020 C 
BRANCH  17  20
HETATM   20  C   UNL     1      -6.110  -2.114 -34.361  1.00  0.00    -0.050 A 
HETATM   21  C   UNL     1      -4.760  -2.470 -34.209  1.00  0.00     0.008 A 
HETATM   22  C   UNL     1      -4.332  -3.792 -34.377  1.00  0.00     0.001 A 
HETATM   23  C   UNL     1      -5.246  -4.789 -34.698  1.00  0.00     0.000 A 
HETATM   24  C   UNL     1      -6.590  -4.468 -34.845  1.00  0.00     0.001 A 
HETATM   25  C   UNL     1      -7.016  -3.147 -34.677  1.00  0.00     0.008 A 
ENDBRANCH  17  20
ENDBRANCH  16  17
ENDBRANCH  15  16
ENDBRANCH  12  15
ENDBRANCH   1  11
BRANCH   8  26
HETATM   26  C   UNL     1      -2.190   6.148 -34.124  1.00  0.00     0.270 C 
HETATM   27  N   UNL     1      -2.102   5.057 -34.944  1.00  0.00    -0.365 N 
HETATM   28  H   UNL     1      -2.726   4.276 -34.782  1.00  0.00     0.159 HD
HETATM   29  H   UNL     1      -1.387   5.020 -35.653  1.00  0.00     0.159 HD
HETATM   30  O   UNL     1      -1.434   7.106 -34.250  1.00  0.00    -0.266 OA
ENDBRANCH   8  26
TORSDOF 6
ENDMDL
MODEL 4
REMARK VINA RESULT:      -8.3      4.362      7.474
REMARK  6 active torsions:
REMARK  status: ('A' for Active; 'I' for Inactive)
REMARK    1  A    between atoms: C_2  and  C_3 
REMARK    2  A    between atoms: C_2  and  C_9 
REMARK    3  A    between atoms: C_9  and  C_10 
REMARK    4  A    between atoms: C_10  and  C_11 
REMARK       I    between atoms: C_11  and  N_12 
REMARK    5  A    between atoms: N_12  and  C_13 
REMARK    6  A    between atoms: C_20  and  C_21 
REMARK       I    between atoms: C_21  and  N_22 
ROOT
HETATM    1  C   UNL     1      -6.066   5.537 -32.554  1.00  0.00     0.035 A 
HETATM    2  C   UNL     1      -4.833   5.779 -33.175  1.00  0.00     0.046 A 
HETATM    3  C   UNL     1      -3.655   5.761 -32.405  1.00  0.00     0.030 A 
HETATM    4  C   UNL     1      -3.739   5.425 -31.060  1.00  0.00     0.063 A 
HETATM    5  N   UNL     1      -2.456   5.488 -30.592  1.00  0.00    -0.277 N 
HETATM    6  H   UNL     1      -2.135   5.297 -29.650  1.00  0.00     0.189 HD
HETATM    7  N   UNL     1      -1.548   5.871 -31.508  1.00  0.00    -0.168 NA
HETATM    8  C   UNL     1      -2.276   6.041 -32.634  1.00  0.00     0.156 A 
HETATM    9  C   UNL     1      -4.944   5.105 -30.430  1.00  0.00     0.034 A 
HETATM   10  C   UNL     1      -6.110   5.174 -31.206  1.00  0.00     0.032 A 
ENDROOT
BRANCH   1  11
HETATM   11  N   UNL     1      -7.208   5.656 -33.357  1.00  0.00    -0.327 N 
HETATM   12  C   UNL     1      -7.990   4.725 -33.974  1.00  0.00     0.222 C 
HETATM   13  O   UNL     1      -8.856   5.129 -34.757  1.00  0.00    -0.273 OA
HETATM   14  H   UNL     1      -7.608   6.585 -33.445  1.00  0.00     0.169 HD
BRANCH  12  15
HETATM   15  C   UNL     1      -7.880   3.243 -33.666  1.00  0.00     0.104 C 
BRANCH  15  16
HETATM   16  C   UNL     1      -6.524   2.573 -33.941  1.00  0.00     0.023 C 
BRANCH  16  17
HETATM   17  C   UNL     1      -5.970   1.570 -32.879  1.00  0.00    -0.020 C 
HETATM   18  C   UNL     1      -6.791   1.658 -31.572  1.00  0.00     0.020 C 
HETATM   19  C   UNL     1      -4.542   2.048 -32.493  1.00  0.00     0.020 C 
BRANCH  17  20
HETATM   20  C   UNL     1      -5.866   0.148 -33.457  1.00  0.00    -0.050 A 
HETATM   21  C   UNL     1      -4.677  -0.599 -33.418  1.00  0.00     0.008 A 
HETATM   22  C   UNL     1      -4.606  -1.884 -33.966  1.00  0.00     0.001 A 
HETATM   23  C   UNL     1      -5.725  -2.454 -34.564  1.00  0.00     0.000 A 
HETATM   24  C   UNL     1      -6.918  -1.742 -34.608  1.00  0.00     0.001 A 
HETATM   25  C   UNL     1      -6.987  -0.459 -34.060  1.00  0.00     0.008 A 
ENDBRANCH  17  20
ENDBRANCH  16  17
ENDBRANCH  15  16
ENDBRANCH  12  15
ENDBRANCH   1  11
BRANCH   8  26
HETATM   26  C   UNL     1      -1.661   6.491 -33.890  1.00  0.00     0.270 C 
HETATM   27  N   UNL     1      -1.287   5.477 -34.727  1.00  0.00    -0.365 N 
HETATM   28  H   UNL     1      -1.435   4.520 -34.428  1.00  0.00     0.159 HD
HETATM   29  H   UNL     1      -0.821   5.690 -35.595  1.00  0.00     0.159 HD
HETATM   30  O   UNL     1      -1.469   7.667 -34.184  1.00  0.00    -0.266 OA
ENDBRANCH   8  26
TORSDOF 6
ENDMDL
MODEL 5
REMARK VINA RESULT:      -8.2     14.403     15.670
REMARK  6 active torsions:
REMARK  status: ('A' for Active; 'I' for Inactive)
REMARK    1  A    between atoms: C_2  and  C_3 
REMARK    2  A    between atoms: C_2  and  C_9 
REMARK    3  A    between atoms: C_9  and  C_10 
REMARK    4  A    between atoms: C_10  and  C_11 
REMARK       I    between atoms: C_11  and  N_12 
REMARK    5  A    between atoms: N_12  and  C_13 
REMARK    6  A    between atoms: C_20  and  C_21 
REMARK       I    between atoms: C_21  and  N_22 
ROOT
HETATM    1  C   UNL     1      -7.302 -14.346 -36.862  1.00  0.00     0.035 A 
HETATM    2  C   UNL     1      -8.271 -13.778 -37.700  1.00  0.00     0.046 A 
HETATM    3  C   UNL     1      -8.525 -14.359 -38.957  1.00  0.00     0.030 A 
HETATM    4  C   UNL     1      -7.861 -15.528 -39.302  1.00  0.00     0.063 A 
HETATM    5  N   UNL     1      -8.312 -15.843 -40.553  1.00  0.00    -0.277 N 
HETATM    6  H   UNL     1      -8.048 -16.642 -41.118  1.00  0.00     0.189 HD
HETATM    7  N   UNL     1      -9.185 -14.960 -41.068  1.00  0.00    -0.168 NA
HETATM    8  C   UNL     1      -9.328 -14.038 -40.090  1.00  0.00     0.156 A 
HETATM    9  C   UNL     1      -6.945 -16.159 -38.456  1.00  0.00     0.034 A 
HETATM   10  C   UNL     1      -6.675 -15.539 -37.228  1.00  0.00     0.032 A 
ENDROOT
BRANCH   1  11
HETATM   11  N   UNL     1      -7.035 -13.672 -35.663  1.00  0.00    -0.327 N 
HETATM   12  C   UNL     1      -5.872 -13.423 -34.996  1.00  0.00     0.222 C 
HETATM   13  O   UNL     1      -5.952 -12.931 -33.866  1.00  0.00    -0.273 OA
HETATM   14  H   UNL     1      -7.815 -13.189 -35.229  1.00  0.00     0.169 HD
BRANCH  12  15
HETATM   15  C   UNL     1      -4.511 -13.654 -35.626  1.00  0.00     0.104 C 
BRANCH  15  16
HETATM   16  C   UNL     1      -4.110 -12.719 -36.778  1.00  0.00     0.023 C 
BRANCH  16  17
HETATM   17  C   UNL     1      -3.463 -13.354 -38.051  1.00  0.00    -0.020 C 
HETATM   18  C   UNL     1      -2.990 -14.796 -37.755  1.00  0.00     0.020 C 
HETATM   19  C   UNL     1      -2.163 -12.557 -38.356  1.00  0.00     0.020 C 
BRANCH  17  20
HETATM   20  C   UNL     1      -4.398 -13.241 -39.267  1.00  0.00    -0.050 A 
HETATM   21  C   UNL     1      -4.386 -14.173 -40.319  1.00  0.00     0.008 A 
HETATM   22  C   UNL     1      -5.237 -14.037 -41.421  1.00  0.00     0.001 A 
HETATM   23  C   UNL     1      -6.122 -12.966 -41.496  1.00  0.00     0.000 A 
HETATM   24  C   UNL     1      -6.162 -12.035 -40.465  1.00  0.00     0.001 A 
HETATM   25  C   UNL     1      -5.312 -12.173 -39.365  1.00  0.00     0.008 A 
ENDBRANCH  17  20
ENDBRANCH  16  17
ENDBRANCH  15  16
ENDBRANCH  12  15
ENDBRANCH   1  11
BRANCH   8  26
HETATM   26  C   UNL     1     -10.193 -12.863 -40.259  1.00  0.00     0.270 C 
HETATM   27  N   UNL     1     -11.466 -13.156 -40.665  1.00  0.00    -0.365 N 
HETATM   28  H   UNL     1     -11.711 -14.125 -40.835  1.00  0.00     0.159 HD
HETATM   29  H   UNL     1     -12.119 -12.410 -40.844  1.00  0.00     0.159 HD
HETATM   30  O   UNL     1      -9.832 -11.705 -40.076  1.00  0.00    -0.266 OA
ENDBRANCH   8  26
TORSDOF 6
ENDMDL
MODEL 6
REMARK VINA RESULT:      -8.2      2.304      3.540
REMARK  6 active torsions:
REMARK  status: ('A' for Active; 'I' for Inactive)
REMARK    1  A    between atoms: C_2  and  C_3 
REMARK    2  A    between atoms: C_2  and  C_9 
REMARK    3  A    between atoms: C_9  and  C_10 
REMARK    4  A    between atoms: C_10  and  C_11 
REMARK       I    between atoms: C_11  and  N_12 
REMARK    5  A    between atoms: N_12  and  C_13 
REMARK    6  A    between atoms: C_20  and  C_21 
REMARK       I    between atoms: C_21  and  N_22 
ROOT
HETATM    1  C   UNL     1      -6.091   3.370 -31.564  1.00  0.00     0.035 A 
HETATM    2  C   UNL     1      -7.159   3.324 -32.471  1.00  0.00     0.046 A 
HETATM    3  C   UNL     1      -8.475   3.209 -31.984  1.00  0.00     0.030 A 
HETATM    4  C   UNL     1      -8.686   3.222 -30.612  1.00  0.00     0.063 A 
HETATM    5  N   UNL     1     -10.038   3.100 -30.454  1.00  0.00    -0.277 N 
HETATM    6  H   UNL     1     -10.556   3.082 -29.582  1.00  0.00     0.189 HD
HETATM    7  N   UNL     1     -10.723   2.972 -31.603  1.00  0.00    -0.168 NA
HETATM    8  C   UNL     1      -9.769   3.040 -32.558  1.00  0.00     0.156 A 
HETATM    9  C   UNL     1      -7.648   3.343 -29.685  1.00  0.00     0.034 A 
HETATM   10  C   UNL     1      -6.342   3.412 -30.191  1.00  0.00     0.032 A 
ENDROOT
BRANCH   1  11
HETATM   11  N   UNL     1      -4.802   3.397 -32.113  1.00  0.00    -0.327 N 
HETATM   12  C   UNL     1      -3.830   2.445 -32.206  1.00  0.00     0.222 C 
HETATM   13  O   UNL     1      -2.717   2.797 -32.610  1.00  0.00    -0.273 OA
HETATM   14  H   UNL     1      -4.543   4.235 -32.623  1.00  0.00     0.169 HD
BRANCH  12  15
HETATM   15  C   UNL     1      -4.100   0.981 -31.912  1.00  0.00     0.104 C 
BRANCH  15  16
HETATM   16  C   UNL     1      -4.272   0.048 -33.122  1.00  0.00     0.023 C 
BRANCH  16  17
HETATM   17  C   UNL     1      -5.709  -0.467 -33.456  1.00  0.00    -0.020 C 
HETATM   18  C   UNL     1      -6.421   0.506 -34.424  1.00  0.00     0.020 C 
HETATM   19  C   UNL     1      -6.538  -0.409 -32.141  1.00  0.00     0.020 C 
BRANCH  17  20
HETATM   20  C   UNL     1      -5.678  -1.925 -33.947  1.00  0.00    -0.050 A 
HETATM   21  C   UNL     1      -6.807  -2.565 -34.485  1.00  0.00     0.008 A 
HETATM   22  C   UNL     1      -6.755  -3.897 -34.908  1.00  0.00     0.001 A 
HETATM   23  C   UNL     1      -5.571  -4.620 -34.807  1.00  0.00     0.000 A 
HETATM   24  C   UNL     1      -4.436  -4.009 -34.288  1.00  0.00     0.001 A 
HETATM   25  C   UNL     1      -4.489  -2.678 -33.866  1.00  0.00     0.008 A 
ENDBRANCH  17  20
ENDBRANCH  16  17
ENDBRANCH  15  16
ENDBRANCH  12  15
ENDBRANCH   1  11
BRANCH   8  26
HETATM   26  C   UNL     1     -10.095   2.914 -33.985  1.00  0.00     0.270 C 
HETATM   27  N   UNL     1     -10.012   4.085 -34.686  1.00  0.00    -0.365 N 
HETATM   28  H   UNL     1      -9.760   4.932 -34.189  1.00  0.00     0.159 HD
HETATM   29  H   UNL     1     -10.255   4.103 -35.664  1.00  0.00     0.159 HD
HETATM   30  O   UNL     1     -10.433   1.867 -34.529  1.00  0.00    -0.266 OA
ENDBRANCH   8  26
TORSDOF 6
ENDMDL
MODEL 7
REMARK VINA RESULT:      -8.1      3.920      7.144
REMARK  6 active torsions:
REMARK  status: ('A' for Active; 'I' for Inactive)
REMARK    1  A    between atoms: C_2  and  C_3 
REMARK    2  A    between atoms: C_2  and  C_9 
REMARK    3  A    between atoms: C_9  and  C_10 
REMARK    4  A    between atoms: C_10  and  C_11 
REMARK       I    between atoms: C_11  and  N_12 
REMARK    5  A    between atoms: N_12  and  C_13 
REMARK    6  A    between atoms: C_20  and  C_21 
REMARK       I    between atoms: C_21  and  N_22 
ROOT
HETATM    1  C   UNL     1      -6.321   4.521 -32.727  1.00  0.00     0.035 A 
HETATM    2  C   UNL     1      -5.145   4.825 -33.427  1.00  0.00     0.046 A 
HETATM    3  C   UNL     1      -3.897   4.601 -32.815  1.00  0.00     0.030 A 
HETATM    4  C   UNL     1      -3.864   4.010 -31.560  1.00  0.00     0.063 A 
HETATM    5  N   UNL     1      -2.538   3.920 -31.239  1.00  0.00    -0.277 N 
HETATM    6  H   UNL     1      -2.135   3.531 -30.394  1.00  0.00     0.189 HD
HETATM    7  N   UNL     1      -1.707   4.436 -32.161  1.00  0.00    -0.168 NA
HETATM    8  C   UNL     1      -2.534   4.858 -33.143  1.00  0.00     0.156 A 
HETATM    9  C   UNL     1      -5.015   3.625 -30.869  1.00  0.00     0.034 A 
HETATM   10  C   UNL     1      -6.248   3.900 -31.478  1.00  0.00     0.032 A 
ENDROOT
BRANCH   1  11
HETATM   11  N   UNL     1      -7.529   4.849 -33.356  1.00  0.00    -0.327 N 
HETATM   12  C   UNL     1      -8.526   4.076 -33.875  1.00  0.00     0.222 C 
HETATM   13  O   UNL     1      -9.416   4.642 -34.517  1.00  0.00    -0.273 OA
HETATM   14  H   UNL     1      -7.786   5.831 -33.365  1.00  0.00     0.169 HD
BRANCH  12  15
HETATM   15  C   UNL     1      -8.610   2.582 -33.618  1.00  0.00     0.104 C 
BRANCH  15  16
HETATM   16  C   UNL     1      -7.620   1.688 -34.383  1.00  0.00     0.023 C 
BRANCH  16  17
HETATM   17  C   UNL     1      -7.370   0.242 -33.846  1.00  0.00    -0.020 C 
HETATM   18  C   UNL     1      -7.153  -0.741 -35.019  1.00  0.00     0.020 C 
HETATM   19  C   UNL     1      -8.683  -0.230 -33.159  1.00  0.00     0.020 C 
BRANCH  17  20
HETATM   20  C   UNL     1      -6.242   0.224 -32.799  1.00  0.00    -0.050 A 
HETATM   21  C   UNL     1      -4.890   0.387 -33.143  1.00  0.00     0.008 A 
HETATM   22  C   UNL     1      -3.882   0.350 -32.173  1.00  0.00     0.001 A 
HETATM   23  C   UNL     1      -4.204   0.152 -30.835  1.00  0.00     0.000 A 
HETATM   24  C   UNL     1      -5.535  -0.003 -30.464  1.00  0.00     0.001 A 
HETATM   25  C   UNL     1      -6.540   0.035 -31.435  1.00  0.00     0.008 A 
ENDBRANCH  17  20
ENDBRANCH  16  17
ENDBRANCH  15  16
ENDBRANCH  12  15
ENDBRANCH   1  11
BRANCH   8  26
HETATM   26  C   UNL     1      -2.023   5.521 -34.350  1.00  0.00     0.270 C 
HETATM   27  N   UNL     1      -2.172   6.880 -34.350  1.00  0.00    -0.365 N 
HETATM   28  H   UNL     1      -2.625   7.320 -33.557  1.00  0.00     0.159 HD
HETATM   29  H   UNL     1      -1.886   7.416 -35.154  1.00  0.00     0.159 HD
HETATM   30  O   UNL     1      -1.517   4.933 -35.301  1.00  0.00    -0.266 OA
ENDBRANCH   8  26
TORSDOF 6
ENDMDL
MODEL 8
REMARK VINA RESULT:      -8.1      1.038      1.754
REMARK  6 active torsions:
REMARK  status: ('A' for Active; 'I' for Inactive)
REMARK    1  A    between atoms: C_2  and  C_3 
REMARK    2  A    between atoms: C_2  and  C_9 
REMARK    3  A    between atoms: C_9  and  C_10 
REMARK    4  A    between atoms: C_10  and  C_11 
REMARK       I    between atoms: C_11  and  N_12 
REMARK    5  A    between atoms: N_12  and  C_13 
REMARK    6  A    between atoms: C_20  and  C_21 
REMARK       I    between atoms: C_21  and  N_22 
ROOT
HETATM    1  C   UNL     1      -9.931   3.392 -32.661  1.00  0.00     0.035 A 
HETATM    2  C   UNL     1     -10.754   2.272 -32.848  1.00  0.00     0.046 A 
HETATM    3  C   UNL     1     -11.507   2.157 -34.032  1.00  0.00     0.030 A 
HETATM    4  C   UNL     1     -11.355   3.122 -35.019  1.00  0.00     0.063 A 
HETATM    5  N   UNL     1     -12.197   2.741 -36.027  1.00  0.00    -0.277 N 
HETATM    6  H   UNL     1     -12.342   3.208 -36.916  1.00  0.00     0.189 HD
HETATM    7  N   UNL     1     -12.911   1.633 -35.767  1.00  0.00    -0.168 NA
HETATM    8  C   UNL     1     -12.493   1.260 -34.537  1.00  0.00     0.156 A 
HETATM    9  C   UNL     1     -10.486   4.208 -34.893  1.00  0.00     0.034 A 
HETATM   10  C   UNL     1      -9.780   4.326 -33.687  1.00  0.00     0.032 A 
ENDROOT
BRANCH   1  11
HETATM   11  N   UNL     1      -9.276   3.490 -31.426  1.00  0.00    -0.327 N 
HETATM   12  C   UNL     1      -8.020   3.137 -31.030  1.00  0.00     0.222 C 
HETATM   13  O   UNL     1      -7.759   3.198 -29.824  1.00  0.00    -0.273 OA
HETATM   14  H   UNL     1      -9.763   3.992 -30.691  1.00  0.00     0.169 HD
BRANCH  12  15
HETATM   15  C   UNL     1      -6.934   2.759 -32.021  1.00  0.00     0.104 C 
BRANCH  15  16
HETATM   16  C   UNL     1      -6.947   1.317 -32.552  1.00  0.00     0.023 C 
BRANCH  16  17
HETATM   17  C   UNL     1      -5.851   0.332 -32.034  1.00  0.00    -0.020 C 
HETATM   18  C   UNL     1      -6.174  -0.129 -30.594  1.00  0.00     0.020 C 
HETATM   19  C   UNL     1      -4.526   1.138 -31.912  1.00  0.00     0.020 C 
BRANCH  17  20
HETATM   20  C   UNL     1      -5.627  -0.824 -33.024  1.00  0.00    -0.050 A 
HETATM   21  C   UNL     1      -6.500  -1.083 -34.093  1.00  0.00     0.008 A 
HETATM   22  C   UNL     1      -6.282  -2.152 -34.969  1.00  0.00     0.001 A 
HETATM   23  C   UNL     1      -5.182  -2.985 -34.798  1.00  0.00     0.000 A 
HETATM   24  C   UNL     1      -4.296  -2.747 -33.754  1.00  0.00     0.001 A 
HETATM   25  C   UNL     1      -4.515  -1.679 -32.880  1.00  0.00     0.008 A 
ENDBRANCH  17  20
ENDBRANCH  16  17
ENDBRANCH  15  16
ENDBRANCH  12  15
ENDBRANCH   1  11
BRANCH   8  26
HETATM   26  C   UNL     1     -13.053   0.085 -33.855  1.00  0.00     0.270 C 
HETATM   27  N   UNL     1     -14.408  -0.046 -33.985  1.00  0.00    -0.365 N 
HETATM   28  H   UNL     1     -14.917   0.659 -34.505  1.00  0.00     0.159 HD
HETATM   29  H   UNL     1     -14.886  -0.801 -33.518  1.00  0.00     0.159 HD
HETATM   30  O   UNL     1     -12.393  -0.718 -33.204  1.00  0.00    -0.266 OA
ENDBRANCH   8  26
TORSDOF 6
ENDMDL
MODEL 9
REMARK VINA RESULT:      -8.0      4.663      7.462
REMARK  6 active torsions:
REMARK  status: ('A' for Active; 'I' for Inactive)
REMARK    1  A    between atoms: C_2  and  C_3 
REMARK    2  A    between atoms: C_2  and  C_9 
REMARK    3  A    between atoms: C_9  and  C_10 
REMARK    4  A    between atoms: C_10  and  C_11 
REMARK       I    between atoms: C_11  and  N_12 
REMARK    5  A    between atoms: N_12  and  C_13 
REMARK    6  A    between atoms: C_20  and  C_21 
REMARK       I    between atoms: C_21  and  N_22 
ROOT
HETATM    1  C   UNL     1      -4.870   5.307 -33.943  1.00  0.00     0.035 A 
HETATM    2  C   UNL     1      -4.419   6.022 -32.825  1.00  0.00     0.046 A 
HETATM    3  C   UNL     1      -3.064   6.398 -32.744  1.00  0.00     0.030 A 
HETATM    4  C   UNL     1      -2.226   6.116 -33.814  1.00  0.00     0.063 A 
HETATM    5  N   UNL     1      -1.000   6.597 -33.448  1.00  0.00    -0.277 N 
HETATM    6  H   UNL     1      -0.144   6.573 -33.990  1.00  0.00     0.189 HD
HETATM    7  N   UNL     1      -0.959   7.135 -32.216  1.00  0.00    -0.168 NA
HETATM    8  C   UNL     1      -2.230   7.020 -31.771  1.00  0.00     0.156 A 
HETATM    9  C   UNL     1      -2.664   5.472 -34.974  1.00  0.00     0.034 A 
HETATM   10  C   UNL     1      -4.007   5.068 -35.013  1.00  0.00     0.032 A 
ENDROOT
BRANCH   1  11
HETATM   11  N   UNL     1      -6.207   4.888 -33.922  1.00  0.00    -0.327 N 
HETATM   12  C   UNL     1      -6.784   3.696 -33.597  1.00  0.00     0.222 C 
HETATM   13  O   UNL     1      -7.992   3.562 -33.821  1.00  0.00    -0.273 OA
HETATM   14  H   UNL     1      -6.910   5.601 -34.087  1.00  0.00     0.169 HD
BRANCH  12  15
HETATM   15  C   UNL     1      -6.015   2.585 -32.906  1.00  0.00     0.104 C 
BRANCH  15  16
HETATM   16  C   UNL     1      -5.950   1.230 -33.628  1.00  0.00     0.023 C 
BRANCH  16  17
HETATM   17  C   UNL     1      -6.572  -0.014 -32.915  1.00  0.00    -0.020 C 
HETATM   18  C   UNL     1      -8.098   0.167 -32.743  1.00  0.00     0.020 C 
HETATM   19  C   UNL     1      -6.003  -0.049 -31.468  1.00  0.00     0.020 C 
BRANCH  17  20
HETATM   20  C   UNL     1      -6.174  -1.320 -33.625  1.00  0.00    -0.050 A 
HETATM   21  C   UNL     1      -7.120  -2.187 -34.196  1.00  0.00     0.008 A 
HETATM   22  C   UNL     1      -6.732  -3.377 -34.821  1.00  0.00     0.001 A 
HETATM   23  C   UNL     1      -5.387  -3.726 -34.892  1.00  0.00     0.000 A 
HETATM   24  C   UNL     1      -4.429  -2.882 -34.344  1.00  0.00     0.001 A 
HETATM   25  C   UNL     1      -4.819  -1.694 -33.720  1.00  0.00     0.008 A 
ENDBRANCH  17  20
ENDBRANCH  16  17
ENDBRANCH  15  16
ENDBRANCH  12  15
ENDBRANCH   1  11
BRANCH   8  26
HETATM   26  C   UNL     1      -2.620   7.472 -30.428  1.00  0.00     0.270 C 
HETATM   27  N   UNL     1      -3.044   6.470 -29.600  1.00  0.00    -0.365 N 
HETATM   28  H   UNL     1      -3.079   5.524 -29.960  1.00  0.00     0.159 HD
HETATM   29  H   UNL     1      -3.368   6.691 -28.671  1.00  0.00     0.159 HD
HETATM   30  O   UNL     1      -2.594   8.641 -30.056  1.00  0.00    -0.266 OA
ENDBRANCH   8  26
TORSDOF 6
ENDMDL
MODEL 10
REMARK VINA RESULT:      -8.0      3.529      6.048
REMARK  6 active torsions:
REMARK  status: ('A' for Active; 'I' for Inactive)
REMARK    1  A    between atoms: C_2  and  C_3 
REMARK    2  A    between atoms: C_2  and  C_9 
REMARK    3  A    between atoms: C_9  and  C_10 
REMARK    4  A    between atoms: C_10  and  C_11 
REMARK       I    between atoms: C_11  and  N_12 
REMARK    5  A    between atoms: N_12  and  C_13 
REMARK    6  A    between atoms: C_20  and  C_21 
REMARK       I    between atoms: C_21  and  N_22 
ROOT
HETATM    1  C   UNL     1      -6.164  -0.628 -33.013  1.00  0.00     0.035 A 
HETATM    2  C   UNL     1      -7.063   0.211 -32.342  1.00  0.00     0.046 A 
HETATM    3  C   UNL     1      -8.137   0.784 -33.051  1.00  0.00     0.030 A 
HETATM    4  C   UNL     1      -8.320   0.438 -34.382  1.00  0.00     0.063 A 
HETATM    5  N   UNL     1      -9.423   1.137 -34.788  1.00  0.00    -0.277 N 
HETATM    6  H   UNL     1      -9.856   1.124 -35.704  1.00  0.00     0.189 HD
HETATM    7  N   UNL     1      -9.951   1.937 -33.845  1.00  0.00    -0.168 NA
HETATM    8  C   UNL     1      -9.167   1.726 -32.765  1.00  0.00     0.156 A 
HETATM    9  C   UNL     1      -7.485  -0.455 -35.058  1.00  0.00     0.034 A 
HETATM   10  C   UNL     1      -6.396  -0.978 -34.345  1.00  0.00     0.032 A 
ENDROOT
BRANCH   1  11
HETATM   11  N   UNL     1      -5.069  -1.096 -32.274  1.00  0.00    -0.327 N 
HETATM   12  C   UNL     1      -3.813  -0.598 -32.091  1.00  0.00     0.222 C 
HETATM   13  O   UNL     1      -2.993  -1.310 -31.502  1.00  0.00    -0.273 OA
HETATM   14  H   UNL     1      -5.232  -1.903 -31.680  1.00  0.00     0.169 HD
BRANCH  12  15
HETATM   15  C   UNL     1      -3.430   0.809 -32.510  1.00  0.00     0.104 C 
BRANCH  15  16
HETATM   16  C   UNL     1      -3.591   1.917 -31.456  1.00  0.00     0.023 C 
BRANCH  16  17
HETATM   17  C   UNL     1      -4.172   3.292 -31.918  1.00  0.00    -0.020 C 
HETATM   18  C   UNL     1      -4.952   3.965 -30.765  1.00  0.00     0.020 C 
HETATM   19  C   UNL     1      -5.239   3.000 -33.011  1.00  0.00     0.020 C 
BRANCH  17  20
HETATM   20  C   UNL     1      -3.077   4.181 -32.534  1.00  0.00    -0.050 A 
HETATM   21  C   UNL     1      -1.889   4.495 -31.855  1.00  0.00     0.008 A 
HETATM   22  C   UNL     1      -0.917   5.319 -32.432  1.00  0.00     0.001 A 
HETATM   23  C   UNL     1      -1.110   5.848 -33.704  1.00  0.00     0.000 A 
HETATM   24  C   UNL     1      -2.273   5.546 -34.403  1.00  0.00     0.001 A 
HETATM   25  C   UNL     1      -3.243   4.722 -33.825  1.00  0.00     0.008 A 
ENDBRANCH  17  20
ENDBRANCH  16  17
ENDBRANCH  15  16
ENDBRANCH  12  15
ENDBRANCH   1  11
BRANCH   8  26
HETATM   26  C   UNL     1      -9.389   2.440 -31.499  1.00  0.00     0.270 C 
HETATM   27  N   UNL     1     -10.663   2.909 -31.335  1.00  0.00    -0.365 N 
HETATM   28  H   UNL     1     -11.336   2.757 -32.077  1.00  0.00     0.159 HD
HETATM   29  H   UNL     1     -10.898   3.445 -30.515  1.00  0.00     0.159 HD
HETATM   30  O   UNL     1      -8.523   2.629 -30.650  1.00  0.00    -0.266 OA
ENDBRANCH   8  26
TORSDOF 6
ENDMDL
