MODEL 1
REMARK VINA RESULT:      -8.5      0.000      0.000
REMARK  8 active torsions:
REMARK  status: ('A' for Active; 'I' for Inactive)
REMARK    1  A    between atoms: C_2  and  O_3 
REMARK    2  A    between atoms: C_2  and  C_4 
REMARK    3  A    between atoms: C_4  and  N_5 
REMARK       I    between atoms: N_5  and  C_6 
REMARK    4  A    between atoms: C_6  and  C_7 
REMARK    5  A    between atoms: C_10  and  O_11 
REMARK    6  A    between atoms: O_11  and  C_12 
REMARK    7  A    between atoms: C_15  and  O_16 
REMARK    8  A    between atoms: O_16  and  C_17 
ROOT
HETATM    1  C   UNL     1      -2.819   4.576 -31.460  1.00  0.00     0.049 A 
HETATM    2  C   UNL     1      -3.880   5.422 -31.757  1.00  0.00     0.136 A 
HETATM    3  N   UNL     1      -5.164   5.010 -31.902  1.00  0.00    -0.236 NA
HETATM    4  C   UNL     1      -5.397   3.686 -31.757  1.00  0.00     0.169 A 
HETATM    5  C   UNL     1      -4.401   2.751 -31.520  1.00  0.00     0.059 A 
HETATM    6  C   UNL     1      -3.094   3.208 -31.361  1.00  0.00     0.023 A 
ENDROOT
BRANCH   4   7
HETATM    7  O   UNL     1      -6.684   3.201 -31.917  1.00  0.00    -0.292 OA
BRANCH   7   8
HETATM    8  C   UNL     1      -6.849   2.009 -32.585  1.00  0.00     0.078 A 
HETATM    9  C   UNL     1      -6.654   2.052 -33.967  1.00  0.00     0.040 A 
HETATM   10  C   UNL     1      -6.737   0.882 -34.726  1.00  0.00     0.040 A 
HETATM   11  C   UNL     1      -6.992  -0.341 -34.103  1.00  0.00     0.076 A 
HETATM   12  C   UNL     1      -7.197  -0.386 -32.721  1.00  0.00     0.040 A 
HETATM   13  C   UNL     1      -7.104   0.783 -31.962  1.00  0.00     0.040 A 
BRANCH  11  14
HETATM   14  O   UNL     1      -7.089  -1.436 -34.934  1.00  0.00    -0.311 OA
BRANCH  14  15
HETATM   15  C   UNL     1      -6.258  -2.504 -34.697  1.00  0.00     0.076 A 
HETATM   16  C   UNL     1      -6.751  -3.775 -34.995  1.00  0.00     0.037 A 
HETATM   17  C   UNL     1      -5.941  -4.895 -34.806  1.00  0.00     0.003 A 
HETATM   18  C   UNL     1      -4.636  -4.741 -34.336  1.00  0.00     0.000 A 
HETATM   19  C   UNL     1      -4.136  -3.467 -34.065  1.00  0.00     0.003 A 
HETATM   20  C   UNL     1      -4.942  -2.344 -34.255  1.00  0.00     0.037 A 
ENDBRANCH  14  15
ENDBRANCH  11  14
ENDBRANCH   7   8
ENDBRANCH   4   7
BRANCH   1  21
HETATM   21  C   UNL     1      -1.424   5.048 -31.259  1.00  0.00     0.253 C 
HETATM   22  N   UNL     1      -1.134   5.698 -30.075  1.00  0.00    -0.354 N 
HETATM   23  H   UNL     1      -1.792   5.646 -29.310  1.00  0.00     0.162 HD
HETATM   24  O   UNL     1      -0.584   4.822 -32.122  1.00  0.00    -0.268 OA
BRANCH  22  25
HETATM   25  C   UNL     1       0.237   6.015 -29.702  1.00  0.00     0.154 C 
BRANCH  25  26
HETATM   26  C   UNL     1       0.530   6.092 -28.195  1.00  0.00     0.132 C 
HETATM   27  C   UNL     1       1.030   7.464 -27.762  1.00  0.00     0.041 C 
BRANCH  26  28
HETATM   28  O   UNL     1      -0.685   5.815 -27.490  1.00  0.00    -0.394 OA
HETATM   29  H   UNL     1      -0.908   6.618 -26.985  1.00  0.00     0.210 HD
ENDBRANCH  26  28
ENDBRANCH  25  26
ENDBRANCH  22  25
ENDBRANCH   1  21
TORSDOF 8
ENDMDL
MODEL 2
REMARK VINA RESULT:      -7.9      2.734      9.467
REMARK  8 active torsions:
REMARK  status: ('A' for Active; 'I' for Inactive)
REMARK    1  A    between atoms: C_2  and  O_3 
REMARK    2  A    between atoms: C_2  and  C_4 
REMARK    3  A    between atoms: C_4  and  N_5 
REMARK       I    between atoms: N_5  and  C_6 
REMARK    4  A    between atoms: C_6  and  C_7 
REMARK    5  A    between atoms: C_10  and  O_11 
REMARK    6  A    between atoms: O_11  and  C_12 
REMARK    7  A    between atoms: C_15  and  O_16 
REMARK    8  A    between atoms: O_16  and  C_17 
ROOT
HETATM    1  C   UNL     1      -5.273   0.036 -33.338  1.00  0.00     0.049 A 
HETATM    2  C   UNL     1      -6.196   0.523 -34.255  1.00  0.00     0.136 A 
HETATM    3  N   UNL     1      -6.567   1.824 -34.343  1.00  0.00    -0.236 NA
HETATM    4  C   UNL     1      -5.999   2.679 -33.462  1.00  0.00     0.169 A 
HETATM    5  C   UNL     1      -5.114   2.286 -32.471  1.00  0.00     0.059 A 
HETATM    6  C   UNL     1      -4.741   0.944 -32.416  1.00  0.00     0.023 A 
ENDROOT
BRANCH   4   7
HETATM    7  O   UNL     1      -6.355   4.017 -33.488  1.00  0.00    -0.292 OA
BRANCH   7   8
HETATM    8  C   UNL     1      -5.353   4.956 -33.385  1.00  0.00     0.078 A 
HETATM    9  C   UNL     1      -5.422   5.804 -32.278  1.00  0.00     0.040 A 
HETATM   10  C   UNL     1      -4.419   6.748 -32.050  1.00  0.00     0.040 A 
HETATM   11  C   UNL     1      -3.327   6.833 -32.917  1.00  0.00     0.076 A 
HETATM   12  C   UNL     1      -3.259   5.993 -34.031  1.00  0.00     0.040 A 
HETATM   13  C   UNL     1      -4.259   5.042 -34.253  1.00  0.00     0.040 A 
BRANCH  11  14
HETATM   14  O   UNL     1      -2.403   7.815 -32.633  1.00  0.00    -0.311 OA
BRANCH  14  15
HETATM   15  C   UNL     1      -1.499   7.583 -31.624  1.00  0.00     0.076 A 
HETATM   16  C   UNL     1      -0.341   6.878 -31.955  1.00  0.00     0.037 A 
HETATM   17  C   UNL     1       0.628   6.641 -30.980  1.00  0.00     0.003 A 
HETATM   18  C   UNL     1       0.444   7.120 -29.683  1.00  0.00     0.000 A 
HETATM   19  C   UNL     1      -0.703   7.847 -29.361  1.00  0.00     0.003 A 
HETATM   20  C   UNL     1      -1.673   8.090 -30.335  1.00  0.00     0.037 A 
ENDBRANCH  14  15
ENDBRANCH  11  14
ENDBRANCH   7   8
ENDBRANCH   4   7
BRANCH   1  21
HETATM   21  C   UNL     1      -4.843  -1.385 -33.282  1.00  0.00     0.253 C 
HETATM   22  N   UNL     1      -4.993  -2.143 -34.427  1.00  0.00    -0.354 N 
HETATM   23  H   UNL     1      -5.178  -1.679 -35.305  1.00  0.00     0.162 HD
HETATM   24  O   UNL     1      -4.348  -1.822 -32.250  1.00  0.00    -0.268 OA
BRANCH  22  25
HETATM   25  C   UNL     1      -4.419  -3.476 -34.533  1.00  0.00     0.154 C 
BRANCH  25  26
HETATM   26  C   UNL     1      -5.401  -4.652 -34.401  1.00  0.00     0.132 C 
HETATM   27  C   UNL     1      -6.542  -4.580 -35.408  1.00  0.00     0.041 C 
BRANCH  26  28
HETATM   28  O   UNL     1      -4.676  -5.865 -34.631  1.00  0.00    -0.394 OA
HETATM   29  H   UNL     1      -4.901  -6.470 -33.903  1.00  0.00     0.210 HD
ENDBRANCH  26  28
ENDBRANCH  25  26
ENDBRANCH  22  25
ENDBRANCH   1  21
TORSDOF 8
ENDMDL
MODEL 3
REMARK VINA RESULT:      -7.9      2.562      8.996
REMARK  8 active torsions:
REMARK  status: ('A' for Active; 'I' for Inactive)
REMARK    1  A    between atoms: C_2  and  O_3 
REMARK    2  A    between atoms: C_2  and  C_4 
REMARK    3  A    between atoms: C_4  and  N_5 
REMARK       I    between atoms: N_5  and  C_6 
REMARK    4  A    between atoms: C_6  and  C_7 
REMARK    5  A    between atoms: C_10  and  O_11 
REMARK    6  A    between atoms: O_11  and  C_12 
REMARK    7  A    between atoms: C_15  and  O_16 
REMARK    8  A    between atoms: O_16  and  C_17 
ROOT
HETATM    1  C   UNL     1      -6.399  -0.508 -34.057  1.00  0.00     0.049 A 
HETATM    2  C   UNL     1      -5.776   0.158 -33.010  1.00  0.00     0.136 A 
HETATM    3  N   UNL     1      -5.943   1.476 -32.740  1.00  0.00    -0.236 NA
HETATM    4  C   UNL     1      -6.762   2.167 -33.566  1.00  0.00     0.169 A 
HETATM    5  C   UNL     1      -7.384   1.611 -34.673  1.00  0.00     0.059 A 
HETATM    6  C   UNL     1      -7.205   0.250 -34.914  1.00  0.00     0.023 A 
ENDROOT
BRANCH   4   7
HETATM    7  O   UNL     1      -6.955   3.522 -33.355  1.00  0.00    -0.292 OA
BRANCH   7   8
HETATM    8  C   UNL     1      -5.867   4.356 -33.472  1.00  0.00     0.078 A 
HETATM    9  C   UNL     1      -5.556   5.115 -32.341  1.00  0.00     0.040 A 
HETATM   10  C   UNL     1      -4.432   5.945 -32.339  1.00  0.00     0.040 A 
HETATM   11  C   UNL     1      -3.601   6.003 -33.459  1.00  0.00     0.076 A 
HETATM   12  C   UNL     1      -3.914   5.252 -34.595  1.00  0.00     0.040 A 
HETATM   13  C   UNL     1      -5.033   4.414 -34.593  1.00  0.00     0.040 A 
BRANCH  11  14
HETATM   14  O   UNL     1      -2.535   6.873 -33.379  1.00  0.00    -0.311 OA
BRANCH  14  15
HETATM   15  C   UNL     1      -1.566   6.626 -32.436  1.00  0.00     0.076 A 
HETATM   16  C   UNL     1      -1.349   7.610 -31.471  1.00  0.00     0.037 A 
HETATM   17  C   UNL     1      -0.402   7.401 -30.468  1.00  0.00     0.003 A 
HETATM   18  C   UNL     1       0.314   6.204 -30.424  1.00  0.00     0.000 A 
HETATM   19  C   UNL     1       0.076   5.210 -31.375  1.00  0.00     0.003 A 
HETATM   20  C   UNL     1      -0.873   5.415 -32.377  1.00  0.00     0.037 A 
ENDBRANCH  14  15
ENDBRANCH  11  14
ENDBRANCH   7   8
ENDBRANCH   4   7
BRANCH   1  21
HETATM   21  C   UNL     1      -6.242  -1.963 -34.314  1.00  0.00     0.253 C 
HETATM   22  N   UNL     1      -4.964  -2.439 -34.533  1.00  0.00    -0.354 N 
HETATM   23  H   UNL     1      -4.174  -1.852 -34.305  1.00  0.00     0.162 HD
HETATM   24  O   UNL     1      -7.231  -2.686 -34.292  1.00  0.00    -0.268 OA
BRANCH  22  25
HETATM   25  C   UNL     1      -4.687  -3.867 -34.591  1.00  0.00     0.154 C 
BRANCH  25  26
HETATM   26  C   UNL     1      -3.521  -4.369 -33.724  1.00  0.00     0.132 C 
HETATM   27  C   UNL     1      -3.362  -3.574 -32.435  1.00  0.00     0.041 C 
BRANCH  26  28
HETATM   28  O   UNL     1      -3.779  -5.734 -33.379  1.00  0.00    -0.394 OA
HETATM   29  H   UNL     1      -4.139  -6.164 -34.175  1.00  0.00     0.210 HD
ENDBRANCH  26  28
ENDBRANCH  25  26
ENDBRANCH  22  25
ENDBRANCH   1  21
TORSDOF 8
ENDMDL
MODEL 4
REMARK VINA RESULT:      -7.8      2.188      4.480
REMARK  8 active torsions:
REMARK  status: ('A' for Active; 'I' for Inactive)
REMARK    1  A    between atoms: C_2  and  O_3 
REMARK    2  A    between atoms: C_2  and  C_4 
REMARK    3  A    between atoms: C_4  and  N_5 
REMARK       I    between atoms: N_5  and  C_6 
REMARK    4  A    between atoms: C_6  and  C_7 
REMARK    5  A    between atoms: C_10  and  O_11 
REMARK    6  A    between atoms: O_11  and  C_12 
REMARK    7  A    between atoms: C_15  and  O_16 
REMARK    8  A    between atoms: O_16  and  C_17 
ROOT
HETATM    1  C   UNL     1      -0.107   6.278 -29.442  1.00  0.00     0.049 A 
HETATM    2  C   UNL     1       0.473   5.193 -30.087  1.00  0.00     0.136 A 
HETATM    3  N   UNL     1       0.034   4.685 -31.265  1.00  0.00    -0.236 NA
HETATM    4  C   UNL     1      -1.047   5.281 -31.819  1.00  0.00     0.169 A 
HETATM    5  C   UNL     1      -1.734   6.329 -31.227  1.00  0.00     0.059 A 
HETATM    6  C   UNL     1      -1.249   6.839 -30.024  1.00  0.00     0.023 A 
ENDROOT
BRANCH   4   7
HETATM    7  O   UNL     1      -1.557   4.793 -33.010  1.00  0.00    -0.292 OA
BRANCH   7   8
HETATM    8  C   UNL     1      -2.805   4.212 -32.991  1.00  0.00     0.078 A 
HETATM    9  C   UNL     1      -2.959   3.126 -32.127  1.00  0.00     0.040 A 
HETATM   10  C   UNL     1      -4.204   2.508 -31.989  1.00  0.00     0.040 A 
HETATM   11  C   UNL     1      -5.308   2.989 -32.697  1.00  0.00     0.076 A 
HETATM   12  C   UNL     1      -5.154   4.070 -33.569  1.00  0.00     0.040 A 
HETATM   13  C   UNL     1      -3.910   4.694 -33.699  1.00  0.00     0.040 A 
BRANCH  11  14
HETATM   14  O   UNL     1      -6.487   2.298 -32.524  1.00  0.00    -0.311 OA
BRANCH  14  15
HETATM   15  C   UNL     1      -6.666   1.135 -33.234  1.00  0.00     0.076 A 
HETATM   16  C   UNL     1      -7.096   1.254 -34.556  1.00  0.00     0.037 A 
HETATM   17  C   UNL     1      -7.263   0.109 -35.336  1.00  0.00     0.003 A 
HETATM   18  C   UNL     1      -6.986  -1.148 -34.798  1.00  0.00     0.000 A 
HETATM   19  C   UNL     1      -6.531  -1.262 -33.484  1.00  0.00     0.003 A 
HETATM   20  C   UNL     1      -6.359  -0.120 -32.702  1.00  0.00     0.037 A 
ENDBRANCH  14  15
ENDBRANCH  11  14
ENDBRANCH   7   8
ENDBRANCH   4   7
BRANCH   1  21
HETATM   21  C   UNL     1       0.413   6.852 -28.174  1.00  0.00     0.253 C 
HETATM   22  N   UNL     1       1.212   7.975 -28.262  1.00  0.00    -0.354 N 
HETATM   23  H   UNL     1       1.244   8.491 -29.129  1.00  0.00     0.162 HD
HETATM   24  O   UNL     1       0.097   6.337 -27.108  1.00  0.00    -0.268 OA
BRANCH  22  25
HETATM   25  C   UNL     1       1.599   8.723 -27.074  1.00  0.00     0.154 C 
BRANCH  25  26
HETATM   26  C   UNL     1       0.663   9.870 -26.657  1.00  0.00     0.132 C 
HETATM   27  C   UNL     1       0.126   9.705 -25.242  1.00  0.00     0.041 C 
BRANCH  26  28
HETATM   28  O   UNL     1       1.405  11.093 -26.716  1.00  0.00    -0.394 OA
HETATM   29  H   UNL     1       1.703  11.286 -25.809  1.00  0.00     0.210 HD
ENDBRANCH  26  28
ENDBRANCH  25  26
ENDBRANCH  22  25
ENDBRANCH   1  21
TORSDOF 8
ENDMDL
MODEL 5
REMARK VINA RESULT:      -7.7      1.912      3.447
REMARK  8 active torsions:
REMARK  status: ('A' for Active; 'I' for Inactive)
REMARK    1  A    between atoms: C_2  and  O_3 
REMARK    2  A    between atoms: C_2  and  C_4 
REMARK    3  A    between atoms: C_4  and  N_5 
REMARK       I    between atoms: N_5  and  C_6 
REMARK    4  A    between atoms: C_6  and  C_7 
REMARK    5  A    between atoms: C_10  and  O_11 
REMARK    6  A    between atoms: O_11  and  C_12 
REMARK    7  A    between atoms: C_15  and  O_16 
REMARK    8  A    between atoms: O_16  and  C_17 
ROOT
HETATM    1  C   UNL     1      -1.188   7.263 -29.945  1.00  0.00     0.049 A 
HETATM    2  C   UNL     1      -2.562   7.061 -29.981  1.00  0.00     0.136 A 
HETATM    3  N   UNL     1      -3.199   6.329 -30.929  1.00  0.00    -0.236 NA
HETATM    4  C   UNL     1      -2.426   5.783 -31.896  1.00  0.00     0.169 A 
HETATM    5  C   UNL     1      -1.056   5.973 -31.984  1.00  0.00     0.059 A 
HETATM    6  C   UNL     1      -0.429   6.718 -30.986  1.00  0.00     0.023 A 
ENDROOT
BRANCH   4   7
HETATM    7  O   UNL     1      -3.021   5.044 -32.904  1.00  0.00    -0.292 OA
BRANCH   7   8
HETATM    8  C   UNL     1      -3.672   3.882 -32.556  1.00  0.00     0.078 A 
HETATM    9  C   UNL     1      -4.882   3.640 -33.212  1.00  0.00     0.040 A 
HETATM   10  C   UNL     1      -5.586   2.458 -32.975  1.00  0.00     0.040 A 
HETATM   11  C   UNL     1      -5.073   1.500 -32.098  1.00  0.00     0.076 A 
HETATM   12  C   UNL     1      -3.868   1.743 -31.433  1.00  0.00     0.040 A 
HETATM   13  C   UNL     1      -3.159   2.921 -31.679  1.00  0.00     0.040 A 
BRANCH  11  14
HETATM   14  O   UNL     1      -5.853   0.381 -31.900  1.00  0.00    -0.311 OA
BRANCH  14  15
HETATM   15  C   UNL     1      -5.782  -0.630 -32.828  1.00  0.00     0.076 A 
HETATM   16  C   UNL     1      -6.938  -0.910 -33.557  1.00  0.00     0.037 A 
HETATM   17  C   UNL     1      -6.917  -1.904 -34.536  1.00  0.00     0.003 A 
HETATM   18  C   UNL     1      -5.738  -2.603 -34.795  1.00  0.00     0.000 A 
HETATM   19  C   UNL     1      -4.575  -2.303 -34.084  1.00  0.00     0.003 A 
HETATM   20  C   UNL     1      -4.592  -1.308 -33.106  1.00  0.00     0.037 A 
ENDBRANCH  14  15
ENDBRANCH  11  14
ENDBRANCH   7   8
ENDBRANCH   4   7
BRANCH   1  21
HETATM   21  C   UNL     1      -0.499   8.030 -28.875  1.00  0.00     0.253 C 
HETATM   22  N   UNL     1       0.862   7.849 -28.734  1.00  0.00    -0.354 N 
HETATM   23  H   UNL     1       1.377   7.388 -29.471  1.00  0.00     0.162 HD
HETATM   24  O   UNL     1      -1.146   8.809 -28.184  1.00  0.00    -0.268 OA
BRANCH  22  25
HETATM   25  C   UNL     1       1.653   8.700 -27.856  1.00  0.00     0.154 C 
BRANCH  25  26
HETATM   26  C   UNL     1       1.842   8.199 -26.415  1.00  0.00     0.132 C 
HETATM   27  C   UNL     1       1.739   9.317 -25.386  1.00  0.00     0.041 C 
BRANCH  26  28
HETATM   28  O   UNL     1       0.816   7.240 -26.139  1.00  0.00    -0.394 OA
HETATM   29  H   UNL     1       0.155   7.686 -25.580  1.00  0.00     0.210 HD
ENDBRANCH  26  28
ENDBRANCH  25  26
ENDBRANCH  22  25
ENDBRANCH   1  21
TORSDOF 8
ENDMDL
MODEL 6
REMARK VINA RESULT:      -7.6      4.122      7.943
REMARK  8 active torsions:
REMARK  status: ('A' for Active; 'I' for Inactive)
REMARK    1  A    between atoms: C_2  and  O_3 
REMARK    2  A    between atoms: C_2  and  C_4 
REMARK    3  A    between atoms: C_4  and  N_5 
REMARK       I    between atoms: N_5  and  C_6 
REMARK    4  A    between atoms: C_6  and  C_7 
REMARK    5  A    between atoms: C_10  and  O_11 
REMARK    6  A    between atoms: O_11  and  C_12 
REMARK    7  A    between atoms: C_15  and  O_16 
REMARK    8  A    between atoms: O_16  and  C_17 
ROOT
HETATM    1  C   UNL     1      -9.838   2.705 -33.001  1.00  0.00     0.049 A 
HETATM    2  C   UNL     1      -8.656   2.842 -33.718  1.00  0.00     0.136 A 
HETATM    3  N   UNL     1      -7.424   2.879 -33.155  1.00  0.00    -0.236 NA
HETATM    4  C   UNL     1      -7.370   2.790 -31.806  1.00  0.00     0.169 A 
HETATM    5  C   UNL     1      -8.491   2.711 -30.995  1.00  0.00     0.059 A 
HETATM    6  C   UNL     1      -9.743   2.659 -31.606  1.00  0.00     0.023 A 
ENDROOT
BRANCH   4   7
HETATM    7  O   UNL     1      -6.141   2.845 -31.170  1.00  0.00    -0.292 OA
BRANCH   7   8
HETATM    8  C   UNL     1      -5.261   1.805 -31.371  1.00  0.00     0.078 A 
HETATM    9  C   UNL     1      -5.642   0.571 -30.839  1.00  0.00     0.040 A 
HETATM   10  C   UNL     1      -4.847  -0.558 -31.044  1.00  0.00     0.040 A 
HETATM   11  C   UNL     1      -3.678  -0.465 -31.802  1.00  0.00     0.076 A 
HETATM   12  C   UNL     1      -3.289   0.770 -32.327  1.00  0.00     0.040 A 
HETATM   13  C   UNL     1      -4.090   1.898 -32.130  1.00  0.00     0.040 A 
BRANCH  11  14
HETATM   14  O   UNL     1      -2.941  -1.623 -31.924  1.00  0.00    -0.311 OA
BRANCH  14  15
HETATM   15  C   UNL     1      -3.466  -2.651 -32.670  1.00  0.00     0.076 A 
HETATM   16  C   UNL     1      -4.255  -2.304 -33.767  1.00  0.00     0.037 A 
HETATM   17  C   UNL     1      -4.789  -3.304 -34.581  1.00  0.00     0.003 A 
HETATM   18  C   UNL     1      -4.520  -4.645 -34.305  1.00  0.00     0.000 A 
HETATM   19  C   UNL     1      -3.708  -4.988 -33.223  1.00  0.00     0.003 A 
HETATM   20  C   UNL     1      -3.170  -3.990 -32.409  1.00  0.00     0.037 A 
ENDBRANCH  14  15
ENDBRANCH  11  14
ENDBRANCH   7   8
ENDBRANCH   4   7
BRANCH   1  21
HETATM   21  C   UNL     1     -11.178   2.620 -33.637  1.00  0.00     0.253 C 
HETATM   22  N   UNL     1     -12.161   1.922 -32.963  1.00  0.00    -0.354 N 
HETATM   23  H   UNL     1     -12.019   1.682 -31.993  1.00  0.00     0.162 HD
HETATM   24  O   UNL     1     -11.373   3.189 -34.705  1.00  0.00    -0.268 OA
BRANCH  22  25
HETATM   25  C   UNL     1     -13.549   1.955 -33.403  1.00  0.00     0.154 C 
BRANCH  25  26
HETATM   26  C   UNL     1     -14.531   2.715 -32.497  1.00  0.00     0.132 C 
HETATM   27  C   UNL     1     -15.914   2.078 -32.465  1.00  0.00     0.041 C 
BRANCH  26  28
HETATM   28  O   UNL     1     -14.004   2.710 -31.166  1.00  0.00    -0.394 OA
HETATM   29  H   UNL     1     -14.528   2.067 -30.657  1.00  0.00     0.210 HD
ENDBRANCH  26  28
ENDBRANCH  25  26
ENDBRANCH  22  25
ENDBRANCH   1  21
TORSDOF 8
ENDMDL
MODEL 7
REMARK VINA RESULT:      -7.5      5.905      8.553
REMARK  8 active torsions:
REMARK  status: ('A' for Active; 'I' for Inactive)
REMARK    1  A    between atoms: C_2  and  O_3 
REMARK    2  A    between atoms: C_2  and  C_4 
REMARK    3  A    between atoms: C_4  and  N_5 
REMARK       I    between atoms: N_5  and  C_6 
REMARK    4  A    between atoms: C_6  and  C_7 
REMARK    5  A    between atoms: C_10  and  O_11 
REMARK    6  A    between atoms: O_11  and  C_12 
REMARK    7  A    between atoms: C_15  and  O_16 
REMARK    8  A    between atoms: O_16  and  C_17 
ROOT
HETATM    1  C   UNL     1     -11.333   5.172 -34.767  1.00  0.00     0.049 A 
HETATM    2  C   UNL     1     -10.395   4.930 -33.772  1.00  0.00     0.136 A 
HETATM    3  N   UNL     1     -10.145   3.707 -33.243  1.00  0.00    -0.236 NA
HETATM    4  C   UNL     1     -10.880   2.676 -33.721  1.00  0.00     0.169 A 
HETATM    5  C   UNL     1     -11.881   2.821 -34.668  1.00  0.00     0.059 A 
HETATM    6  C   UNL     1     -12.103   4.088 -35.204  1.00  0.00     0.023 A 
ENDROOT
BRANCH   4   7
HETATM    7  O   UNL     1     -10.687   1.406 -33.204  1.00  0.00    -0.292 OA
BRANCH   7   8
HETATM    8  C   UNL     1      -9.455   0.816 -33.380  1.00  0.00     0.078 A 
HETATM    9  C   UNL     1      -8.978   0.780 -34.692  1.00  0.00     0.040 A 
HETATM   10  C   UNL     1      -7.711   0.259 -34.965  1.00  0.00     0.040 A 
HETATM   11  C   UNL     1      -6.906  -0.208 -33.924  1.00  0.00     0.076 A 
HETATM   12  C   UNL     1      -7.385  -0.182 -32.611  1.00  0.00     0.040 A 
HETATM   13  C   UNL     1      -8.648   0.349 -32.338  1.00  0.00     0.040 A 
BRANCH  11  14
HETATM   14  O   UNL     1      -5.686  -0.735 -34.291  1.00  0.00    -0.311 OA
BRANCH  14  15
HETATM   15  C   UNL     1      -5.564  -2.102 -34.353  1.00  0.00     0.076 A 
HETATM   16  C   UNL     1      -6.675  -2.823 -34.793  1.00  0.00     0.037 A 
HETATM   17  C   UNL     1      -6.599  -4.211 -34.909  1.00  0.00     0.003 A 
HETATM   18  C   UNL     1      -5.410  -4.873 -34.600  1.00  0.00     0.000 A 
HETATM   19  C   UNL     1      -4.292  -4.147 -34.185  1.00  0.00     0.003 A 
HETATM   20  C   UNL     1      -4.363  -2.759 -34.072  1.00  0.00     0.037 A 
ENDBRANCH  14  15
ENDBRANCH  11  14
ENDBRANCH   7   8
ENDBRANCH   4   7
BRANCH   1  21
HETATM   21  C   UNL     1     -11.564   6.511 -35.369  1.00  0.00     0.253 C 
HETATM   22  N   UNL     1     -12.743   6.705 -36.061  1.00  0.00    -0.354 N 
HETATM   23  H   UNL     1     -13.490   6.033 -35.961  1.00  0.00     0.162 HD
HETATM   24  O   UNL     1     -10.729   7.393 -35.208  1.00  0.00    -0.268 OA
BRANCH  22  25
HETATM   25  C   UNL     1     -13.148   8.030 -36.510  1.00  0.00     0.154 C 
BRANCH  25  26
HETATM   26  C   UNL     1     -13.849   8.099 -37.877  1.00  0.00     0.132 C 
HETATM   27  C   UNL     1     -12.924   8.578 -38.988  1.00  0.00     0.041 C 
BRANCH  26  28
HETATM   28  O   UNL     1     -14.306   6.784 -38.209  1.00  0.00    -0.394 OA
HETATM   29  H   UNL     1     -13.524   6.275 -38.488  1.00  0.00     0.210 HD
ENDBRANCH  26  28
ENDBRANCH  25  26
ENDBRANCH  22  25
ENDBRANCH   1  21
TORSDOF 8
ENDMDL
MODEL 8
REMARK VINA RESULT:      -7.4      3.731      5.255
REMARK  8 active torsions:
REMARK  status: ('A' for Active; 'I' for Inactive)
REMARK    1  A    between atoms: C_2  and  O_3 
REMARK    2  A    between atoms: C_2  and  C_4 
REMARK    3  A    between atoms: C_4  and  N_5 
REMARK       I    between atoms: N_5  and  C_6 
REMARK    4  A    between atoms: C_6  and  C_7 
REMARK    5  A    between atoms: C_10  and  O_11 
REMARK    6  A    between atoms: O_11  and  C_12 
REMARK    7  A    between atoms: C_15  and  O_16 
REMARK    8  A    between atoms: O_16  and  C_17 
ROOT
HETATM    1  C   UNL     1      -3.519   3.460 -31.609  1.00  0.00     0.049 A 
HETATM    2  C   UNL     1      -3.670   2.270 -32.310  1.00  0.00     0.136 A 
HETATM    3  N   UNL     1      -4.737   1.443 -32.186  1.00  0.00    -0.236 NA
HETATM    4  C   UNL     1      -5.695   1.816 -31.307  1.00  0.00     0.169 A 
HETATM    5  C   UNL     1      -5.613   2.951 -30.516  1.00  0.00     0.059 A 
HETATM    6  C   UNL     1      -4.511   3.788 -30.679  1.00  0.00     0.023 A 
ENDROOT
BRANCH   4   7
HETATM    7  O   UNL     1      -6.799   1.001 -31.119  1.00  0.00    -0.292 OA
BRANCH   7   8
HETATM    8  C   UNL     1      -7.864   1.144 -31.980  1.00  0.00     0.078 A 
HETATM    9  C   UNL     1      -8.674   2.262 -31.769  1.00  0.00     0.040 A 
HETATM   10  C   UNL     1      -9.741   2.530 -32.629  1.00  0.00     0.040 A 
HETATM   11  C   UNL     1      -9.991   1.693 -33.718  1.00  0.00     0.076 A 
HETATM   12  C   UNL     1      -9.188   0.568 -33.927  1.00  0.00     0.040 A 
HETATM   13  C   UNL     1      -8.114   0.307 -33.072  1.00  0.00     0.040 A 
BRANCH  11  14
HETATM   14  O   UNL     1     -11.084   2.015 -34.492  1.00  0.00    -0.311 OA
BRANCH  14  15
HETATM   15  C   UNL     1     -12.336   1.761 -33.983  1.00  0.00     0.076 A 
HETATM   16  C   UNL     1     -13.031   2.838 -33.431  1.00  0.00     0.037 A 
HETATM   17  C   UNL     1     -14.318   2.647 -32.929  1.00  0.00     0.003 A 
HETATM   18  C   UNL     1     -14.913   1.387 -32.993  1.00  0.00     0.000 A 
HETATM   19  C   UNL     1     -14.226   0.317 -33.569  1.00  0.00     0.003 A 
HETATM   20  C   UNL     1     -12.939   0.505 -34.076  1.00  0.00     0.037 A 
ENDBRANCH  14  15
ENDBRANCH  11  14
ENDBRANCH   7   8
ENDBRANCH   4   7
BRANCH   1  21
HETATM   21  C   UNL     1      -2.366   4.378 -31.790  1.00  0.00     0.253 C 
HETATM   22  N   UNL     1      -1.961   5.118 -30.697  1.00  0.00    -0.354 N 
HETATM   23  H   UNL     1      -2.302   4.869 -29.779  1.00  0.00     0.162 HD
HETATM   24  O   UNL     1      -1.800   4.425 -32.876  1.00  0.00    -0.268 OA
BRANCH  22  25
HETATM   25  C   UNL     1      -0.726   5.888 -30.718  1.00  0.00     0.154 C 
BRANCH  25  26
HETATM   26  C   UNL     1       0.434   5.335 -29.873  1.00  0.00     0.132 C 
HETATM   27  C   UNL     1       0.486   5.943 -28.478  1.00  0.00     0.041 C 
BRANCH  26  28
HETATM   28  O   UNL     1       0.252   3.922 -29.739  1.00  0.00    -0.394 OA
HETATM   29  H   UNL     1      -0.688   3.776 -29.535  1.00  0.00     0.210 HD
ENDBRANCH  26  28
ENDBRANCH  25  26
ENDBRANCH  22  25
ENDBRANCH   1  21
TORSDOF 8
ENDMDL
MODEL 9
REMARK VINA RESULT:      -7.4      4.097      9.490
REMARK  8 active torsions:
REMARK  status: ('A' for Active; 'I' for Inactive)
REMARK    1  A    between atoms: C_2  and  O_3 
REMARK    2  A    between atoms: C_2  and  C_4 
REMARK    3  A    between atoms: C_4  and  N_5 
REMARK       I    between atoms: N_5  and  C_6 
REMARK    4  A    between atoms: C_6  and  C_7 
REMARK    5  A    between atoms: C_10  and  O_11 
REMARK    6  A    between atoms: O_11  and  C_12 
REMARK    7  A    between atoms: C_15  and  O_16 
REMARK    8  A    between atoms: O_16  and  C_17 
ROOT
HETATM    1  C   UNL     1     -10.070   1.253 -33.385  1.00  0.00     0.049 A 
HETATM    2  C   UNL     1      -8.951   1.509 -34.167  1.00  0.00     0.136 A 
HETATM    3  N   UNL     1      -7.696   1.102 -33.854  1.00  0.00    -0.236 NA
HETATM    4  C   UNL     1      -7.550   0.418 -32.696  1.00  0.00     0.169 A 
HETATM    5  C   UNL     1      -8.591   0.163 -31.817  1.00  0.00     0.059 A 
HETATM    6  C   UNL     1      -9.871   0.581 -32.175  1.00  0.00     0.023 A 
ENDROOT
BRANCH   4   7
HETATM    7  O   UNL     1      -6.288  -0.004 -32.311  1.00  0.00    -0.292 OA
BRANCH   7   8
HETATM    8  C   UNL     1      -5.352   0.955 -31.999  1.00  0.00     0.078 A 
HETATM    9  C   UNL     1      -4.098   0.801 -32.595  1.00  0.00     0.040 A 
HETATM   10  C   UNL     1      -3.100   1.756 -32.392  1.00  0.00     0.040 A 
HETATM   11  C   UNL     1      -3.358   2.883 -31.608  1.00  0.00     0.076 A 
HETATM   12  C   UNL     1      -4.608   3.035 -31.002  1.00  0.00     0.040 A 
HETATM   13  C   UNL     1      -5.609   2.084 -31.215  1.00  0.00     0.040 A 
BRANCH  11  14
HETATM   14  O   UNL     1      -2.304   3.754 -31.435  1.00  0.00    -0.311 OA
BRANCH  14  15
HETATM   15  C   UNL     1      -2.221   4.844 -32.270  1.00  0.00     0.076 A 
HETATM   16  C   UNL     1      -2.595   6.081 -31.744  1.00  0.00     0.037 A 
HETATM   17  C   UNL     1      -2.500   7.227 -32.534  1.00  0.00     0.003 A 
HETATM   18  C   UNL     1      -2.017   7.136 -33.839  1.00  0.00     0.000 A 
HETATM   19  C   UNL     1      -1.618   5.902 -34.354  1.00  0.00     0.003 A 
HETATM   20  C   UNL     1      -1.708   4.754 -33.566  1.00  0.00     0.037 A 
ENDBRANCH  14  15
ENDBRANCH  11  14
ENDBRANCH   7   8
ENDBRANCH   4   7
BRANCH   1  21
HETATM   21  C   UNL     1     -11.447   1.666 -33.764  1.00  0.00     0.253 C 
HETATM   22  N   UNL     1     -12.151   2.441 -32.864  1.00  0.00    -0.354 N 
HETATM   23  H   UNL     1     -11.659   2.878 -32.098  1.00  0.00     0.162 HD
HETATM   24  O   UNL     1     -11.893   1.337 -34.857  1.00  0.00    -0.268 OA
BRANCH  22  25
HETATM   25  C   UNL     1     -13.418   3.060 -33.227  1.00  0.00     0.154 C 
BRANCH  25  26
HETATM   26  C   UNL     1     -14.440   3.233 -32.091  1.00  0.00     0.132 C 
HETATM   27  C   UNL     1     -15.469   2.112 -32.049  1.00  0.00     0.041 C 
BRANCH  26  28
HETATM   28  O   UNL     1     -13.727   3.233 -30.849  1.00  0.00    -0.394 OA
HETATM   29  H   UNL     1     -12.787   3.367 -31.062  1.00  0.00     0.210 HD
ENDBRANCH  26  28
ENDBRANCH  25  26
ENDBRANCH  22  25
ENDBRANCH   1  21
TORSDOF 8
ENDMDL
MODEL 10
REMARK VINA RESULT:      -7.2      4.175      9.889
REMARK  8 active torsions:
REMARK  status: ('A' for Active; 'I' for Inactive)
REMARK    1  A    between atoms: C_2  and  O_3 
REMARK    2  A    between atoms: C_2  and  C_4 
REMARK    3  A    between atoms: C_4  and  N_5 
REMARK       I    between atoms: N_5  and  C_6 
REMARK    4  A    between atoms: C_6  and  C_7 
REMARK    5  A    between atoms: C_10  and  O_11 
REMARK    6  A    between atoms: O_11  and  C_12 
REMARK    7  A    between atoms: C_15  and  O_16 
REMARK    8  A    between atoms: O_16  and  C_17 
ROOT
HETATM    1  C   UNL     1      -8.197   3.625 -33.162  1.00  0.00     0.049 A 
HETATM    2  C   UNL     1      -8.007   4.960 -32.831  1.00  0.00     0.136 A 
HETATM    3  N   UNL     1      -6.909   5.680 -33.172  1.00  0.00    -0.236 NA
HETATM    4  C   UNL     1      -5.948   5.029 -33.866  1.00  0.00     0.169 A 
HETATM    5  C   UNL     1      -6.013   3.684 -34.195  1.00  0.00     0.059 A 
HETATM    6  C   UNL     1      -7.161   2.976 -33.843  1.00  0.00     0.023 A 
ENDROOT
BRANCH   4   7
HETATM    7  O   UNL     1      -4.793   5.705 -34.224  1.00  0.00    -0.292 OA
BRANCH   7   8
HETATM    8  C   UNL     1      -3.657   5.485 -33.477  1.00  0.00     0.078 A 
HETATM    9  C   UNL     1      -2.489   5.240 -34.202  1.00  0.00     0.040 A 
HETATM   10  C   UNL     1      -1.272   5.069 -33.537  1.00  0.00     0.040 A 
HETATM   11  C   UNL     1      -1.214   5.163 -32.145  1.00  0.00     0.076 A 
HETATM   12  C   UNL     1      -2.383   5.398 -31.417  1.00  0.00     0.040 A 
HETATM   13  C   UNL     1      -3.598   5.580 -32.083  1.00  0.00     0.040 A 
BRANCH  11  14
HETATM   14  O   UNL     1       0.021   4.946 -31.574  1.00  0.00    -0.311 OA
BRANCH  14  15
HETATM   15  C   UNL     1       0.329   5.625 -30.419  1.00  0.00     0.076 A 
HETATM   16  C   UNL     1       0.296   7.019 -30.469  1.00  0.00     0.037 A 
HETATM   17  C   UNL     1       0.567   7.760 -29.319  1.00  0.00     0.003 A 
HETATM   18  C   UNL     1       0.854   7.108 -28.120  1.00  0.00     0.000 A 
HETATM   19  C   UNL     1       0.859   5.713 -28.065  1.00  0.00     0.003 A 
HETATM   20  C   UNL     1       0.585   4.968 -29.213  1.00  0.00     0.037 A 
ENDBRANCH  14  15
ENDBRANCH  11  14
ENDBRANCH   7   8
ENDBRANCH   4   7
BRANCH   1  21
HETATM   21  C   UNL     1      -9.425   2.862 -32.821  1.00  0.00     0.253 C 
HETATM   22  N   UNL     1     -10.052   2.170 -33.839  1.00  0.00    -0.354 N 
HETATM   23  H   UNL     1      -9.561   2.023 -34.710  1.00  0.00     0.162 HD
HETATM   24  O   UNL     1      -9.818   2.846 -31.660  1.00  0.00    -0.268 OA
BRANCH  22  25
HETATM   25  C   UNL     1     -11.136   1.238 -33.566  1.00  0.00     0.154 C 
BRANCH  25  26
HETATM   26  C   UNL     1     -12.562   1.794 -33.707  1.00  0.00     0.132 C 
HETATM   27  C   UNL     1     -13.149   1.565 -35.093  1.00  0.00     0.041 C 
BRANCH  26  28
HETATM   28  O   UNL     1     -13.396   1.127 -32.752  1.00  0.00    -0.394 OA
HETATM   29  H   UNL     1     -13.130   0.191 -32.750  1.00  0.00     0.210 HD
ENDBRANCH  26  28
ENDBRANCH  25  26
ENDBRANCH  22  25
ENDBRANCH   1  21
TORSDOF 8
ENDMDL
