MODEL 1
REMARK VINA RESULT:      -8.2      0.000      0.000
REMARK  10 active torsions:
REMARK  status: ('A' for Active; 'I' for Inactive)
REMARK    1  A    between atoms: C_2  and  C_3 
REMARK    2  A    between atoms: C_3  and  C_4 
REMARK    3  A    between atoms: N_7  and  C_9 
REMARK    4  A    between atoms: C_9  and  C_10 
REMARK    5  A    between atoms: C_11  and  O_12 
REMARK    6  A    between atoms: C_13  and  O_14 
REMARK    7  A    between atoms: O_14  and  C_15 
REMARK    8  A    between atoms: N_25  and  C_26 
REMARK    9  A    between atoms: C_26  and  C_27 
REMARK   10  A    between atoms: C_27  and  C_28 
ROOT
HETATM    1  C   UNL     1      -5.292   2.716 -30.153  1.00  0.00     0.026 C 
HETATM    2  C   UNL     1      -4.150   2.488 -31.165  1.00  0.00     0.035 C 
HETATM    3  C   UNL     1      -4.606   1.991 -32.527  1.00  0.00     0.235 C 
HETATM    4  N   UNL     1      -5.494   0.785 -32.403  1.00  0.00    -0.067 N 
HETATM    5  H   UNL     1      -4.885  -0.023 -32.182  1.00  0.00     0.280 HD
HETATM    6  C   UNL     1      -6.566   0.838 -31.355  1.00  0.00     0.235 C 
HETATM    7  C   UNL     1      -6.049   1.383 -30.031  1.00  0.00     0.035 C 
ENDROOT
BRANCH   1   8
HETATM    8  C   UNL     1      -6.197   3.977 -30.400  1.00  0.00     0.119 A 
HETATM    9  N   UNL     1      -6.429   4.239 -31.801  1.00  0.00    -0.324 N 
HETATM   10  C   UNL     1      -5.941   5.469 -32.192  1.00  0.00     0.326 A 
HETATM   11  H   UNL     1      -7.215   3.887 -32.336  1.00  0.00     0.165 HD
HETATM   12  O   UNL     1      -6.091   5.877 -33.328  1.00  0.00    -0.247 OA
HETATM   13  N   UNL     1      -5.292   6.041 -31.147  1.00  0.00    -0.268 N 
HETATM   14  C   UNL     1      -5.413   5.254 -30.030  1.00  0.00     0.256 A 
HETATM   15  O   UNL     1      -4.943   5.485 -28.926  1.00  0.00    -0.270 OA
BRANCH   8  16
HETATM   16  C   UNL     1      -7.523   3.910 -29.613  1.00  0.00     0.037 C 
HETATM   17  C   UNL     1      -8.784   3.789 -30.468  1.00  0.00     0.008 C 
ENDBRANCH   8  16
BRANCH  13  18
HETATM   18  C   UNL     1      -4.523   7.280 -31.139  1.00  0.00     0.142 C 
BRANCH  18  19
HETATM   19  C   UNL     1      -3.293   7.331 -32.048  1.00  0.00     0.068 C 
BRANCH  19  20
HETATM   20  C   UNL     1      -2.226   6.394 -31.571  1.00  0.00     0.010 A 
HETATM   21  S   UNL     1      -1.399   6.692 -30.093  1.00  0.00    -0.085 SA
HETATM   22  C   UNL     1      -0.472   5.276 -30.342  1.00  0.00     0.166 A 
HETATM   23  N   UNL     1      -0.732   4.606 -31.442  1.00  0.00    -0.258 NA
HETATM   24  C   UNL     1      -1.742   5.233 -32.151  1.00  0.00     0.044 A 
HETATM   25  C   UNL     1      -2.188   4.615 -33.430  1.00  0.00     0.071 C 
ENDBRANCH  19  20
ENDBRANCH  18  19
ENDBRANCH  13  18
ENDBRANCH   1   8
BRANCH   4  26
HETATM   26  C   UNL     1      -6.099   0.419 -33.748  1.00  0.00     0.276 C 
BRANCH  26  27
HETATM   27  C   UNL     1      -5.969  -1.029 -34.116  1.00  0.00     0.004 A 
HETATM   28  C   UNL     1      -4.732  -1.672 -34.049  1.00  0.00     0.107 A 
HETATM   29  C   UNL     1      -4.627  -3.050 -34.241  1.00  0.00     0.102 A 
HETATM   30  C   UNL     1      -5.744  -3.796 -34.597  1.00  0.00     0.039 A 
HETATM   31  C   UNL     1      -6.982  -3.162 -34.709  1.00  0.00     0.003 A 
HETATM   32  C   UNL     1      -7.099  -1.792 -34.452  1.00  0.00     0.012 A 
BRANCH  28  33
HETATM   33  O   UNL     1      -3.606  -0.926 -33.805  1.00  0.00    -0.357 OA
HETATM   34  H   UNL     1      -3.942  -0.088 -33.415  1.00  0.00     0.218 HD
ENDBRANCH  28  33
BRANCH  29  35
HETATM   35  O   UNL     1      -3.409  -3.654 -34.097  1.00  0.00    -0.349 OA
BRANCH  35  36
HETATM   36  C   UNL     1      -3.397  -4.503 -32.936  1.00  0.00     0.171 C 
HETATM   37  C   UNL     1      -2.940  -3.713 -31.726  1.00  0.00     0.034 C 
ENDBRANCH  35  36
ENDBRANCH  29  35
ENDBRANCH  26  27
ENDBRANCH   4  26
TORSDOF 10
ENDMDL
MODEL 2
REMARK VINA RESULT:      -8.0      3.872      8.855
REMARK  10 active torsions:
REMARK  status: ('A' for Active; 'I' for Inactive)
REMARK    1  A    between atoms: C_2  and  C_3 
REMARK    2  A    between atoms: C_3  and  C_4 
REMARK    3  A    between atoms: N_7  and  C_9 
REMARK    4  A    between atoms: C_9  and  C_10 
REMARK    5  A    between atoms: C_11  and  O_12 
REMARK    6  A    between atoms: C_13  and  O_14 
REMARK    7  A    between atoms: O_14  and  C_15 
REMARK    8  A    between atoms: N_25  and  C_26 
REMARK    9  A    between atoms: C_26  and  C_27 
REMARK   10  A    between atoms: C_27  and  C_28 
ROOT
HETATM    1  C   UNL     1      -5.034   1.469 -30.985  1.00  0.00     0.026 C 
HETATM    2  C   UNL     1      -5.507   2.647 -30.107  1.00  0.00     0.035 C 
HETATM    3  C   UNL     1      -5.140   4.019 -30.646  1.00  0.00     0.235 C 
HETATM    4  N   UNL     1      -3.675   4.111 -30.964  1.00  0.00    -0.067 N 
HETATM    5  H   UNL     1      -3.170   4.201 -30.064  1.00  0.00     0.280 HD
HETATM    6  C   UNL     1      -3.069   2.957 -31.705  1.00  0.00     0.235 C 
HETATM    7  C   UNL     1      -3.511   1.614 -31.138  1.00  0.00     0.035 C 
ENDROOT
BRANCH   1   8
HETATM    8  C   UNL     1      -5.822   1.242 -32.326  1.00  0.00     0.119 A 
HETATM    9  N   UNL     1      -6.007   2.458 -33.083  1.00  0.00    -0.324 N 
HETATM   10  C   UNL     1      -7.340   2.771 -33.253  1.00  0.00     0.326 A 
HETATM   11  H   UNL     1      -5.381   2.794 -33.806  1.00  0.00     0.165 HD
HETATM   12  O   UNL     1      -7.685   3.736 -33.907  1.00  0.00    -0.247 OA
HETATM   13  N   UNL     1      -8.097   1.878 -32.565  1.00  0.00    -0.268 N 
HETATM   14  C   UNL     1      -7.296   0.914 -32.009  1.00  0.00     0.256 A 
HETATM   15  O   UNL     1      -7.665  -0.032 -31.328  1.00  0.00    -0.270 OA
BRANCH   8  16
HETATM   16  C   UNL     1      -5.194   0.130 -33.193  1.00  0.00     0.037 C 
HETATM   17  C   UNL     1      -6.078  -0.392 -34.325  1.00  0.00     0.008 C 
ENDBRANCH   8  16
BRANCH  13  18
HETATM   18  C   UNL     1      -9.540   1.893 -32.364  1.00  0.00     0.142 C 
BRANCH  18  19
HETATM   19  C   UNL     1     -10.351   0.843 -33.126  1.00  0.00     0.068 C 
BRANCH  19  20
HETATM   20  C   UNL     1     -11.430   1.481 -33.948  1.00  0.00     0.010 A 
HETATM   21  S   UNL     1     -11.148   2.976 -34.748  1.00  0.00    -0.085 SA
HETATM   22  C   UNL     1     -12.746   2.936 -35.357  1.00  0.00     0.166 A 
HETATM   23  N   UNL     1     -13.469   1.898 -35.003  1.00  0.00    -0.258 NA
HETATM   24  C   UNL     1     -12.722   1.051 -34.201  1.00  0.00     0.044 A 
HETATM   25  C   UNL     1     -13.367  -0.195 -33.705  1.00  0.00     0.071 C 
ENDBRANCH  19  20
ENDBRANCH  18  19
ENDBRANCH  13  18
ENDBRANCH   1   8
BRANCH   4  26
HETATM   26  C   UNL     1      -3.358   5.413 -31.682  1.00  0.00     0.276 C 
BRANCH  26  27
HETATM   27  C   UNL     1      -2.102   6.089 -31.219  1.00  0.00     0.004 A 
HETATM   28  C   UNL     1      -1.965   6.507 -29.894  1.00  0.00     0.107 A 
HETATM   29  C   UNL     1      -0.749   6.996 -29.418  1.00  0.00     0.102 A 
HETATM   30  C   UNL     1       0.327   7.167 -30.282  1.00  0.00     0.039 A 
HETATM   31  C   UNL     1       0.194   6.793 -31.619  1.00  0.00     0.003 A 
HETATM   32  C   UNL     1      -1.005   6.240 -32.082  1.00  0.00     0.012 A 
BRANCH  28  33
HETATM   33  O   UNL     1      -3.053   6.445 -29.060  1.00  0.00    -0.357 OA
HETATM   34  H   UNL     1      -2.726   6.786 -28.198  1.00  0.00     0.218 HD
ENDBRANCH  28  33
BRANCH  29  35
HETATM   35  O   UNL     1      -0.633   7.329 -28.096  1.00  0.00    -0.349 OA
BRANCH  35  36
HETATM   36  C   UNL     1       0.386   6.537 -27.461  1.00  0.00     0.171 C 
HETATM   37  C   UNL     1       1.362   7.442 -26.736  1.00  0.00     0.034 C 
ENDBRANCH  35  36
ENDBRANCH  29  35
ENDBRANCH  26  27
ENDBRANCH   4  26
TORSDOF 10
ENDMDL
MODEL 3
REMARK VINA RESULT:      -7.8      3.148      5.092
REMARK  10 active torsions:
REMARK  status: ('A' for Active; 'I' for Inactive)
REMARK    1  A    between atoms: C_2  and  C_3 
REMARK    2  A    between atoms: C_3  and  C_4 
REMARK    3  A    between atoms: N_7  and  C_9 
REMARK    4  A    between atoms: C_9  and  C_10 
REMARK    5  A    between atoms: C_11  and  O_12 
REMARK    6  A    between atoms: C_13  and  O_14 
REMARK    7  A    between atoms: O_14  and  C_15 
REMARK    8  A    between atoms: N_25  and  C_26 
REMARK    9  A    between atoms: C_26  and  C_27 
REMARK   10  A    between atoms: C_27  and  C_28 
ROOT
HETATM    1  C   UNL     1      -2.730   6.065 -32.826  1.00  0.00     0.026 C 
HETATM    2  C   UNL     1      -4.250   5.996 -32.565  1.00  0.00     0.035 C 
HETATM    3  C   UNL     1      -4.682   4.852 -31.662  1.00  0.00     0.235 C 
HETATM    4  N   UNL     1      -4.137   3.537 -32.142  1.00  0.00    -0.067 N 
HETATM    5  H   UNL     1      -4.697   3.255 -32.966  1.00  0.00     0.280 HD
HETATM    6  C   UNL     1      -2.694   3.511 -32.552  1.00  0.00     0.235 C 
HETATM    7  C   UNL     1      -2.321   4.706 -33.420  1.00  0.00     0.035 C 
ENDROOT
BRANCH   1   8
HETATM    8  C   UNL     1      -1.842   6.565 -31.630  1.00  0.00     0.119 A 
HETATM    9  N   UNL     1      -2.292   6.073 -30.349  1.00  0.00    -0.324 N 
HETATM   10  C   UNL     1      -2.658   7.094 -29.496  1.00  0.00     0.326 A 
HETATM   11  H   UNL     1      -1.963   5.224 -29.903  1.00  0.00     0.165 HD
HETATM   12  O   UNL     1      -3.018   6.867 -28.356  1.00  0.00    -0.247 OA
HETATM   13  N   UNL     1      -2.574   8.277 -30.156  1.00  0.00    -0.268 N 
HETATM   14  C   UNL     1      -2.070   8.077 -31.416  1.00  0.00     0.256 A 
HETATM   15  O   UNL     1      -1.872   8.935 -32.263  1.00  0.00    -0.270 OA
BRANCH   8  16
HETATM   16  C   UNL     1      -0.343   6.270 -31.850  1.00  0.00     0.037 C 
HETATM   17  C   UNL     1       0.313   5.393 -30.785  1.00  0.00     0.008 C 
ENDBRANCH   8  16
BRANCH  13  18
HETATM   18  C   UNL     1      -2.978   9.597 -29.687  1.00  0.00     0.142 C 
BRANCH  18  19
HETATM   19  C   UNL     1      -1.896  10.450 -29.023  1.00  0.00     0.068 C 
BRANCH  19  20
HETATM   20  C   UNL     1      -1.534   9.913 -27.671  1.00  0.00     0.010 A 
HETATM   21  S   UNL     1      -2.466  10.332 -26.289  1.00  0.00    -0.085 SA
HETATM   22  C   UNL     1      -1.431   9.375 -25.319  1.00  0.00     0.166 A 
HETATM   23  N   UNL     1      -0.446   8.776 -25.948  1.00  0.00    -0.258 NA
HETATM   24  C   UNL     1      -0.500   9.070 -27.300  1.00  0.00     0.044 A 
HETATM   25  C   UNL     1       0.532   8.471 -28.190  1.00  0.00     0.071 C 
ENDBRANCH  19  20
ENDBRANCH  18  19
ENDBRANCH  13  18
ENDBRANCH   1   8
BRANCH   4  26
HETATM   26  C   UNL     1      -4.409   2.437 -31.130  1.00  0.00     0.276 C 
BRANCH  26  27
HETATM   27  C   UNL     1      -4.356   1.047 -31.692  1.00  0.00     0.004 A 
HETATM   28  C   UNL     1      -5.218   0.662 -32.720  1.00  0.00     0.107 A 
HETATM   29  C   UNL     1      -5.075  -0.573 -33.352  1.00  0.00     0.102 A 
HETATM   30  C   UNL     1      -4.130  -1.487 -32.903  1.00  0.00     0.039 A 
HETATM   31  C   UNL     1      -3.287  -1.135 -31.848  1.00  0.00     0.003 A 
HETATM   32  C   UNL     1      -3.386   0.130 -31.258  1.00  0.00     0.012 A 
BRANCH  28  33
HETATM   33  O   UNL     1      -6.225   1.514 -33.099  1.00  0.00    -0.357 OA
HETATM   34  H   UNL     1      -7.047   1.098 -32.753  1.00  0.00     0.218 HD
ENDBRANCH  28  33
BRANCH  29  35
HETATM   35  O   UNL     1      -5.893  -0.885 -34.403  1.00  0.00    -0.349 OA
BRANCH  35  36
HETATM   36  C   UNL     1      -6.840  -1.900 -34.026  1.00  0.00     0.171 C 
HETATM   37  C   UNL     1      -6.607  -3.151 -34.849  1.00  0.00     0.034 C 
ENDBRANCH  35  36
ENDBRANCH  29  35
ENDBRANCH  26  27
ENDBRANCH   4  26
TORSDOF 10
ENDMDL
MODEL 4
REMARK VINA RESULT:      -7.7      1.600      2.012
REMARK  10 active torsions:
REMARK  status: ('A' for Active; 'I' for Inactive)
REMARK    1  A    between atoms: C_2  and  C_3 
REMARK    2  A    between atoms: C_3  and  C_4 
REMARK    3  A    between atoms: N_7  and  C_9 
REMARK    4  A    between atoms: C_9  and  C_10 
REMARK    5  A    between atoms: C_11  and  O_12 
REMARK    6  A    between atoms: C_13  and  O_14 
REMARK    7  A    between atoms: O_14  and  C_15 
REMARK    8  A    between atoms: N_25  and  C_26 
REMARK    9  A    between atoms: C_26  and  C_27 
REMARK   10  A    between atoms: C_27  and  C_28 
ROOT
HETATM    1  C   UNL     1      -8.006   2.098 -31.087  1.00  0.00     0.026 C 
HETATM    2  C   UNL     1      -6.541   1.613 -31.046  1.00  0.00     0.035 C 
HETATM    3  C   UNL     1      -6.020   1.075 -32.369  1.00  0.00     0.235 C 
HETATM    4  N   UNL     1      -6.939   0.033 -32.939  1.00  0.00    -0.067 N 
HETATM    5  H   UNL     1      -6.794  -0.836 -32.394  1.00  0.00     0.280 HD
HETATM    6  C   UNL     1      -8.407   0.338 -32.914  1.00  0.00     0.235 C 
HETATM    7  C   UNL     1      -8.852   0.910 -31.574  1.00  0.00     0.035 C 
ENDROOT
BRANCH   1   8
HETATM    8  C   UNL     1      -8.266   3.456 -31.836  1.00  0.00     0.119 A 
HETATM    9  N   UNL     1      -7.632   3.516 -33.131  1.00  0.00    -0.324 N 
HETATM   10  C   UNL     1      -6.708   4.537 -33.214  1.00  0.00     0.326 A 
HETATM   11  H   UNL     1      -8.068   3.245 -34.006  1.00  0.00     0.165 HD
HETATM   12  O   UNL     1      -6.110   4.767 -34.249  1.00  0.00    -0.247 OA
HETATM   13  N   UNL     1      -6.597   5.136 -32.001  1.00  0.00    -0.268 N 
HETATM   14  C   UNL     1      -7.501   4.591 -31.125  1.00  0.00     0.256 A 
HETATM   15  O   UNL     1      -7.656   4.906 -29.954  1.00  0.00    -0.270 OA
BRANCH   8  16
HETATM   16  C   UNL     1      -9.770   3.793 -31.929  1.00  0.00     0.037 C 
HETATM   17  C   UNL     1     -10.292   4.058 -33.341  1.00  0.00     0.008 C 
ENDBRANCH   8  16
BRANCH  13  18
HETATM   18  C   UNL     1      -5.659   6.176 -31.596  1.00  0.00     0.142 C 
BRANCH  18  19
HETATM   19  C   UNL     1      -4.328   5.708 -31.006  1.00  0.00     0.068 C 
BRANCH  19  20
HETATM   20  C   UNL     1      -3.243   5.714 -32.041  1.00  0.00     0.010 A 
HETATM   21  S   UNL     1      -2.508   7.191 -32.525  1.00  0.00    -0.085 SA
HETATM   22  C   UNL     1      -1.512   6.322 -33.611  1.00  0.00     0.166 A 
HETATM   23  N   UNL     1      -1.692   5.021 -33.640  1.00  0.00    -0.258 NA
HETATM   24  C   UNL     1      -2.677   4.659 -32.737  1.00  0.00     0.044 A 
HETATM   25  C   UNL     1      -3.020   3.216 -32.613  1.00  0.00     0.071 C 
ENDBRANCH  19  20
ENDBRANCH  18  19
ENDBRANCH  13  18
ENDBRANCH   1   8
BRANCH   4  26
HETATM   26  C   UNL     1      -6.513  -0.353 -34.346  1.00  0.00     0.276 C 
BRANCH  26  27
HETATM   27  C   UNL     1      -6.180  -1.804 -34.520  1.00  0.00     0.004 A 
HETATM   28  C   UNL     1      -4.880  -2.268 -34.308  1.00  0.00     0.107 A 
HETATM   29  C   UNL     1      -4.594  -3.632 -34.317  1.00  0.00     0.102 A 
HETATM   30  C   UNL     1      -5.583  -4.556 -34.634  1.00  0.00     0.039 A 
HETATM   31  C   UNL     1      -6.879  -4.107 -34.890  1.00  0.00     0.003 A 
HETATM   32  C   UNL     1      -7.181  -2.743 -34.816  1.00  0.00     0.012 A 
BRANCH  28  33
HETATM   33  O   UNL     1      -3.875  -1.357 -34.101  1.00  0.00    -0.357 OA
HETATM   34  H   UNL     1      -3.164  -1.867 -33.652  1.00  0.00     0.218 HD
ENDBRANCH  28  33
BRANCH  29  35
HETATM   35  O   UNL     1      -3.323  -4.051 -34.034  1.00  0.00    -0.349 OA
BRANCH  35  36
HETATM   36  C   UNL     1      -3.268  -4.667 -32.735  1.00  0.00     0.171 C 
HETATM   37  C   UNL     1      -2.847  -3.645 -31.699  1.00  0.00     0.034 C 
ENDBRANCH  35  36
ENDBRANCH  29  35
ENDBRANCH  26  27
ENDBRANCH   4  26
TORSDOF 10
ENDMDL
MODEL 5
REMARK VINA RESULT:      -7.7      4.254      8.729
REMARK  10 active torsions:
REMARK  status: ('A' for Active; 'I' for Inactive)
REMARK    1  A    between atoms: C_2  and  C_3 
REMARK    2  A    between atoms: C_3  and  C_4 
REMARK    3  A    between atoms: N_7  and  C_9 
REMARK    4  A    between atoms: C_9  and  C_10 
REMARK    5  A    between atoms: C_11  and  O_12 
REMARK    6  A    between atoms: C_13  and  O_14 
REMARK    7  A    between atoms: O_14  and  C_15 
REMARK    8  A    between atoms: N_25  and  C_26 
REMARK    9  A    between atoms: C_26  and  C_27 
REMARK   10  A    between atoms: C_27  and  C_28 
ROOT
HETATM    1  C   UNL     1      -6.176   1.781 -31.377  1.00  0.00     0.026 C 
HETATM    2  C   UNL     1      -5.837   3.219 -30.930  1.00  0.00     0.035 C 
HETATM    3  C   UNL     1      -4.821   3.928 -31.811  1.00  0.00     0.235 C 
HETATM    4  N   UNL     1      -3.586   3.096 -32.004  1.00  0.00    -0.067 N 
HETATM    5  H   UNL     1      -3.038   3.151 -31.126  1.00  0.00     0.280 HD
HETATM    6  C   UNL     1      -3.789   1.642 -32.314  1.00  0.00     0.235 C 
HETATM    7  C   UNL     1      -4.848   1.007 -31.423  1.00  0.00     0.035 C 
ENDROOT
BRANCH   1   8
HETATM    8  C   UNL     1      -7.073   1.646 -32.660  1.00  0.00     0.119 A 
HETATM    9  N   UNL     1      -7.084   2.842 -33.469  1.00  0.00    -0.324 N 
HETATM   10  C   UNL     1      -8.347   3.385 -33.584  1.00  0.00     0.326 A 
HETATM   11  H   UNL     1      -6.454   3.029 -34.241  1.00  0.00     0.165 HD
HETATM   12  O   UNL     1      -8.553   4.369 -34.268  1.00  0.00    -0.247 OA
HETATM   13  N   UNL     1      -9.207   2.674 -32.811  1.00  0.00    -0.268 N 
HETATM   14  C   UNL     1      -8.560   1.605 -32.248  1.00  0.00     0.256 A 
HETATM   15  O   UNL     1      -9.050   0.771 -31.500  1.00  0.00    -0.270 OA
BRANCH   8  16
HETATM   16  C   UNL     1      -6.710   0.403 -33.500  1.00  0.00     0.037 C 
HETATM   17  C   UNL     1      -6.861   0.570 -35.012  1.00  0.00     0.008 C 
ENDBRANCH   8  16
BRANCH  13  18
HETATM   18  C   UNL     1     -10.610   2.960 -32.535  1.00  0.00     0.142 C 
BRANCH  18  19
HETATM   19  C   UNL     1     -11.606   2.668 -33.659  1.00  0.00     0.068 C 
BRANCH  19  20
HETATM   20  C   UNL     1     -12.996   2.506 -33.124  1.00  0.00     0.010 A 
HETATM   21  S   UNL     1     -13.696   3.722 -32.131  1.00  0.00    -0.085 SA
HETATM   22  C   UNL     1     -15.121   2.783 -32.009  1.00  0.00     0.166 A 
HETATM   23  N   UNL     1     -15.108   1.635 -32.648  1.00  0.00    -0.258 NA
HETATM   24  C   UNL     1     -13.897   1.469 -33.299  1.00  0.00     0.044 A 
HETATM   25  C   UNL     1     -13.693   0.226 -34.092  1.00  0.00     0.071 C 
ENDBRANCH  19  20
ENDBRANCH  18  19
ENDBRANCH  13  18
ENDBRANCH   1   8
BRANCH   4  26
HETATM   26  C   UNL     1      -2.666   3.724 -33.038  1.00  0.00     0.276 C 
BRANCH  26  27
HETATM   27  C   UNL     1      -2.137   5.075 -32.662  1.00  0.00     0.004 A 
HETATM   28  C   UNL     1      -1.296   5.229 -31.558  1.00  0.00     0.107 A 
HETATM   29  C   UNL     1      -0.678   6.450 -31.290  1.00  0.00     0.102 A 
HETATM   30  C   UNL     1      -0.965   7.567 -32.066  1.00  0.00     0.039 A 
HETATM   31  C   UNL     1      -1.836   7.442 -33.148  1.00  0.00     0.003 A 
HETATM   32  C   UNL     1      -2.404   6.201 -33.457  1.00  0.00     0.012 A 
BRANCH  28  33
HETATM   33  O   UNL     1      -1.092   4.159 -30.723  1.00  0.00    -0.357 OA
HETATM   34  H   UNL     1      -0.261   3.744 -31.047  1.00  0.00     0.218 HD
ENDBRANCH  28  33
BRANCH  29  35
HETATM   35  O   UNL     1       0.196   6.542 -30.242  1.00  0.00    -0.349 OA
BRANCH  35  36
HETATM   36  C   UNL     1      -0.213   7.577 -29.330  1.00  0.00     0.171 C 
HETATM   37  C   UNL     1       0.961   7.995 -28.468  1.00  0.00     0.034 C 
ENDBRANCH  35  36
ENDBRANCH  29  35
ENDBRANCH  26  27
ENDBRANCH   4  26
TORSDOF 10
ENDMDL
MODEL 6
REMARK VINA RESULT:      -7.7      5.016      8.619
REMARK  10 active torsions:
REMARK  status: ('A' for Active; 'I' for Inactive)
REMARK    1  A    between atoms: C_2  and  C_3 
REMARK    2  A    between atoms: C_3  and  C_4 
REMARK    3  A    between atoms: N_7  and  C_9 
REMARK    4  A    between atoms: C_9  and  C_10 
REMARK    5  A    between atoms: C_11  and  O_12 
REMARK    6  A    between atoms: C_13  and  O_14 
REMARK    7  A    between atoms: O_14  and  C_15 
REMARK    8  A    between atoms: N_25  and  C_26 
REMARK    9  A    between atoms: C_26  and  C_27 
REMARK   10  A    between atoms: C_27  and  C_28 
ROOT
HETATM    1  C   UNL     1      -7.706   2.431 -31.321  1.00  0.00     0.026 C 
HETATM    2  C   UNL     1      -8.742   1.294 -31.445  1.00  0.00     0.035 C 
HETATM    3  C   UNL     1      -9.813   1.531 -32.497  1.00  0.00     0.235 C 
HETATM    4  N   UNL     1     -10.470   2.870 -32.322  1.00  0.00    -0.067 N 
HETATM    5  H   UNL     1     -11.114   2.792 -31.515  1.00  0.00     0.280 HD
HETATM    6  C   UNL     1      -9.567   4.039 -32.062  1.00  0.00     0.235 C 
HETATM    7  C   UNL     1      -8.495   3.719 -31.029  1.00  0.00     0.035 C 
ENDROOT
BRANCH   1   8
HETATM    8  C   UNL     1      -6.654   2.541 -32.483  1.00  0.00     0.119 A 
HETATM    9  N   UNL     1      -7.234   2.339 -33.790  1.00  0.00    -0.324 N 
HETATM   10  C   UNL     1      -6.692   1.250 -34.441  1.00  0.00     0.326 A 
HETATM   11  H   UNL     1      -7.592   3.075 -34.388  1.00  0.00     0.165 HD
HETATM   12  O   UNL     1      -7.028   0.957 -35.573  1.00  0.00    -0.247 OA
HETATM   13  N   UNL     1      -5.824   0.622 -33.607  1.00  0.00    -0.268 N 
HETATM   14  C   UNL     1      -5.705   1.325 -32.436  1.00  0.00     0.256 A 
HETATM   15  O   UNL     1      -5.004   1.029 -31.479  1.00  0.00    -0.270 OA
BRANCH   8  16
HETATM   16  C   UNL     1      -5.850   3.858 -32.423  1.00  0.00     0.037 C 
HETATM   17  C   UNL     1      -5.169   4.267 -33.728  1.00  0.00     0.008 C 
ENDBRANCH   8  16
BRANCH  13  18
HETATM   18  C   UNL     1      -5.116  -0.633 -33.829  1.00  0.00     0.142 C 
BRANCH  18  19
HETATM   19  C   UNL     1      -5.927  -1.782 -34.432  1.00  0.00     0.068 C 
BRANCH  19  20
HETATM   20  C   UNL     1      -5.221  -3.093 -34.261  1.00  0.00     0.010 A 
HETATM   21  S   UNL     1      -3.768  -3.189 -33.348  1.00  0.00    -0.085 SA
HETATM   22  C   UNL     1      -3.694  -4.868 -33.668  1.00  0.00     0.166 A 
HETATM   23  N   UNL     1      -4.666  -5.355 -34.405  1.00  0.00    -0.258 NA
HETATM   24  C   UNL     1      -5.554  -4.348 -34.744  1.00  0.00     0.044 A 
HETATM   25  C   UNL     1      -6.737  -4.705 -35.573  1.00  0.00     0.071 C 
ENDBRANCH  19  20
ENDBRANCH  18  19
ENDBRANCH  13  18
ENDBRANCH   1   8
BRANCH   4  26
HETATM   26  C   UNL     1     -11.394   3.176 -33.489  1.00  0.00     0.276 C 
BRANCH  26  27
HETATM   27  C   UNL     1     -12.639   2.342 -33.533  1.00  0.00     0.004 A 
HETATM   28  C   UNL     1     -13.633   2.493 -32.565  1.00  0.00     0.107 A 
HETATM   29  C   UNL     1     -14.856   1.834 -32.682  1.00  0.00     0.102 A 
HETATM   30  C   UNL     1     -15.074   0.936 -33.719  1.00  0.00     0.039 A 
HETATM   31  C   UNL     1     -14.075   0.740 -34.674  1.00  0.00     0.003 A 
HETATM   32  C   UNL     1     -12.872   1.451 -34.593  1.00  0.00     0.012 A 
BRANCH  28  33
HETATM   33  O   UNL     1     -13.387   3.295 -31.478  1.00  0.00    -0.357 OA
HETATM   34  H   UNL     1     -14.255   3.368 -31.020  1.00  0.00     0.218 HD
ENDBRANCH  28  33
BRANCH  29  35
HETATM   35  O   UNL     1     -15.832   2.064 -31.751  1.00  0.00    -0.349 OA
BRANCH  35  36
HETATM   36  C   UNL     1     -16.729   3.095 -32.200  1.00  0.00     0.171 C 
HETATM   37  C   UNL     1     -18.041   2.998 -31.447  1.00  0.00     0.034 C 
ENDBRANCH  35  36
ENDBRANCH  29  35
ENDBRANCH  26  27
ENDBRANCH   4  26
TORSDOF 10
ENDMDL
MODEL 7
REMARK VINA RESULT:      -7.5      1.928      2.810
REMARK  10 active torsions:
REMARK  status: ('A' for Active; 'I' for Inactive)
REMARK    1  A    between atoms: C_2  and  C_3 
REMARK    2  A    between atoms: C_3  and  C_4 
REMARK    3  A    between atoms: N_7  and  C_9 
REMARK    4  A    between atoms: C_9  and  C_10 
REMARK    5  A    between atoms: C_11  and  O_12 
REMARK    6  A    between atoms: C_13  and  O_14 
REMARK    7  A    between atoms: O_14  and  C_15 
REMARK    8  A    between atoms: N_25  and  C_26 
REMARK    9  A    between atoms: C_26  and  C_27 
REMARK   10  A    between atoms: C_27  and  C_28 
ROOT
HETATM    1  C   UNL     1      -6.926   2.151 -30.401  1.00  0.00     0.026 C 
HETATM    2  C   UNL     1      -5.467   2.467 -30.006  1.00  0.00     0.035 C 
HETATM    3  C   UNL     1      -4.425   1.943 -30.981  1.00  0.00     0.235 C 
HETATM    4  N   UNL     1      -4.624   0.482 -31.267  1.00  0.00    -0.067 N 
HETATM    5  H   UNL     1      -4.284  -0.041 -30.440  1.00  0.00     0.280 HD
HETATM    6  C   UNL     1      -6.029   0.030 -31.537  1.00  0.00     0.235 C 
HETATM    7  C   UNL     1      -7.024   0.624 -30.549  1.00  0.00     0.035 C 
ENDROOT
BRANCH   1   8
HETATM    8  C   UNL     1      -7.514   2.978 -31.600  1.00  0.00     0.119 A 
HETATM    9  N   UNL     1      -6.886   2.666 -32.863  1.00  0.00    -0.324 N 
HETATM   10  C   UNL     1      -6.260   3.762 -33.420  1.00  0.00     0.326 A 
HETATM   11  H   UNL     1      -7.214   1.966 -33.518  1.00  0.00     0.165 HD
HETATM   12  O   UNL     1      -5.718   3.696 -34.508  1.00  0.00    -0.247 OA
HETATM   13  N   UNL     1      -6.341   4.806 -32.557  1.00  0.00    -0.268 N 
HETATM   14  C   UNL     1      -7.091   4.456 -31.464  1.00  0.00     0.256 A 
HETATM   15  O   UNL     1      -7.353   5.168 -30.505  1.00  0.00    -0.270 OA
BRANCH   8  16
HETATM   16  C   UNL     1      -9.051   2.862 -31.693  1.00  0.00     0.037 C 
HETATM   17  C   UNL     1      -9.567   1.707 -32.551  1.00  0.00     0.008 C 
ENDBRANCH   8  16
BRANCH  13  18
HETATM   18  C   UNL     1      -5.719   6.119 -32.678  1.00  0.00     0.142 C 
BRANCH  18  19
HETATM   19  C   UNL     1      -4.488   6.379 -31.808  1.00  0.00     0.068 C 
BRANCH  19  20
HETATM   20  C   UNL     1      -3.284   6.684 -32.647  1.00  0.00     0.010 A 
HETATM   21  S   UNL     1      -2.900   5.708 -34.009  1.00  0.00    -0.085 SA
HETATM   22  C   UNL     1      -1.531   6.689 -34.309  1.00  0.00     0.166 A 
HETATM   23  N   UNL     1      -1.341   7.681 -33.469  1.00  0.00    -0.258 NA
HETATM   24  C   UNL     1      -2.345   7.694 -32.516  1.00  0.00     0.044 A 
HETATM   25  C   UNL     1      -2.311   8.758 -31.476  1.00  0.00     0.071 C 
ENDBRANCH  19  20
ENDBRANCH  18  19
ENDBRANCH  13  18
ENDBRANCH   1   8
BRANCH   4  26
HETATM   26  C   UNL     1      -3.705   0.020 -32.385  1.00  0.00     0.276 C 
BRANCH  26  27
HETATM   27  C   UNL     1      -3.729  -1.458 -32.640  1.00  0.00     0.004 A 
HETATM   28  C   UNL     1      -4.358  -1.975 -33.773  1.00  0.00     0.107 A 
HETATM   29  C   UNL     1      -4.255  -3.328 -34.097  1.00  0.00     0.102 A 
HETATM   30  C   UNL     1      -3.602  -4.207 -33.243  1.00  0.00     0.039 A 
HETATM   31  C   UNL     1      -3.002  -3.714 -32.083  1.00  0.00     0.003 A 
HETATM   32  C   UNL     1      -3.049  -2.346 -31.792  1.00  0.00     0.012 A 
BRANCH  28  33
HETATM   33  O   UNL     1      -5.098  -1.134 -34.566  1.00  0.00    -0.357 OA
HETATM   34  H   UNL     1      -6.010  -1.184 -34.200  1.00  0.00     0.218 HD
ENDBRANCH  28  33
BRANCH  29  35
HETATM   35  O   UNL     1      -4.826  -3.783 -35.254  1.00  0.00    -0.349 OA
BRANCH  35  36
HETATM   36  C   UNL     1      -5.836  -4.767 -34.969  1.00  0.00     0.171 C 
HETATM   37  C   UNL     1      -7.144  -4.078 -34.639  1.00  0.00     0.034 C 
ENDBRANCH  35  36
ENDBRANCH  29  35
ENDBRANCH  26  27
ENDBRANCH   4  26
TORSDOF 10
ENDMDL
MODEL 8
REMARK VINA RESULT:      -7.4      2.792      5.295
REMARK  10 active torsions:
REMARK  status: ('A' for Active; 'I' for Inactive)
REMARK    1  A    between atoms: C_2  and  C_3 
REMARK    2  A    between atoms: C_3  and  C_4 
REMARK    3  A    between atoms: N_7  and  C_9 
REMARK    4  A    between atoms: C_9  and  C_10 
REMARK    5  A    between atoms: C_11  and  O_12 
REMARK    6  A    between atoms: C_13  and  O_14 
REMARK    7  A    between atoms: O_14  and  C_15 
REMARK    8  A    between atoms: N_25  and  C_26 
REMARK    9  A    between atoms: C_26  and  C_27 
REMARK   10  A    between atoms: C_27  and  C_28 
ROOT
HETATM    1  C   UNL     1      -2.944   6.140 -32.694  1.00  0.00     0.026 C 
HETATM    2  C   UNL     1      -4.408   6.004 -32.226  1.00  0.00     0.035 C 
HETATM    3  C   UNL     1      -4.672   4.808 -31.326  1.00  0.00     0.235 C 
HETATM    4  N   UNL     1      -4.160   3.536 -31.938  1.00  0.00    -0.067 N 
HETATM    5  H   UNL     1      -4.823   3.267 -32.687  1.00  0.00     0.280 HD
HETATM    6  C   UNL     1      -2.790   3.581 -32.548  1.00  0.00     0.235 C 
HETATM    7  C   UNL     1      -2.582   4.824 -33.402  1.00  0.00     0.035 C 
ENDROOT
BRANCH   1   8
HETATM    8  C   UNL     1      -1.912   6.624 -31.612  1.00  0.00     0.119 A 
HETATM    9  N   UNL     1      -2.229   6.160 -30.282  1.00  0.00    -0.324 N 
HETATM   10  C   UNL     1      -2.464   7.200 -29.407  1.00  0.00     0.326 A 
HETATM   11  H   UNL     1      -1.879   5.305 -29.865  1.00  0.00     0.165 HD
HETATM   12  O   UNL     1      -2.700   6.997 -28.231  1.00  0.00    -0.247 OA
HETATM   13  N   UNL     1      -2.418   8.373 -30.090  1.00  0.00    -0.268 N 
HETATM   14  C   UNL     1      -2.066   8.144 -31.395  1.00  0.00     0.256 A 
HETATM   15  O   UNL     1      -1.938   8.986 -32.271  1.00  0.00    -0.270 OA
BRANCH   8  16
HETATM   16  C   UNL     1      -0.456   6.277 -31.996  1.00  0.00     0.037 C 
HETATM   17  C   UNL     1       0.328   5.497 -30.941  1.00  0.00     0.008 C 
ENDBRANCH   8  16
BRANCH  13  18
HETATM   18  C   UNL     1      -2.724   9.710 -29.596  1.00  0.00     0.142 C 
BRANCH  18  19
HETATM   19  C   UNL     1      -4.169  10.187 -29.752  1.00  0.00     0.068 C 
BRANCH  19  20
HETATM   20  C   UNL     1      -5.101   9.385 -28.895  1.00  0.00     0.010 A 
HETATM   21  S   UNL     1      -6.160   8.231 -29.601  1.00  0.00    -0.085 SA
HETATM   22  C   UNL     1      -6.769   7.859 -28.046  1.00  0.00     0.166 A 
HETATM   23  N   UNL     1      -6.244   8.533 -27.048  1.00  0.00    -0.258 NA
HETATM   24  C   UNL     1      -5.280   9.406 -27.522  1.00  0.00     0.044 A 
HETATM   25  C   UNL     1      -4.559  10.256 -26.535  1.00  0.00     0.071 C 
ENDBRANCH  19  20
ENDBRANCH  18  19
ENDBRANCH  13  18
ENDBRANCH   1   8
BRANCH   4  26
HETATM   26  C   UNL     1      -4.251   2.385 -30.951  1.00  0.00     0.276 C 
BRANCH  26  27
HETATM   27  C   UNL     1      -4.208   1.023 -31.576  1.00  0.00     0.004 A 
HETATM   28  C   UNL     1      -5.084   0.685 -32.609  1.00  0.00     0.107 A 
HETATM   29  C   UNL     1      -4.952  -0.520 -33.298  1.00  0.00     0.102 A 
HETATM   30  C   UNL     1      -4.000  -1.453 -32.905  1.00  0.00     0.039 A 
HETATM   31  C   UNL     1      -3.142  -1.150 -31.847  1.00  0.00     0.003 A 
HETATM   32  C   UNL     1      -3.232   0.087 -31.199  1.00  0.00     0.012 A 
BRANCH  28  33
HETATM   33  O   UNL     1      -6.097   1.553 -32.933  1.00  0.00    -0.357 OA
HETATM   34  H   UNL     1      -6.723   1.500 -32.176  1.00  0.00     0.218 HD
ENDBRANCH  28  33
BRANCH  29  35
HETATM   35  O   UNL     1      -5.785  -0.784 -34.350  1.00  0.00    -0.349 OA
BRANCH  35  36
HETATM   36  C   UNL     1      -6.825  -1.697 -33.958  1.00  0.00     0.171 C 
HETATM   37  C   UNL     1      -6.646  -3.018 -34.678  1.00  0.00     0.034 C 
ENDBRANCH  35  36
ENDBRANCH  29  35
ENDBRANCH  26  27
ENDBRANCH   4  26
TORSDOF 10
ENDMDL
MODEL 9
REMARK VINA RESULT:      -7.1      2.844      8.259
REMARK  10 active torsions:
REMARK  status: ('A' for Active; 'I' for Inactive)
REMARK    1  A    between atoms: C_2  and  C_3 
REMARK    2  A    between atoms: C_3  and  C_4 
REMARK    3  A    between atoms: N_7  and  C_9 
REMARK    4  A    between atoms: C_9  and  C_10 
REMARK    5  A    between atoms: C_11  and  O_12 
REMARK    6  A    between atoms: C_13  and  O_14 
REMARK    7  A    between atoms: O_14  and  C_15 
REMARK    8  A    between atoms: N_25  and  C_26 
REMARK    9  A    between atoms: C_26  and  C_27 
REMARK   10  A    between atoms: C_27  and  C_28 
ROOT
HETATM    1  C   UNL     1      -6.383   2.563 -30.777  1.00  0.00     0.026 C 
HETATM    2  C   UNL     1      -7.463   3.550 -30.284  1.00  0.00     0.035 C 
HETATM    3  C   UNL     1      -7.190   5.004 -30.631  1.00  0.00     0.235 C 
HETATM    4  N   UNL     1      -5.812   5.422 -30.203  1.00  0.00    -0.067 N 
HETATM    5  H   UNL     1      -5.835   5.549 -29.176  1.00  0.00     0.280 HD
HETATM    6  C   UNL     1      -4.690   4.476 -30.513  1.00  0.00     0.235 C 
HETATM    7  C   UNL     1      -5.047   3.033 -30.179  1.00  0.00     0.035 C 
ENDROOT
BRANCH   1   8
HETATM    8  C   UNL     1      -6.360   2.275 -32.322  1.00  0.00     0.119 A 
HETATM    9  N   UNL     1      -7.677   2.266 -32.914  1.00  0.00    -0.324 N 
HETATM   10  C   UNL     1      -7.990   1.044 -33.473  1.00  0.00     0.326 A 
HETATM   11  H   UNL     1      -8.133   3.069 -33.330  1.00  0.00     0.165 HD
HETATM   12  O   UNL     1      -9.042   0.867 -34.058  1.00  0.00    -0.247 OA
HETATM   13  N   UNL     1      -6.988   0.167 -33.213  1.00  0.00    -0.268 N 
HETATM   14  C   UNL     1      -5.961   0.805 -32.566  1.00  0.00     0.256 A 
HETATM   15  O   UNL     1      -4.913   0.298 -32.192  1.00  0.00    -0.270 OA
BRANCH   8  16
HETATM   16  C   UNL     1      -5.409   3.227 -33.080  1.00  0.00     0.037 C 
HETATM   17  C   UNL     1      -6.041   3.987 -34.246  1.00  0.00     0.008 C 
ENDBRANCH   8  16
BRANCH  13  18
HETATM   18  C   UNL     1      -6.947  -1.261 -33.506  1.00  0.00     0.142 C 
BRANCH  18  19
HETATM   19  C   UNL     1      -6.109  -1.692 -34.712  1.00  0.00     0.068 C 
BRANCH  19  20
HETATM   20  C   UNL     1      -5.381  -2.973 -34.437  1.00  0.00     0.010 A 
HETATM   21  S   UNL     1      -3.927  -2.971 -33.521  1.00  0.00    -0.085 SA
HETATM   22  C   UNL     1      -3.824  -4.668 -33.706  1.00  0.00     0.166 A 
HETATM   23  N   UNL     1      -4.788  -5.229 -34.401  1.00  0.00    -0.258 NA
HETATM   24  C   UNL     1      -5.692  -4.268 -34.819  1.00  0.00     0.044 A 
HETATM   25  C   UNL     1      -6.869  -4.710 -35.615  1.00  0.00     0.071 C 
ENDBRANCH  19  20
ENDBRANCH  18  19
ENDBRANCH  13  18
ENDBRANCH   1   8
BRANCH   4  26
HETATM   26  C   UNL     1      -5.480   6.810 -30.727  1.00  0.00     0.276 C 
BRANCH  26  27
HETATM   27  C   UNL     1      -4.034   7.020 -31.061  1.00  0.00     0.004 A 
HETATM   28  C   UNL     1      -3.593   6.968 -32.384  1.00  0.00     0.107 A 
HETATM   29  C   UNL     1      -2.283   7.311 -32.719  1.00  0.00     0.102 A 
HETATM   30  C   UNL     1      -1.362   7.621 -31.725  1.00  0.00     0.039 A 
HETATM   31  C   UNL     1      -1.775   7.638 -30.393  1.00  0.00     0.003 A 
HETATM   32  C   UNL     1      -3.105   7.357 -30.062  1.00  0.00     0.012 A 
BRANCH  28  33
HETATM   33  O   UNL     1      -4.465   6.557 -33.361  1.00  0.00    -0.357 OA
HETATM   34  H   UNL     1      -5.358   6.740 -32.991  1.00  0.00     0.218 HD
ENDBRANCH  28  33
BRANCH  29  35
HETATM   35  O   UNL     1      -1.909   7.317 -34.034  1.00  0.00    -0.349 OA
BRANCH  35  36
HETATM   36  C   UNL     1      -1.026   6.217 -34.316  1.00  0.00     0.171 C 
HETATM   37  C   UNL     1      -1.811   5.068 -34.915  1.00  0.00     0.034 C 
ENDBRANCH  35  36
ENDBRANCH  29  35
ENDBRANCH  26  27
ENDBRANCH   4  26
TORSDOF 10
ENDMDL
MODEL 10
REMARK VINA RESULT:      -7.0      3.544      5.725
REMARK  10 active torsions:
REMARK  status: ('A' for Active; 'I' for Inactive)
REMARK    1  A    between atoms: C_2  and  C_3 
REMARK    2  A    between atoms: C_3  and  C_4 
REMARK    3  A    between atoms: N_7  and  C_9 
REMARK    4  A    between atoms: C_9  and  C_10 
REMARK    5  A    between atoms: C_11  and  O_12 
REMARK    6  A    between atoms: C_13  and  O_14 
REMARK    7  A    between atoms: O_14  and  C_15 
REMARK    8  A    between atoms: N_25  and  C_26 
REMARK    9  A    between atoms: C_26  and  C_27 
REMARK   10  A    between atoms: C_27  and  C_28 
ROOT
HETATM    1  C   UNL     1      -5.741   4.595 -31.550  1.00  0.00     0.026 C 
HETATM    2  C   UNL     1      -5.798   3.897 -32.925  1.00  0.00     0.035 C 
HETATM    3  C   UNL     1      -6.378   2.492 -32.894  1.00  0.00     0.235 C 
HETATM    4  N   UNL     1      -5.699   1.640 -31.861  1.00  0.00    -0.067 N 
HETATM    5  H   UNL     1      -4.773   1.375 -32.241  1.00  0.00     0.280 HD
HETATM    6  C   UNL     1      -5.469   2.261 -30.515  1.00  0.00     0.235 C 
HETATM    7  C   UNL     1      -4.926   3.680 -30.622  1.00  0.00     0.035 C 
ENDROOT
BRANCH   1   8
HETATM    8  C   UNL     1      -7.114   5.088 -30.965  1.00  0.00     0.119 A 
HETATM    9  N   UNL     1      -7.852   4.041 -30.298  1.00  0.00    -0.324 N 
HETATM   10  C   UNL     1      -9.072   3.798 -30.895  1.00  0.00     0.326 A 
HETATM   11  H   UNL     1      -7.797   3.830 -29.308  1.00  0.00     0.165 HD
HETATM   12  O   UNL     1      -9.848   2.981 -30.438  1.00  0.00    -0.247 OA
HETATM   13  N   UNL     1      -9.181   4.565 -32.010  1.00  0.00    -0.268 N 
HETATM   14  C   UNL     1      -8.090   5.388 -32.123  1.00  0.00     0.256 A 
HETATM   15  O   UNL     1      -7.881   6.199 -33.014  1.00  0.00    -0.270 OA
BRANCH   8  16
HETATM   16  C   UNL     1      -6.954   6.328 -30.059  1.00  0.00     0.037 C 
HETATM   17  C   UNL     1      -5.769   7.233 -30.395  1.00  0.00     0.008 C 
ENDBRANCH   8  16
BRANCH  13  18
HETATM   18  C   UNL     1     -10.242   4.549 -33.009  1.00  0.00     0.142 C 
BRANCH  18  19
HETATM   19  C   UNL     1     -10.093   3.545 -34.154  1.00  0.00     0.068 C 
BRANCH  19  20
HETATM   20  C   UNL     1     -11.243   2.585 -34.188  1.00  0.00     0.010 A 
HETATM   21  S   UNL     1     -12.731   3.032 -34.922  1.00  0.00    -0.085 SA
HETATM   22  C   UNL     1     -13.371   1.496 -34.527  1.00  0.00     0.166 A 
HETATM   23  N   UNL     1     -12.561   0.683 -33.887  1.00  0.00    -0.258 NA
HETATM   24  C   UNL     1     -11.333   1.294 -33.695  1.00  0.00     0.044 A 
HETATM   25  C   UNL     1     -10.270   0.524 -32.994  1.00  0.00     0.071 C 
ENDBRANCH  19  20
ENDBRANCH  18  19
ENDBRANCH  13  18
ENDBRANCH   1   8
BRANCH   4  26
HETATM   26  C   UNL     1      -6.414   0.308 -31.702  1.00  0.00     0.276 C 
BRANCH  26  27
HETATM   27  C   UNL     1      -6.169  -0.666 -32.816  1.00  0.00     0.004 A 
HETATM   28  C   UNL     1      -4.934  -1.305 -32.944  1.00  0.00     0.107 A 
HETATM   29  C   UNL     1      -4.746  -2.323 -33.879  1.00  0.00     0.102 A 
HETATM   30  C   UNL     1      -5.760  -2.654 -34.770  1.00  0.00     0.039 A 
HETATM   31  C   UNL     1      -6.987  -1.996 -34.684  1.00  0.00     0.003 A 
HETATM   32  C   UNL     1      -7.198  -1.022 -33.702  1.00  0.00     0.012 A 
BRANCH  28  33
HETATM   33  O   UNL     1      -3.893  -0.910 -32.141  1.00  0.00    -0.357 OA
HETATM   34  H   UNL     1      -3.091  -1.025 -32.699  1.00  0.00     0.218 HD
ENDBRANCH  28  33
BRANCH  29  35
HETATM   35  O   UNL     1      -3.544  -2.974 -33.926  1.00  0.00    -0.349 OA
BRANCH  35  36
HETATM   36  C   UNL     1      -3.497  -4.023 -32.942  1.00  0.00     0.171 C 
HETATM   37  C   UNL     1      -3.862  -5.346 -33.584  1.00  0.00     0.034 C 
ENDBRANCH  35  36
ENDBRANCH  29  35
ENDBRANCH  26  27
ENDBRANCH   4  26
TORSDOF 10
ENDMDL
