MODEL 1
REMARK VINA RESULT:      -9.7      0.000      0.000
REMARK  3 active torsions:
REMARK  status: ('A' for Active; 'I' for Inactive)
REMARK    1  A    between atoms: O_2  and  C_3 
REMARK    2  A    between atoms: C_4  and  N_5 
REMARK       I    between atoms: N_5  and  C_6 
REMARK       I    between atoms: C_6  and  N_7 
REMARK    3  A    between atoms: C_8  and  C_9 
ROOT
HETATM    1  N   UNL     1      -9.227   1.572 -33.337  1.00  0.00    -0.306 N 
HETATM    2  C   UNL     1      -8.640   1.156 -32.169  1.00  0.00     0.323 C 
HETATM    3  N   UNL     1      -7.252   1.293 -32.149  1.00  0.00    -0.324 N 
HETATM    4  C   UNL     1      -6.399   1.239 -33.352  1.00  0.00     0.139 C 
HETATM    5  C   UNL     1      -5.198   2.185 -33.194  1.00  0.00     0.032 C 
HETATM    6  C   UNL     1      -4.440   1.964 -31.884  1.00  0.00     0.004 C 
HETATM    7  C   UNL     1      -5.392   2.019 -30.694  1.00  0.00     0.020 C 
HETATM    8  C   UNL     1      -6.569   1.067 -30.872  1.00  0.00     0.128 C 
HETATM    9  O   UNL     1      -9.257   0.691 -31.215  1.00  0.00    -0.247 OA
HETATM   10  H   UNL     1      -8.737   2.290 -33.854  1.00  0.00     0.171 HD
ENDROOT
BRANCH   4  11
HETATM   11  C   UNL     1      -6.016  -0.194 -33.641  1.00  0.00     0.033 A 
HETATM   12  N   UNL     1      -6.923  -1.098 -34.156  1.00  0.00    -0.357 N 
HETATM   13  H   UNL     1      -7.896  -0.895 -34.344  1.00  0.00     0.166 HD
HETATM   14  C   UNL     1      -6.343  -2.332 -34.333  1.00  0.00     0.042 A 
HETATM   15  C   UNL     1      -5.013  -2.219 -33.939  1.00  0.00    -0.007 A 
HETATM   16  C   UNL     1      -6.894  -3.530 -34.805  1.00  0.00     0.030 A 
HETATM   17  C   UNL     1      -4.816  -0.874 -33.524  1.00  0.00     0.041 A 
HETATM   18  C   UNL     1      -4.183  -3.353 -34.017  1.00  0.00     0.014 A 
HETATM   19  C   UNL     1      -4.716  -4.561 -34.484  1.00  0.00     0.001 A 
HETATM   20  C   UNL     1      -6.052  -4.644 -34.872  1.00  0.00     0.002 A 
ENDBRANCH   4  11
BRANCH   1  21
HETATM   21  C   UNL     1     -10.572   1.420 -33.738  1.00  0.00     0.072 A 
HETATM   22  C   UNL     1     -11.097   2.415 -34.586  1.00  0.00     0.095 A 
HETATM   23  C   UNL     1     -12.426   2.359 -35.015  1.00  0.00     0.042 A 
HETATM   24  C   UNL     1     -13.223   1.279 -34.639  1.00  0.00     0.045 A 
HETATM   25  C   UNL     1     -12.688   0.278 -33.834  1.00  0.00     0.118 A 
HETATM   26  C   UNL     1     -11.374   0.337 -33.378  1.00  0.00     0.074 A 
HETATM   27  F   UNL     1     -13.459  -0.761 -33.487  1.00  0.00    -0.206 F 
BRANCH  22  28
HETATM   28  O   UNL     1     -10.269   3.466 -34.907  1.00  0.00    -0.354 OA
HETATM   29  C   UNL     1     -10.988   4.622 -35.333  1.00  0.00     0.210 C 
ENDBRANCH  22  28
ENDBRANCH   1  21
TORSDOF 3
ENDMDL
MODEL 2
REMARK VINA RESULT:      -9.4      2.505      6.906
REMARK  3 active torsions:
REMARK  status: ('A' for Active; 'I' for Inactive)
REMARK    1  A    between atoms: O_2  and  C_3 
REMARK    2  A    between atoms: C_4  and  N_5 
REMARK       I    between atoms: N_5  and  C_6 
REMARK       I    between atoms: C_6  and  N_7 
REMARK    3  A    between atoms: C_8  and  C_9 
ROOT
HETATM    1  N   UNL     1      -6.659  -0.300 -33.272  1.00  0.00    -0.306 N 
HETATM    2  C   UNL     1      -6.939   0.843 -33.978  1.00  0.00     0.323 C 
HETATM    3  N   UNL     1      -7.590   1.827 -33.234  1.00  0.00    -0.324 N 
HETATM    4  C   UNL     1      -8.477   1.544 -32.089  1.00  0.00     0.139 C 
HETATM    5  C   UNL     1      -8.356   2.658 -31.037  1.00  0.00     0.032 C 
HETATM    6  C   UNL     1      -8.535   4.056 -31.632  1.00  0.00     0.004 C 
HETATM    7  C   UNL     1      -7.597   4.261 -32.816  1.00  0.00     0.020 C 
HETATM    8  C   UNL     1      -7.742   3.149 -33.848  1.00  0.00     0.128 C 
HETATM    9  O   UNL     1      -6.661   1.007 -35.162  1.00  0.00    -0.247 OA
HETATM   10  H   UNL     1      -6.534  -0.191 -32.275  1.00  0.00     0.171 HD
ENDROOT
BRANCH   4  11
HETATM   11  C   UNL     1      -9.888   1.317 -32.582  1.00  0.00     0.033 A 
HETATM   12  N   UNL     1     -10.811   2.341 -32.636  1.00  0.00    -0.357 N 
HETATM   13  H   UNL     1     -10.640   3.289 -32.327  1.00  0.00     0.166 HD
HETATM   14  C   UNL     1     -12.018   1.892 -33.117  1.00  0.00     0.042 A 
HETATM   15  C   UNL     1     -11.866   0.538 -33.403  1.00  0.00    -0.007 A 
HETATM   16  C   UNL     1     -13.223   2.577 -33.315  1.00  0.00     0.030 A 
HETATM   17  C   UNL     1     -10.526   0.193 -33.080  1.00  0.00     0.041 A 
HETATM   18  C   UNL     1     -12.967  -0.176 -33.913  1.00  0.00     0.014 A 
HETATM   19  C   UNL     1     -14.181   0.491 -34.116  1.00  0.00     0.001 A 
HETATM   20  C   UNL     1     -14.304   1.848 -33.820  1.00  0.00     0.002 A 
ENDBRANCH   4  11
BRANCH   1  21
HETATM   21  C   UNL     1      -6.161  -1.526 -33.764  1.00  0.00     0.072 A 
HETATM   22  C   UNL     1      -4.811  -1.820 -33.486  1.00  0.00     0.095 A 
HETATM   23  C   UNL     1      -4.226  -3.000 -33.951  1.00  0.00     0.042 A 
HETATM   24  C   UNL     1      -5.004  -3.919 -34.654  1.00  0.00     0.045 A 
HETATM   25  C   UNL     1      -6.347  -3.644 -34.892  1.00  0.00     0.118 A 
HETATM   26  C   UNL     1      -6.933  -2.458 -34.457  1.00  0.00     0.074 A 
HETATM   27  F   UNL     1      -7.088  -4.538 -35.559  1.00  0.00    -0.206 F 
BRANCH  22  28
HETATM   28  O   UNL     1      -4.090  -0.865 -32.805  1.00  0.00    -0.354 OA
HETATM   29  C   UNL     1      -3.090  -1.432 -31.959  1.00  0.00     0.210 C 
ENDBRANCH  22  28
ENDBRANCH   1  21
TORSDOF 3
ENDMDL
MODEL 3
REMARK VINA RESULT:      -9.2      3.366      6.298
REMARK  3 active torsions:
REMARK  status: ('A' for Active; 'I' for Inactive)
REMARK    1  A    between atoms: O_2  and  C_3 
REMARK    2  A    between atoms: C_4  and  N_5 
REMARK       I    between atoms: N_5  and  C_6 
REMARK       I    between atoms: C_6  and  N_7 
REMARK    3  A    between atoms: C_8  and  C_9 
ROOT
HETATM    1  N   UNL     1      -6.136   3.304 -32.018  1.00  0.00    -0.306 N 
HETATM    2  C   UNL     1      -6.816   3.190 -33.204  1.00  0.00     0.323 C 
HETATM    3  N   UNL     1      -7.892   2.303 -33.160  1.00  0.00    -0.324 N 
HETATM    4  C   UNL     1      -7.961   1.133 -32.263  1.00  0.00     0.139 C 
HETATM    5  C   UNL     1      -9.414   0.886 -31.825  1.00  0.00     0.032 C 
HETATM    6  C   UNL     1     -10.386   0.824 -33.005  1.00  0.00     0.004 C 
HETATM    7  C   UNL     1     -10.240   2.057 -33.888  1.00  0.00     0.020 C 
HETATM    8  C   UNL     1      -8.793   2.275 -34.316  1.00  0.00     0.128 C 
HETATM    9  O   UNL     1      -6.520   3.795 -34.229  1.00  0.00    -0.247 OA
HETATM   10  H   UNL     1      -6.669   3.125 -31.177  1.00  0.00     0.171 HD
ENDROOT
BRANCH   4  11
HETATM   11  C   UNL     1      -7.311  -0.058 -32.929  1.00  0.00     0.033 A 
HETATM   12  N   UNL     1      -5.954  -0.290 -32.838  1.00  0.00    -0.357 N 
HETATM   13  H   UNL     1      -5.296   0.316 -32.366  1.00  0.00     0.166 HD
HETATM   14  C   UNL     1      -5.601  -1.429 -33.522  1.00  0.00     0.042 A 
HETATM   15  C   UNL     1      -6.770  -1.964 -34.055  1.00  0.00    -0.007 A 
HETATM   16  C   UNL     1      -4.344  -2.018 -33.708  1.00  0.00     0.030 A 
HETATM   17  C   UNL     1      -7.835  -1.108 -33.665  1.00  0.00     0.041 A 
HETATM   18  C   UNL     1      -6.690  -3.147 -34.815  1.00  0.00     0.014 A 
HETATM   19  C   UNL     1      -5.442  -3.749 -35.015  1.00  0.00     0.001 A 
HETATM   20  C   UNL     1      -4.288  -3.191 -34.468  1.00  0.00     0.002 A 
ENDBRANCH   4  11
BRANCH   1  21
HETATM   21  C   UNL     1      -4.922   3.981 -31.773  1.00  0.00     0.072 A 
HETATM   22  C   UNL     1      -3.738   3.230 -31.908  1.00  0.00     0.095 A 
HETATM   23  C   UNL     1      -2.491   3.810 -31.664  1.00  0.00     0.042 A 
HETATM   24  C   UNL     1      -2.418   5.162 -31.332  1.00  0.00     0.045 A 
HETATM   25  C   UNL     1      -3.587   5.911 -31.237  1.00  0.00     0.118 A 
HETATM   26  C   UNL     1      -4.837   5.336 -31.451  1.00  0.00     0.074 A 
HETATM   27  F   UNL     1      -3.506   7.211 -30.928  1.00  0.00    -0.206 F 
BRANCH  22  28
HETATM   28  O   UNL     1      -3.875   1.896 -32.220  1.00  0.00    -0.354 OA
HETATM   29  C   UNL     1      -3.256   1.041 -31.259  1.00  0.00     0.210 C 
ENDBRANCH  22  28
ENDBRANCH   1  21
TORSDOF 3
ENDMDL
MODEL 4
REMARK VINA RESULT:      -9.2      2.501      6.787
REMARK  3 active torsions:
REMARK  status: ('A' for Active; 'I' for Inactive)
REMARK    1  A    between atoms: O_2  and  C_3 
REMARK    2  A    between atoms: C_4  and  N_5 
REMARK       I    between atoms: N_5  and  C_6 
REMARK       I    between atoms: C_6  and  N_7 
REMARK    3  A    between atoms: C_8  and  C_9 
ROOT
HETATM    1  N   UNL     1      -6.718   0.204 -33.091  1.00  0.00    -0.306 N 
HETATM    2  C   UNL     1      -6.932   1.369 -33.784  1.00  0.00     0.323 C 
HETATM    3  N   UNL     1      -7.611   2.347 -33.058  1.00  0.00    -0.324 N 
HETATM    4  C   UNL     1      -8.575   2.054 -31.979  1.00  0.00     0.139 C 
HETATM    5  C   UNL     1      -8.502   3.139 -30.893  1.00  0.00     0.032 C 
HETATM    6  C   UNL     1      -8.617   4.554 -31.462  1.00  0.00     0.004 C 
HETATM    7  C   UNL     1      -7.602   4.770 -32.578  1.00  0.00     0.020 C 
HETATM    8  C   UNL     1      -7.700   3.686 -33.646  1.00  0.00     0.128 C 
HETATM    9  O   UNL     1      -6.576   1.557 -34.943  1.00  0.00    -0.247 OA
HETATM   10  H   UNL     1      -6.655   0.287 -32.085  1.00  0.00     0.171 HD
ENDROOT
BRANCH   4  11
HETATM   11  C   UNL     1      -9.955   1.866 -32.566  1.00  0.00     0.033 A 
HETATM   12  N   UNL     1     -10.509   0.613 -32.734  1.00  0.00    -0.357 N 
HETATM   13  H   UNL     1     -10.040  -0.257 -32.520  1.00  0.00     0.166 HD
HETATM   14  C   UNL     1     -11.766   0.699 -33.282  1.00  0.00     0.042 A 
HETATM   15  C   UNL     1     -12.045   2.052 -33.456  1.00  0.00    -0.007 A 
HETATM   16  C   UNL     1     -12.668  -0.311 -33.637  1.00  0.00     0.030 A 
HETATM   17  C   UNL     1     -10.912   2.773 -32.990  1.00  0.00     0.041 A 
HETATM   18  C   UNL     1     -13.283   2.424 -34.012  1.00  0.00     0.014 A 
HETATM   19  C   UNL     1     -14.197   1.428 -34.375  1.00  0.00     0.001 A 
HETATM   20  C   UNL     1     -13.891   0.081 -34.190  1.00  0.00     0.002 A 
ENDBRANCH   4  11
BRANCH   1  21
HETATM   21  C   UNL     1      -6.212  -1.019 -33.581  1.00  0.00     0.072 A 
HETATM   22  C   UNL     1      -4.891  -1.349 -33.219  1.00  0.00     0.095 A 
HETATM   23  C   UNL     1      -4.298  -2.530 -33.675  1.00  0.00     0.042 A 
HETATM   24  C   UNL     1      -5.043  -3.412 -34.456  1.00  0.00     0.045 A 
HETATM   25  C   UNL     1      -6.360  -3.101 -34.779  1.00  0.00     0.118 A 
HETATM   26  C   UNL     1      -6.952  -1.915 -34.352  1.00  0.00     0.074 A 
HETATM   27  F   UNL     1      -7.071  -3.961 -35.520  1.00  0.00    -0.206 F 
BRANCH  22  28
HETATM   28  O   UNL     1      -4.200  -0.429 -32.463  1.00  0.00    -0.354 OA
HETATM   29  C   UNL     1      -2.865  -0.845 -32.177  1.00  0.00     0.210 C 
ENDBRANCH  22  28
ENDBRANCH   1  21
TORSDOF 3
ENDMDL
MODEL 5
REMARK VINA RESULT:      -9.0      4.406      6.923
REMARK  3 active torsions:
REMARK  status: ('A' for Active; 'I' for Inactive)
REMARK    1  A    between atoms: O_2  and  C_3 
REMARK    2  A    between atoms: C_4  and  N_5 
REMARK       I    between atoms: N_5  and  C_6 
REMARK       I    between atoms: C_6  and  N_7 
REMARK    3  A    between atoms: C_8  and  C_9 
ROOT
HETATM    1  N   UNL     1      -4.799   4.829 -32.561  1.00  0.00    -0.306 N 
HETATM    2  C   UNL     1      -6.002   4.649 -33.196  1.00  0.00     0.323 C 
HETATM    3  N   UNL     1      -6.904   3.851 -32.491  1.00  0.00    -0.324 N 
HETATM    4  C   UNL     1      -6.504   2.783 -31.554  1.00  0.00     0.139 C 
HETATM    5  C   UNL     1      -7.512   2.686 -30.398  1.00  0.00     0.032 C 
HETATM    6  C   UNL     1      -8.959   2.580 -30.882  1.00  0.00     0.004 C 
HETATM    7  C   UNL     1      -9.286   3.707 -31.855  1.00  0.00     0.020 C 
HETATM    8  C   UNL     1      -8.277   3.776 -32.996  1.00  0.00     0.128 C 
HETATM    9  O   UNL     1      -6.282   5.128 -34.290  1.00  0.00    -0.247 OA
HETATM   10  H   UNL     1      -4.813   4.773 -31.551  1.00  0.00     0.171 HD
ENDROOT
BRANCH   4  11
HETATM   11  C   UNL     1      -6.313   1.488 -32.310  1.00  0.00     0.033 A 
HETATM   12  N   UNL     1      -5.081   0.871 -32.395  1.00  0.00    -0.357 N 
HETATM   13  H   UNL     1      -4.224   1.239 -32.004  1.00  0.00     0.166 HD
HETATM   14  C   UNL     1      -5.160  -0.288 -33.131  1.00  0.00     0.042 A 
HETATM   15  C   UNL     1      -6.488  -0.438 -33.517  1.00  0.00    -0.007 A 
HETATM   16  C   UNL     1      -4.161  -1.204 -33.482  1.00  0.00     0.030 A 
HETATM   17  C   UNL     1      -7.203   0.669 -32.985  1.00  0.00     0.041 A 
HETATM   18  C   UNL     1      -6.847  -1.555 -34.293  1.00  0.00     0.014 A 
HETATM   19  C   UNL     1      -5.862  -2.482 -34.657  1.00  0.00     0.001 A 
HETATM   20  C   UNL     1      -4.539  -2.305 -34.255  1.00  0.00     0.002 A 
ENDBRANCH   4  11
BRANCH   1  21
HETATM   21  C   UNL     1      -3.630   5.437 -33.068  1.00  0.00     0.072 A 
HETATM   22  C   UNL     1      -3.245   6.658 -32.480  1.00  0.00     0.095 A 
HETATM   23  C   UNL     1      -2.114   7.343 -32.932  1.00  0.00     0.042 A 
HETATM   24  C   UNL     1      -1.333   6.785 -33.942  1.00  0.00     0.045 A 
HETATM   25  C   UNL     1      -1.695   5.560 -34.494  1.00  0.00     0.118 A 
HETATM   26  C   UNL     1      -2.835   4.881 -34.070  1.00  0.00     0.074 A 
HETATM   27  F   UNL     1      -0.932   5.026 -35.456  1.00  0.00    -0.206 F 
BRANCH  22  28
HETATM   28  O   UNL     1      -4.067   7.169 -31.501  1.00  0.00    -0.354 OA
HETATM   29  C   UNL     1      -3.406   7.300 -30.243  1.00  0.00     0.210 C 
ENDBRANCH  22  28
ENDBRANCH   1  21
TORSDOF 3
ENDMDL
MODEL 6
REMARK VINA RESULT:      -8.9      3.556      6.157
REMARK  3 active torsions:
REMARK  status: ('A' for Active; 'I' for Inactive)
REMARK    1  A    between atoms: O_2  and  C_3 
REMARK    2  A    between atoms: C_4  and  N_5 
REMARK       I    between atoms: N_5  and  C_6 
REMARK       I    between atoms: C_6  and  N_7 
REMARK    3  A    between atoms: C_8  and  C_9 
ROOT
HETATM    1  N   UNL     1      -5.890   3.426 -31.960  1.00  0.00    -0.306 N 
HETATM    2  C   UNL     1      -6.539   3.228 -33.153  1.00  0.00     0.323 C 
HETATM    3  N   UNL     1      -7.558   2.278 -33.096  1.00  0.00    -0.324 N 
HETATM    4  C   UNL     1      -7.572   1.138 -32.159  1.00  0.00     0.139 C 
HETATM    5  C   UNL     1      -9.015   0.816 -31.737  1.00  0.00     0.032 C 
HETATM    6  C   UNL     1      -9.958   0.653 -32.930  1.00  0.00     0.004 C 
HETATM    7  C   UNL     1      -9.872   1.862 -33.855  1.00  0.00     0.020 C 
HETATM    8  C   UNL     1      -8.433   2.155 -34.265  1.00  0.00     0.128 C 
HETATM    9  O   UNL     1      -6.260   3.816 -34.194  1.00  0.00    -0.247 OA
HETATM   10  H   UNL     1      -6.426   3.243 -31.123  1.00  0.00     0.171 HD
ENDROOT
BRANCH   4  11
HETATM   11  C   UNL     1      -6.838  -0.033 -32.771  1.00  0.00     0.033 A 
HETATM   12  N   UNL     1      -7.496  -1.004 -33.498  1.00  0.00    -0.357 N 
HETATM   13  H   UNL     1      -8.497  -1.033 -33.647  1.00  0.00     0.166 HD
HETATM   14  C   UNL     1      -6.619  -1.960 -33.951  1.00  0.00     0.042 A 
HETATM   15  C   UNL     1      -5.349  -1.587 -33.522  1.00  0.00    -0.007 A 
HETATM   16  C   UNL     1      -6.855  -3.120 -34.700  1.00  0.00     0.030 A 
HETATM   17  C   UNL     1      -5.495  -0.372 -32.799  1.00  0.00     0.041 A 
HETATM   18  C   UNL     1      -4.253  -2.406 -33.852  1.00  0.00     0.014 A 
HETATM   19  C   UNL     1      -4.469  -3.571 -34.598  1.00  0.00     0.001 A 
HETATM   20  C   UNL     1      -5.752  -3.920 -35.014  1.00  0.00     0.002 A 
ENDBRANCH   4  11
BRANCH   1  21
HETATM   21  C   UNL     1      -4.725   4.185 -31.719  1.00  0.00     0.072 A 
HETATM   22  C   UNL     1      -4.832   5.229 -30.778  1.00  0.00     0.095 A 
HETATM   23  C   UNL     1      -3.737   6.048 -30.490  1.00  0.00     0.042 A 
HETATM   24  C   UNL     1      -2.513   5.795 -31.107  1.00  0.00     0.045 A 
HETATM   25  C   UNL     1      -2.401   4.739 -32.006  1.00  0.00     0.118 A 
HETATM   26  C   UNL     1      -3.492   3.934 -32.320  1.00  0.00     0.074 A 
HETATM   27  F   UNL     1      -1.217   4.498 -32.584  1.00  0.00    -0.206 F 
BRANCH  22  28
HETATM   28  O   UNL     1      -6.071   5.442 -30.217  1.00  0.00    -0.354 OA
HETATM   29  C   UNL     1      -6.045   5.390 -28.791  1.00  0.00     0.210 C 
ENDBRANCH  22  28
ENDBRANCH   1  21
TORSDOF 3
ENDMDL
MODEL 7
REMARK VINA RESULT:      -8.4      3.015      6.753
REMARK  3 active torsions:
REMARK  status: ('A' for Active; 'I' for Inactive)
REMARK    1  A    between atoms: O_2  and  C_3 
REMARK    2  A    between atoms: C_4  and  N_5 
REMARK       I    between atoms: N_5  and  C_6 
REMARK       I    between atoms: C_6  and  N_7 
REMARK    3  A    between atoms: C_8  and  C_9 
ROOT
HETATM    1  N   UNL     1      -6.185   0.763 -31.910  1.00  0.00    -0.306 N 
HETATM    2  C   UNL     1      -6.086   2.064 -32.334  1.00  0.00     0.323 C 
HETATM    3  N   UNL     1      -7.005   2.929 -31.739  1.00  0.00    -0.324 N 
HETATM    4  C   UNL     1      -8.332   2.511 -31.247  1.00  0.00     0.139 C 
HETATM    5  C   UNL     1      -8.718   3.328 -30.003  1.00  0.00     0.032 C 
HETATM    6  C   UNL     1      -8.581   4.836 -30.219  1.00  0.00     0.004 C 
HETATM    7  C   UNL     1      -7.191   5.181 -30.742  1.00  0.00     0.020 C 
HETATM    8  C   UNL     1      -6.836   4.364 -31.980  1.00  0.00     0.128 C 
HETATM    9  O   UNL     1      -5.277   2.457 -33.169  1.00  0.00    -0.247 OA
HETATM   10  H   UNL     1      -6.548   0.623 -30.977  1.00  0.00     0.171 HD
ENDROOT
BRANCH   4  11
HETATM   11  C   UNL     1      -9.341   2.593 -32.370  1.00  0.00     0.033 A 
HETATM   12  N   UNL     1     -10.384   1.695 -32.476  1.00  0.00    -0.357 N 
HETATM   13  H   UNL     1     -10.535   0.912 -31.854  1.00  0.00     0.166 HD
HETATM   14  C   UNL     1     -11.164   1.973 -33.574  1.00  0.00     0.042 A 
HETATM   15  C   UNL     1     -10.621   3.098 -34.186  1.00  0.00    -0.007 A 
HETATM   16  C   UNL     1     -12.297   1.314 -34.067  1.00  0.00     0.030 A 
HETATM   17  C   UNL     1      -9.492   3.487 -33.417  1.00  0.00     0.041 A 
HETATM   18  C   UNL     1     -11.234   3.599 -35.350  1.00  0.00     0.014 A 
HETATM   19  C   UNL     1     -12.367   2.953 -35.860  1.00  0.00     0.001 A 
HETATM   20  C   UNL     1     -12.888   1.828 -35.225  1.00  0.00     0.002 A 
ENDBRANCH   4  11
BRANCH   1  21
HETATM   21  C   UNL     1      -5.523  -0.373 -32.425  1.00  0.00     0.072 A 
HETATM   22  C   UNL     1      -6.093  -0.976 -33.563  1.00  0.00     0.095 A 
HETATM   23  C   UNL     1      -5.520  -2.118 -34.129  1.00  0.00     0.042 A 
HETATM   24  C   UNL     1      -4.343  -2.633 -33.589  1.00  0.00     0.045 A 
HETATM   25  C   UNL     1      -3.762  -2.011 -32.489  1.00  0.00     0.118 A 
HETATM   26  C   UNL     1      -4.339  -0.889 -31.900  1.00  0.00     0.074 A 
HETATM   27  F   UNL     1      -2.625  -2.507 -31.984  1.00  0.00    -0.206 F 
BRANCH  22  28
HETATM   28  O   UNL     1      -7.266  -0.434 -34.039  1.00  0.00    -0.354 OA
HETATM   29  C   UNL     1      -7.120   0.136 -35.339  1.00  0.00     0.210 C 
ENDBRANCH  22  28
ENDBRANCH   1  21
TORSDOF 3
ENDMDL
MODEL 8
REMARK VINA RESULT:      -8.3      5.256      8.021
REMARK  3 active torsions:
REMARK  status: ('A' for Active; 'I' for Inactive)
REMARK    1  A    between atoms: O_2  and  C_3 
REMARK    2  A    between atoms: C_4  and  N_5 
REMARK       I    between atoms: N_5  and  C_6 
REMARK       I    between atoms: C_6  and  N_7 
REMARK    3  A    between atoms: C_8  and  C_9 
ROOT
HETATM    1  N   UNL     1      -3.493   5.241 -30.880  1.00  0.00    -0.306 N 
HETATM    2  C   UNL     1      -4.343   5.268 -31.956  1.00  0.00     0.323 C 
HETATM    3  N   UNL     1      -5.546   4.594 -31.748  1.00  0.00    -0.324 N 
HETATM    4  C   UNL     1      -5.702   3.447 -30.832  1.00  0.00     0.139 C 
HETATM    5  C   UNL     1      -7.099   3.467 -30.190  1.00  0.00     0.032 C 
HETATM    6  C   UNL     1      -8.222   3.599 -31.219  1.00  0.00     0.004 C 
HETATM    7  C   UNL     1      -7.978   4.794 -32.133  1.00  0.00     0.020 C 
HETATM    8  C   UNL     1      -6.591   4.746 -32.764  1.00  0.00     0.128 C 
HETATM    9  O   UNL     1      -4.088   5.820 -33.023  1.00  0.00    -0.247 OA
HETATM   10  H   UNL     1      -3.925   5.154 -29.970  1.00  0.00     0.171 HD
ENDROOT
BRANCH   4  11
HETATM   11  C   UNL     1      -5.384   2.164 -31.565  1.00  0.00     0.033 A 
HETATM   12  N   UNL     1      -6.378   1.308 -31.995  1.00  0.00    -0.357 N 
HETATM   13  H   UNL     1      -7.366   1.443 -31.831  1.00  0.00     0.166 HD
HETATM   14  C   UNL     1      -5.843   0.214 -32.634  1.00  0.00     0.042 A 
HETATM   15  C   UNL     1      -4.461   0.376 -32.636  1.00  0.00    -0.007 A 
HETATM   16  C   UNL     1      -6.476  -0.899 -33.202  1.00  0.00     0.030 A 
HETATM   17  C   UNL     1      -4.186   1.606 -31.980  1.00  0.00     0.041 A 
HETATM   18  C   UNL     1      -3.662  -0.617 -33.232  1.00  0.00     0.014 A 
HETATM   19  C   UNL     1      -4.276  -1.738 -33.803  1.00  0.00     0.001 A 
HETATM   20  C   UNL     1      -5.662  -1.874 -33.787  1.00  0.00     0.002 A 
ENDBRANCH   4  11
BRANCH   1  21
HETATM   21  C   UNL     1      -2.152   5.680 -30.819  1.00  0.00     0.072 A 
HETATM   22  C   UNL     1      -1.936   6.994 -30.358  1.00  0.00     0.095 A 
HETATM   23  C   UNL     1      -0.645   7.523 -30.285  1.00  0.00     0.042 A 
HETATM   24  C   UNL     1       0.443   6.721 -30.625  1.00  0.00     0.045 A 
HETATM   25  C   UNL     1       0.228   5.411 -31.042  1.00  0.00     0.118 A 
HETATM   26  C   UNL     1      -1.056   4.883 -31.145  1.00  0.00     0.074 A 
HETATM   27  F   UNL     1       1.281   4.645 -31.356  1.00  0.00    -0.206 F 
BRANCH  22  28
HETATM   28  O   UNL     1      -3.051   7.744 -30.056  1.00  0.00    -0.354 OA
HETATM   29  C   UNL     1      -3.172   8.904 -30.877  1.00  0.00     0.210 C 
ENDBRANCH  22  28
ENDBRANCH   1  21
TORSDOF 3
ENDMDL
MODEL 9
REMARK VINA RESULT:      -8.2      3.075      7.513
REMARK  3 active torsions:
REMARK  status: ('A' for Active; 'I' for Inactive)
REMARK    1  A    between atoms: O_2  and  C_3 
REMARK    2  A    between atoms: C_4  and  N_5 
REMARK       I    between atoms: N_5  and  C_6 
REMARK       I    between atoms: C_6  and  N_7 
REMARK    3  A    between atoms: C_8  and  C_9 
ROOT
HETATM    1  N   UNL     1      -8.583   0.800 -34.340  1.00  0.00    -0.306 N 
HETATM    2  C   UNL     1      -9.807   0.734 -33.723  1.00  0.00     0.323 C 
HETATM    3  N   UNL     1     -10.671   1.775 -34.062  1.00  0.00    -0.324 N 
HETATM    4  C   UNL     1     -10.223   3.124 -34.461  1.00  0.00     0.139 C 
HETATM    5  C   UNL     1     -11.186   3.715 -35.503  1.00  0.00     0.032 C 
HETATM    6  C   UNL     1     -12.649   3.652 -35.061  1.00  0.00     0.004 C 
HETATM    7  C   UNL     1     -13.026   2.233 -34.651  1.00  0.00     0.020 C 
HETATM    8  C   UNL     1     -12.062   1.673 -33.611  1.00  0.00     0.128 C 
HETATM    9  O   UNL     1     -10.134  -0.146 -32.933  1.00  0.00    -0.247 OA
HETATM   10  H   UNL     1      -8.558   1.267 -35.237  1.00  0.00     0.171 HD
ENDROOT
BRANCH   4  11
HETATM   11  C   UNL     1     -10.045   3.986 -33.233  1.00  0.00     0.033 A 
HETATM   12  N   UNL     1      -9.023   3.764 -32.332  1.00  0.00    -0.357 N 
HETATM   13  H   UNL     1      -8.352   3.010 -32.396  1.00  0.00     0.166 HD
HETATM   14  C   UNL     1      -9.067   4.674 -31.303  1.00  0.00     0.042 A 
HETATM   15  C   UNL     1     -10.139   5.525 -31.555  1.00  0.00    -0.007 A 
HETATM   16  C   UNL     1      -8.247   4.804 -30.175  1.00  0.00     0.030 A 
HETATM   17  C   UNL     1     -10.733   5.096 -32.772  1.00  0.00     0.041 A 
HETATM   18  C   UNL     1     -10.414   6.560 -30.641  1.00  0.00     0.014 A 
HETATM   19  C   UNL     1      -9.606   6.704 -29.506  1.00  0.00     0.001 A 
HETATM   20  C   UNL     1      -8.539   5.837 -29.280  1.00  0.00     0.002 A 
ENDBRANCH   4  11
BRANCH   1  21
HETATM   21  C   UNL     1      -7.442   0.005 -34.096  1.00  0.00     0.072 A 
HETATM   22  C   UNL     1      -6.639   0.370 -32.997  1.00  0.00     0.095 A 
HETATM   23  C   UNL     1      -5.478  -0.345 -32.691  1.00  0.00     0.042 A 
HETATM   24  C   UNL     1      -5.140  -1.461 -33.455  1.00  0.00     0.045 A 
HETATM   25  C   UNL     1      -5.957  -1.841 -34.515  1.00  0.00     0.118 A 
HETATM   26  C   UNL     1      -7.102  -1.121 -34.845  1.00  0.00     0.074 A 
HETATM   27  F   UNL     1      -5.630  -2.922 -35.235  1.00  0.00    -0.206 F 
BRANCH  22  28
HETATM   28  O   UNL     1      -7.013   1.493 -32.293  1.00  0.00    -0.354 OA
HETATM   29  C   UNL     1      -6.843   1.340 -30.885  1.00  0.00     0.210 C 
ENDBRANCH  22  28
ENDBRANCH   1  21
TORSDOF 3
ENDMDL
MODEL 10
REMARK VINA RESULT:      -8.0      4.542      7.932
REMARK  3 active torsions:
REMARK  status: ('A' for Active; 'I' for Inactive)
REMARK    1  A    between atoms: O_2  and  C_3 
REMARK    2  A    between atoms: C_4  and  N_5 
REMARK       I    between atoms: N_5  and  C_6 
REMARK       I    between atoms: C_6  and  N_7 
REMARK    3  A    between atoms: C_8  and  C_9 
ROOT
HETATM    1  N   UNL     1      -5.267   2.219 -32.387  1.00  0.00    -0.306 N 
HETATM    2  C   UNL     1      -5.565   2.797 -31.179  1.00  0.00     0.323 C 
HETATM    3  N   UNL     1      -5.788   4.172 -31.245  1.00  0.00    -0.324 N 
HETATM    4  C   UNL     1      -5.172   5.061 -32.250  1.00  0.00     0.139 C 
HETATM    5  C   UNL     1      -6.141   6.195 -32.620  1.00  0.00     0.032 C 
HETATM    6  C   UNL     1      -6.691   6.927 -31.395  1.00  0.00     0.004 C 
HETATM    7  C   UNL     1      -7.293   5.940 -30.402  1.00  0.00     0.020 C 
HETATM    8  C   UNL     1      -6.310   4.831 -30.045  1.00  0.00     0.128 C 
HETATM    9  O   UNL     1      -5.625   2.183 -30.118  1.00  0.00    -0.247 OA
HETATM   10  H   UNL     1      -5.642   2.677 -33.207  1.00  0.00     0.171 HD
ENDROOT
BRANCH   4  11
HETATM   11  C   UNL     1      -3.829   5.542 -31.749  1.00  0.00     0.033 A 
HETATM   12  N   UNL     1      -2.719   4.721 -31.746  1.00  0.00    -0.357 N 
HETATM   13  H   UNL     1      -2.718   3.751 -32.034  1.00  0.00     0.166 HD
HETATM   14  C   UNL     1      -1.620   5.380 -31.248  1.00  0.00     0.042 A 
HETATM   15  C   UNL     1      -2.026   6.675 -30.938  1.00  0.00    -0.007 A 
HETATM   16  C   UNL     1      -0.310   4.929 -31.048  1.00  0.00     0.030 A 
HETATM   17  C   UNL     1      -3.405   6.770 -31.271  1.00  0.00     0.041 A 
HETATM   18  C   UNL     1      -1.083   7.571 -30.400  1.00  0.00     0.014 A 
HETATM   19  C   UNL     1       0.231   7.138 -30.191  1.00  0.00     0.001 A 
HETATM   20  C   UNL     1       0.609   5.835 -30.511  1.00  0.00     0.002 A 
ENDBRANCH   4  11
BRANCH   1  21
HETATM   21  C   UNL     1      -4.836   0.898 -32.638  1.00  0.00     0.072 A 
HETATM   22  C   UNL     1      -5.624   0.130 -33.518  1.00  0.00     0.095 A 
HETATM   23  C   UNL     1      -5.287  -1.195 -33.808  1.00  0.00     0.042 A 
HETATM   24  C   UNL     1      -4.130  -1.743 -33.257  1.00  0.00     0.045 A 
HETATM   25  C   UNL     1      -3.333  -0.969 -32.419  1.00  0.00     0.118 A 
HETATM   26  C   UNL     1      -3.674   0.343 -32.102  1.00  0.00     0.074 A 
HETATM   27  F   UNL     1      -2.218  -1.502 -31.904  1.00  0.00    -0.206 F 
BRANCH  22  28
HETATM   28  O   UNL     1      -6.764   0.719 -34.015  1.00  0.00    -0.354 OA
HETATM   29  C   UNL     1      -7.161   0.175 -35.273  1.00  0.00     0.210 C 
ENDBRANCH  22  28
ENDBRANCH   1  21
TORSDOF 3
ENDMDL
