MODEL 1
REMARK VINA RESULT:     -10.5      0.000      0.000
REMARK  4 active torsions:
REMARK  status: ('A' for Active; 'I' for Inactive)
REMARK    1  A    between atoms: N_4  and  C_5 
REMARK    2  A    between atoms: C_16  and  N_17 
REMARK       I    between atoms: N_17  and  C_18 
REMARK    3  A    between atoms: C_18  and  C_19 
REMARK       I    between atoms: C_19  and  N_20 
REMARK    4  A    between atoms: N_20  and  C_21 
ROOT
HETATM    1  N   UNL     1      -5.973   4.133 -32.381  1.00  0.00    -0.303 N 
HETATM    2  C   UNL     1      -6.404   4.497 -33.644  1.00  0.00     0.315 C 
HETATM    3  O   UNL     1      -5.726   4.637 -34.656  1.00  0.00    -0.262 OA
HETATM    4  H   UNL     1      -6.673   3.720 -31.771  1.00  0.00     0.171 HD
ENDROOT
BRANCH   1   5
HETATM    5  C   UNL     1      -4.627   4.022 -32.089  1.00  0.00     0.152 C 
HETATM    6  N   UNL     1      -3.908   2.837 -31.934  1.00  0.00    -0.045 N 
HETATM    7  N   UNL     1      -2.652   3.087 -31.432  1.00  0.00    -0.156 NA
HETATM    8  C   UNL     1      -2.524   4.417 -31.509  1.00  0.00     0.055 C 
HETATM    9  C   UNL     1      -1.254   5.073 -31.112  1.00  0.00     0.072 C 
HETATM   10  C   UNL     1      -3.708   5.039 -31.961  1.00  0.00     0.079 C 
BRANCH   6  11
HETATM   11  C   UNL     1      -4.203   1.531 -32.386  1.00  0.00     0.732 A 
HETATM   12  N   UNL     1      -5.184   1.232 -33.179  1.00  0.00    -0.067 NA
HETATM   13  C   UNL     1      -5.302  -0.089 -33.544  1.00  0.00     0.065 A 
HETATM   14  C   UNL     1      -4.441  -1.056 -33.177  1.00  0.00     0.036 A 
HETATM   15  C   UNL     1      -6.489  -0.398 -34.429  1.00  0.00     0.060 C 
HETATM   16  C   UNL     1      -4.563  -2.498 -33.572  1.00  0.00     0.046 C 
HETATM   17  C   UNL     1      -3.295  -0.672 -32.317  1.00  0.00     0.268 A 
HETATM   18  C   UNL     1      -5.933  -2.839 -34.160  1.00  0.00     0.005 C 
HETATM   19  C   UNL     1      -6.402  -1.757 -35.126  1.00  0.00     0.006 C 
HETATM   20  O   UNL     1      -2.425  -1.472 -31.990  1.00  0.00    -0.267 OA
HETATM   21  N   UNL     1      -3.277   0.632 -31.932  1.00  0.00    -0.152 N 
HETATM   22  H   UNL     1      -2.503   0.971 -31.370  1.00  0.00     0.188 HD
ENDBRANCH   6  11
ENDBRANCH   1   5
BRANCH   2  23
HETATM   23  C   UNL     1      -7.936   4.648 -33.734  1.00  0.00     0.310 C 
HETATM   24  N   UNL     1      -8.616   3.592 -33.173  1.00  0.00    -0.348 N 
HETATM   25  H   UNL     1      -8.011   2.841 -32.845  1.00  0.00     0.163 HD
HETATM   26  O   UNL     1      -8.415   5.630 -34.280  1.00  0.00    -0.262 OA
BRANCH  24  27
HETATM   27  C   UNL     1     -10.035   3.313 -33.389  1.00  0.00     0.084 C 
HETATM   28  C   UNL     1     -10.154   1.903 -34.021  1.00  0.00     0.025 C 
HETATM   29  C   UNL     1     -11.521   1.618 -34.658  1.00  0.00     0.002 C 
HETATM   30  C   UNL     1     -12.328   0.559 -33.896  1.00  0.00     0.000 C 
HETATM   31  C   UNL     1     -13.831   0.600 -34.221  1.00  0.00     0.000 C 
HETATM   32  C   UNL     1     -14.663   1.232 -33.095  1.00  0.00     0.000 C 
HETATM   33  C   UNL     1     -14.396   2.726 -32.904  1.00  0.00     0.000 C 
HETATM   34  C   UNL     1     -14.613   3.170 -31.458  1.00  0.00     0.000 C 
HETATM   35  C   UNL     1     -14.167   4.612 -31.195  1.00  0.00     0.000 C 
HETATM   36  C   UNL     1     -12.676   4.786 -30.856  1.00  0.00     0.000 C 
HETATM   37  C   UNL     1     -11.715   4.730 -32.053  1.00  0.00     0.002 C 
HETATM   38  C   UNL     1     -10.861   3.450 -32.084  1.00  0.00     0.025 C 
ENDBRANCH  24  27
ENDBRANCH   2  23
TORSDOF 4
ENDMDL
MODEL 2
REMARK VINA RESULT:      -9.9      4.084      7.432
REMARK  4 active torsions:
REMARK  status: ('A' for Active; 'I' for Inactive)
REMARK    1  A    between atoms: N_4  and  C_5 
REMARK    2  A    between atoms: C_16  and  N_17 
REMARK       I    between atoms: N_17  and  C_18 
REMARK    3  A    between atoms: C_18  and  C_19 
REMARK       I    between atoms: C_19  and  N_20 
REMARK    4  A    between atoms: N_20  and  C_21 
ROOT
HETATM    1  N   UNL     1      -5.475   4.873 -28.784  1.00  0.00    -0.303 N 
HETATM    2  C   UNL     1      -6.565   4.867 -29.636  1.00  0.00     0.315 C 
HETATM    3  O   UNL     1      -7.138   5.833 -30.126  1.00  0.00    -0.262 OA
HETATM    4  H   UNL     1      -4.916   4.023 -28.766  1.00  0.00     0.171 HD
ENDROOT
BRANCH   1   5
HETATM    5  C   UNL     1      -4.984   6.052 -28.258  1.00  0.00     0.152 C 
HETATM    6  N   UNL     1      -3.895   6.782 -28.734  1.00  0.00    -0.045 N 
HETATM    7  N   UNL     1      -3.546   7.777 -27.850  1.00  0.00    -0.156 NA
HETATM    8  C   UNL     1      -4.555   7.806 -26.971  1.00  0.00     0.055 C 
HETATM    9  C   UNL     1      -4.573   8.813 -25.881  1.00  0.00     0.072 C 
HETATM   10  C   UNL     1      -5.501   6.786 -27.214  1.00  0.00     0.079 C 
BRANCH   6  11
HETATM   11  C   UNL     1      -3.278   6.766 -30.006  1.00  0.00     0.732 A 
HETATM   12  N   UNL     1      -3.160   5.714 -30.752  1.00  0.00    -0.067 NA
HETATM   13  C   UNL     1      -2.560   5.890 -31.978  1.00  0.00     0.065 A 
HETATM   14  C   UNL     1      -2.150   7.079 -32.456  1.00  0.00     0.036 A 
HETATM   15  C   UNL     1      -2.400   4.626 -32.792  1.00  0.00     0.060 C 
HETATM   16  C   UNL     1      -1.497   7.279 -33.791  1.00  0.00     0.046 C 
HETATM   17  C   UNL     1      -2.352   8.275 -31.601  1.00  0.00     0.268 A 
HETATM   18  C   UNL     1      -1.038   5.967 -34.430  1.00  0.00     0.005 C 
HETATM   19  C   UNL     1      -2.092   4.879 -34.269  1.00  0.00     0.006 C 
HETATM   20  O   UNL     1      -2.071   9.406 -31.982  1.00  0.00    -0.267 OA
HETATM   21  N   UNL     1      -2.881   8.023 -30.375  1.00  0.00    -0.152 N 
HETATM   22  H   UNL     1      -3.077   8.799 -29.752  1.00  0.00     0.188 HD
ENDBRANCH   6  11
ENDBRANCH   1   5
BRANCH   2  23
HETATM   23  C   UNL     1      -7.004   3.444 -30.038  1.00  0.00     0.310 C 
HETATM   24  N   UNL     1      -5.986   2.700 -30.588  1.00  0.00    -0.348 N 
HETATM   25  H   UNL     1      -5.118   3.220 -30.712  1.00  0.00     0.163 HD
HETATM   26  O   UNL     1      -8.162   3.099 -29.864  1.00  0.00    -0.262 OA
BRANCH  24  27
HETATM   27  C   UNL     1      -6.178   1.459 -31.337  1.00  0.00     0.084 C 
HETATM   28  C   UNL     1      -7.181   1.743 -32.484  1.00  0.00     0.025 C 
HETATM   29  C   UNL     1      -7.782   0.479 -33.115  1.00  0.00     0.002 C 
HETATM   30  C   UNL     1      -7.305   0.245 -34.554  1.00  0.00     0.000 C 
HETATM   31  C   UNL     1      -7.505  -1.205 -35.025  1.00  0.00     0.000 C 
HETATM   32  C   UNL     1      -6.191  -2.003 -35.059  1.00  0.00     0.000 C 
HETATM   33  C   UNL     1      -5.596  -2.255 -33.672  1.00  0.00     0.000 C 
HETATM   34  C   UNL     1      -4.072  -2.365 -33.711  1.00  0.00     0.000 C 
HETATM   35  C   UNL     1      -3.435  -2.424 -32.319  1.00  0.00     0.000 C 
HETATM   36  C   UNL     1      -3.159  -1.058 -31.666  1.00  0.00     0.000 C 
HETATM   37  C   UNL     1      -4.383  -0.360 -31.053  1.00  0.00     0.002 C 
HETATM   38  C   UNL     1      -4.838   0.875 -31.851  1.00  0.00     0.025 C 
ENDBRANCH  24  27
ENDBRANCH   2  23
TORSDOF 4
ENDMDL
MODEL 3
REMARK VINA RESULT:      -9.8      3.909      7.857
REMARK  4 active torsions:
REMARK  status: ('A' for Active; 'I' for Inactive)
REMARK    1  A    between atoms: N_4  and  C_5 
REMARK    2  A    between atoms: C_16  and  N_17 
REMARK       I    between atoms: N_17  and  C_18 
REMARK    3  A    between atoms: C_18  and  C_19 
REMARK       I    between atoms: C_19  and  N_20 
REMARK    4  A    between atoms: N_20  and  C_21 
ROOT
HETATM    1  N   UNL     1      -6.790   4.407 -31.616  1.00  0.00    -0.303 N 
HETATM    2  C   UNL     1      -6.646   3.571 -32.708  1.00  0.00     0.315 C 
HETATM    3  O   UNL     1      -6.429   3.889 -33.872  1.00  0.00    -0.262 OA
HETATM    4  H   UNL     1      -6.604   3.992 -30.707  1.00  0.00     0.171 HD
ENDROOT
BRANCH   1   5
HETATM    5  C   UNL     1      -6.847   5.779 -31.768  1.00  0.00     0.152 C 
HETATM    6  N   UNL     1      -5.802   6.680 -31.561  1.00  0.00    -0.045 N 
HETATM    7  N   UNL     1      -6.260   7.977 -31.585  1.00  0.00    -0.156 NA
HETATM    8  C   UNL     1      -7.514   7.876 -32.040  1.00  0.00     0.055 C 
HETATM    9  C   UNL     1      -8.331   9.094 -32.269  1.00  0.00     0.072 C 
HETATM   10  C   UNL     1      -7.908   6.532 -32.218  1.00  0.00     0.079 C 
BRANCH   6  11
HETATM   11  C   UNL     1      -4.406   6.460 -31.537  1.00  0.00     0.732 A 
HETATM   12  N   UNL     1      -3.616   6.858 -30.591  1.00  0.00    -0.067 NA
HETATM   13  C   UNL     1      -2.286   6.527 -30.716  1.00  0.00     0.065 A 
HETATM   14  C   UNL     1      -1.784   5.779 -31.716  1.00  0.00     0.036 A 
HETATM   15  C   UNL     1      -1.395   7.055 -29.614  1.00  0.00     0.060 C 
HETATM   16  C   UNL     1      -0.336   5.413 -31.859  1.00  0.00     0.046 C 
HETATM   17  C   UNL     1      -2.724   5.289 -32.753  1.00  0.00     0.268 A 
HETATM   18  C   UNL     1       0.577   6.234 -30.946  1.00  0.00     0.005 C 
HETATM   19  C   UNL     1      -0.024   6.380 -29.554  1.00  0.00     0.006 C 
HETATM   20  O   UNL     1      -2.366   4.548 -33.662  1.00  0.00    -0.267 OA
HETATM   21  N   UNL     1      -4.007   5.712 -32.612  1.00  0.00    -0.152 N 
HETATM   22  H   UNL     1      -4.710   5.388 -33.268  1.00  0.00     0.188 HD
ENDBRANCH   6  11
ENDBRANCH   1   5
BRANCH   2  23
HETATM   23  C   UNL     1      -6.693   2.077 -32.330  1.00  0.00     0.310 C 
HETATM   24  N   UNL     1      -5.798   1.311 -33.042  1.00  0.00    -0.348 N 
HETATM   25  H   UNL     1      -5.291   1.831 -33.757  1.00  0.00     0.163 HD
HETATM   26  O   UNL     1      -7.485   1.693 -31.483  1.00  0.00    -0.262 OA
BRANCH  24  27
HETATM   27  C   UNL     1      -5.839  -0.148 -33.124  1.00  0.00     0.084 C 
HETATM   28  C   UNL     1      -6.655  -0.533 -34.384  1.00  0.00     0.025 C 
HETATM   29  C   UNL     1      -7.117  -1.997 -34.406  1.00  0.00     0.002 C 
HETATM   30  C   UNL     1      -6.414  -2.830 -35.485  1.00  0.00     0.000 C 
HETATM   31  C   UNL     1      -6.500  -4.343 -35.227  1.00  0.00     0.000 C 
HETATM   32  C   UNL     1      -5.178  -4.932 -34.710  1.00  0.00     0.000 C 
HETATM   33  C   UNL     1      -4.802  -4.447 -33.308  1.00  0.00     0.000 C 
HETATM   34  C   UNL     1      -3.289  -4.414 -33.096  1.00  0.00     0.000 C 
HETATM   35  C   UNL     1      -2.878  -3.751 -31.777  1.00  0.00     0.000 C 
HETATM   36  C   UNL     1      -2.743  -2.219 -31.826  1.00  0.00     0.000 C 
HETATM   37  C   UNL     1      -4.065  -1.438 -31.782  1.00  0.00     0.002 C 
HETATM   38  C   UNL     1      -4.421  -0.771 -33.123  1.00  0.00     0.025 C 
ENDBRANCH  24  27
ENDBRANCH   2  23
TORSDOF 4
ENDMDL
MODEL 4
REMARK VINA RESULT:      -9.8      2.615      8.430
REMARK  4 active torsions:
REMARK  status: ('A' for Active; 'I' for Inactive)
REMARK    1  A    between atoms: N_4  and  C_5 
REMARK    2  A    between atoms: C_16  and  N_17 
REMARK       I    between atoms: N_17  and  C_18 
REMARK    3  A    between atoms: C_18  and  C_19 
REMARK       I    between atoms: C_19  and  N_20 
REMARK    4  A    between atoms: N_20  and  C_21 
ROOT
HETATM    1  N   UNL     1      -8.197   3.729 -31.890  1.00  0.00    -0.303 N 
HETATM    2  C   UNL     1      -7.408   3.137 -32.859  1.00  0.00     0.315 C 
HETATM    3  O   UNL     1      -7.042   3.619 -33.925  1.00  0.00    -0.262 OA
HETATM    4  H   UNL     1      -8.106   3.356 -30.949  1.00  0.00     0.171 HD
ENDROOT
BRANCH   1   5
HETATM    5  C   UNL     1      -8.804   4.950 -32.110  1.00  0.00     0.152 C 
HETATM    6  N   UNL     1     -10.063   5.160 -32.673  1.00  0.00    -0.045 N 
HETATM    7  N   UNL     1     -10.262   6.494 -32.948  1.00  0.00    -0.156 NA
HETATM    8  C   UNL     1      -9.243   7.112 -32.340  1.00  0.00     0.055 C 
HETATM    9  C   UNL     1      -9.145   8.592 -32.357  1.00  0.00     0.072 C 
HETATM   10  C   UNL     1      -8.337   6.197 -31.760  1.00  0.00     0.079 C 
BRANCH   6  11
HETATM   11  C   UNL     1     -11.160   4.277 -32.798  1.00  0.00     0.732 A 
HETATM   12  N   UNL     1     -11.098   3.101 -33.340  1.00  0.00    -0.067 NA
HETATM   13  C   UNL     1     -12.259   2.363 -33.346  1.00  0.00     0.065 A 
HETATM   14  C   UNL     1     -13.413   2.763 -32.782  1.00  0.00     0.036 A 
HETATM   15  C   UNL     1     -12.151   1.020 -34.032  1.00  0.00     0.060 C 
HETATM   16  C   UNL     1     -14.682   1.963 -32.783  1.00  0.00     0.046 C 
HETATM   17  C   UNL     1     -13.436   4.089 -32.118  1.00  0.00     0.268 A 
HETATM   18  C   UNL     1     -14.644   0.791 -33.766  1.00  0.00     0.005 C 
HETATM   19  C   UNL     1     -13.304   0.068 -33.708  1.00  0.00     0.006 C 
HETATM   20  O   UNL     1     -14.423   4.505 -31.521  1.00  0.00    -0.267 OA
HETATM   21  N   UNL     1     -12.281   4.799 -32.211  1.00  0.00    -0.152 N 
HETATM   22  H   UNL     1     -12.216   5.701 -31.751  1.00  0.00     0.188 HD
ENDBRANCH   6  11
ENDBRANCH   1   5
BRANCH   2  23
HETATM   23  C   UNL     1      -6.898   1.741 -32.446  1.00  0.00     0.310 C 
HETATM   24  N   UNL     1      -6.524   0.965 -33.519  1.00  0.00    -0.348 N 
HETATM   25  H   UNL     1      -6.704   1.399 -34.423  1.00  0.00     0.163 HD
HETATM   26  O   UNL     1      -6.875   1.432 -31.265  1.00  0.00    -0.262 OA
BRANCH  24  27
HETATM   27  C   UNL     1      -6.309  -0.480 -33.460  1.00  0.00     0.084 C 
HETATM   28  C   UNL     1      -6.991  -1.117 -34.697  1.00  0.00     0.025 C 
HETATM   29  C   UNL     1      -7.191  -2.635 -34.588  1.00  0.00     0.002 C 
HETATM   30  C   UNL     1      -6.308  -3.427 -35.561  1.00  0.00     0.000 C 
HETATM   31  C   UNL     1      -6.143  -4.901 -35.159  1.00  0.00     0.000 C 
HETATM   32  C   UNL     1      -4.763  -5.198 -34.552  1.00  0.00     0.000 C 
HETATM   33  C   UNL     1      -4.538  -4.528 -33.195  1.00  0.00     0.000 C 
HETATM   34  C   UNL     1      -3.064  -4.210 -32.947  1.00  0.00     0.000 C 
HETATM   35  C   UNL     1      -2.831  -3.367 -31.688  1.00  0.00     0.000 C 
HETATM   36  C   UNL     1      -2.961  -1.846 -31.883  1.00  0.00     0.000 C 
HETATM   37  C   UNL     1      -4.399  -1.310 -31.951  1.00  0.00     0.002 C 
HETATM   38  C   UNL     1      -4.805  -0.841 -33.360  1.00  0.00     0.025 C 
ENDBRANCH  24  27
ENDBRANCH   2  23
TORSDOF 4
ENDMDL
MODEL 5
REMARK VINA RESULT:      -9.6      2.687      8.716
REMARK  4 active torsions:
REMARK  status: ('A' for Active; 'I' for Inactive)
REMARK    1  A    between atoms: N_4  and  C_5 
REMARK    2  A    between atoms: C_16  and  N_17 
REMARK       I    between atoms: N_17  and  C_18 
REMARK    3  A    between atoms: C_18  and  C_19 
REMARK       I    between atoms: C_19  and  N_20 
REMARK    4  A    between atoms: N_20  and  C_21 
ROOT
HETATM    1  N   UNL     1      -9.106   5.876 -34.386  1.00  0.00    -0.303 N 
HETATM    2  C   UNL     1      -8.647   5.078 -33.354  1.00  0.00     0.315 C 
HETATM    3  O   UNL     1      -9.162   4.904 -32.255  1.00  0.00    -0.262 OA
HETATM    4  H   UNL     1      -8.780   5.635 -35.318  1.00  0.00     0.171 HD
ENDROOT
BRANCH   1   5
HETATM    5  C   UNL     1     -10.187   6.719 -34.212  1.00  0.00     0.152 C 
HETATM    6  N   UNL     1     -11.533   6.376 -34.332  1.00  0.00    -0.045 N 
HETATM    7  N   UNL     1     -12.330   7.497 -34.313  1.00  0.00    -0.156 NA
HETATM    8  C   UNL     1     -11.503   8.483 -33.944  1.00  0.00     0.055 C 
HETATM    9  C   UNL     1     -12.019   9.860 -33.746  1.00  0.00     0.072 C 
HETATM   10  C   UNL     1     -10.169   8.038 -33.818  1.00  0.00     0.079 C 
BRANCH   6  11
HETATM   11  C   UNL     1     -12.156   5.108 -34.267  1.00  0.00     0.732 A 
HETATM   12  N   UNL     1     -12.875   4.693 -33.273  1.00  0.00    -0.067 NA
HETATM   13  C   UNL     1     -13.433   3.442 -33.394  1.00  0.00     0.065 A 
HETATM   14  C   UNL     1     -13.323   2.667 -34.489  1.00  0.00     0.036 A 
HETATM   15  C   UNL     1     -14.223   2.980 -32.190  1.00  0.00     0.060 C 
HETATM   16  C   UNL     1     -13.929   1.302 -34.629  1.00  0.00     0.046 C 
HETATM   17  C   UNL     1     -12.541   3.194 -35.634  1.00  0.00     0.268 A 
HETATM   18  C   UNL     1     -14.413   0.727 -33.297  1.00  0.00     0.005 C 
HETATM   19  C   UNL     1     -15.135   1.785 -32.471  1.00  0.00     0.006 C 
HETATM   20  O   UNL     1     -12.444   2.587 -36.695  1.00  0.00    -0.267 OA
HETATM   21  N   UNL     1     -11.956   4.402 -35.423  1.00  0.00    -0.152 N 
HETATM   22  H   UNL     1     -11.433   4.837 -36.176  1.00  0.00     0.188 HD
ENDBRANCH   6  11
ENDBRANCH   1   5
BRANCH   2  23
HETATM   23  C   UNL     1      -7.381   4.281 -33.730  1.00  0.00     0.310 C 
HETATM   24  N   UNL     1      -7.493   2.935 -33.468  1.00  0.00    -0.348 N 
HETATM   25  H   UNL     1      -8.363   2.678 -33.004  1.00  0.00     0.163 HD
HETATM   26  O   UNL     1      -6.415   4.867 -34.194  1.00  0.00    -0.262 OA
BRANCH  24  27
HETATM   27  C   UNL     1      -6.367   2.004 -33.424  1.00  0.00     0.084 C 
HETATM   28  C   UNL     1      -5.532   2.322 -32.159  1.00  0.00     0.025 C 
HETATM   29  C   UNL     1      -4.126   1.706 -32.167  1.00  0.00     0.002 C 
HETATM   30  C   UNL     1      -3.954   0.593 -31.126  1.00  0.00     0.000 C 
HETATM   31  C   UNL     1      -2.760  -0.329 -31.423  1.00  0.00     0.000 C 
HETATM   32  C   UNL     1      -3.190  -1.694 -31.984  1.00  0.00     0.000 C 
HETATM   33  C   UNL     1      -3.811  -1.610 -33.379  1.00  0.00     0.000 C 
HETATM   34  C   UNL     1      -4.834  -2.720 -33.622  1.00  0.00     0.000 C 
HETATM   35  C   UNL     1      -5.612  -2.550 -34.931  1.00  0.00     0.000 C 
HETATM   36  C   UNL     1      -6.854  -1.645 -34.843  1.00  0.00     0.000 C 
HETATM   37  C   UNL     1      -6.572  -0.135 -34.838  1.00  0.00     0.002 C 
HETATM   38  C   UNL     1      -6.831   0.526 -33.472  1.00  0.00     0.025 C 
ENDBRANCH  24  27
ENDBRANCH   2  23
TORSDOF 4
ENDMDL
MODEL 6
REMARK VINA RESULT:      -9.5      2.313      8.170
REMARK  4 active torsions:
REMARK  status: ('A' for Active; 'I' for Inactive)
REMARK    1  A    between atoms: N_4  and  C_5 
REMARK    2  A    between atoms: C_16  and  N_17 
REMARK       I    between atoms: N_17  and  C_18 
REMARK    3  A    between atoms: C_18  and  C_19 
REMARK       I    between atoms: C_19  and  N_20 
REMARK    4  A    between atoms: N_20  and  C_21 
ROOT
HETATM    1  N   UNL     1      -7.090   3.453 -32.700  1.00  0.00    -0.303 N 
HETATM    2  C   UNL     1      -6.862   4.577 -33.472  1.00  0.00     0.315 C 
HETATM    3  O   UNL     1      -7.590   5.056 -34.334  1.00  0.00    -0.262 OA
HETATM    4  H   UNL     1      -6.587   3.404 -31.818  1.00  0.00     0.171 HD
ENDROOT
BRANCH   1   5
HETATM    5  C   UNL     1      -8.171   2.626 -32.943  1.00  0.00     0.152 C 
HETATM    6  N   UNL     1      -8.119   1.283 -33.316  1.00  0.00    -0.045 N 
HETATM    7  N   UNL     1      -9.363   0.829 -33.690  1.00  0.00    -0.156 NA
HETATM    8  C   UNL     1     -10.197   1.808 -33.319  1.00  0.00     0.055 C 
HETATM    9  C   UNL     1     -11.662   1.656 -33.502  1.00  0.00     0.072 C 
HETATM   10  C   UNL     1      -9.507   2.926 -32.802  1.00  0.00     0.079 C 
BRANCH   6  11
HETATM   11  C   UNL     1      -7.075   0.341 -33.173  1.00  0.00     0.732 A 
HETATM   12  N   UNL     1      -6.838  -0.625 -34.004  1.00  0.00    -0.067 NA
HETATM   13  C   UNL     1      -5.757  -1.428 -33.725  1.00  0.00     0.065 A 
HETATM   14  C   UNL     1      -4.917  -1.234 -32.692  1.00  0.00     0.036 A 
HETATM   15  C   UNL     1      -5.550  -2.571 -34.694  1.00  0.00     0.060 C 
HETATM   16  C   UNL     1      -3.735  -2.105 -32.382  1.00  0.00     0.046 C 
HETATM   17  C   UNL     1      -5.180  -0.085 -31.792  1.00  0.00     0.268 A 
HETATM   18  C   UNL     1      -3.754  -3.427 -33.152  1.00  0.00     0.005 C 
HETATM   19  C   UNL     1      -4.164  -3.212 -34.604  1.00  0.00     0.006 C 
HETATM   20  O   UNL     1      -4.430   0.207 -30.867  1.00  0.00    -0.267 OA
HETATM   21  N   UNL     1      -6.303   0.624 -32.079  1.00  0.00    -0.152 N 
HETATM   22  H   UNL     1      -6.526   1.443 -31.524  1.00  0.00     0.188 HD
ENDBRANCH   6  11
ENDBRANCH   1   5
BRANCH   2  23
HETATM   23  C   UNL     1      -5.559   5.310 -33.092  1.00  0.00     0.310 C 
HETATM   24  N   UNL     1      -5.314   5.308 -31.738  1.00  0.00    -0.348 N 
HETATM   25  H   UNL     1      -6.059   4.886 -31.186  1.00  0.00     0.163 HD
HETATM   26  O   UNL     1      -4.880   5.826 -33.966  1.00  0.00    -0.262 OA
BRANCH  24  27
HETATM   27  C   UNL     1      -4.346   6.177 -31.071  1.00  0.00     0.084 C 
HETATM   28  C   UNL     1      -4.902   6.522 -29.666  1.00  0.00     0.025 C 
HETATM   29  C   UNL     1      -4.208   7.716 -28.995  1.00  0.00     0.002 C 
HETATM   30  C   UNL     1      -3.368   7.314 -27.777  1.00  0.00     0.000 C 
HETATM   31  C   UNL     1      -2.324   8.374 -27.390  1.00  0.00     0.000 C 
HETATM   32  C   UNL     1      -0.897   7.975 -27.798  1.00  0.00     0.000 C 
HETATM   33  C   UNL     1      -0.685   7.937 -29.313  1.00  0.00     0.000 C 
HETATM   34  C   UNL     1       0.379   6.919 -29.720  1.00  0.00     0.000 C 
HETATM   35  C   UNL     1       0.476   6.719 -31.237  1.00  0.00     0.000 C 
HETATM   36  C   UNL     1      -0.505   5.691 -31.826  1.00  0.00     0.000 C 
HETATM   37  C   UNL     1      -1.950   6.182 -32.004  1.00  0.00     0.002 C 
HETATM   38  C   UNL     1      -2.935   5.540 -31.010  1.00  0.00     0.025 C 
ENDBRANCH  24  27
ENDBRANCH   2  23
TORSDOF 4
ENDMDL
MODEL 7
REMARK VINA RESULT:      -9.4      3.701      8.226
REMARK  4 active torsions:
REMARK  status: ('A' for Active; 'I' for Inactive)
REMARK    1  A    between atoms: N_4  and  C_5 
REMARK    2  A    between atoms: C_16  and  N_17 
REMARK       I    between atoms: N_17  and  C_18 
REMARK    3  A    between atoms: C_18  and  C_19 
REMARK       I    between atoms: C_19  and  N_20 
REMARK    4  A    between atoms: N_20  and  C_21 
ROOT
HETATM    1  N   UNL     1      -6.675   3.553 -31.847  1.00  0.00    -0.303 N 
HETATM    2  C   UNL     1      -6.798   2.752 -30.727  1.00  0.00     0.315 C 
HETATM    3  O   UNL     1      -7.445   2.978 -29.711  1.00  0.00    -0.262 OA
HETATM    4  H   UNL     1      -6.417   3.081 -32.710  1.00  0.00     0.171 HD
ENDROOT
BRANCH   1   5
HETATM    5  C   UNL     1      -7.192   4.834 -31.871  1.00  0.00     0.152 C 
HETATM    6  N   UNL     1      -6.514   6.008 -31.543  1.00  0.00    -0.045 N 
HETATM    7  N   UNL     1      -7.383   7.071 -31.461  1.00  0.00    -0.156 NA
HETATM    8  C   UNL     1      -8.529   6.601 -31.967  1.00  0.00     0.055 C 
HETATM    9  C   UNL     1      -9.709   7.490 -32.109  1.00  0.00     0.072 C 
HETATM   10  C   UNL     1      -8.445   5.227 -32.285  1.00  0.00     0.079 C 
BRANCH   6  11
HETATM   11  C   UNL     1      -5.126   6.270 -31.491  1.00  0.00     0.732 A 
HETATM   12  N   UNL     1      -4.204   5.364 -31.585  1.00  0.00    -0.067 NA
HETATM   13  C   UNL     1      -2.901   5.803 -31.547  1.00  0.00     0.065 A 
HETATM   14  C   UNL     1      -2.540   7.098 -31.479  1.00  0.00     0.036 A 
HETATM   15  C   UNL     1      -1.861   4.707 -31.610  1.00  0.00     0.060 C 
HETATM   16  C   UNL     1      -1.122   7.584 -31.439  1.00  0.00     0.046 C 
HETATM   17  C   UNL     1      -3.619   8.115 -31.432  1.00  0.00     0.268 A 
HETATM   18  C   UNL     1      -0.118   6.466 -31.154  1.00  0.00     0.005 C 
HETATM   19  C   UNL     1      -0.455   5.209 -31.947  1.00  0.00     0.006 C 
HETATM   20  O   UNL     1      -3.384   9.318 -31.436  1.00  0.00    -0.267 OA
HETATM   21  N   UNL     1      -4.881   7.613 -31.397  1.00  0.00    -0.152 N 
HETATM   22  H   UNL     1      -5.668   8.253 -31.398  1.00  0.00     0.188 HD
ENDBRANCH   6  11
ENDBRANCH   1   5
BRANCH   2  23
HETATM   23  C   UNL     1      -6.077   1.397 -30.877  1.00  0.00     0.310 C 
HETATM   24  N   UNL     1      -5.358   1.295 -32.046  1.00  0.00    -0.348 N 
HETATM   25  H   UNL     1      -5.465   2.097 -32.665  1.00  0.00     0.163 HD
HETATM   26  O   UNL     1      -6.198   0.549 -30.006  1.00  0.00    -0.262 OA
BRANCH  24  27
HETATM   27  C   UNL     1      -4.846   0.041 -32.596  1.00  0.00     0.084 C 
HETATM   28  C   UNL     1      -3.809  -0.532 -31.597  1.00  0.00     0.025 C 
HETATM   29  C   UNL     1      -2.907  -1.623 -32.191  1.00  0.00     0.002 C 
HETATM   30  C   UNL     1      -3.178  -3.012 -31.597  1.00  0.00     0.000 C 
HETATM   31  C   UNL     1      -2.646  -4.155 -32.476  1.00  0.00     0.000 C 
HETATM   32  C   UNL     1      -3.764  -4.885 -33.238  1.00  0.00     0.000 C 
HETATM   33  C   UNL     1      -4.435  -4.021 -34.308  1.00  0.00     0.000 C 
HETATM   34  C   UNL     1      -5.894  -4.415 -34.534  1.00  0.00     0.000 C 
HETATM   35  C   UNL     1      -6.646  -3.447 -35.454  1.00  0.00     0.000 C 
HETATM   36  C   UNL     1      -7.254  -2.217 -34.757  1.00  0.00     0.000 C 
HETATM   37  C   UNL     1      -6.263  -1.093 -34.419  1.00  0.00     0.002 C 
HETATM   38  C   UNL     1      -5.983  -0.964 -32.910  1.00  0.00     0.025 C 
ENDBRANCH  24  27
ENDBRANCH   2  23
TORSDOF 4
ENDMDL
MODEL 8
REMARK VINA RESULT:      -9.3      4.221      8.388
REMARK  4 active torsions:
REMARK  status: ('A' for Active; 'I' for Inactive)
REMARK    1  A    between atoms: N_4  and  C_5 
REMARK    2  A    between atoms: C_16  and  N_17 
REMARK       I    between atoms: N_17  and  C_18 
REMARK    3  A    between atoms: C_18  and  C_19 
REMARK       I    between atoms: C_19  and  N_20 
REMARK    4  A    between atoms: N_20  and  C_21 
ROOT
HETATM    1  N   UNL     1      -6.191   6.229 -30.019  1.00  0.00    -0.303 N 
HETATM    2  C   UNL     1      -5.688   6.579 -31.259  1.00  0.00     0.315 C 
HETATM    3  O   UNL     1      -5.309   7.684 -31.629  1.00  0.00    -0.262 OA
HETATM    4  H   UNL     1      -6.115   5.247 -29.766  1.00  0.00     0.171 HD
ENDROOT
BRANCH   1   5
HETATM    5  C   UNL     1      -6.464   7.186 -29.061  1.00  0.00     0.152 C 
HETATM    6  N   UNL     1      -5.639   7.554 -27.999  1.00  0.00    -0.045 N 
HETATM    7  N   UNL     1      -6.308   8.372 -27.117  1.00  0.00    -0.156 NA
HETATM    8  C   UNL     1      -7.440   8.691 -27.757  1.00  0.00     0.055 C 
HETATM    9  C   UNL     1      -8.412   9.628 -27.141  1.00  0.00     0.072 C 
HETATM   10  C   UNL     1      -7.559   8.019 -28.993  1.00  0.00     0.079 C 
BRANCH   6  11
HETATM   11  C   UNL     1      -4.247   7.380 -27.828  1.00  0.00     0.732 A 
HETATM   12  N   UNL     1      -3.379   7.417 -28.790  1.00  0.00    -0.067 NA
HETATM   13  C   UNL     1      -2.058   7.260 -28.436  1.00  0.00     0.065 A 
HETATM   14  C   UNL     1      -1.625   7.131 -27.169  1.00  0.00     0.036 A 
HETATM   15  C   UNL     1      -1.088   7.261 -29.595  1.00  0.00     0.060 C 
HETATM   16  C   UNL     1      -0.187   6.960 -26.775  1.00  0.00     0.046 C 
HETATM   17  C   UNL     1      -2.638   7.150 -26.085  1.00  0.00     0.268 A 
HETATM   18  C   UNL     1       0.717   6.619 -27.961  1.00  0.00     0.005 C 
HETATM   19  C   UNL     1       0.370   7.467 -29.179  1.00  0.00     0.006 C 
HETATM   20  O   UNL     1      -2.328   7.106 -24.899  1.00  0.00    -0.267 OA
HETATM   21  N   UNL     1      -3.927   7.234 -26.505  1.00  0.00    -0.152 N 
HETATM   22  H   UNL     1      -4.670   7.286 -25.816  1.00  0.00     0.188 HD
ENDBRANCH   6  11
ENDBRANCH   1   5
BRANCH   2  23
HETATM   23  C   UNL     1      -5.537   5.372 -32.207  1.00  0.00     0.310 C 
HETATM   24  N   UNL     1      -5.543   4.164 -31.549  1.00  0.00    -0.348 N 
HETATM   25  H   UNL     1      -5.576   4.249 -30.534  1.00  0.00     0.163 HD
HETATM   26  O   UNL     1      -5.415   5.560 -33.408  1.00  0.00    -0.262 OA
BRANCH  24  27
HETATM   27  C   UNL     1      -5.108   2.898 -32.137  1.00  0.00     0.084 C 
HETATM   28  C   UNL     1      -4.163   2.201 -31.127  1.00  0.00     0.025 C 
HETATM   29  C   UNL     1      -3.325   1.067 -31.736  1.00  0.00     0.002 C 
HETATM   30  C   UNL     1      -3.729  -0.320 -31.220  1.00  0.00     0.000 C 
HETATM   31  C   UNL     1      -3.252  -1.462 -32.131  1.00  0.00     0.000 C 
HETATM   32  C   UNL     1      -4.390  -2.064 -32.971  1.00  0.00     0.000 C 
HETATM   33  C   UNL     1      -4.944  -1.102 -34.024  1.00  0.00     0.000 C 
HETATM   34  C   UNL     1      -6.418  -1.367 -34.326  1.00  0.00     0.000 C 
HETATM   35  C   UNL     1      -7.051  -0.302 -35.228  1.00  0.00     0.000 C 
HETATM   36  C   UNL     1      -7.590   0.941 -34.497  1.00  0.00     0.000 C 
HETATM   37  C   UNL     1      -6.529   1.965 -34.067  1.00  0.00     0.002 C 
HETATM   38  C   UNL     1      -6.306   2.003 -32.544  1.00  0.00     0.025 C 
ENDBRANCH  24  27
ENDBRANCH   2  23
TORSDOF 4
ENDMDL
MODEL 9
REMARK VINA RESULT:      -9.3      2.465      8.151
REMARK  4 active torsions:
REMARK  status: ('A' for Active; 'I' for Inactive)
REMARK    1  A    between atoms: N_4  and  C_5 
REMARK    2  A    between atoms: C_16  and  N_17 
REMARK       I    between atoms: N_17  and  C_18 
REMARK    3  A    between atoms: C_18  and  C_19 
REMARK       I    between atoms: C_19  and  N_20 
REMARK    4  A    between atoms: N_20  and  C_21 
ROOT
HETATM    1  N   UNL     1      -7.955   2.610 -31.708  1.00  0.00    -0.303 N 
HETATM    2  C   UNL     1      -7.226   3.712 -32.116  1.00  0.00     0.315 C 
HETATM    3  O   UNL     1      -7.389   4.385 -33.128  1.00  0.00    -0.262 OA
HETATM    4  H   UNL     1      -7.932   2.401 -30.713  1.00  0.00     0.171 HD
ENDROOT
BRANCH   1   5
HETATM    5  C   UNL     1      -8.910   2.040 -32.527  1.00  0.00     0.152 C 
HETATM    6  N   UNL     1      -8.701   1.031 -33.468  1.00  0.00    -0.045 N 
HETATM    7  N   UNL     1      -9.814   0.858 -34.258  1.00  0.00    -0.156 NA
HETATM    8  C   UNL     1     -10.765   1.579 -33.652  1.00  0.00     0.055 C 
HETATM    9  C   UNL     1     -12.151   1.590 -34.183  1.00  0.00     0.072 C 
HETATM   10  C   UNL     1     -10.264   2.291 -32.541  1.00  0.00     0.079 C 
BRANCH   6  11
HETATM   11  C   UNL     1      -7.650   0.092 -33.572  1.00  0.00     0.732 A 
HETATM   12  N   UNL     1      -7.773  -1.095 -34.076  1.00  0.00    -0.067 NA
HETATM   13  C   UNL     1      -6.634  -1.865 -34.129  1.00  0.00     0.065 A 
HETATM   14  C   UNL     1      -5.415  -1.440 -33.747  1.00  0.00     0.036 A 
HETATM   15  C   UNL     1      -6.837  -3.260 -34.678  1.00  0.00     0.060 C 
HETATM   16  C   UNL     1      -4.169  -2.273 -33.803  1.00  0.00     0.046 C 
HETATM   17  C   UNL     1      -5.296  -0.056 -33.229  1.00  0.00     0.268 A 
HETATM   18  C   UNL     1      -4.457  -3.759 -34.025  1.00  0.00     0.005 C 
HETATM   19  C   UNL     1      -5.537  -3.958 -35.082  1.00  0.00     0.006 C 
HETATM   20  O   UNL     1      -4.216   0.437 -32.922  1.00  0.00    -0.267 OA
HETATM   21  N   UNL     1      -6.468   0.626 -33.134  1.00  0.00    -0.152 N 
HETATM   22  H   UNL     1      -6.456   1.590 -32.818  1.00  0.00     0.188 HD
ENDBRANCH   6  11
ENDBRANCH   1   5
BRANCH   2  23
HETATM   23  C   UNL     1      -6.154   4.135 -31.092  1.00  0.00     0.310 C 
HETATM   24  N   UNL     1      -5.219   4.998 -31.615  1.00  0.00    -0.348 N 
HETATM   25  H   UNL     1      -5.333   5.173 -32.612  1.00  0.00     0.163 HD
HETATM   26  O   UNL     1      -6.196   3.689 -29.955  1.00  0.00    -0.262 OA
BRANCH  24  27
HETATM   27  C   UNL     1      -3.936   5.309 -30.986  1.00  0.00     0.084 C 
HETATM   28  C   UNL     1      -2.819   5.057 -32.029  1.00  0.00     0.025 C 
HETATM   29  C   UNL     1      -1.410   4.963 -31.425  1.00  0.00     0.002 C 
HETATM   30  C   UNL     1      -0.513   6.146 -31.810  1.00  0.00     0.000 C 
HETATM   31  C   UNL     1       0.694   6.315 -30.873  1.00  0.00     0.000 C 
HETATM   32  C   UNL     1       0.524   7.490 -29.896  1.00  0.00     0.000 C 
HETATM   33  C   UNL     1      -0.582   7.268 -28.863  1.00  0.00     0.000 C 
HETATM   34  C   UNL     1      -1.221   8.581 -28.413  1.00  0.00     0.000 C 
HETATM   35  C   UNL     1      -2.457   8.381 -27.529  1.00  0.00     0.000 C 
HETATM   36  C   UNL     1      -3.781   8.183 -28.288  1.00  0.00     0.000 C 
HETATM   37  C   UNL     1      -4.001   6.782 -28.879  1.00  0.00     0.002 C 
HETATM   38  C   UNL     1      -3.901   6.749 -30.415  1.00  0.00     0.025 C 
ENDBRANCH  24  27
ENDBRANCH   2  23
TORSDOF 4
ENDMDL
MODEL 10
REMARK VINA RESULT:      -9.2      2.680      8.126
REMARK  4 active torsions:
REMARK  status: ('A' for Active; 'I' for Inactive)
REMARK    1  A    between atoms: N_4  and  C_5 
REMARK    2  A    between atoms: C_16  and  N_17 
REMARK       I    between atoms: N_17  and  C_18 
REMARK    3  A    between atoms: C_18  and  C_19 
REMARK       I    between atoms: C_19  and  N_20 
REMARK    4  A    between atoms: N_20  and  C_21 
ROOT
HETATM    1  N   UNL     1      -6.993   3.490 -32.206  1.00  0.00    -0.303 N 
HETATM    2  C   UNL     1      -7.155   2.703 -31.080  1.00  0.00     0.315 C 
HETATM    3  O   UNL     1      -7.878   2.918 -30.114  1.00  0.00    -0.262 OA
HETATM    4  H   UNL     1      -6.658   3.015 -33.040  1.00  0.00     0.171 HD
ENDROOT
BRANCH   1   5
HETATM    5  C   UNL     1      -7.564   4.746 -32.290  1.00  0.00     0.152 C 
HETATM    6  N   UNL     1      -8.768   5.068 -32.915  1.00  0.00    -0.045 N 
HETATM    7  N   UNL     1      -8.925   6.432 -33.004  1.00  0.00    -0.156 NA
HETATM    8  C   UNL     1      -7.952   6.928 -32.230  1.00  0.00     0.055 C 
HETATM    9  C   UNL     1      -7.834   8.392 -32.018  1.00  0.00     0.072 C 
HETATM   10  C   UNL     1      -7.110   5.915 -31.722  1.00  0.00     0.079 C 
BRANCH   6  11
HETATM   11  C   UNL     1      -9.862   4.242 -33.259  1.00  0.00     0.732 A 
HETATM   12  N   UNL     1      -9.851   2.947 -33.202  1.00  0.00    -0.067 NA
HETATM   13  C   UNL     1     -11.019   2.305 -33.542  1.00  0.00     0.065 A 
HETATM   14  C   UNL     1     -12.163   2.935 -33.867  1.00  0.00     0.036 A 
HETATM   15  C   UNL     1     -10.943   0.795 -33.509  1.00  0.00     0.060 C 
HETATM   16  C   UNL     1     -13.440   2.241 -34.237  1.00  0.00     0.046 C 
HETATM   17  C   UNL     1     -12.160   4.418 -33.866  1.00  0.00     0.268 A 
HETATM   18  C   UNL     1     -13.243   0.753 -34.532  1.00  0.00     0.005 C 
HETATM   19  C   UNL     1     -12.311   0.109 -33.513  1.00  0.00     0.006 C 
HETATM   20  O   UNL     1     -13.173   5.074 -34.083  1.00  0.00    -0.267 OA
HETATM   21  N   UNL     1     -10.958   4.991 -33.594  1.00  0.00    -0.152 N 
HETATM   22  H   UNL     1     -10.892   6.002 -33.544  1.00  0.00     0.188 HD
ENDBRANCH   6  11
ENDBRANCH   1   5
BRANCH   2  23
HETATM   23  C   UNL     1      -6.367   1.380 -31.155  1.00  0.00     0.310 C 
HETATM   24  N   UNL     1      -5.620   1.261 -32.305  1.00  0.00    -0.348 N 
HETATM   25  H   UNL     1      -5.753   2.028 -32.962  1.00  0.00     0.163 HD
HETATM   26  O   UNL     1      -6.464   0.568 -30.248  1.00  0.00    -0.262 OA
BRANCH  24  27
HETATM   27  C   UNL     1      -5.037   0.010 -32.787  1.00  0.00     0.084 C 
HETATM   28  C   UNL     1      -3.977  -0.452 -31.756  1.00  0.00     0.025 C 
HETATM   29  C   UNL     1      -3.013  -1.522 -32.289  1.00  0.00     0.002 C 
HETATM   30  C   UNL     1      -3.212  -2.891 -31.625  1.00  0.00     0.000 C 
HETATM   31  C   UNL     1      -2.613  -4.048 -32.442  1.00  0.00     0.000 C 
HETATM   32  C   UNL     1      -3.684  -4.875 -33.170  1.00  0.00     0.000 C 
HETATM   33  C   UNL     1      -4.394  -4.105 -34.285  1.00  0.00     0.000 C 
HETATM   34  C   UNL     1      -5.828  -4.590 -34.496  1.00  0.00     0.000 C 
HETATM   35  C   UNL     1      -6.626  -3.713 -35.468  1.00  0.00     0.000 C 
HETATM   36  C   UNL     1      -7.304  -2.484 -34.837  1.00  0.00     0.000 C 
HETATM   37  C   UNL     1      -6.378  -1.292 -34.554  1.00  0.00     0.002 C 
HETATM   38  C   UNL     1      -6.116  -1.071 -33.054  1.00  0.00     0.025 C 
ENDBRANCH  24  27
ENDBRANCH   2  23
TORSDOF 4
ENDMDL
