MODEL 1
REMARK VINA RESULT:      -9.7      0.000      0.000
REMARK  6 active torsions:
REMARK  status: ('A' for Active; 'I' for Inactive)
REMARK    1  A    between atoms: C_2  and  N_3 
REMARK       I    between atoms: N_3  and  C_4 
REMARK    2  A    between atoms: C_4  and  C_5 
REMARK    3  A    between atoms: C_13  and  N_14 
REMARK       I    between atoms: N_14  and  C_15 
REMARK    4  A    between atoms: C_15  and  C_16 
REMARK    5  A    between atoms: C_24  and  C_25 
REMARK       I    between atoms: C_25  and  N_26 
REMARK    6  A    between atoms: N_26  and  C_27 
ROOT
HETATM    1  C   UNL     1      -5.803   2.548 -32.990  1.00  0.00     0.046 A 
HETATM    2  C   UNL     1      -6.102   3.909 -33.097  1.00  0.00     0.037 A 
HETATM    3  C   UNL     1      -7.392   4.302 -33.484  1.00  0.00     0.059 A 
HETATM    4  C   UNL     1      -8.381   3.359 -33.759  1.00  0.00     0.037 A 
HETATM    5  C   UNL     1      -8.068   2.002 -33.635  1.00  0.00     0.046 A 
HETATM    6  C   UNL     1      -6.783   1.581 -33.249  1.00  0.00     0.036 A 
ENDROOT
BRANCH   6   7
HETATM    7  C   UNL     1      -6.556   0.102 -33.125  1.00  0.00     0.256 C 
HETATM    8  N   UNL     1      -6.274  -0.607 -34.276  1.00  0.00    -0.317 N 
HETATM    9  H   UNL     1      -6.250  -0.131 -35.174  1.00  0.00     0.169 HD
HETATM   10  O   UNL     1      -6.622  -0.402 -32.005  1.00  0.00    -0.267 OA
BRANCH   8  11
HETATM   11  C   UNL     1      -5.990  -1.956 -34.388  1.00  0.00     0.119 A 
HETATM   12  C   UNL     1      -4.573  -2.353 -34.090  1.00  0.00     0.277 A 
HETATM   13  O   UNL     1      -3.741  -1.506 -33.774  1.00  0.00    -0.266 OA
HETATM   14  N   UNL     1      -4.268  -3.681 -34.186  1.00  0.00    -0.274 N 
HETATM   15  C   UNL     1      -5.151  -4.666 -34.521  1.00  0.00     0.327 A 
HETATM   16  H   UNL     1      -3.321  -3.959 -33.986  1.00  0.00     0.173 HD
HETATM   17  O   UNL     1      -4.825  -5.846 -34.582  1.00  0.00    -0.247 OA
HETATM   18  N   UNL     1      -6.426  -4.250 -34.783  1.00  0.00    -0.316 N 
HETATM   19  C   UNL     1      -6.834  -2.943 -34.720  1.00  0.00     0.128 A 
HETATM   20  H   UNL     1      -7.088  -4.977 -35.033  1.00  0.00     0.170 HD
ENDBRANCH   8  11
ENDBRANCH   6   7
BRANCH   2  21
HETATM   21  N   UNL     1      -5.180   4.944 -32.830  1.00  0.00    -0.327 N 
HETATM   22  C   UNL     1      -4.339   5.588 -33.724  1.00  0.00     0.226 C 
HETATM   23  O   UNL     1      -4.259   5.342 -34.923  1.00  0.00    -0.273 OA
HETATM   24  H   UNL     1      -5.112   5.228 -31.858  1.00  0.00     0.169 HD
BRANCH  22  25
HETATM   25  C   UNL     1      -3.457   6.650 -33.046  1.00  0.00     0.078 C 
HETATM   26  C   UNL     1      -3.099   6.272 -31.599  1.00  0.00     0.014 C 
HETATM   27  C   UNL     1      -2.009   5.204 -31.499  1.00  0.00     0.001 C 
HETATM   28  C   UNL     1      -0.777   5.566 -32.319  1.00  0.00     0.000 C 
HETATM   29  C   UNL     1      -1.141   5.868 -33.768  1.00  0.00     0.001 C 
HETATM   30  C   UNL     1      -2.194   6.969 -33.861  1.00  0.00     0.014 C 
ENDBRANCH  22  25
ENDBRANCH   2  21
BRANCH   4  31
HETATM   31  N   UNL     1      -9.700   3.685 -34.141  1.00  0.00    -0.327 N 
HETATM   32  C   UNL     1     -10.822   3.763 -33.330  1.00  0.00     0.226 C 
HETATM   33  O   UNL     1     -10.830   3.622 -32.111  1.00  0.00    -0.273 OA
HETATM   34  H   UNL     1      -9.832   3.913 -35.121  1.00  0.00     0.169 HD
BRANCH  32  35
HETATM   35  C   UNL     1     -12.101   4.072 -34.125  1.00  0.00     0.078 C 
HETATM   36  C   UNL     1     -12.136   3.314 -35.461  1.00  0.00     0.014 C 
HETATM   37  C   UNL     1     -12.455   1.832 -35.285  1.00  0.00     0.001 C 
HETATM   38  C   UNL     1     -13.759   1.628 -34.524  1.00  0.00     0.000 C 
HETATM   39  C   UNL     1     -13.736   2.337 -33.174  1.00  0.00     0.001 C 
HETATM   40  C   UNL     1     -13.377   3.816 -33.308  1.00  0.00     0.014 C 
ENDBRANCH  32  35
ENDBRANCH   4  31
TORSDOF 6
ENDMDL
MODEL 2
REMARK VINA RESULT:      -9.4      2.389      8.829
REMARK  6 active torsions:
REMARK  status: ('A' for Active; 'I' for Inactive)
REMARK    1  A    between atoms: C_2  and  N_3 
REMARK       I    between atoms: N_3  and  C_4 
REMARK    2  A    between atoms: C_4  and  C_5 
REMARK    3  A    between atoms: C_13  and  N_14 
REMARK       I    between atoms: N_14  and  C_15 
REMARK    4  A    between atoms: C_15  and  C_16 
REMARK    5  A    between atoms: C_24  and  C_25 
REMARK       I    between atoms: C_25  and  N_26 
REMARK    6  A    between atoms: N_26  and  C_27 
ROOT
HETATM    1  C   UNL     1      -8.702   0.925 -34.795  1.00  0.00     0.046 A 
HETATM    2  C   UNL     1      -7.327   0.684 -34.729  1.00  0.00     0.037 A 
HETATM    3  C   UNL     1      -6.494   1.619 -34.098  1.00  0.00     0.059 A 
HETATM    4  C   UNL     1      -7.015   2.782 -33.533  1.00  0.00     0.037 A 
HETATM    5  C   UNL     1      -8.394   3.002 -33.597  1.00  0.00     0.046 A 
HETATM    6  C   UNL     1      -9.251   2.080 -34.224  1.00  0.00     0.036 A 
ENDROOT
BRANCH   6   7
HETATM    7  C   UNL     1     -10.718   2.399 -34.221  1.00  0.00     0.256 C 
HETATM    8  N   UNL     1     -11.512   1.782 -33.273  1.00  0.00    -0.317 N 
HETATM    9  H   UNL     1     -11.103   1.117 -32.622  1.00  0.00     0.169 HD
HETATM   10  O   UNL     1     -11.139   3.199 -35.054  1.00  0.00    -0.267 OA
BRANCH   8  11
HETATM   11  C   UNL     1     -12.867   1.960 -33.062  1.00  0.00     0.119 A 
HETATM   12  C   UNL     1     -13.762   0.889 -33.613  1.00  0.00     0.277 A 
HETATM   13  O   UNL     1     -13.287  -0.072 -34.214  1.00  0.00    -0.266 OA
HETATM   14  N   UNL     1     -15.105   1.037 -33.411  1.00  0.00    -0.274 N 
HETATM   15  C   UNL     1     -15.687   2.075 -32.743  1.00  0.00     0.327 A 
HETATM   16  H   UNL     1     -15.714   0.322 -33.774  1.00  0.00     0.173 HD
HETATM   17  O   UNL     1     -16.899   2.154 -32.582  1.00  0.00    -0.247 OA
HETATM   18  N   UNL     1     -14.827   3.023 -32.263  1.00  0.00    -0.316 N 
HETATM   19  C   UNL     1     -13.466   2.970 -32.416  1.00  0.00     0.128 A 
HETATM   20  H   UNL     1     -15.252   3.798 -31.765  1.00  0.00     0.170 HD
ENDBRANCH   8  11
ENDBRANCH   6   7
BRANCH   2  21
HETATM   21  N   UNL     1      -6.699  -0.466 -35.257  1.00  0.00    -0.327 N 
HETATM   22  C   UNL     1      -6.623  -1.729 -34.692  1.00  0.00     0.226 C 
HETATM   23  O   UNL     1      -7.095  -2.048 -33.606  1.00  0.00    -0.273 OA
HETATM   24  H   UNL     1      -6.229  -0.336 -36.146  1.00  0.00     0.169 HD
BRANCH  22  25
HETATM   25  C   UNL     1      -5.830  -2.719 -35.563  1.00  0.00     0.078 C 
HETATM   26  C   UNL     1      -4.350  -2.799 -35.152  1.00  0.00     0.014 C 
HETATM   27  C   UNL     1      -4.111  -3.618 -33.883  1.00  0.00     0.001 C 
HETATM   28  C   UNL     1      -4.760  -4.994 -33.962  1.00  0.00     0.000 C 
HETATM   29  C   UNL     1      -6.244  -4.893 -34.299  1.00  0.00     0.001 C 
HETATM   30  C   UNL     1      -6.469  -4.115 -35.593  1.00  0.00     0.014 C 
ENDBRANCH  22  25
ENDBRANCH   2  21
BRANCH   4  31
HETATM   31  N   UNL     1      -6.237   3.758 -32.874  1.00  0.00    -0.327 N 
HETATM   32  C   UNL     1      -5.410   4.712 -33.449  1.00  0.00     0.226 C 
HETATM   33  O   UNL     1      -5.274   4.902 -34.653  1.00  0.00    -0.273 OA
HETATM   34  H   UNL     1      -6.316   3.777 -31.863  1.00  0.00     0.169 HD
BRANCH  32  35
HETATM   35  C   UNL     1      -4.665   5.552 -32.399  1.00  0.00     0.078 C 
HETATM   36  C   UNL     1      -4.184   4.693 -31.220  1.00  0.00     0.014 C 
HETATM   37  C   UNL     1      -2.973   3.835 -31.576  1.00  0.00     0.001 C 
HETATM   38  C   UNL     1      -1.828   4.684 -32.115  1.00  0.00     0.000 C 
HETATM   39  C   UNL     1      -2.266   5.518 -33.314  1.00  0.00     0.001 C 
HETATM   40  C   UNL     1      -3.506   6.359 -33.006  1.00  0.00     0.014 C 
ENDBRANCH  32  35
ENDBRANCH   4  31
TORSDOF 6
ENDMDL
MODEL 3
REMARK VINA RESULT:      -9.3      0.927      7.492
REMARK  6 active torsions:
REMARK  status: ('A' for Active; 'I' for Inactive)
REMARK    1  A    between atoms: C_2  and  N_3 
REMARK       I    between atoms: N_3  and  C_4 
REMARK    2  A    between atoms: C_4  and  C_5 
REMARK    3  A    between atoms: C_13  and  N_14 
REMARK       I    between atoms: N_14  and  C_15 
REMARK    4  A    between atoms: C_15  and  C_16 
REMARK    5  A    between atoms: C_24  and  C_25 
REMARK       I    between atoms: C_25  and  N_26 
REMARK    6  A    between atoms: N_26  and  C_27 
ROOT
HETATM    1  C   UNL     1      -8.095   1.717 -33.274  1.00  0.00     0.046 A 
HETATM    2  C   UNL     1      -8.520   3.016 -33.565  1.00  0.00     0.037 A 
HETATM    3  C   UNL     1      -7.620   4.083 -33.422  1.00  0.00     0.059 A 
HETATM    4  C   UNL     1      -6.310   3.869 -32.999  1.00  0.00     0.037 A 
HETATM    5  C   UNL     1      -5.897   2.561 -32.724  1.00  0.00     0.046 A 
HETATM    6  C   UNL     1      -6.779   1.474 -32.859  1.00  0.00     0.036 A 
ENDROOT
BRANCH   6   7
HETATM    7  C   UNL     1      -6.232   0.108 -32.559  1.00  0.00     0.256 C 
HETATM    8  N   UNL     1      -5.404  -0.477 -33.497  1.00  0.00    -0.317 N 
HETATM    9  H   UNL     1      -5.202   0.005 -34.369  1.00  0.00     0.169 HD
HETATM   10  O   UNL     1      -6.540  -0.417 -31.490  1.00  0.00    -0.267 OA
BRANCH   8  11
HETATM   11  C   UNL     1      -4.759  -1.697 -33.409  1.00  0.00     0.119 A 
HETATM   12  C   UNL     1      -5.179  -2.733 -34.411  1.00  0.00     0.277 A 
HETATM   13  O   UNL     1      -6.048  -2.480 -35.243  1.00  0.00    -0.266 OA
HETATM   14  N   UNL     1      -4.552  -3.945 -34.351  1.00  0.00    -0.274 N 
HETATM   15  C   UNL     1      -3.575  -4.278 -33.459  1.00  0.00     0.327 A 
HETATM   16  H   UNL     1      -4.824  -4.646 -35.021  1.00  0.00     0.173 HD
HETATM   17  O   UNL     1      -3.038  -5.379 -33.456  1.00  0.00    -0.247 OA
HETATM   18  N   UNL     1      -3.232  -3.299 -32.569  1.00  0.00    -0.316 N 
HETATM   19  C   UNL     1      -3.802  -2.054 -32.542  1.00  0.00     0.128 A 
HETATM   20  H   UNL     1      -2.505  -3.540 -31.903  1.00  0.00     0.170 HD
ENDBRANCH   8  11
ENDBRANCH   6   7
BRANCH   2  21
HETATM   21  N   UNL     1      -9.820   3.341 -34.012  1.00  0.00    -0.327 N 
HETATM   22  C   UNL     1     -10.959   3.536 -33.247  1.00  0.00     0.226 C 
HETATM   23  O   UNL     1     -11.015   3.444 -32.026  1.00  0.00    -0.273 OA
HETATM   24  H   UNL     1      -9.929   3.413 -35.018  1.00  0.00     0.169 HD
BRANCH  22  25
HETATM   25  C   UNL     1     -12.198   3.852 -34.103  1.00  0.00     0.078 C 
HETATM   26  C   UNL     1     -12.233   3.030 -35.402  1.00  0.00     0.014 C 
HETATM   27  C   UNL     1     -12.662   1.577 -35.194  1.00  0.00     0.001 C 
HETATM   28  C   UNL     1     -13.966   1.473 -34.414  1.00  0.00     0.000 C 
HETATM   29  C   UNL     1     -13.890   2.234 -33.095  1.00  0.00     0.001 C 
HETATM   30  C   UNL     1     -13.508   3.695 -33.316  1.00  0.00     0.014 C 
ENDBRANCH  22  25
ENDBRANCH   2  21
BRANCH   4  31
HETATM   31  N   UNL     1      -5.351   4.893 -32.846  1.00  0.00    -0.327 N 
HETATM   32  C   UNL     1      -4.470   5.379 -33.801  1.00  0.00     0.226 C 
HETATM   33  O   UNL     1      -4.433   5.030 -34.977  1.00  0.00    -0.273 OA
HETATM   34  H   UNL     1      -5.325   5.340 -31.936  1.00  0.00     0.169 HD
BRANCH  32  35
HETATM   35  C   UNL     1      -3.522   6.448 -33.235  1.00  0.00     0.078 C 
HETATM   36  C   UNL     1      -3.129   6.147 -31.781  1.00  0.00     0.014 C 
HETATM   37  C   UNL     1      -2.116   5.011 -31.672  1.00  0.00     0.001 C 
HETATM   38  C   UNL     1      -0.874   5.289 -32.510  1.00  0.00     0.000 C 
HETATM   39  C   UNL     1      -1.231   5.551 -33.969  1.00  0.00     0.001 C 
HETATM   40  C   UNL     1      -2.278   6.656 -34.114  1.00  0.00     0.014 C 
ENDBRANCH  32  35
ENDBRANCH   4  31
TORSDOF 6
ENDMDL
MODEL 4
REMARK VINA RESULT:      -9.0      1.864      2.634
REMARK  6 active torsions:
REMARK  status: ('A' for Active; 'I' for Inactive)
REMARK    1  A    between atoms: C_2  and  N_3 
REMARK       I    between atoms: N_3  and  C_4 
REMARK    2  A    between atoms: C_4  and  C_5 
REMARK    3  A    between atoms: C_13  and  N_14 
REMARK       I    between atoms: N_14  and  C_15 
REMARK    4  A    between atoms: C_15  and  C_16 
REMARK    5  A    between atoms: C_24  and  C_25 
REMARK       I    between atoms: C_25  and  N_26 
REMARK    6  A    between atoms: N_26  and  C_27 
ROOT
HETATM    1  C   UNL     1      -4.411   2.318 -31.665  1.00  0.00     0.046 A 
HETATM    2  C   UNL     1      -4.478   3.705 -31.501  1.00  0.00     0.037 A 
HETATM    3  C   UNL     1      -5.699   4.364 -31.698  1.00  0.00     0.059 A 
HETATM    4  C   UNL     1      -6.850   3.659 -32.051  1.00  0.00     0.037 A 
HETATM    5  C   UNL     1      -6.769   2.271 -32.200  1.00  0.00     0.046 A 
HETATM    6  C   UNL     1      -5.556   1.586 -32.008  1.00  0.00     0.036 A 
ENDROOT
BRANCH   6   7
HETATM    7  C   UNL     1      -5.580   0.094 -32.171  1.00  0.00     0.256 C 
HETATM    8  N   UNL     1      -5.221  -0.428 -33.399  1.00  0.00    -0.317 N 
HETATM    9  H   UNL     1      -4.976   0.195 -34.165  1.00  0.00     0.169 HD
HETATM   10  O   UNL     1      -5.907  -0.590 -31.203  1.00  0.00    -0.267 OA
BRANCH   8  11
HETATM   11  C   UNL     1      -5.131  -1.761 -33.756  1.00  0.00     0.119 A 
HETATM   12  C   UNL     1      -6.322  -2.331 -34.469  1.00  0.00     0.277 A 
HETATM   13  O   UNL     1      -7.304  -1.628 -34.701  1.00  0.00    -0.266 OA
HETATM   14  N   UNL     1      -6.255  -3.644 -34.838  1.00  0.00    -0.274 N 
HETATM   15  C   UNL     1      -5.190  -4.467 -34.616  1.00  0.00     0.327 A 
HETATM   16  H   UNL     1      -7.049  -4.035 -35.320  1.00  0.00     0.173 HD
HETATM   17  O   UNL     1      -5.179  -5.637 -34.980  1.00  0.00    -0.247 OA
HETATM   18  N   UNL     1      -4.132  -3.898 -33.963  1.00  0.00    -0.316 N 
HETATM   19  C   UNL     1      -4.102  -2.593 -33.546  1.00  0.00     0.128 A 
HETATM   20  H   UNL     1      -3.337  -4.504 -33.795  1.00  0.00     0.170 HD
ENDBRANCH   8  11
ENDBRANCH   6   7
BRANCH   2  21
HETATM   21  N   UNL     1      -3.377   4.510 -31.133  1.00  0.00    -0.327 N 
HETATM   22  C   UNL     1      -2.258   4.819 -31.889  1.00  0.00     0.226 C 
HETATM   23  O   UNL     1      -2.040   4.419 -33.027  1.00  0.00    -0.273 OA
HETATM   24  H   UNL     1      -3.406   4.882 -30.190  1.00  0.00     0.169 HD
BRANCH  22  25
HETATM   25  C   UNL     1      -1.259   5.709 -31.130  1.00  0.00     0.078 C 
HETATM   26  C   UNL     1      -0.506   6.669 -32.066  1.00  0.00     0.014 C 
HETATM   27  C   UNL     1      -1.343   7.869 -32.511  1.00  0.00     0.001 C 
HETATM   28  C   UNL     1      -1.972   8.596 -31.329  1.00  0.00     0.000 C 
HETATM   29  C   UNL     1      -2.774   7.643 -30.451  1.00  0.00     0.001 C 
HETATM   30  C   UNL     1      -1.918   6.473 -29.971  1.00  0.00     0.014 C 
ENDBRANCH  22  25
ENDBRANCH   2  21
BRANCH   4  31
HETATM   31  N   UNL     1      -8.112   4.257 -32.254  1.00  0.00    -0.327 N 
HETATM   32  C   UNL     1      -8.534   4.996 -33.350  1.00  0.00     0.226 C 
HETATM   33  O   UNL     1      -7.879   5.194 -34.368  1.00  0.00    -0.273 OA
HETATM   34  H   UNL     1      -8.796   4.102 -31.521  1.00  0.00     0.169 HD
BRANCH  32  35
HETATM   35  C   UNL     1      -9.956   5.549 -33.172  1.00  0.00     0.078 C 
HETATM   36  C   UNL     1     -10.594   5.923 -34.519  1.00  0.00     0.014 C 
HETATM   37  C   UNL     1     -11.036   4.698 -35.317  1.00  0.00     0.001 C 
HETATM   38  C   UNL     1     -11.980   3.817 -34.508  1.00  0.00     0.000 C 
HETATM   39  C   UNL     1     -11.356   3.397 -33.182  1.00  0.00     0.001 C 
HETATM   40  C   UNL     1     -10.862   4.597 -32.374  1.00  0.00     0.014 C 
ENDBRANCH  32  35
ENDBRANCH   4  31
TORSDOF 6
ENDMDL
MODEL 5
REMARK VINA RESULT:      -8.9      2.651      7.482
REMARK  6 active torsions:
REMARK  status: ('A' for Active; 'I' for Inactive)
REMARK    1  A    between atoms: C_2  and  N_3 
REMARK       I    between atoms: N_3  and  C_4 
REMARK    2  A    between atoms: C_4  and  C_5 
REMARK    3  A    between atoms: C_13  and  N_14 
REMARK       I    between atoms: N_14  and  C_15 
REMARK    4  A    between atoms: C_15  and  C_16 
REMARK    5  A    between atoms: C_24  and  C_25 
REMARK       I    between atoms: C_25  and  N_26 
REMARK    6  A    between atoms: N_26  and  C_27 
ROOT
HETATM    1  C   UNL     1      -6.479   5.614 -33.565  1.00  0.00     0.046 A 
HETATM    2  C   UNL     1      -5.238   4.985 -33.428  1.00  0.00     0.037 A 
HETATM    3  C   UNL     1      -5.189   3.603 -33.193  1.00  0.00     0.059 A 
HETATM    4  C   UNL     1      -6.356   2.846 -33.098  1.00  0.00     0.037 A 
HETATM    5  C   UNL     1      -7.588   3.489 -33.250  1.00  0.00     0.046 A 
HETATM    6  C   UNL     1      -7.665   4.873 -33.486  1.00  0.00     0.036 A 
ENDROOT
BRANCH   6   7
HETATM    7  C   UNL     1      -9.036   5.463 -33.655  1.00  0.00     0.256 C 
HETATM    8  N   UNL     1      -9.628   5.376 -34.900  1.00  0.00    -0.317 N 
HETATM    9  H   UNL     1      -9.128   4.945 -35.673  1.00  0.00     0.169 HD
HETATM   10  O   UNL     1      -9.566   5.985 -32.676  1.00  0.00    -0.267 OA
BRANCH   8  11
HETATM   11  C   UNL     1     -10.890   5.808 -35.266  1.00  0.00     0.119 A 
HETATM   12  C   UNL     1     -11.970   4.766 -35.245  1.00  0.00     0.277 A 
HETATM   13  O   UNL     1     -11.713   3.608 -34.922  1.00  0.00    -0.266 OA
HETATM   14  N   UNL     1     -13.228   5.168 -35.595  1.00  0.00    -0.274 N 
HETATM   15  C   UNL     1     -13.573   6.439 -35.951  1.00  0.00     0.327 A 
HETATM   16  H   UNL     1     -13.961   4.477 -35.581  1.00  0.00     0.173 HD
HETATM   17  O   UNL     1     -14.722   6.748 -36.246  1.00  0.00    -0.247 OA
HETATM   18  N   UNL     1     -12.552   7.348 -35.954  1.00  0.00    -0.316 N 
HETATM   19  C   UNL     1     -11.256   7.046 -35.625  1.00  0.00     0.128 A 
HETATM   20  H   UNL     1     -12.802   8.295 -36.217  1.00  0.00     0.170 HD
ENDBRANCH   8  11
ENDBRANCH   6   7
BRANCH   2  21
HETATM   21  N   UNL     1      -3.998   5.655 -33.520  1.00  0.00    -0.327 N 
HETATM   22  C   UNL     1      -3.515   6.666 -32.705  1.00  0.00     0.226 C 
HETATM   23  O   UNL     1      -4.114   7.157 -31.755  1.00  0.00    -0.273 OA
HETATM   24  H   UNL     1      -3.407   5.373 -34.294  1.00  0.00     0.169 HD
BRANCH  22  25
HETATM   25  C   UNL     1      -2.125   7.163 -33.141  1.00  0.00     0.078 C 
HETATM   26  C   UNL     1      -1.490   8.099 -32.100  1.00  0.00     0.014 C 
HETATM   27  C   UNL     1      -0.922   7.366 -30.884  1.00  0.00     0.001 C 
HETATM   28  C   UNL     1       0.015   6.234 -31.286  1.00  0.00     0.000 C 
HETATM   29  C   UNL     1      -0.656   5.275 -32.262  1.00  0.00     0.001 C 
HETATM   30  C   UNL     1      -1.176   6.008 -33.496  1.00  0.00     0.014 C 
ENDBRANCH  22  25
ENDBRANCH   2  21
BRANCH   4  31
HETATM   31  N   UNL     1      -6.379   1.453 -32.875  1.00  0.00    -0.327 N 
HETATM   32  C   UNL     1      -6.657   0.452 -33.795  1.00  0.00     0.226 C 
HETATM   33  O   UNL     1      -6.867   0.625 -34.991  1.00  0.00    -0.273 OA
HETATM   34  H   UNL     1      -6.137   1.152 -31.937  1.00  0.00     0.169 HD
BRANCH  32  35
HETATM   35  C   UNL     1      -6.660  -0.946 -33.157  1.00  0.00     0.078 C 
HETATM   36  C   UNL     1      -6.907  -2.047 -34.200  1.00  0.00     0.014 C 
HETATM   37  C   UNL     1      -5.682  -2.311 -35.073  1.00  0.00     0.001 C 
HETATM   38  C   UNL     1      -4.457  -2.644 -34.230  1.00  0.00     0.000 C 
HETATM   39  C   UNL     1      -4.165  -1.547 -33.212  1.00  0.00     0.001 C 
HETATM   40  C   UNL     1      -5.384  -1.226 -32.347  1.00  0.00     0.014 C 
ENDBRANCH  32  35
ENDBRANCH   4  31
TORSDOF 6
ENDMDL
MODEL 6
REMARK VINA RESULT:      -8.8      3.000      8.413
REMARK  6 active torsions:
REMARK  status: ('A' for Active; 'I' for Inactive)
REMARK    1  A    between atoms: C_2  and  N_3 
REMARK       I    between atoms: N_3  and  C_4 
REMARK    2  A    between atoms: C_4  and  C_5 
REMARK    3  A    between atoms: C_13  and  N_14 
REMARK       I    between atoms: N_14  and  C_15 
REMARK    4  A    between atoms: C_15  and  C_16 
REMARK    5  A    between atoms: C_24  and  C_25 
REMARK       I    between atoms: C_25  and  N_26 
REMARK    6  A    between atoms: N_26  and  C_27 
ROOT
HETATM    1  C   UNL     1      -8.678   0.867 -34.651  1.00  0.00     0.046 A 
HETATM    2  C   UNL     1      -7.310   0.665 -34.448  1.00  0.00     0.037 A 
HETATM    3  C   UNL     1      -6.596   1.558 -33.635  1.00  0.00     0.059 A 
HETATM    4  C   UNL     1      -7.227   2.640 -33.024  1.00  0.00     0.037 A 
HETATM    5  C   UNL     1      -8.599   2.820 -33.228  1.00  0.00     0.046 A 
HETATM    6  C   UNL     1      -9.338   1.940 -34.038  1.00  0.00     0.036 A 
ENDROOT
BRANCH   6   7
HETATM    7  C   UNL     1     -10.809   2.210 -34.176  1.00  0.00     0.256 C 
HETATM    8  N   UNL     1     -11.645   1.765 -33.170  1.00  0.00    -0.317 N 
HETATM    9  H   UNL     1     -11.263   1.251 -32.381  1.00  0.00     0.169 HD
HETATM   10  O   UNL     1     -11.195   2.821 -35.171  1.00  0.00    -0.267 OA
BRANCH   8  11
HETATM   11  C   UNL     1     -13.013   1.941 -33.071  1.00  0.00     0.119 A 
HETATM   12  C   UNL     1     -13.856   0.780 -33.511  1.00  0.00     0.277 A 
HETATM   13  O   UNL     1     -13.330  -0.248 -33.934  1.00  0.00    -0.266 OA
HETATM   14  N   UNL     1     -15.211   0.925 -33.417  1.00  0.00    -0.274 N 
HETATM   15  C   UNL     1     -15.849   2.035 -32.947  1.00  0.00     0.327 A 
HETATM   16  H   UNL     1     -15.786   0.150 -33.707  1.00  0.00     0.173 HD
HETATM   17  O   UNL     1     -17.070   2.108 -32.873  1.00  0.00    -0.247 OA
HETATM   18  N   UNL     1     -15.035   3.063 -32.560  1.00  0.00    -0.316 N 
HETATM   19  C   UNL     1     -13.666   3.020 -32.620  1.00  0.00     0.128 A 
HETATM   20  H   UNL     1     -15.502   3.892 -32.209  1.00  0.00     0.170 HD
ENDBRANCH   8  11
ENDBRANCH   6   7
BRANCH   2  21
HETATM   21  N   UNL     1      -6.577  -0.404 -35.008  1.00  0.00    -0.327 N 
HETATM   22  C   UNL     1      -6.613  -1.742 -34.647  1.00  0.00     0.226 C 
HETATM   23  O   UNL     1      -7.301  -2.214 -33.749  1.00  0.00    -0.273 OA
HETATM   24  H   UNL     1      -5.930  -0.150 -35.747  1.00  0.00     0.169 HD
BRANCH  22  25
HETATM   25  C   UNL     1      -5.647  -2.604 -35.478  1.00  0.00     0.078 C 
HETATM   26  C   UNL     1      -4.237  -2.655 -34.864  1.00  0.00     0.014 C 
HETATM   27  C   UNL     1      -4.132  -3.582 -33.653  1.00  0.00     0.001 C 
HETATM   28  C   UNL     1      -4.679  -4.973 -33.949  1.00  0.00     0.000 C 
HETATM   29  C   UNL     1      -6.103  -4.908 -34.489  1.00  0.00     0.001 C 
HETATM   30  C   UNL     1      -6.190  -4.019 -35.727  1.00  0.00     0.014 C 
ENDBRANCH  22  25
ENDBRANCH   2  21
BRANCH   4  31
HETATM   31  N   UNL     1      -6.573   3.568 -32.186  1.00  0.00    -0.327 N 
HETATM   32  C   UNL     1      -6.526   3.571 -30.799  1.00  0.00     0.226 C 
HETATM   33  O   UNL     1      -7.004   2.709 -30.070  1.00  0.00    -0.273 OA
HETATM   34  H   UNL     1      -6.055   4.300 -32.659  1.00  0.00     0.169 HD
BRANCH  32  35
HETATM   35  C   UNL     1      -5.777   4.792 -30.241  1.00  0.00     0.078 C 
HETATM   36  C   UNL     1      -6.087   6.065 -31.043  1.00  0.00     0.014 C 
HETATM   37  C   UNL     1      -7.476   6.623 -30.741  1.00  0.00     0.001 C 
HETATM   38  C   UNL     1      -7.664   6.875 -29.250  1.00  0.00     0.000 C 
HETATM   39  C   UNL     1      -7.402   5.616 -28.433  1.00  0.00     0.001 C 
HETATM   40  C   UNL     1      -6.035   5.004 -28.741  1.00  0.00     0.014 C 
ENDBRANCH  32  35
ENDBRANCH   4  31
TORSDOF 6
ENDMDL
MODEL 7
REMARK VINA RESULT:      -8.8      2.568      9.442
REMARK  6 active torsions:
REMARK  status: ('A' for Active; 'I' for Inactive)
REMARK    1  A    between atoms: C_2  and  N_3 
REMARK       I    between atoms: N_3  and  C_4 
REMARK    2  A    between atoms: C_4  and  C_5 
REMARK    3  A    between atoms: C_13  and  N_14 
REMARK       I    between atoms: N_14  and  C_15 
REMARK    4  A    between atoms: C_15  and  C_16 
REMARK    5  A    between atoms: C_24  and  C_25 
REMARK       I    between atoms: C_25  and  N_26 
REMARK    6  A    between atoms: N_26  and  C_27 
ROOT
HETATM    1  C   UNL     1      -7.776   3.299 -33.514  1.00  0.00     0.046 A 
HETATM    2  C   UNL     1      -6.586   2.590 -33.327  1.00  0.00     0.037 A 
HETATM    3  C   UNL     1      -5.361   3.269 -33.402  1.00  0.00     0.059 A 
HETATM    4  C   UNL     1      -5.311   4.639 -33.656  1.00  0.00     0.037 A 
HETATM    5  C   UNL     1      -6.511   5.335 -33.829  1.00  0.00     0.046 A 
HETATM    6  C   UNL     1      -7.752   4.677 -33.758  1.00  0.00     0.036 A 
ENDROOT
BRANCH   6   7
HETATM    7  C   UNL     1      -8.983   5.519 -33.937  1.00  0.00     0.256 C 
HETATM    8  N   UNL     1      -9.858   5.178 -34.951  1.00  0.00    -0.317 N 
HETATM    9  H   UNL     1      -9.647   4.394 -35.562  1.00  0.00     0.169 HD
HETATM   10  O   UNL     1      -9.157   6.462 -33.168  1.00  0.00    -0.267 OA
BRANCH   8  11
HETATM   11  C   UNL     1     -11.062   5.780 -35.264  1.00  0.00     0.119 A 
HETATM   12  C   UNL     1     -12.288   4.939 -35.060  1.00  0.00     0.277 A 
HETATM   13  O   UNL     1     -12.192   3.787 -34.644  1.00  0.00    -0.266 OA
HETATM   14  N   UNL     1     -13.492   5.514 -35.356  1.00  0.00    -0.274 N 
HETATM   15  C   UNL     1     -13.661   6.789 -35.810  1.00  0.00     0.327 A 
HETATM   16  H   UNL     1     -14.321   4.958 -35.220  1.00  0.00     0.173 HD
HETATM   17  O   UNL     1     -14.767   7.259 -36.050  1.00  0.00    -0.247 OA
HETATM   18  N   UNL     1     -12.512   7.511 -35.979  1.00  0.00    -0.316 N 
HETATM   19  C   UNL     1     -11.257   7.026 -35.717  1.00  0.00     0.128 A 
HETATM   20  H   UNL     1     -12.630   8.460 -36.317  1.00  0.00     0.170 HD
ENDBRANCH   8  11
ENDBRANCH   6   7
BRANCH   2  21
HETATM   21  N   UNL     1      -6.525   1.206 -33.051  1.00  0.00    -0.327 N 
HETATM   22  C   UNL     1      -6.660   0.154 -33.944  1.00  0.00     0.226 C 
HETATM   23  O   UNL     1      -6.869   0.268 -35.146  1.00  0.00    -0.273 OA
HETATM   24  H   UNL     1      -6.392   0.961 -32.076  1.00  0.00     0.169 HD
BRANCH  22  25
HETATM   25  C   UNL     1      -6.558  -1.219 -33.257  1.00  0.00     0.078 C 
HETATM   26  C   UNL     1      -6.811  -2.379 -34.236  1.00  0.00     0.014 C 
HETATM   27  C   UNL     1      -5.623  -2.673 -35.153  1.00  0.00     0.001 C 
HETATM   28  C   UNL     1      -4.329  -2.854 -34.371  1.00  0.00     0.000 C 
HETATM   29  C   UNL     1      -4.057  -1.663 -33.460  1.00  0.00     0.001 C 
HETATM   30  C   UNL     1      -5.227  -1.406 -32.514  1.00  0.00     0.014 C 
ENDBRANCH  22  25
ENDBRANCH   2  21
BRANCH   4  31
HETATM   31  N   UNL     1      -4.116   5.385 -33.734  1.00  0.00    -0.327 N 
HETATM   32  C   UNL     1      -3.661   6.351 -32.848  1.00  0.00     0.226 C 
HETATM   33  O   UNL     1      -4.211   6.667 -31.798  1.00  0.00    -0.273 OA
HETATM   34  H   UNL     1      -3.510   5.167 -34.517  1.00  0.00     0.169 HD
BRANCH  32  35
HETATM   35  C   UNL     1      -2.348   7.001 -33.312  1.00  0.00     0.078 C 
HETATM   36  C   UNL     1      -1.858   8.065 -32.318  1.00  0.00     0.014 C 
HETATM   37  C   UNL     1      -1.255   7.453 -31.055  1.00  0.00     0.001 C 
HETATM   38  C   UNL     1      -0.131   6.480 -31.389  1.00  0.00     0.000 C 
HETATM   39  C   UNL     1      -0.601   5.388 -32.343  1.00  0.00     0.001 C 
HETATM   40  C   UNL     1      -1.250   5.965 -33.601  1.00  0.00     0.014 C 
ENDBRANCH  32  35
ENDBRANCH   4  31
TORSDOF 6
ENDMDL
MODEL 8
REMARK VINA RESULT:      -8.6      2.826      6.781
REMARK  6 active torsions:
REMARK  status: ('A' for Active; 'I' for Inactive)
REMARK    1  A    between atoms: C_2  and  N_3 
REMARK       I    between atoms: N_3  and  C_4 
REMARK    2  A    between atoms: C_4  and  C_5 
REMARK    3  A    between atoms: C_13  and  N_14 
REMARK       I    between atoms: N_14  and  C_15 
REMARK    4  A    between atoms: C_15  and  C_16 
REMARK    5  A    between atoms: C_24  and  C_25 
REMARK       I    between atoms: C_25  and  N_26 
REMARK    6  A    between atoms: N_26  and  C_27 
ROOT
HETATM    1  C   UNL     1      -7.086   2.333 -31.277  1.00  0.00     0.046 A 
HETATM    2  C   UNL     1      -6.911   3.702 -31.053  1.00  0.00     0.037 A 
HETATM    3  C   UNL     1      -5.678   4.297 -31.355  1.00  0.00     0.059 A 
HETATM    4  C   UNL     1      -4.625   3.548 -31.878  1.00  0.00     0.037 A 
HETATM    5  C   UNL     1      -4.820   2.182 -32.107  1.00  0.00     0.046 A 
HETATM    6  C   UNL     1      -6.047   1.561 -31.813  1.00  0.00     0.036 A 
ENDROOT
BRANCH   6   7
HETATM    7  C   UNL     1      -6.161   0.095 -32.115  1.00  0.00     0.256 C 
HETATM    8  N   UNL     1      -5.940  -0.316 -33.415  1.00  0.00    -0.317 N 
HETATM    9  H   UNL     1      -5.733   0.368 -34.137  1.00  0.00     0.169 HD
HETATM   10  O   UNL     1      -6.434  -0.668 -31.190  1.00  0.00    -0.267 OA
BRANCH   8  11
HETATM   11  C   UNL     1      -5.949  -1.610 -33.904  1.00  0.00     0.119 A 
HETATM   12  C   UNL     1      -4.642  -2.344 -33.839  1.00  0.00     0.277 A 
HETATM   13  O   UNL     1      -3.642  -1.797 -33.378  1.00  0.00    -0.266 OA
HETATM   14  N   UNL     1      -4.625  -3.626 -34.309  1.00  0.00    -0.274 N 
HETATM   15  C   UNL     1      -5.704  -4.287 -34.820  1.00  0.00     0.327 A 
HETATM   16  H   UNL     1      -3.753  -4.129 -34.267  1.00  0.00     0.173 HD
HETATM   17  O   UNL     1      -5.636  -5.444 -35.219  1.00  0.00    -0.247 OA
HETATM   18  N   UNL     1      -6.869  -3.573 -34.857  1.00  0.00    -0.316 N 
HETATM   19  C   UNL     1      -6.990  -2.281 -34.417  1.00  0.00     0.128 A 
HETATM   20  H   UNL     1      -7.675  -4.058 -35.237  1.00  0.00     0.170 HD
ENDBRANCH   8  11
ENDBRANCH   6   7
BRANCH   2  21
HETATM   21  N   UNL     1      -7.915   4.553 -30.540  1.00  0.00    -0.327 N 
HETATM   22  C   UNL     1      -8.979   5.122 -31.223  1.00  0.00     0.226 C 
HETATM   23  O   UNL     1      -9.213   4.976 -32.417  1.00  0.00    -0.273 OA
HETATM   24  H   UNL     1      -7.824   4.792 -29.559  1.00  0.00     0.169 HD
BRANCH  22  25
HETATM   25  C   UNL     1      -9.848   6.016 -30.322  1.00  0.00     0.078 C 
HETATM   26  C   UNL     1      -9.039   6.653 -29.180  1.00  0.00     0.014 C 
HETATM   27  C   UNL     1      -8.172   7.830 -29.628  1.00  0.00     0.001 C 
HETATM   28  C   UNL     1      -8.973   8.864 -30.410  1.00  0.00     0.000 C 
HETATM   29  C   UNL     1      -9.711   8.227 -31.582  1.00  0.00     0.001 C 
HETATM   30  C   UNL     1     -10.611   7.085 -31.119  1.00  0.00     0.014 C 
ENDBRANCH  22  25
ENDBRANCH   2  21
BRANCH   4  31
HETATM   31  N   UNL     1      -3.363   4.084 -32.214  1.00  0.00    -0.327 N 
HETATM   32  C   UNL     1      -2.992   4.695 -33.403  1.00  0.00     0.226 C 
HETATM   33  O   UNL     1      -3.741   4.929 -34.346  1.00  0.00    -0.273 OA
HETATM   34  H   UNL     1      -2.657   4.038 -31.488  1.00  0.00     0.169 HD
BRANCH  32  35
HETATM   35  C   UNL     1      -1.505   5.083 -33.424  1.00  0.00     0.078 C 
HETATM   36  C   UNL     1      -1.273   6.408 -34.166  1.00  0.00     0.014 C 
HETATM   37  C   UNL     1      -1.707   7.621 -33.347  1.00  0.00     0.001 C 
HETATM   38  C   UNL     1      -1.022   7.648 -31.986  1.00  0.00     0.000 C 
HETATM   39  C   UNL     1      -1.270   6.360 -31.210  1.00  0.00     0.001 C 
HETATM   40  C   UNL     1      -0.887   5.120 -32.017  1.00  0.00     0.014 C 
ENDBRANCH  32  35
ENDBRANCH   4  31
TORSDOF 6
ENDMDL
MODEL 9
REMARK VINA RESULT:      -8.4      2.252      8.523
REMARK  6 active torsions:
REMARK  status: ('A' for Active; 'I' for Inactive)
REMARK    1  A    between atoms: C_2  and  N_3 
REMARK       I    between atoms: N_3  and  C_4 
REMARK    2  A    between atoms: C_4  and  C_5 
REMARK    3  A    between atoms: C_13  and  N_14 
REMARK       I    between atoms: N_14  and  C_15 
REMARK    4  A    between atoms: C_15  and  C_16 
REMARK    5  A    between atoms: C_24  and  C_25 
REMARK       I    between atoms: C_25  and  N_26 
REMARK    6  A    between atoms: N_26  and  C_27 
ROOT
HETATM    1  C   UNL     1      -7.270   4.922 -33.874  1.00  0.00     0.046 A 
HETATM    2  C   UNL     1      -8.441   4.158 -33.866  1.00  0.00     0.037 A 
HETATM    3  C   UNL     1      -8.355   2.769 -33.692  1.00  0.00     0.059 A 
HETATM    4  C   UNL     1      -7.123   2.139 -33.522  1.00  0.00     0.037 A 
HETATM    5  C   UNL     1      -5.963   2.919 -33.521  1.00  0.00     0.046 A 
HETATM    6  C   UNL     1      -6.022   4.313 -33.693  1.00  0.00     0.036 A 
ENDROOT
BRANCH   6   7
HETATM    7  C   UNL     1      -4.721   5.062 -33.655  1.00  0.00     0.256 C 
HETATM    8  N   UNL     1      -4.066   5.159 -32.442  1.00  0.00    -0.317 N 
HETATM    9  H   UNL     1      -4.479   4.752 -31.607  1.00  0.00     0.169 HD
HETATM   10  O   UNL     1      -4.298   5.543 -34.705  1.00  0.00    -0.267 OA
BRANCH   8  11
HETATM   11  C   UNL     1      -2.846   5.759 -32.188  1.00  0.00     0.119 A 
HETATM   12  C   UNL     1      -1.777   4.859 -31.639  1.00  0.00     0.277 A 
HETATM   13  O   UNL     1      -2.007   3.669 -31.436  1.00  0.00    -0.266 OA
HETATM   14  N   UNL     1      -0.560   5.425 -31.386  1.00  0.00    -0.274 N 
HETATM   15  C   UNL     1      -0.244   6.735 -31.601  1.00  0.00     0.327 A 
HETATM   16  H   UNL     1       0.166   4.829 -31.020  1.00  0.00     0.173 HD
HETATM   17  O   UNL     1       0.869   7.189 -31.366  1.00  0.00    -0.247 OA
HETATM   18  N   UNL     1      -1.254   7.509 -32.101  1.00  0.00    -0.316 N 
HETATM   19  C   UNL     1      -2.511   7.041 -32.384  1.00  0.00     0.128 A 
HETATM   20  H   UNL     1      -1.026   8.484 -32.264  1.00  0.00     0.170 HD
ENDBRANCH   8  11
ENDBRANCH   6   7
BRANCH   2  21
HETATM   21  N   UNL     1      -9.737   4.697 -34.016  1.00  0.00    -0.327 N 
HETATM   22  C   UNL     1     -10.498   5.361 -33.067  1.00  0.00     0.226 C 
HETATM   23  O   UNL     1     -10.154   5.580 -31.911  1.00  0.00    -0.273 OA
HETATM   24  H   UNL     1     -10.166   4.555 -34.924  1.00  0.00     0.169 HD
BRANCH  22  25
HETATM   25  C   UNL     1     -11.878   5.779 -33.603  1.00  0.00     0.078 C 
HETATM   26  C   UNL     1     -12.461   4.745 -34.580  1.00  0.00     0.014 C 
HETATM   27  C   UNL     1     -13.029   3.504 -33.889  1.00  0.00     0.001 C 
HETATM   28  C   UNL     1     -14.012   3.867 -32.784  1.00  0.00     0.000 C 
HETATM   29  C   UNL     1     -13.394   4.837 -31.784  1.00  0.00     0.001 C 
HETATM   30  C   UNL     1     -12.874   6.094 -32.476  1.00  0.00     0.014 C 
ENDBRANCH  22  25
ENDBRANCH   2  21
BRANCH   4  31
HETATM   31  N   UNL     1      -6.966   0.749 -33.331  1.00  0.00    -0.327 N 
HETATM   32  C   UNL     1      -7.105  -0.257 -34.275  1.00  0.00     0.226 C 
HETATM   33  O   UNL     1      -7.329  -0.086 -35.469  1.00  0.00    -0.273 OA
HETATM   34  H   UNL     1      -6.693   0.461 -32.398  1.00  0.00     0.169 HD
BRANCH  32  35
HETATM   35  C   UNL     1      -6.930  -1.659 -33.669  1.00  0.00     0.078 C 
HETATM   36  C   UNL     1      -6.820  -2.739 -34.756  1.00  0.00     0.014 C 
HETATM   37  C   UNL     1      -5.461  -2.733 -35.452  1.00  0.00     0.001 C 
HETATM   38  C   UNL     1      -4.321  -2.870 -34.449  1.00  0.00     0.000 C 
HETATM   39  C   UNL     1      -4.383  -1.785 -33.381  1.00  0.00     0.001 C 
HETATM   40  C   UNL     1      -5.746  -1.733 -32.692  1.00  0.00     0.014 C 
ENDBRANCH  32  35
ENDBRANCH   4  31
TORSDOF 6
ENDMDL
MODEL 10
REMARK VINA RESULT:      -8.4      3.191      7.789
REMARK  6 active torsions:
REMARK  status: ('A' for Active; 'I' for Inactive)
REMARK    1  A    between atoms: C_2  and  N_3 
REMARK       I    between atoms: N_3  and  C_4 
REMARK    2  A    between atoms: C_4  and  C_5 
REMARK    3  A    between atoms: C_13  and  N_14 
REMARK       I    between atoms: N_14  and  C_15 
REMARK    4  A    between atoms: C_15  and  C_16 
REMARK    5  A    between atoms: C_24  and  C_25 
REMARK       I    between atoms: C_25  and  N_26 
REMARK    6  A    between atoms: N_26  and  C_27 
ROOT
HETATM    1  C   UNL     1      -4.938   3.853 -32.001  1.00  0.00     0.046 A 
HETATM    2  C   UNL     1      -6.054   3.121 -32.419  1.00  0.00     0.037 A 
HETATM    3  C   UNL     1      -7.139   3.791 -33.001  1.00  0.00     0.059 A 
HETATM    4  C   UNL     1      -7.123   5.175 -33.174  1.00  0.00     0.037 A 
HETATM    5  C   UNL     1      -5.995   5.891 -32.762  1.00  0.00     0.046 A 
HETATM    6  C   UNL     1      -4.894   5.242 -32.175  1.00  0.00     0.036 A 
ENDROOT
BRANCH   6   7
HETATM    7  C   UNL     1      -3.723   6.099 -31.786  1.00  0.00     0.256 C 
HETATM    8  N   UNL     1      -3.164   5.901 -30.538  1.00  0.00    -0.317 N 
HETATM    9  H   UNL     1      -3.560   5.210 -29.907  1.00  0.00     0.169 HD
HETATM   10  O   UNL     1      -3.315   6.926 -32.599  1.00  0.00    -0.267 OA
BRANCH   8  11
HETATM   11  C   UNL     1      -2.064   6.540 -29.996  1.00  0.00     0.119 A 
HETATM   12  C   UNL     1      -0.752   5.826 -30.144  1.00  0.00     0.277 A 
HETATM   13  O   UNL     1      -0.696   4.738 -30.714  1.00  0.00    -0.266 OA
HETATM   14  N   UNL     1       0.351   6.439 -29.624  1.00  0.00    -0.274 N 
HETATM   15  C   UNL     1       0.350   7.648 -28.991  1.00  0.00     0.327 A 
HETATM   16  H   UNL     1       1.237   5.970 -29.721  1.00  0.00     0.173 HD
HETATM   17  O   UNL     1       1.374   8.159 -28.552  1.00  0.00    -0.247 OA
HETATM   18  N   UNL     1      -0.869   8.255 -28.883  1.00  0.00    -0.316 N 
HETATM   19  C   UNL     1      -2.036   7.722 -29.366  1.00  0.00     0.128 A 
HETATM   20  H   UNL     1      -0.878   9.155 -28.414  1.00  0.00     0.170 HD
ENDBRANCH   8  11
ENDBRANCH   6   7
BRANCH   2  21
HETATM   21  N   UNL     1      -6.166   1.718 -32.303  1.00  0.00    -0.327 N 
HETATM   22  C   UNL     1      -6.318   0.789 -33.320  1.00  0.00     0.226 C 
HETATM   23  O   UNL     1      -6.390   1.053 -34.515  1.00  0.00    -0.273 OA
HETATM   24  H   UNL     1      -6.159   1.357 -31.355  1.00  0.00     0.169 HD
BRANCH  22  25
HETATM   25  C   UNL     1      -6.431  -0.652 -32.792  1.00  0.00     0.078 C 
HETATM   26  C   UNL     1      -7.032  -1.608 -33.836  1.00  0.00     0.014 C 
HETATM   27  C   UNL     1      -6.046  -2.014 -34.932  1.00  0.00     0.001 C 
HETATM   28  C   UNL     1      -4.738  -2.542 -34.356  1.00  0.00     0.000 C 
HETATM   29  C   UNL     1      -4.119  -1.550 -33.378  1.00  0.00     0.001 C 
HETATM   30  C   UNL     1      -5.093  -1.188 -32.260  1.00  0.00     0.014 C 
ENDBRANCH  22  25
ENDBRANCH   2  21
BRANCH   4  31
HETATM   31  N   UNL     1      -8.174   5.910 -33.762  1.00  0.00    -0.327 N 
HETATM   32  C   UNL     1      -9.335   6.365 -33.152  1.00  0.00     0.226 C 
HETATM   33  O   UNL     1      -9.603   6.250 -31.960  1.00  0.00    -0.273 OA
HETATM   34  H   UNL     1      -8.049   6.156 -34.738  1.00  0.00     0.169 HD
BRANCH  32  35
HETATM   35  C   UNL     1     -10.280   7.066 -34.140  1.00  0.00     0.078 C 
HETATM   36  C   UNL     1     -10.369   6.311 -35.475  1.00  0.00     0.014 C 
HETATM   37  C   UNL     1     -11.211   5.042 -35.376  1.00  0.00     0.001 C 
HETATM   38  C   UNL     1     -12.607   5.340 -34.840  1.00  0.00     0.000 C 
HETATM   39  C   UNL     1     -12.549   6.053 -33.494  1.00  0.00     0.001 C 
HETATM   40  C   UNL     1     -11.677   7.307 -33.546  1.00  0.00     0.014 C 
ENDBRANCH  32  35
ENDBRANCH   4  31
TORSDOF 6
ENDMDL
