MODEL 1
REMARK VINA RESULT:     -10.2      0.000      0.000
REMARK  3 active torsions:
REMARK  status: ('A' for Active; 'I' for Inactive)
REMARK    1  A    between atoms: C_6  and  C_7 
REMARK       I    between atoms: C_7  and  N_8 
REMARK    2  A    between atoms: N_8  and  C_9 
REMARK    3  A    between atoms: C_16  and  C_17 
REMARK       I    between atoms: C_17  and  N_18 
ROOT
HETATM    1  C   UNL     1      -6.990   0.458 -33.913  1.00  0.00     0.257 C 
HETATM    2  N   UNL     1      -7.943   0.740 -32.953  1.00  0.00    -0.323 N 
HETATM    3  O   UNL     1      -6.986   0.838 -35.078  1.00  0.00    -0.267 OA
HETATM    4  H   UNL     1      -7.769   0.411 -32.011  1.00  0.00     0.169 HD
ENDROOT
BRANCH   2   5
HETATM    5  C   UNL     1      -9.146   1.451 -33.140  1.00  0.00     0.036 A 
HETATM    6  C   UNL     1     -10.375   0.828 -33.399  1.00  0.00     0.046 A 
HETATM    7  C   UNL     1     -11.541   1.614 -33.512  1.00  0.00     0.030 A 
HETATM    8  C   UNL     1     -11.432   2.996 -33.410  1.00  0.00     0.063 A 
HETATM    9  C   UNL     1     -12.937   1.368 -33.686  1.00  0.00     0.156 A 
HETATM   10  N   UNL     1     -12.700   3.474 -33.587  1.00  0.00    -0.277 N 
HETATM   11  C   UNL     1     -10.222   3.650 -33.168  1.00  0.00     0.034 A 
HETATM   12  H   UNL     1     -12.996   4.444 -33.593  1.00  0.00     0.189 HD
HETATM   13  N   UNL     1     -13.637   2.524 -33.738  1.00  0.00    -0.168 NA
HETATM   14  C   UNL     1      -9.087   2.845 -33.011  1.00  0.00     0.032 A 
BRANCH   9  15
HETATM   15  C   UNL     1     -13.614   0.065 -33.768  1.00  0.00     0.270 C 
HETATM   16  N   UNL     1     -14.873   0.122 -34.301  1.00  0.00    -0.365 N 
HETATM   17  H   UNL     1     -15.247   1.027 -34.559  1.00  0.00     0.159 HD
HETATM   18  H   UNL     1     -15.434  -0.713 -34.344  1.00  0.00     0.159 HD
HETATM   19  O   UNL     1     -13.137  -0.997 -33.382  1.00  0.00    -0.266 OA
ENDBRANCH   9  15
ENDBRANCH   2   5
BRANCH   1  20
HETATM   20  C   UNL     1      -5.890  -0.441 -33.472  1.00  0.00     0.046 A 
HETATM   21  C   UNL     1      -5.739  -1.784 -33.897  1.00  0.00     0.009 A 
HETATM   22  C   UNL     1      -4.560  -2.435 -33.470  1.00  0.00     0.071 A 
HETATM   23  C   UNL     1      -6.671  -2.513 -34.684  1.00  0.00     0.018 A 
HETATM   24  N   UNL     1      -3.657  -1.861 -32.660  1.00  0.00    -0.253 NA
HETATM   25  C   UNL     1      -4.312  -3.731 -33.890  1.00  0.00     0.074 A 
HETATM   26  C   UNL     1      -3.872  -0.606 -32.208  1.00  0.00     0.032 A 
HETATM   27  C   UNL     1      -2.867  -0.032 -31.256  1.00  0.00     0.070 C 
HETATM   28  C   UNL     1      -4.966   0.139 -32.598  1.00  0.00     0.044 A 
HETATM   29  C   UNL     1      -5.213  -4.410 -34.698  1.00  0.00     0.118 A 
HETATM   30  F   UNL     1      -4.939  -5.660 -35.091  1.00  0.00    -0.206 F 
HETATM   31  C   UNL     1      -6.400  -3.818 -35.091  1.00  0.00     0.043 A 
ENDBRANCH   1  20
TORSDOF 3
ENDMDL
MODEL 2
REMARK VINA RESULT:     -10.1      1.693      2.915
REMARK  3 active torsions:
REMARK  status: ('A' for Active; 'I' for Inactive)
REMARK    1  A    between atoms: C_6  and  C_7 
REMARK       I    between atoms: C_7  and  N_8 
REMARK    2  A    between atoms: N_8  and  C_9 
REMARK    3  A    between atoms: C_16  and  C_17 
REMARK       I    between atoms: C_17  and  N_18 
ROOT
HETATM    1  C   UNL     1      -7.555   0.133 -34.338  1.00  0.00     0.257 C 
HETATM    2  N   UNL     1      -8.429   0.248 -33.274  1.00  0.00    -0.323 N 
HETATM    3  O   UNL     1      -7.545   0.812 -35.358  1.00  0.00    -0.267 OA
HETATM    4  H   UNL     1      -8.264  -0.341 -32.468  1.00  0.00     0.169 HD
ENDROOT
BRANCH   2   5
HETATM    5  C   UNL     1      -9.540   1.113 -33.184  1.00  0.00     0.036 A 
HETATM    6  C   UNL     1     -10.837   0.740 -33.559  1.00  0.00     0.046 A 
HETATM    7  C   UNL     1     -11.901   1.649 -33.376  1.00  0.00     0.030 A 
HETATM    8  C   UNL     1     -11.624   2.914 -32.872  1.00  0.00     0.063 A 
HETATM    9  C   UNL     1     -13.318   1.625 -33.551  1.00  0.00     0.156 A 
HETATM   10  N   UNL     1     -12.827   3.562 -32.837  1.00  0.00    -0.277 N 
HETATM   11  C   UNL     1     -10.341   3.324 -32.502  1.00  0.00     0.034 A 
HETATM   12  H   UNL     1     -13.002   4.515 -32.540  1.00  0.00     0.189 HD
HETATM   13  N   UNL     1     -13.873   2.814 -33.221  1.00  0.00    -0.168 NA
HETATM   14  C   UNL     1      -9.311   2.387 -32.646  1.00  0.00     0.032 A 
BRANCH   9  15
HETATM   15  C   UNL     1     -14.149   0.493 -33.986  1.00  0.00     0.270 C 
HETATM   16  N   UNL     1     -13.800  -0.705 -33.425  1.00  0.00    -0.365 N 
HETATM   17  H   UNL     1     -13.003  -0.731 -32.800  1.00  0.00     0.159 HD
HETATM   18  H   UNL     1     -14.277  -1.546 -33.708  1.00  0.00     0.159 HD
HETATM   19  O   UNL     1     -15.066   0.569 -34.797  1.00  0.00    -0.266 OA
ENDBRANCH   9  15
ENDBRANCH   2   5
BRANCH   1  20
HETATM   20  C   UNL     1      -6.562  -0.969 -34.228  1.00  0.00     0.046 A 
HETATM   21  C   UNL     1      -5.335  -0.869 -33.527  1.00  0.00     0.009 A 
HETATM   22  C   UNL     1      -4.585  -2.062 -33.426  1.00  0.00     0.071 A 
HETATM   23  C   UNL     1      -4.804   0.317 -32.952  1.00  0.00     0.018 A 
HETATM   24  N   UNL     1      -4.960  -3.215 -34.002  1.00  0.00    -0.253 NA
HETATM   25  C   UNL     1      -3.400  -2.060 -32.709  1.00  0.00     0.074 A 
HETATM   26  C   UNL     1      -6.097  -3.255 -34.731  1.00  0.00     0.032 A 
HETATM   27  C   UNL     1      -6.440  -4.549 -35.407  1.00  0.00     0.070 C 
HETATM   28  C   UNL     1      -6.928  -2.162 -34.858  1.00  0.00     0.044 A 
HETATM   29  C   UNL     1      -2.923  -0.901 -32.113  1.00  0.00     0.118 A 
HETATM   30  F   UNL     1      -1.777  -0.935 -31.422  1.00  0.00    -0.206 F 
HETATM   31  C   UNL     1      -3.608   0.295 -32.238  1.00  0.00     0.043 A 
ENDBRANCH   1  20
TORSDOF 3
ENDMDL
MODEL 3
REMARK VINA RESULT:      -9.5      1.726      3.003
REMARK  3 active torsions:
REMARK  status: ('A' for Active; 'I' for Inactive)
REMARK    1  A    between atoms: C_6  and  C_7 
REMARK       I    between atoms: C_7  and  N_8 
REMARK    2  A    between atoms: N_8  and  C_9 
REMARK    3  A    between atoms: C_16  and  C_17 
REMARK       I    between atoms: C_17  and  N_18 
ROOT
HETATM    1  C   UNL     1      -6.931   0.418 -34.190  1.00  0.00     0.257 C 
HETATM    2  N   UNL     1      -7.910   0.791 -33.288  1.00  0.00    -0.323 N 
HETATM    3  O   UNL     1      -6.895   0.682 -35.386  1.00  0.00    -0.267 OA
HETATM    4  H   UNL     1      -7.762   0.557 -32.314  1.00  0.00     0.169 HD
ENDROOT
BRANCH   2   5
HETATM    5  C   UNL     1      -9.107   1.478 -33.577  1.00  0.00     0.036 A 
HETATM    6  C   UNL     1      -9.151   2.837 -33.915  1.00  0.00     0.046 A 
HETATM    7  C   UNL     1     -10.388   3.429 -34.251  1.00  0.00     0.030 A 
HETATM    8  C   UNL     1     -11.541   2.656 -34.188  1.00  0.00     0.063 A 
HETATM    9  C   UNL     1     -10.827   4.708 -34.708  1.00  0.00     0.156 A 
HETATM   10  N   UNL     1     -12.561   3.498 -34.533  1.00  0.00    -0.277 N 
HETATM   11  C   UNL     1     -11.535   1.304 -33.839  1.00  0.00     0.034 A 
HETATM   12  H   UNL     1     -13.550   3.278 -34.577  1.00  0.00     0.189 HD
HETATM   13  N   UNL     1     -12.170   4.737 -34.870  1.00  0.00    -0.168 NA
HETATM   14  C   UNL     1     -10.290   0.727 -33.560  1.00  0.00     0.032 A 
BRANCH   9  15
HETATM   15  C   UNL     1      -9.998   5.880 -35.024  1.00  0.00     0.270 C 
HETATM   16  N   UNL     1      -9.394   6.448 -33.935  1.00  0.00    -0.365 N 
HETATM   17  H   UNL     1      -9.582   6.056 -33.020  1.00  0.00     0.159 HD
HETATM   18  H   UNL     1      -8.853   7.290 -34.048  1.00  0.00     0.159 HD
HETATM   19  O   UNL     1      -9.855   6.354 -36.147  1.00  0.00    -0.266 OA
ENDBRANCH   9  15
ENDBRANCH   2   5
BRANCH   1  20
HETATM   20  C   UNL     1      -5.844  -0.430 -33.632  1.00  0.00     0.046 A 
HETATM   21  C   UNL     1      -5.647  -1.793 -33.964  1.00  0.00     0.009 A 
HETATM   22  C   UNL     1      -4.485  -2.394 -33.431  1.00  0.00     0.071 A 
HETATM   23  C   UNL     1      -6.521  -2.588 -34.753  1.00  0.00     0.018 A 
HETATM   24  N   UNL     1      -3.638  -1.753 -32.611  1.00  0.00    -0.253 NA
HETATM   25  C   UNL     1      -4.192  -3.709 -33.755  1.00  0.00     0.074 A 
HETATM   26  C   UNL     1      -3.898  -0.477 -32.251  1.00  0.00     0.032 A 
HETATM   27  C   UNL     1      -2.957   0.174 -31.282  1.00  0.00     0.070 C 
HETATM   28  C   UNL     1      -4.980   0.220 -32.747  1.00  0.00     0.044 A 
HETATM   29  C   UNL     1      -5.035  -4.454 -34.567  1.00  0.00     0.118 A 
HETATM   30  F   UNL     1      -4.720  -5.720 -34.865  1.00  0.00    -0.206 F 
HETATM   31  C   UNL     1      -6.208  -3.910 -35.062  1.00  0.00     0.043 A 
ENDBRANCH   1  20
TORSDOF 3
ENDMDL
MODEL 4
REMARK VINA RESULT:      -9.2      5.454      8.904
REMARK  3 active torsions:
REMARK  status: ('A' for Active; 'I' for Inactive)
REMARK    1  A    between atoms: C_6  and  C_7 
REMARK       I    between atoms: C_7  and  N_8 
REMARK    2  A    between atoms: N_8  and  C_9 
REMARK    3  A    between atoms: C_16  and  C_17 
REMARK       I    between atoms: C_17  and  N_18 
ROOT
HETATM    1  C   UNL     1      -3.839   2.047 -31.854  1.00  0.00     0.257 C 
HETATM    2  N   UNL     1      -3.083   2.786 -32.743  1.00  0.00    -0.323 N 
HETATM    3  O   UNL     1      -4.140   2.359 -30.708  1.00  0.00    -0.267 OA
HETATM    4  H   UNL     1      -2.981   2.424 -33.683  1.00  0.00     0.169 HD
ENDROOT
BRANCH   2   5
HETATM    5  C   UNL     1      -2.434   4.011 -32.485  1.00  0.00     0.036 A 
HETATM    6  C   UNL     1      -1.680   4.252 -31.328  1.00  0.00     0.046 A 
HETATM    7  C   UNL     1      -1.012   5.486 -31.180  1.00  0.00     0.030 A 
HETATM    8  C   UNL     1      -1.160   6.453 -32.168  1.00  0.00     0.063 A 
HETATM    9  C   UNL     1      -0.119   6.067 -30.229  1.00  0.00     0.156 A 
HETATM   10  N   UNL     1      -0.433   7.527 -31.736  1.00  0.00    -0.277 N 
HETATM   11  C   UNL     1      -1.916   6.252 -33.325  1.00  0.00     0.034 A 
HETATM   12  H   UNL     1      -0.327   8.423 -32.199  1.00  0.00     0.189 HD
HETATM   13  N   UNL     1       0.223   7.327 -30.582  1.00  0.00    -0.168 NA
HETATM   14  C   UNL     1      -2.528   5.001 -33.472  1.00  0.00     0.032 A 
BRANCH   9  15
HETATM   15  C   UNL     1       0.437   5.438 -29.022  1.00  0.00     0.270 C 
HETATM   16  N   UNL     1       1.189   4.322 -29.269  1.00  0.00    -0.365 N 
HETATM   17  H   UNL     1       1.276   4.000 -30.225  1.00  0.00     0.159 HD
HETATM   18  H   UNL     1       1.563   3.792 -28.498  1.00  0.00     0.159 HD
HETATM   19  O   UNL     1       0.248   5.833 -27.876  1.00  0.00    -0.266 OA
ENDBRANCH   9  15
ENDBRANCH   2   5
BRANCH   1  20
HETATM   20  C   UNL     1      -4.282   0.716 -32.350  1.00  0.00     0.046 A 
HETATM   21  C   UNL     1      -5.368   0.517 -33.237  1.00  0.00     0.009 A 
HETATM   22  C   UNL     1      -5.554  -0.807 -33.694  1.00  0.00     0.071 A 
HETATM   23  C   UNL     1      -6.276   1.519 -33.672  1.00  0.00     0.018 A 
HETATM   24  N   UNL     1      -4.800  -1.838 -33.281  1.00  0.00    -0.253 NA
HETATM   25  C   UNL     1      -6.560  -1.074 -34.608  1.00  0.00     0.074 A 
HETATM   26  C   UNL     1      -3.823  -1.626 -32.373  1.00  0.00     0.032 A 
HETATM   27  C   UNL     1      -3.052  -2.820 -31.895  1.00  0.00     0.070 C 
HETATM   28  C   UNL     1      -3.526  -0.368 -31.893  1.00  0.00     0.044 A 
HETATM   29  C   UNL     1      -7.407  -0.070 -35.058  1.00  0.00     0.118 A 
HETATM   30  F   UNL     1      -8.365  -0.362 -35.946  1.00  0.00    -0.206 F 
HETATM   31  C   UNL     1      -7.283   1.226 -34.589  1.00  0.00     0.043 A 
ENDBRANCH   1  20
TORSDOF 3
ENDMDL
MODEL 5
REMARK VINA RESULT:      -9.2      5.187      8.517
REMARK  3 active torsions:
REMARK  status: ('A' for Active; 'I' for Inactive)
REMARK    1  A    between atoms: C_6  and  C_7 
REMARK       I    between atoms: C_7  and  N_8 
REMARK    2  A    between atoms: N_8  and  C_9 
REMARK    3  A    between atoms: C_16  and  C_17 
REMARK       I    between atoms: C_17  and  N_18 
ROOT
HETATM    1  C   UNL     1      -4.810   2.167 -32.115  1.00  0.00     0.257 C 
HETATM    2  N   UNL     1      -4.056   3.094 -32.809  1.00  0.00    -0.323 N 
HETATM    3  O   UNL     1      -5.163   2.234 -30.944  1.00  0.00    -0.267 OA
HETATM    4  H   UNL     1      -3.907   2.930 -33.797  1.00  0.00     0.169 HD
ENDROOT
BRANCH   2   5
HETATM    5  C   UNL     1      -3.469   4.265 -32.287  1.00  0.00     0.036 A 
HETATM    6  C   UNL     1      -2.256   4.268 -31.584  1.00  0.00     0.046 A 
HETATM    7  C   UNL     1      -1.709   5.495 -31.151  1.00  0.00     0.030 A 
HETATM    8  C   UNL     1      -2.415   6.668 -31.392  1.00  0.00     0.063 A 
HETATM    9  C   UNL     1      -0.509   5.915 -30.501  1.00  0.00     0.156 A 
HETATM   10  N   UNL     1      -1.660   7.665 -30.840  1.00  0.00    -0.277 N 
HETATM   11  C   UNL     1      -3.632   6.698 -32.075  1.00  0.00     0.034 A 
HETATM   12  H   UNL     1      -1.877   8.655 -30.812  1.00  0.00     0.189 HD
HETATM   13  N   UNL     1      -0.497   7.254 -30.310  1.00  0.00    -0.168 NA
HETATM   14  C   UNL     1      -4.130   5.474 -32.539  1.00  0.00     0.032 A 
BRANCH   9  15
HETATM   15  C   UNL     1       0.630   5.079 -30.095  1.00  0.00     0.270 C 
HETATM   16  N   UNL     1       0.828   5.024 -28.742  1.00  0.00    -0.365 N 
HETATM   17  H   UNL     1       0.220   5.569 -28.142  1.00  0.00     0.159 HD
HETATM   18  H   UNL     1       1.620   4.521 -28.374  1.00  0.00     0.159 HD
HETATM   19  O   UNL     1       1.377   4.489 -30.869  1.00  0.00    -0.266 OA
ENDBRANCH   9  15
ENDBRANCH   2   5
BRANCH   1  20
HETATM   20  C   UNL     1      -5.179   0.946 -32.882  1.00  0.00     0.046 A 
HETATM   21  C   UNL     1      -4.527  -0.304 -32.752  1.00  0.00     0.009 A 
HETATM   22  C   UNL     1      -5.103  -1.376 -33.470  1.00  0.00     0.071 A 
HETATM   23  C   UNL     1      -3.353  -0.550 -31.992  1.00  0.00     0.018 A 
HETATM   24  N   UNL     1      -6.164  -1.231 -34.278  1.00  0.00    -0.253 NA
HETATM   25  C   UNL     1      -4.557  -2.643 -33.351  1.00  0.00     0.074 A 
HETATM   26  C   UNL     1      -6.714  -0.007 -34.442  1.00  0.00     0.032 A 
HETATM   27  C   UNL     1      -7.856   0.115 -35.404  1.00  0.00     0.070 C 
HETATM   28  C   UNL     1      -6.260   1.100 -33.755  1.00  0.00     0.044 A 
HETATM   29  C   UNL     1      -3.437  -2.872 -32.564  1.00  0.00     0.118 A 
HETATM   30  F   UNL     1      -2.938  -4.110 -32.466  1.00  0.00    -0.206 F 
HETATM   31  C   UNL     1      -2.819  -1.833 -31.890  1.00  0.00     0.043 A 
ENDBRANCH   1  20
TORSDOF 3
ENDMDL
MODEL 6
REMARK VINA RESULT:      -9.1      2.235      4.064
REMARK  3 active torsions:
REMARK  status: ('A' for Active; 'I' for Inactive)
REMARK    1  A    between atoms: C_6  and  C_7 
REMARK       I    between atoms: C_7  and  N_8 
REMARK    2  A    between atoms: N_8  and  C_9 
REMARK    3  A    between atoms: C_16  and  C_17 
REMARK       I    between atoms: C_17  and  N_18 
ROOT
HETATM    1  C   UNL     1      -7.465   0.152 -34.601  1.00  0.00     0.257 C 
HETATM    2  N   UNL     1      -8.447   0.283 -33.637  1.00  0.00    -0.323 N 
HETATM    3  O   UNL     1      -7.371   0.786 -35.645  1.00  0.00    -0.267 OA
HETATM    4  H   UNL     1      -8.348  -0.265 -32.792  1.00  0.00     0.169 HD
ENDROOT
BRANCH   2   5
HETATM    5  C   UNL     1      -9.586   1.111 -33.699  1.00  0.00     0.036 A 
HETATM    6  C   UNL     1      -9.520   2.493 -33.928  1.00  0.00     0.046 A 
HETATM    7  C   UNL     1     -10.715   3.236 -34.037  1.00  0.00     0.030 A 
HETATM    8  C   UNL     1     -11.930   2.583 -33.866  1.00  0.00     0.063 A 
HETATM    9  C   UNL     1     -11.063   4.589 -34.331  1.00  0.00     0.156 A 
HETATM   10  N   UNL     1     -12.884   3.553 -33.997  1.00  0.00    -0.277 N 
HETATM   11  C   UNL     1     -12.031   1.212 -33.622  1.00  0.00     0.034 A 
HETATM   12  H   UNL     1     -13.888   3.441 -33.915  1.00  0.00     0.189 HD
HETATM   13  N   UNL     1     -12.403   4.770 -34.295  1.00  0.00    -0.168 NA
HETATM   14  C   UNL     1     -10.834   0.488 -33.568  1.00  0.00     0.032 A 
BRANCH   9  15
HETATM   15  C   UNL     1     -10.156   5.694 -34.676  1.00  0.00     0.270 C 
HETATM   16  N   UNL     1      -9.907   6.556 -33.643  1.00  0.00    -0.365 N 
HETATM   17  H   UNL     1     -10.374   6.397 -32.758  1.00  0.00     0.159 HD
HETATM   18  H   UNL     1      -9.342   7.375 -33.802  1.00  0.00     0.159 HD
HETATM   19  O   UNL     1      -9.665   5.876 -35.786  1.00  0.00    -0.266 OA
ENDBRANCH   9  15
ENDBRANCH   2   5
BRANCH   1  20
HETATM   20  C   UNL     1      -6.455  -0.908 -34.339  1.00  0.00     0.046 A 
HETATM   21  C   UNL     1      -5.300  -0.730 -33.540  1.00  0.00     0.009 A 
HETATM   22  C   UNL     1      -4.529  -1.890 -33.304  1.00  0.00     0.071 A 
HETATM   23  C   UNL     1      -4.856   0.503 -32.990  1.00  0.00     0.018 A 
HETATM   24  N   UNL     1      -4.819  -3.084 -33.843  1.00  0.00    -0.253 NA
HETATM   25  C   UNL     1      -3.414  -1.809 -32.486  1.00  0.00     0.074 A 
HETATM   26  C   UNL     1      -5.884  -3.203 -34.666  1.00  0.00     0.032 A 
HETATM   27  C   UNL     1      -6.128  -4.542 -35.294  1.00  0.00     0.070 C 
HETATM   28  C   UNL     1      -6.730  -2.146 -34.929  1.00  0.00     0.044 A 
HETATM   29  C   UNL     1      -3.025  -0.604 -31.919  1.00  0.00     0.118 A 
HETATM   30  F   UNL     1      -1.946  -0.562 -31.128  1.00  0.00    -0.206 F 
HETATM   31  C   UNL     1      -3.729   0.560 -32.173  1.00  0.00     0.043 A 
ENDBRANCH   1  20
TORSDOF 3
ENDMDL
MODEL 7
REMARK VINA RESULT:      -9.0     14.212     17.492
REMARK  3 active torsions:
REMARK  status: ('A' for Active; 'I' for Inactive)
REMARK    1  A    between atoms: C_6  and  C_7 
REMARK       I    between atoms: C_7  and  N_8 
REMARK    2  A    between atoms: N_8  and  C_9 
REMARK    3  A    between atoms: C_16  and  C_17 
REMARK       I    between atoms: C_17  and  N_18 
ROOT
HETATM    1  C   UNL     1      -3.856 -12.986 -38.024  1.00  0.00     0.257 C 
HETATM    2  N   UNL     1      -3.287 -14.169 -38.455  1.00  0.00    -0.323 N 
HETATM    3  O   UNL     1      -3.305 -11.894 -37.938  1.00  0.00    -0.267 OA
HETATM    4  H   UNL     1      -3.893 -14.975 -38.539  1.00  0.00     0.169 HD
ENDROOT
BRANCH   2   5
HETATM    5  C   UNL     1      -1.936 -14.380 -38.802  1.00  0.00     0.036 A 
HETATM    6  C   UNL     1      -1.001 -14.957 -37.932  1.00  0.00     0.046 A 
HETATM    7  C   UNL     1       0.316 -15.188 -38.384  1.00  0.00     0.030 A 
HETATM    8  C   UNL     1       0.664 -14.791 -39.670  1.00  0.00     0.063 A 
HETATM    9  C   UNL     1       1.494 -15.798 -37.856  1.00  0.00     0.156 A 
HETATM   10  N   UNL     1       1.985 -15.114 -39.804  1.00  0.00    -0.277 N 
HETATM   11  C   UNL     1      -0.238 -14.200 -40.556  1.00  0.00     0.034 A 
HETATM   12  H   UNL     1       2.578 -14.953 -40.610  1.00  0.00     0.189 HD
HETATM   13  N   UNL     1       2.516 -15.739 -38.740  1.00  0.00    -0.168 NA
HETATM   14  C   UNL     1      -1.552 -14.027 -40.102  1.00  0.00     0.032 A 
BRANCH   9  15
HETATM   15  C   UNL     1       1.653 -16.462 -36.554  1.00  0.00     0.270 C 
HETATM   16  N   UNL     1       0.624 -17.301 -36.225  1.00  0.00    -0.365 N 
HETATM   17  H   UNL     1      -0.161 -17.375 -36.861  1.00  0.00     0.159 HD
HETATM   18  H   UNL     1       0.619 -17.755 -35.326  1.00  0.00     0.159 HD
HETATM   19  O   UNL     1       2.597 -16.288 -35.790  1.00  0.00    -0.266 OA
ENDBRANCH   9  15
ENDBRANCH   2   5
BRANCH   1  20
HETATM   20  C   UNL     1      -5.272 -13.086 -37.581  1.00  0.00     0.046 A 
HETATM   21  C   UNL     1      -6.389 -12.855 -38.422  1.00  0.00     0.009 A 
HETATM   22  C   UNL     1      -7.653 -13.125 -37.852  1.00  0.00     0.071 A 
HETATM   23  C   UNL     1      -6.335 -12.364 -39.753  1.00  0.00     0.018 A 
HETATM   24  N   UNL     1      -7.816 -13.516 -36.579  1.00  0.00    -0.253 NA
HETATM   25  C   UNL     1      -8.792 -12.977 -38.628  1.00  0.00     0.074 A 
HETATM   26  C   UNL     1      -6.734 -13.650 -35.781  1.00  0.00     0.032 A 
HETATM   27  C   UNL     1      -6.972 -14.027 -34.349  1.00  0.00     0.070 C 
HETATM   28  C   UNL     1      -5.450 -13.456 -36.245  1.00  0.00     0.044 A 
HETATM   29  C   UNL     1      -8.713 -12.541 -39.943  1.00  0.00     0.118 A 
HETATM   30  F   UNL     1      -9.832 -12.415 -40.666  1.00  0.00    -0.206 F 
HETATM   31  C   UNL     1      -7.494 -12.220 -40.513  1.00  0.00     0.043 A 
ENDBRANCH   1  20
TORSDOF 3
ENDMDL
MODEL 8
REMARK VINA RESULT:      -8.9      3.287      8.710
REMARK  3 active torsions:
REMARK  status: ('A' for Active; 'I' for Inactive)
REMARK    1  A    between atoms: C_6  and  C_7 
REMARK       I    between atoms: C_7  and  N_8 
REMARK    2  A    between atoms: N_8  and  C_9 
REMARK    3  A    between atoms: C_16  and  C_17 
REMARK       I    between atoms: C_17  and  N_18 
ROOT
HETATM    1  C   UNL     1      -9.432   0.903 -33.237  1.00  0.00     0.257 C 
HETATM    2  N   UNL     1      -8.567   0.458 -34.219  1.00  0.00    -0.323 N 
HETATM    3  O   UNL     1      -9.305   0.761 -32.026  1.00  0.00    -0.267 OA
HETATM    4  H   UNL     1      -8.773   0.716 -35.175  1.00  0.00     0.169 HD
ENDROOT
BRANCH   2   5
HETATM    5  C   UNL     1      -7.407  -0.322 -34.032  1.00  0.00     0.036 A 
HETATM    6  C   UNL     1      -6.383   0.025 -33.141  1.00  0.00     0.046 A 
HETATM    7  C   UNL     1      -5.286  -0.847 -32.972  1.00  0.00     0.030 A 
HETATM    8  C   UNL     1      -5.227  -2.008 -33.733  1.00  0.00     0.063 A 
HETATM    9  C   UNL     1      -4.126  -0.894 -32.140  1.00  0.00     0.156 A 
HETATM   10  N   UNL     1      -4.058  -2.618 -33.374  1.00  0.00    -0.277 N 
HETATM   11  C   UNL     1      -6.222  -2.376 -34.641  1.00  0.00     0.034 A 
HETATM   12  H   UNL     1      -3.679  -3.484 -33.742  1.00  0.00     0.189 HD
HETATM   13  N   UNL     1      -3.375  -1.988 -32.405  1.00  0.00    -0.168 NA
HETATM   14  C   UNL     1      -7.324  -1.520 -34.755  1.00  0.00     0.032 A 
BRANCH   9  15
HETATM   15  C   UNL     1      -3.741   0.054 -31.084  1.00  0.00     0.270 C 
HETATM   16  N   UNL     1      -4.768   0.417 -30.257  1.00  0.00    -0.365 N 
HETATM   17  H   UNL     1      -5.693   0.047 -30.444  1.00  0.00     0.159 HD
HETATM   18  H   UNL     1      -4.611   1.106 -29.540  1.00  0.00     0.159 HD
HETATM   19  O   UNL     1      -2.616   0.521 -30.940  1.00  0.00    -0.266 OA
ENDBRANCH   9  15
ENDBRANCH   2   5
BRANCH   1  20
HETATM   20  C   UNL     1     -10.660   1.581 -33.732  1.00  0.00     0.046 A 
HETATM   21  C   UNL     1     -10.696   2.911 -34.216  1.00  0.00     0.009 A 
HETATM   22  C   UNL     1     -11.929   3.334 -34.762  1.00  0.00     0.071 A 
HETATM   23  C   UNL     1      -9.619   3.837 -34.175  1.00  0.00     0.018 A 
HETATM   24  N   UNL     1     -13.028   2.563 -34.775  1.00  0.00    -0.253 NA
HETATM   25  C   UNL     1     -12.030   4.603 -35.307  1.00  0.00     0.074 A 
HETATM   26  C   UNL     1     -12.980   1.327 -34.232  1.00  0.00     0.032 A 
HETATM   27  C   UNL     1     -14.249   0.530 -34.213  1.00  0.00     0.070 C 
HETATM   28  C   UNL     1     -11.817   0.797 -33.713  1.00  0.00     0.044 A 
HETATM   29  C   UNL     1     -10.950   5.476 -35.300  1.00  0.00     0.118 A 
HETATM   30  F   UNL     1     -11.080   6.693 -35.841  1.00  0.00    -0.206 F 
HETATM   31  C   UNL     1      -9.745   5.110 -34.727  1.00  0.00     0.043 A 
ENDBRANCH   1  20
TORSDOF 3
ENDMDL
MODEL 9
REMARK VINA RESULT:      -8.9      5.152      8.056
REMARK  3 active torsions:
REMARK  status: ('A' for Active; 'I' for Inactive)
REMARK    1  A    between atoms: C_6  and  C_7 
REMARK       I    between atoms: C_7  and  N_8 
REMARK    2  A    between atoms: N_8  and  C_9 
REMARK    3  A    between atoms: C_16  and  C_17 
REMARK       I    between atoms: C_17  and  N_18 
ROOT
HETATM    1  C   UNL     1      -5.112   1.571 -31.400  1.00  0.00     0.257 C 
HETATM    2  N   UNL     1      -5.239   1.362 -32.760  1.00  0.00    -0.323 N 
HETATM    3  O   UNL     1      -5.204   0.729 -30.515  1.00  0.00    -0.267 OA
HETATM    4  H   UNL     1      -5.064   2.149 -33.372  1.00  0.00     0.169 HD
ENDROOT
BRANCH   2   5
HETATM    5  C   UNL     1      -5.583   0.153 -33.400  1.00  0.00     0.036 A 
HETATM    6  C   UNL     1      -4.795  -1.003 -33.333  1.00  0.00     0.046 A 
HETATM    7  C   UNL     1      -5.247  -2.188 -33.953  1.00  0.00     0.030 A 
HETATM    8  C   UNL     1      -6.444  -2.162 -34.658  1.00  0.00     0.063 A 
HETATM    9  C   UNL     1      -4.796  -3.540 -34.044  1.00  0.00     0.156 A 
HETATM   10  N   UNL     1      -6.597  -3.424 -35.159  1.00  0.00    -0.277 N 
HETATM   11  C   UNL     1      -7.246  -1.023 -34.758  1.00  0.00     0.034 A 
HETATM   12  H   UNL     1      -7.353  -3.766 -35.742  1.00  0.00     0.189 HD
HETATM   13  N   UNL     1      -5.635  -4.288 -34.797  1.00  0.00    -0.168 NA
HETATM   14  C   UNL     1      -6.801   0.126 -34.093  1.00  0.00     0.032 A 
BRANCH   9  15
HETATM   15  C   UNL     1      -3.613  -4.135 -33.405  1.00  0.00     0.270 C 
HETATM   16  N   UNL     1      -3.095  -5.208 -34.078  1.00  0.00    -0.365 N 
HETATM   17  H   UNL     1      -3.566  -5.525 -34.917  1.00  0.00     0.159 HD
HETATM   18  H   UNL     1      -2.319  -5.716 -33.685  1.00  0.00     0.159 HD
HETATM   19  O   UNL     1      -3.119  -3.750 -32.350  1.00  0.00    -0.266 OA
ENDBRANCH   9  15
ENDBRANCH   2   5
BRANCH   1  20
HETATM   20  C   UNL     1      -4.887   2.984 -30.993  1.00  0.00     0.046 A 
HETATM   21  C   UNL     1      -3.925   3.840 -31.583  1.00  0.00     0.009 A 
HETATM   22  C   UNL     1      -3.950   5.185 -31.149  1.00  0.00     0.071 A 
HETATM   23  C   UNL     1      -2.947   3.453 -32.537  1.00  0.00     0.018 A 
HETATM   24  N   UNL     1      -4.781   5.632 -30.195  1.00  0.00    -0.253 NA
HETATM   25  C   UNL     1      -3.077   6.097 -31.718  1.00  0.00     0.074 A 
HETATM   26  C   UNL     1      -5.632   4.771 -29.596  1.00  0.00     0.032 A 
HETATM   27  C   UNL     1      -6.495   5.305 -28.493  1.00  0.00     0.070 C 
HETATM   28  C   UNL     1      -5.724   3.447 -29.973  1.00  0.00     0.044 A 
HETATM   29  C   UNL     1      -2.160   5.707 -32.685  1.00  0.00     0.118 A 
HETATM   30  F   UNL     1      -1.336   6.616 -33.220  1.00  0.00    -0.206 F 
HETATM   31  C   UNL     1      -2.077   4.388 -33.094  1.00  0.00     0.043 A 
ENDBRANCH   1  20
TORSDOF 3
ENDMDL
MODEL 10
REMARK VINA RESULT:      -8.6      3.255      8.515
REMARK  3 active torsions:
REMARK  status: ('A' for Active; 'I' for Inactive)
REMARK    1  A    between atoms: C_6  and  C_7 
REMARK       I    between atoms: C_7  and  N_8 
REMARK    2  A    between atoms: N_8  and  C_9 
REMARK    3  A    between atoms: C_16  and  C_17 
REMARK       I    between atoms: C_17  and  N_18 
ROOT
HETATM    1  C   UNL     1      -9.007   0.921 -33.814  1.00  0.00     0.257 C 
HETATM    2  N   UNL     1      -8.556   0.774 -32.515  1.00  0.00    -0.323 N 
HETATM    3  O   UNL     1      -8.365   0.732 -34.840  1.00  0.00    -0.267 OA
HETATM    4  H   UNL     1      -9.230   0.898 -31.770  1.00  0.00     0.169 HD
ENDROOT
BRANCH   2   5
HETATM    5  C   UNL     1      -7.243   0.460 -32.107  1.00  0.00     0.036 A 
HETATM    6  C   UNL     1      -6.516  -0.620 -32.626  1.00  0.00     0.046 A 
HETATM    7  C   UNL     1      -5.183  -0.825 -32.206  1.00  0.00     0.030 A 
HETATM    8  C   UNL     1      -4.643   0.026 -31.249  1.00  0.00     0.063 A 
HETATM    9  C   UNL     1      -4.125  -1.723 -32.539  1.00  0.00     0.156 A 
HETATM   10  N   UNL     1      -3.375  -0.434 -31.030  1.00  0.00    -0.277 N 
HETATM   11  C   UNL     1      -5.345   1.101 -30.700  1.00  0.00     0.034 A 
HETATM   12  H   UNL     1      -2.692  -0.064 -30.379  1.00  0.00     0.189 HD
HETATM   13  N   UNL     1      -3.019  -1.474 -31.801  1.00  0.00    -0.168 NA
HETATM   14  C   UNL     1      -6.647   1.313 -31.170  1.00  0.00     0.032 A 
BRANCH   9  15
HETATM   15  C   UNL     1      -4.134  -2.780 -33.561  1.00  0.00     0.270 C 
HETATM   16  N   UNL     1      -3.497  -3.930 -33.182  1.00  0.00    -0.365 N 
HETATM   17  H   UNL     1      -3.052  -3.958 -32.272  1.00  0.00     0.159 HD
HETATM   18  H   UNL     1      -3.403  -4.688 -33.839  1.00  0.00     0.159 HD
HETATM   19  O   UNL     1      -4.635  -2.671 -34.676  1.00  0.00    -0.266 OA
ENDBRANCH   9  15
ENDBRANCH   2   5
BRANCH   1  20
HETATM   20  C   UNL     1     -10.407   1.404 -33.949  1.00  0.00     0.046 A 
HETATM   21  C   UNL     1     -10.762   2.711 -34.366  1.00  0.00     0.009 A 
HETATM   22  C   UNL     1     -12.143   2.941 -34.557  1.00  0.00     0.071 A 
HETATM   23  C   UNL     1      -9.859   3.786 -34.579  1.00  0.00     0.018 A 
HETATM   24  N   UNL     1     -13.082   2.016 -34.306  1.00  0.00    -0.253 NA
HETATM   25  C   UNL     1     -12.567   4.176 -35.017  1.00  0.00     0.074 A 
HETATM   26  C   UNL     1     -12.714   0.805 -33.833  1.00  0.00     0.032 A 
HETATM   27  C   UNL     1     -13.804  -0.172 -33.508  1.00  0.00     0.070 C 
HETATM   28  C   UNL     1     -11.391   0.457 -33.653  1.00  0.00     0.044 A 
HETATM   29  C   UNL     1     -11.663   5.200 -35.265  1.00  0.00     0.118 A 
HETATM   30  F   UNL     1     -12.106   6.380 -35.715  1.00  0.00    -0.206 F 
HETATM   31  C   UNL     1     -10.310   5.022 -35.038  1.00  0.00     0.043 A 
ENDBRANCH   1  20
TORSDOF 3
ENDMDL
