MODEL 1
REMARK VINA RESULT:      -9.4      0.000      0.000
REMARK  8 active torsions:
REMARK  status: ('A' for Active; 'I' for Inactive)
REMARK    1  A    between atoms: C_4  and  C_5 
REMARK    2  A    between atoms: C_9  and  C_10 
REMARK       I    between atoms: C_10  and  N_11 
REMARK    3  A    between atoms: N_11  and  C_12 
REMARK    4  A    between atoms: C_12  and  C_13 
REMARK    5  A    between atoms: C_13  and  C_14 
REMARK    6  A    between atoms: C_14  and  C_15 
REMARK    7  A    between atoms: C_15  and  O_16 
REMARK    8  A    between atoms: O_16  and  C_17 
ROOT
HETATM    1  C   UNL     1      -1.094   5.441 -31.328  1.00  0.00     0.270 C 
HETATM    2  N   UNL     1      -2.359   4.949 -31.122  1.00  0.00    -0.345 N 
HETATM    3  O   UNL     1      -0.554   5.463 -32.428  1.00  0.00    -0.266 OA
HETATM    4  H   UNL     1      -2.813   5.102 -30.236  1.00  0.00     0.163 HD
ENDROOT
BRANCH   2   5
HETATM    5  C   UNL     1      -3.150   4.414 -32.197  1.00  0.00     0.217 C 
BRANCH   5   6
HETATM    6  C   UNL     1      -3.296   2.908 -32.046  1.00  0.00    -0.085 C 
BRANCH   6   7
HETATM    7  C   UNL     1      -3.420   1.617 -31.917  1.00  0.00    -0.078 C 
BRANCH   7   8
HETATM    8  C   UNL     1      -3.564   0.111 -31.766  1.00  0.00     0.269 C 
BRANCH   8   9
HETATM    9  O   UNL     1      -3.465  -0.505 -33.043  1.00  0.00    -0.337 OA
BRANCH   9  10
HETATM   10  C   UNL     1      -4.628  -0.990 -33.606  1.00  0.00     0.099 A 
HETATM   11  C   UNL     1      -4.912  -2.324 -33.977  1.00  0.00     0.100 A 
HETATM   12  C   UNL     1      -6.188  -2.579 -34.539  1.00  0.00    -0.005 A 
HETATM   13  N   UNL     1      -4.033  -3.346 -33.817  1.00  0.00    -0.257 NA
HETATM   14  C   UNL     1      -6.512  -3.888 -34.923  1.00  0.00     0.015 A 
HETATM   15  C   UNL     1      -7.124  -1.548 -34.717  1.00  0.00     0.014 A 
HETATM   16  C   UNL     1      -5.597  -4.916 -34.751  1.00  0.00     0.020 A 
HETATM   17  C   UNL     1      -4.379  -4.596 -34.198  1.00  0.00     0.117 A 
HETATM   18  C   UNL     1      -6.821  -0.246 -34.341  1.00  0.00     0.004 A 
HETATM   19  C   UNL     1      -5.578   0.029 -33.787  1.00  0.00     0.039 A 
ENDBRANCH   9  10
ENDBRANCH   8   9
ENDBRANCH   7   8
ENDBRANCH   6   7
ENDBRANCH   5   6
ENDBRANCH   2   5
BRANCH   1  20
HETATM   20  C   UNL     1      -0.431   5.921 -30.147  1.00  0.00     0.120 A 
HETATM   21  N   UNL     1       0.110   5.065 -29.230  1.00  0.00    -0.272 N 
HETATM   22  N   UNL     1       0.679   5.672 -28.177  1.00  0.00    -0.174 NA
HETATM   23  H   UNL     1       0.116   4.050 -29.276  1.00  0.00     0.189 HD
HETATM   24  C   UNL     1       0.469   6.981 -28.387  1.00  0.00     0.089 A 
HETATM   25  C   UNL     1      -0.205   7.179 -29.625  1.00  0.00     0.071 A 
BRANCH  24  26
HETATM   26  C   UNL     1       0.902   7.998 -27.424  1.00  0.00    -0.006 A 
HETATM   27  C   UNL     1       0.392   9.302 -27.492  1.00  0.00     0.014 A 
HETATM   28  C   UNL     1       0.797  10.276 -26.576  1.00  0.00     0.001 A 
HETATM   29  C   UNL     1       1.724   9.958 -25.585  1.00  0.00     0.000 A 
HETATM   30  C   UNL     1       2.245   8.669 -25.509  1.00  0.00     0.001 A 
HETATM   31  C   UNL     1       1.836   7.693 -26.423  1.00  0.00     0.014 A 
ENDBRANCH  24  26
ENDBRANCH   1  20
TORSDOF 8
ENDMDL
MODEL 2
REMARK VINA RESULT:      -9.4      3.164     11.806
REMARK  8 active torsions:
REMARK  status: ('A' for Active; 'I' for Inactive)
REMARK    1  A    between atoms: C_4  and  C_5 
REMARK    2  A    between atoms: C_9  and  C_10 
REMARK       I    between atoms: C_10  and  N_11 
REMARK    3  A    between atoms: N_11  and  C_12 
REMARK    4  A    between atoms: C_12  and  C_13 
REMARK    5  A    between atoms: C_13  and  C_14 
REMARK    6  A    between atoms: C_14  and  C_15 
REMARK    7  A    between atoms: C_15  and  O_16 
REMARK    8  A    between atoms: O_16  and  C_17 
ROOT
HETATM    1  C   UNL     1      -6.425   2.709 -33.432  1.00  0.00     0.270 C 
HETATM    2  N   UNL     1      -5.781   3.624 -34.227  1.00  0.00    -0.345 N 
HETATM    3  O   UNL     1      -6.958   3.003 -32.367  1.00  0.00    -0.266 OA
HETATM    4  H   UNL     1      -5.503   3.363 -35.159  1.00  0.00     0.163 HD
ENDROOT
BRANCH   2   5
HETATM    5  C   UNL     1      -5.680   5.011 -33.860  1.00  0.00     0.217 C 
BRANCH   5   6
HETATM    6  C   UNL     1      -4.248   5.496 -34.020  1.00  0.00    -0.085 C 
BRANCH   6   7
HETATM    7  C   UNL     1      -3.020   5.911 -34.156  1.00  0.00    -0.078 C 
BRANCH   7   8
HETATM    8  C   UNL     1      -1.588   6.396 -34.314  1.00  0.00     0.269 C 
BRANCH   8   9
HETATM    9  O   UNL     1      -1.442   7.659 -33.679  1.00  0.00    -0.337 OA
BRANCH   9  10
HETATM   10  C   UNL     1      -1.194   7.661 -32.321  1.00  0.00     0.099 A 
HETATM   11  C   UNL     1      -1.909   8.354 -31.318  1.00  0.00     0.100 A 
HETATM   12  C   UNL     1      -1.463   8.198 -29.982  1.00  0.00    -0.005 A 
HETATM   13  N   UNL     1      -2.984   9.143 -31.577  1.00  0.00    -0.257 NA
HETATM   14  C   UNL     1      -2.142   8.869 -28.955  1.00  0.00     0.015 A 
HETATM   15  C   UNL     1      -0.358   7.388 -29.675  1.00  0.00     0.014 A 
HETATM   16  C   UNL     1      -3.235   9.670 -29.245  1.00  0.00     0.020 A 
HETATM   17  C   UNL     1      -3.615   9.774 -30.563  1.00  0.00     0.117 A 
HETATM   18  C   UNL     1       0.326   6.715 -30.679  1.00  0.00     0.004 A 
HETATM   19  C   UNL     1      -0.093   6.852 -31.996  1.00  0.00     0.039 A 
ENDBRANCH   9  10
ENDBRANCH   8   9
ENDBRANCH   7   8
ENDBRANCH   6   7
ENDBRANCH   5   6
ENDBRANCH   2   5
BRANCH   1  20
HETATM   20  C   UNL     1      -6.420   1.361 -33.932  1.00  0.00     0.120 A 
HETATM   21  N   UNL     1      -7.276   0.959 -34.918  1.00  0.00    -0.272 N 
HETATM   22  N   UNL     1      -7.154  -0.333 -35.261  1.00  0.00    -0.174 NA
HETATM   23  H   UNL     1      -7.967   1.531 -35.394  1.00  0.00     0.189 HD
HETATM   24  C   UNL     1      -6.207  -0.812 -34.439  1.00  0.00     0.089 A 
HETATM   25  C   UNL     1      -5.707   0.226 -33.604  1.00  0.00     0.071 A 
BRANCH  24  26
HETATM   26  C   UNL     1      -5.809  -2.223 -34.459  1.00  0.00    -0.006 A 
HETATM   27  C   UNL     1      -4.504  -2.597 -34.105  1.00  0.00     0.014 A 
HETATM   28  C   UNL     1      -4.117  -3.940 -34.120  1.00  0.00     0.001 A 
HETATM   29  C   UNL     1      -5.030  -4.924 -34.496  1.00  0.00     0.000 A 
HETATM   30  C   UNL     1      -6.326  -4.568 -34.857  1.00  0.00     0.001 A 
HETATM   31  C   UNL     1      -6.715  -3.225 -34.838  1.00  0.00     0.014 A 
ENDBRANCH  24  26
ENDBRANCH   1  20
TORSDOF 8
ENDMDL
MODEL 3
REMARK VINA RESULT:      -9.3      2.191      3.083
REMARK  8 active torsions:
REMARK  status: ('A' for Active; 'I' for Inactive)
REMARK    1  A    between atoms: C_4  and  C_5 
REMARK    2  A    between atoms: C_9  and  C_10 
REMARK       I    between atoms: C_10  and  N_11 
REMARK    3  A    between atoms: N_11  and  C_12 
REMARK    4  A    between atoms: C_12  and  C_13 
REMARK    5  A    between atoms: C_13  and  C_14 
REMARK    6  A    between atoms: C_14  and  C_15 
REMARK    7  A    between atoms: C_15  and  O_16 
REMARK    8  A    between atoms: O_16  and  C_17 
ROOT
HETATM    1  C   UNL     1      -1.684   6.569 -33.361  1.00  0.00     0.270 C 
HETATM    2  N   UNL     1      -2.607   5.570 -33.544  1.00  0.00    -0.345 N 
HETATM    3  O   UNL     1      -1.484   7.456 -34.183  1.00  0.00    -0.266 OA
HETATM    4  H   UNL     1      -2.843   4.964 -32.774  1.00  0.00     0.163 HD
ENDROOT
BRANCH   2   5
HETATM    5  C   UNL     1      -3.415   5.490 -34.731  1.00  0.00     0.217 C 
BRANCH   5   6
HETATM    6  C   UNL     1      -4.760   4.858 -34.413  1.00  0.00    -0.085 C 
BRANCH   6   7
HETATM    7  C   UNL     1      -5.914   4.317 -34.140  1.00  0.00    -0.078 C 
BRANCH   7   8
HETATM    8  C   UNL     1      -7.261   3.686 -33.823  1.00  0.00     0.269 C 
BRANCH   8   9
HETATM    9  O   UNL     1      -7.073   2.586 -32.943  1.00  0.00    -0.337 OA
BRANCH   9  10
HETATM   10  C   UNL     1      -6.820   1.354 -33.513  1.00  0.00     0.099 A 
HETATM   11  C   UNL     1      -5.826   0.422 -33.139  1.00  0.00     0.100 A 
HETATM   12  C   UNL     1      -5.762  -0.785 -33.879  1.00  0.00    -0.005 A 
HETATM   13  N   UNL     1      -4.952   0.630 -32.120  1.00  0.00    -0.257 NA
HETATM   14  C   UNL     1      -4.790  -1.739 -33.544  1.00  0.00     0.015 A 
HETATM   15  C   UNL     1      -6.650  -1.037 -34.937  1.00  0.00     0.014 A 
HETATM   16  C   UNL     1      -3.908  -1.502 -32.500  1.00  0.00     0.020 A 
HETATM   17  C   UNL     1      -4.029  -0.310 -31.823  1.00  0.00     0.117 A 
HETATM   18  C   UNL     1      -7.620  -0.106 -35.282  1.00  0.00     0.004 A 
HETATM   19  C   UNL     1      -7.703   1.084 -34.571  1.00  0.00     0.039 A 
ENDBRANCH   9  10
ENDBRANCH   8   9
ENDBRANCH   7   8
ENDBRANCH   6   7
ENDBRANCH   5   6
ENDBRANCH   2   5
BRANCH   1  20
HETATM   20  C   UNL     1      -0.946   6.494 -32.130  1.00  0.00     0.120 A 
HETATM   21  N   UNL     1      -0.194   5.398 -31.810  1.00  0.00    -0.272 N 
HETATM   22  N   UNL     1       0.420   5.479 -30.620  1.00  0.00    -0.174 NA
HETATM   23  H   UNL     1      -0.067   4.563 -32.374  1.00  0.00     0.189 HD
HETATM   24  C   UNL     1       0.025   6.659 -30.115  1.00  0.00     0.089 A 
HETATM   25  C   UNL     1      -0.816   7.335 -31.043  1.00  0.00     0.071 A 
BRANCH  24  26
HETATM   26  C   UNL     1       0.442   7.109 -28.783  1.00  0.00    -0.006 A 
HETATM   27  C   UNL     1       0.034   6.409 -27.638  1.00  0.00     0.014 A 
HETATM   28  C   UNL     1       0.429   6.830 -26.366  1.00  0.00     0.001 A 
HETATM   29  C   UNL     1       1.231   7.961 -26.224  1.00  0.00     0.000 A 
HETATM   30  C   UNL     1       1.639   8.670 -27.351  1.00  0.00     0.001 A 
HETATM   31  C   UNL     1       1.247   8.246 -28.624  1.00  0.00     0.014 A 
ENDBRANCH  24  26
ENDBRANCH   1  20
TORSDOF 8
ENDMDL
MODEL 4
REMARK VINA RESULT:      -9.0      2.683     11.334
REMARK  8 active torsions:
REMARK  status: ('A' for Active; 'I' for Inactive)
REMARK    1  A    between atoms: C_4  and  C_5 
REMARK    2  A    between atoms: C_9  and  C_10 
REMARK       I    between atoms: C_10  and  N_11 
REMARK    3  A    between atoms: N_11  and  C_12 
REMARK    4  A    between atoms: C_12  and  C_13 
REMARK    5  A    between atoms: C_13  and  C_14 
REMARK    6  A    between atoms: C_14  and  C_15 
REMARK    7  A    between atoms: C_15  and  O_16 
REMARK    8  A    between atoms: O_16  and  C_17 
ROOT
HETATM    1  C   UNL     1      -5.764   2.759 -33.089  1.00  0.00     0.270 C 
HETATM    2  N   UNL     1      -5.900   3.805 -33.968  1.00  0.00    -0.345 N 
HETATM    3  O   UNL     1      -5.506   2.911 -31.900  1.00  0.00    -0.266 OA
HETATM    4  H   UNL     1      -6.268   3.634 -34.890  1.00  0.00     0.163 HD
ENDROOT
BRANCH   2   5
HETATM    5  C   UNL     1      -5.746   5.173 -33.551  1.00  0.00     0.217 C 
BRANCH   5   6
HETATM    6  C   UNL     1      -4.313   5.633 -33.769  1.00  0.00    -0.085 C 
BRANCH   6   7
HETATM    7  C   UNL     1      -3.085   6.027 -33.957  1.00  0.00    -0.078 C 
BRANCH   7   8
HETATM    8  C   UNL     1      -1.653   6.486 -34.176  1.00  0.00     0.269 C 
BRANCH   8   9
HETATM    9  O   UNL     1      -1.471   7.768 -33.589  1.00  0.00    -0.337 OA
BRANCH   9  10
HETATM   10  C   UNL     1      -1.483   7.842 -32.211  1.00  0.00     0.099 A 
HETATM   11  C   UNL     1      -0.773   7.028 -31.300  1.00  0.00     0.100 A 
HETATM   12  C   UNL     1      -0.948   7.299 -29.920  1.00  0.00    -0.005 A 
HETATM   13  N   UNL     1       0.053   6.022 -31.686  1.00  0.00    -0.257 NA
HETATM   14  C   UNL     1      -0.263   6.514 -28.980  1.00  0.00     0.015 A 
HETATM   15  C   UNL     1      -1.791   8.333 -29.483  1.00  0.00     0.014 A 
HETATM   16  C   UNL     1       0.574   5.492 -29.399  1.00  0.00     0.020 A 
HETATM   17  C   UNL     1       0.698   5.286 -30.754  1.00  0.00     0.117 A 
HETATM   18  C   UNL     1      -2.476   9.121 -30.399  1.00  0.00     0.004 A 
HETATM   19  C   UNL     1      -2.320   8.875 -31.757  1.00  0.00     0.039 A 
ENDBRANCH   9  10
ENDBRANCH   8   9
ENDBRANCH   7   8
ENDBRANCH   6   7
ENDBRANCH   5   6
ENDBRANCH   2   5
BRANCH   1  20
HETATM   20  C   UNL     1      -5.929   1.455 -33.670  1.00  0.00     0.120 A 
HETATM   21  N   UNL     1      -6.814   1.229 -34.686  1.00  0.00    -0.272 N 
HETATM   22  N   UNL     1      -6.860  -0.044 -35.105  1.00  0.00    -0.174 NA
HETATM   23  H   UNL     1      -7.415   1.916 -35.132  1.00  0.00     0.189 HD
HETATM   24  C   UNL     1      -6.000  -0.694 -34.305  1.00  0.00     0.089 A 
HETATM   25  C   UNL     1      -5.380   0.217 -33.405  1.00  0.00     0.071 A 
BRANCH  24  26
HETATM   26  C   UNL     1      -5.793  -2.142 -34.407  1.00  0.00    -0.006 A 
HETATM   27  C   UNL     1      -6.855  -2.987 -34.762  1.00  0.00     0.014 A 
HETATM   28  C   UNL     1      -6.666  -4.368 -34.863  1.00  0.00     0.001 A 
HETATM   29  C   UNL     1      -5.413  -4.920 -34.603  1.00  0.00     0.000 A 
HETATM   30  C   UNL     1      -4.351  -4.095 -34.243  1.00  0.00     0.001 A 
HETATM   31  C   UNL     1      -4.539  -2.713 -34.145  1.00  0.00     0.014 A 
ENDBRANCH  24  26
ENDBRANCH   1  20
TORSDOF 8
ENDMDL
MODEL 5
REMARK VINA RESULT:      -8.9      6.635      9.824
REMARK  8 active torsions:
REMARK  status: ('A' for Active; 'I' for Inactive)
REMARK    1  A    between atoms: C_4  and  C_5 
REMARK    2  A    between atoms: C_9  and  C_10 
REMARK       I    between atoms: C_10  and  N_11 
REMARK    3  A    between atoms: N_11  and  C_12 
REMARK    4  A    between atoms: C_12  and  C_13 
REMARK    5  A    between atoms: C_13  and  C_14 
REMARK    6  A    between atoms: C_14  and  C_15 
REMARK    7  A    between atoms: C_15  and  O_16 
REMARK    8  A    between atoms: O_16  and  C_17 
ROOT
HETATM    1  C   UNL     1      -7.263   2.126 -31.522  1.00  0.00     0.270 C 
HETATM    2  N   UNL     1      -7.194   1.243 -30.473  1.00  0.00    -0.345 N 
HETATM    3  O   UNL     1      -6.336   2.863 -31.840  1.00  0.00    -0.266 OA
HETATM    4  H   UNL     1      -7.920   0.554 -30.356  1.00  0.00     0.163 HD
ENDROOT
BRANCH   2   5
HETATM    5  C   UNL     1      -6.015   1.120 -29.659  1.00  0.00     0.217 C 
BRANCH   5   6
HETATM    6  C   UNL     1      -4.922   0.387 -30.421  1.00  0.00    -0.085 C 
BRANCH   6   7
HETATM    7  C   UNL     1      -3.986  -0.241 -31.074  1.00  0.00    -0.078 C 
BRANCH   7   8
HETATM    8  C   UNL     1      -2.893  -0.974 -31.836  1.00  0.00     0.269 C 
BRANCH   8   9
HETATM    9  O   UNL     1      -3.114  -0.834 -33.233  1.00  0.00    -0.337 OA
BRANCH   9  10
HETATM   10  C   UNL     1      -4.365  -1.166 -33.714  1.00  0.00     0.099 A 
HETATM   11  C   UNL     1      -4.838  -2.451 -34.063  1.00  0.00     0.100 A 
HETATM   12  C   UNL     1      -6.171  -2.542 -34.536  1.00  0.00    -0.005 A 
HETATM   13  N   UNL     1      -4.085  -3.577 -33.962  1.00  0.00    -0.257 NA
HETATM   14  C   UNL     1      -6.682  -3.798 -34.895  1.00  0.00     0.015 A 
HETATM   15  C   UNL     1      -6.981  -1.401 -34.650  1.00  0.00     0.014 A 
HETATM   16  C   UNL     1      -5.893  -4.933 -34.784  1.00  0.00     0.020 A 
HETATM   17  C   UNL     1      -4.609  -4.771 -34.316  1.00  0.00     0.117 A 
HETATM   18  C   UNL     1      -6.493  -0.150 -34.298  1.00  0.00     0.004 A 
HETATM   19  C   UNL     1      -5.190  -0.036 -33.831  1.00  0.00     0.039 A 
ENDBRANCH   9  10
ENDBRANCH   8   9
ENDBRANCH   7   8
ENDBRANCH   6   7
ENDBRANCH   5   6
ENDBRANCH   2   5
BRANCH   1  20
HETATM   20  C   UNL     1      -8.519   2.140 -32.221  1.00  0.00     0.120 A 
HETATM   21  N   UNL     1      -8.890   3.193 -33.009  1.00  0.00    -0.272 N 
HETATM   22  N   UNL     1     -10.097   3.057 -33.579  1.00  0.00    -0.174 NA
HETATM   23  H   UNL     1      -8.351   4.035 -33.191  1.00  0.00     0.189 HD
HETATM   24  C   UNL     1     -10.559   1.885 -33.116  1.00  0.00     0.089 A 
HETATM   25  C   UNL     1      -9.588   1.269 -32.278  1.00  0.00     0.071 A 
BRANCH  24  26
HETATM   26  C   UNL     1     -11.892   1.386 -33.469  1.00  0.00    -0.006 A 
HETATM   27  C   UNL     1     -12.901   2.277 -33.862  1.00  0.00     0.014 A 
HETATM   28  C   UNL     1     -14.173   1.809 -34.202  1.00  0.00     0.001 A 
HETATM   29  C   UNL     1     -14.452   0.445 -34.146  1.00  0.00     0.000 A 
HETATM   30  C   UNL     1     -13.463  -0.451 -33.750  1.00  0.00     0.001 A 
HETATM   31  C   UNL     1     -12.188   0.017 -33.414  1.00  0.00     0.014 A 
ENDBRANCH  24  26
ENDBRANCH   1  20
TORSDOF 8
ENDMDL
MODEL 6
REMARK VINA RESULT:      -8.8      2.527     11.517
REMARK  8 active torsions:
REMARK  status: ('A' for Active; 'I' for Inactive)
REMARK    1  A    between atoms: C_4  and  C_5 
REMARK    2  A    between atoms: C_9  and  C_10 
REMARK       I    between atoms: C_10  and  N_11 
REMARK    3  A    between atoms: N_11  and  C_12 
REMARK    4  A    between atoms: C_12  and  C_13 
REMARK    5  A    between atoms: C_13  and  C_14 
REMARK    6  A    between atoms: C_14  and  C_15 
REMARK    7  A    between atoms: C_15  and  O_16 
REMARK    8  A    between atoms: O_16  and  C_17 
ROOT
HETATM    1  C   UNL     1      -6.186   2.715 -33.188  1.00  0.00     0.270 C 
HETATM    2  N   UNL     1      -6.125   3.739 -34.100  1.00  0.00    -0.345 N 
HETATM    3  O   UNL     1      -6.205   2.896 -31.975  1.00  0.00    -0.266 OA
HETATM    4  H   UNL     1      -6.273   3.543 -35.077  1.00  0.00     0.163 HD
ENDROOT
BRANCH   2   5
HETATM    5  C   UNL     1      -6.075   5.117 -33.692  1.00  0.00     0.217 C 
BRANCH   5   6
HETATM    6  C   UNL     1      -4.634   5.554 -33.485  1.00  0.00    -0.085 C 
BRANCH   6   7
HETATM    7  C   UNL     1      -3.398   5.930 -33.308  1.00  0.00    -0.078 C 
BRANCH   7   8
HETATM    8  C   UNL     1      -1.957   6.368 -33.102  1.00  0.00     0.269 C 
BRANCH   8   9
HETATM    9  O   UNL     1      -1.847   7.072 -31.872  1.00  0.00    -0.337 OA
BRANCH   9  10
HETATM   10  C   UNL     1      -1.022   6.534 -30.905  1.00  0.00     0.099 A 
HETATM   11  C   UNL     1      -1.089   6.738 -29.508  1.00  0.00     0.100 A 
HETATM   12  C   UNL     1      -0.125   6.071 -28.711  1.00  0.00    -0.005 A 
HETATM   13  N   UNL     1      -2.018   7.529 -28.913  1.00  0.00    -0.257 NA
HETATM   14  C   UNL     1      -0.152   6.246 -27.320  1.00  0.00     0.015 A 
HETATM   15  C   UNL     1       0.849   5.243 -29.291  1.00  0.00     0.014 A 
HETATM   16  C   UNL     1      -1.111   7.060 -26.736  1.00  0.00     0.020 A 
HETATM   17  C   UNL     1      -2.016   7.675 -27.570  1.00  0.00     0.117 A 
HETATM   18  C   UNL     1       0.891   5.056 -30.666  1.00  0.00     0.004 A 
HETATM   19  C   UNL     1      -0.043   5.698 -31.468  1.00  0.00     0.039 A 
ENDBRANCH   9  10
ENDBRANCH   8   9
ENDBRANCH   7   8
ENDBRANCH   6   7
ENDBRANCH   5   6
ENDBRANCH   2   5
BRANCH   1  20
HETATM   20  C   UNL     1      -6.210   1.396 -33.759  1.00  0.00     0.120 A 
HETATM   21  N   UNL     1      -6.982   1.099 -34.847  1.00  0.00    -0.272 N 
HETATM   22  N   UNL     1      -6.904  -0.179 -35.247  1.00  0.00    -0.174 NA
HETATM   23  H   UNL     1      -7.584   1.739 -35.357  1.00  0.00     0.189 HD
HETATM   24  C   UNL     1      -6.078  -0.760 -34.362  1.00  0.00     0.089 A 
HETATM   25  C   UNL     1      -5.605   0.201 -33.425  1.00  0.00     0.071 A 
BRANCH  24  26
HETATM   26  C   UNL     1      -5.766  -2.191 -34.420  1.00  0.00    -0.006 A 
HETATM   27  C   UNL     1      -4.484  -2.652 -34.086  1.00  0.00     0.014 A 
HETATM   28  C   UNL     1      -4.179  -4.014 -34.137  1.00  0.00     0.001 A 
HETATM   29  C   UNL     1      -5.151  -4.932 -34.530  1.00  0.00     0.000 A 
HETATM   30  C   UNL     1      -6.427  -4.489 -34.871  1.00  0.00     0.001 A 
HETATM   31  C   UNL     1      -6.733  -3.126 -34.816  1.00  0.00     0.014 A 
ENDBRANCH  24  26
ENDBRANCH   1  20
TORSDOF 8
ENDMDL
MODEL 7
REMARK VINA RESULT:      -8.8      6.768     10.376
REMARK  8 active torsions:
REMARK  status: ('A' for Active; 'I' for Inactive)
REMARK    1  A    between atoms: C_4  and  C_5 
REMARK    2  A    between atoms: C_9  and  C_10 
REMARK       I    between atoms: C_10  and  N_11 
REMARK    3  A    between atoms: N_11  and  C_12 
REMARK    4  A    between atoms: C_12  and  C_13 
REMARK    5  A    between atoms: C_13  and  C_14 
REMARK    6  A    between atoms: C_14  and  C_15 
REMARK    7  A    between atoms: C_15  and  O_16 
REMARK    8  A    between atoms: O_16  and  C_17 
ROOT
HETATM    1  C   UNL     1      -6.155   2.589 -33.221  1.00  0.00     0.270 C 
HETATM    2  N   UNL     1      -6.536   3.585 -34.085  1.00  0.00    -0.345 N 
HETATM    3  O   UNL     1      -5.821   2.799 -32.060  1.00  0.00    -0.266 OA
HETATM    4  H   UNL     1      -6.951   3.343 -34.971  1.00  0.00     0.163 HD
ENDROOT
BRANCH   2   5
HETATM    5  C   UNL     1      -6.569   4.966 -33.686  1.00  0.00     0.217 C 
BRANCH   5   6
HETATM    6  C   UNL     1      -8.004   5.425 -33.486  1.00  0.00    -0.085 C 
BRANCH   6   7
HETATM    7  C   UNL     1      -9.235   5.818 -33.316  1.00  0.00    -0.078 C 
BRANCH   7   8
HETATM    8  C   UNL     1     -10.671   6.277 -33.118  1.00  0.00     0.269 C 
BRANCH   8   9
HETATM    9  O   UNL     1     -11.418   5.239 -32.497  1.00  0.00    -0.337 OA
BRANCH   9  10
HETATM   10  C   UNL     1     -11.477   4.024 -33.148  1.00  0.00     0.099 A 
HETATM   11  C   UNL     1     -10.763   2.845 -32.834  1.00  0.00     0.100 A 
HETATM   12  C   UNL     1     -10.994   1.713 -33.655  1.00  0.00    -0.005 A 
HETATM   13  N   UNL     1      -9.887   2.756 -31.801  1.00  0.00    -0.257 NA
HETATM   14  C   UNL     1     -10.306   0.522 -33.381  1.00  0.00     0.015 A 
HETATM   15  C   UNL     1     -11.895   1.766 -34.730  1.00  0.00     0.014 A 
HETATM   16  C   UNL     1      -9.416   0.456 -32.320  1.00  0.00     0.020 A 
HETATM   17  C   UNL     1      -9.242   1.593 -31.565  1.00  0.00     0.117 A 
HETATM   18  C   UNL     1     -12.587   2.936 -35.015  1.00  0.00     0.004 A 
HETATM   19  C   UNL     1     -12.378   4.058 -34.226  1.00  0.00     0.039 A 
ENDBRANCH   9  10
ENDBRANCH   8   9
ENDBRANCH   7   8
ENDBRANCH   6   7
ENDBRANCH   5   6
ENDBRANCH   2   5
BRANCH   1  20
HETATM   20  C   UNL     1      -6.158   1.266 -33.783  1.00  0.00     0.120 A 
HETATM   21  N   UNL     1      -6.902   0.957 -34.887  1.00  0.00    -0.272 N 
HETATM   22  N   UNL     1      -6.807  -0.324 -35.275  1.00  0.00    -0.174 NA
HETATM   23  H   UNL     1      -7.495   1.589 -35.416  1.00  0.00     0.189 HD
HETATM   24  C   UNL     1      -6.000  -0.894 -34.366  1.00  0.00     0.089 A 
HETATM   25  C   UNL     1      -5.555   0.077 -33.426  1.00  0.00     0.071 A 
BRANCH  24  26
HETATM   26  C   UNL     1      -5.679  -2.324 -34.406  1.00  0.00    -0.006 A 
HETATM   27  C   UNL     1      -4.404  -2.775 -34.035  1.00  0.00     0.014 A 
HETATM   28  C   UNL     1      -4.091  -4.136 -34.069  1.00  0.00     0.001 A 
HETATM   29  C   UNL     1      -5.047  -5.062 -34.481  1.00  0.00     0.000 A 
HETATM   30  C   UNL     1      -6.315  -4.628 -34.859  1.00  0.00     0.001 A 
HETATM   31  C   UNL     1      -6.630  -3.266 -34.822  1.00  0.00     0.014 A 
ENDBRANCH  24  26
ENDBRANCH   1  20
TORSDOF 8
ENDMDL
MODEL 8
REMARK VINA RESULT:      -8.8      1.636      2.147
REMARK  8 active torsions:
REMARK  status: ('A' for Active; 'I' for Inactive)
REMARK    1  A    between atoms: C_4  and  C_5 
REMARK    2  A    between atoms: C_9  and  C_10 
REMARK       I    between atoms: C_10  and  N_11 
REMARK    3  A    between atoms: N_11  and  C_12 
REMARK    4  A    between atoms: C_12  and  C_13 
REMARK    5  A    between atoms: C_13  and  C_14 
REMARK    6  A    between atoms: C_14  and  C_15 
REMARK    7  A    between atoms: C_15  and  O_16 
REMARK    8  A    between atoms: O_16  and  C_17 
ROOT
HETATM    1  C   UNL     1      -1.108   5.086 -31.150  1.00  0.00     0.270 C 
HETATM    2  N   UNL     1      -2.414   4.745 -30.903  1.00  0.00    -0.345 N 
HETATM    3  O   UNL     1      -0.557   4.892 -32.228  1.00  0.00    -0.266 OA
HETATM    4  H   UNL     1      -2.861   5.070 -30.060  1.00  0.00     0.163 HD
ENDROOT
BRANCH   2   5
HETATM    5  C   UNL     1      -3.241   4.127 -31.904  1.00  0.00     0.217 C 
BRANCH   5   6
HETATM    6  C   UNL     1      -4.395   3.384 -31.250  1.00  0.00    -0.085 C 
BRANCH   6   7
HETATM    7  C   UNL     1      -5.385   2.747 -30.690  1.00  0.00    -0.078 C 
BRANCH   7   8
HETATM    8  C   UNL     1      -6.539   2.004 -30.036  1.00  0.00     0.269 C 
BRANCH   8   9
HETATM    9  O   UNL     1      -6.369   0.606 -30.224  1.00  0.00    -0.337 OA
BRANCH   9  10
HETATM   10  C   UNL     1      -6.709   0.086 -31.457  1.00  0.00     0.099 A 
HETATM   11  C   UNL     1      -5.912  -0.723 -32.298  1.00  0.00     0.100 A 
HETATM   12  C   UNL     1      -6.485  -1.138 -33.526  1.00  0.00    -0.005 A 
HETATM   13  N   UNL     1      -4.649  -1.110 -31.984  1.00  0.00    -0.257 NA
HETATM   14  C   UNL     1      -5.729  -1.940 -34.393  1.00  0.00     0.015 A 
HETATM   15  C   UNL     1      -7.789  -0.761 -33.884  1.00  0.00     0.014 A 
HETATM   16  C   UNL     1      -4.441  -2.322 -34.050  1.00  0.00     0.020 A 
HETATM   17  C   UNL     1      -3.949  -1.883 -32.842  1.00  0.00     0.117 A 
HETATM   18  C   UNL     1      -8.553   0.032 -33.038  1.00  0.00     0.004 A 
HETATM   19  C   UNL     1      -8.013   0.451 -31.829  1.00  0.00     0.039 A 
ENDBRANCH   9  10
ENDBRANCH   8   9
ENDBRANCH   7   8
ENDBRANCH   6   7
ENDBRANCH   5   6
ENDBRANCH   2   5
BRANCH   1  20
HETATM   20  C   UNL     1      -0.415   5.677 -30.038  1.00  0.00     0.120 A 
HETATM   21  N   UNL     1       0.332   4.925 -29.176  1.00  0.00    -0.272 N 
HETATM   22  N   UNL     1       0.902   5.625 -28.183  1.00  0.00    -0.174 NA
HETATM   23  H   UNL     1       0.486   3.922 -29.222  1.00  0.00     0.189 HD
HETATM   24  C   UNL     1       0.480   6.885 -28.374  1.00  0.00     0.089 A 
HETATM   25  C   UNL     1      -0.331   6.962 -29.541  1.00  0.00     0.071 A 
BRANCH  24  26
HETATM   26  C   UNL     1       0.845   7.970 -27.458  1.00  0.00    -0.006 A 
HETATM   27  C   UNL     1       1.811   7.762 -26.462  1.00  0.00     0.014 A 
HETATM   28  C   UNL     1       2.166   8.791 -25.586  1.00  0.00     0.001 A 
HETATM   29  C   UNL     1       1.553  10.038 -25.691  1.00  0.00     0.000 A 
HETATM   30  C   UNL     1       0.587  10.258 -26.669  1.00  0.00     0.001 A 
HETATM   31  C   UNL     1       0.235   9.229 -27.549  1.00  0.00     0.014 A 
ENDBRANCH  24  26
ENDBRANCH   1  20
TORSDOF 8
ENDMDL
MODEL 9
REMARK VINA RESULT:      -8.6      5.259      9.225
REMARK  8 active torsions:
REMARK  status: ('A' for Active; 'I' for Inactive)
REMARK    1  A    between atoms: C_4  and  C_5 
REMARK    2  A    between atoms: C_9  and  C_10 
REMARK       I    between atoms: C_10  and  N_11 
REMARK    3  A    between atoms: N_11  and  C_12 
REMARK    4  A    between atoms: C_12  and  C_13 
REMARK    5  A    between atoms: C_13  and  C_14 
REMARK    6  A    between atoms: C_14  and  C_15 
REMARK    7  A    between atoms: C_15  and  O_16 
REMARK    8  A    between atoms: O_16  and  C_17 
ROOT
HETATM    1  C   UNL     1      -3.721   1.906 -31.207  1.00  0.00     0.270 C 
HETATM    2  N   UNL     1      -4.905   2.282 -30.623  1.00  0.00    -0.345 N 
HETATM    3  O   UNL     1      -2.783   2.678 -31.379  1.00  0.00    -0.266 OA
HETATM    4  H   UNL     1      -5.576   1.577 -30.361  1.00  0.00     0.163 HD
ENDROOT
BRANCH   2   5
HETATM    5  C   UNL     1      -5.135   3.627 -30.168  1.00  0.00     0.217 C 
BRANCH   5   6
HETATM    6  C   UNL     1      -6.532   4.084 -30.555  1.00  0.00    -0.085 C 
BRANCH   6   7
HETATM    7  C   UNL     1      -7.731   4.475 -30.885  1.00  0.00    -0.078 C 
BRANCH   7   8
HETATM    8  C   UNL     1      -9.129   4.932 -31.270  1.00  0.00     0.269 C 
BRANCH   8   9
HETATM    9  O   UNL     1      -9.309   4.776 -32.672  1.00  0.00    -0.337 OA
BRANCH   9  10
HETATM   10  C   UNL     1      -9.612   3.511 -33.135  1.00  0.00     0.099 A 
HETATM   11  C   UNL     1      -8.729   2.577 -33.722  1.00  0.00     0.100 A 
HETATM   12  C   UNL     1      -9.278   1.333 -34.121  1.00  0.00    -0.005 A 
HETATM   13  N   UNL     1      -7.407   2.818 -33.914  1.00  0.00    -0.257 NA
HETATM   14  C   UNL     1      -8.439   0.376 -34.711  1.00  0.00     0.015 A 
HETATM   15  C   UNL     1     -10.640   1.046 -33.936  1.00  0.00     0.014 A 
HETATM   16  C   UNL     1      -7.092   0.646 -34.897  1.00  0.00     0.020 A 
HETATM   17  C   UNL     1      -6.627   1.874 -34.485  1.00  0.00     0.117 A 
HETATM   18  C   UNL     1     -11.486   1.980 -33.352  1.00  0.00     0.004 A 
HETATM   19  C   UNL     1     -10.971   3.206 -32.953  1.00  0.00     0.039 A 
ENDBRANCH   9  10
ENDBRANCH   8   9
ENDBRANCH   7   8
ENDBRANCH   6   7
ENDBRANCH   5   6
ENDBRANCH   2   5
BRANCH   1  20
HETATM   20  C   UNL     1      -3.660   0.532 -31.622  1.00  0.00     0.120 A 
HETATM   21  N   UNL     1      -2.662  -0.301 -31.202  1.00  0.00    -0.272 N 
HETATM   22  N   UNL     1      -2.740  -1.547 -31.692  1.00  0.00    -0.174 NA
HETATM   23  H   UNL     1      -1.898  -0.065 -30.575  1.00  0.00     0.189 HD
HETATM   24  C   UNL     1      -3.810  -1.525 -32.502  1.00  0.00     0.089 A 
HETATM   25  C   UNL     1      -4.427  -0.243 -32.468  1.00  0.00     0.071 A 
BRANCH  24  26
HETATM   26  C   UNL     1      -4.214  -2.699 -33.282  1.00  0.00    -0.006 A 
HETATM   27  C   UNL     1      -5.270  -2.611 -34.200  1.00  0.00     0.014 A 
HETATM   28  C   UNL     1      -5.660  -3.725 -34.949  1.00  0.00     0.001 A 
HETATM   29  C   UNL     1      -5.002  -4.942 -34.781  1.00  0.00     0.000 A 
HETATM   30  C   UNL     1      -3.956  -5.047 -33.868  1.00  0.00     0.001 A 
HETATM   31  C   UNL     1      -3.564  -3.931 -33.122  1.00  0.00     0.014 A 
ENDBRANCH  24  26
ENDBRANCH   1  20
TORSDOF 8
ENDMDL
MODEL 10
REMARK VINA RESULT:      -8.5      2.463      4.062
REMARK  8 active torsions:
REMARK  status: ('A' for Active; 'I' for Inactive)
REMARK    1  A    between atoms: C_4  and  C_5 
REMARK    2  A    between atoms: C_9  and  C_10 
REMARK       I    between atoms: C_10  and  N_11 
REMARK    3  A    between atoms: N_11  and  C_12 
REMARK    4  A    between atoms: C_12  and  C_13 
REMARK    5  A    between atoms: C_13  and  C_14 
REMARK    6  A    between atoms: C_14  and  C_15 
REMARK    7  A    between atoms: C_15  and  O_16 
REMARK    8  A    between atoms: O_16  and  C_17 
ROOT
HETATM    1  C   UNL     1      -4.266   5.311 -33.726  1.00  0.00     0.270 C 
HETATM    2  N   UNL     1      -5.467   4.991 -33.144  1.00  0.00    -0.345 N 
HETATM    3  O   UNL     1      -4.140   5.532 -34.926  1.00  0.00    -0.266 OA
HETATM    4  H   UNL     1      -5.544   4.978 -32.139  1.00  0.00     0.163 HD
ENDROOT
BRANCH   2   5
HETATM    5  C   UNL     1      -6.679   4.886 -33.910  1.00  0.00     0.217 C 
BRANCH   5   6
HETATM    6  C   UNL     1      -7.433   3.620 -33.536  1.00  0.00    -0.085 C 
BRANCH   6   7
HETATM    7  C   UNL     1      -8.080   2.535 -33.216  1.00  0.00    -0.078 C 
BRANCH   7   8
HETATM    8  C   UNL     1      -8.834   1.269 -32.842  1.00  0.00     0.269 C 
BRANCH   8   9
HETATM    9  O   UNL     1      -8.008   0.448 -32.026  1.00  0.00    -0.337 OA
BRANCH   9  10
HETATM   10  C   UNL     1      -7.048  -0.314 -32.661  1.00  0.00     0.099 A 
HETATM   11  C   UNL     1      -5.685  -0.446 -32.309  1.00  0.00     0.100 A 
HETATM   12  C   UNL     1      -4.890  -1.295 -33.119  1.00  0.00    -0.005 A 
HETATM   13  N   UNL     1      -5.122   0.191 -31.251  1.00  0.00    -0.257 NA
HETATM   14  C   UNL     1      -3.531  -1.454 -32.808  1.00  0.00     0.015 A 
HETATM   15  C   UNL     1      -5.437  -1.972 -34.219  1.00  0.00     0.014 A 
HETATM   16  C   UNL     1      -2.979  -0.792 -31.723  1.00  0.00     0.020 A 
HETATM   17  C   UNL     1      -3.811   0.015 -30.979  1.00  0.00     0.117 A 
HETATM   18  C   UNL     1      -6.780  -1.828 -34.541  1.00  0.00     0.004 A 
HETATM   19  C   UNL     1      -7.581  -1.003 -33.763  1.00  0.00     0.039 A 
ENDBRANCH   9  10
ENDBRANCH   8   9
ENDBRANCH   7   8
ENDBRANCH   6   7
ENDBRANCH   5   6
ENDBRANCH   2   5
BRANCH   1  20
HETATM   20  C   UNL     1      -3.148   5.356 -32.824  1.00  0.00     0.120 A 
HETATM   21  N   UNL     1      -2.230   4.345 -32.768  1.00  0.00    -0.272 N 
HETATM   22  N   UNL     1      -1.257   4.532 -31.864  1.00  0.00    -0.174 NA
HETATM   23  H   UNL     1      -2.224   3.499 -33.331  1.00  0.00     0.189 HD
HETATM   24  C   UNL     1      -1.568   5.695 -31.269  1.00  0.00     0.089 A 
HETATM   25  C   UNL     1      -2.736   6.254 -31.860  1.00  0.00     0.071 A 
BRANCH  24  26
HETATM   26  C   UNL     1      -0.766   6.239 -30.169  1.00  0.00    -0.006 A 
HETATM   27  C   UNL     1       0.094   5.406 -29.439  1.00  0.00     0.014 A 
HETATM   28  C   UNL     1       0.863   5.918 -28.390  1.00  0.00     0.001 A 
HETATM   29  C   UNL     1       0.775   7.267 -28.055  1.00  0.00     0.000 A 
HETATM   30  C   UNL     1      -0.080   8.105 -28.766  1.00  0.00     0.001 A 
HETATM   31  C   UNL     1      -0.847   7.595 -29.818  1.00  0.00     0.014 A 
ENDBRANCH  24  26
ENDBRANCH   1  20
TORSDOF 8
ENDMDL
