MODEL 1
REMARK VINA RESULT:      -9.8      0.000      0.000
REMARK  6 active torsions:
REMARK  status: ('A' for Active; 'I' for Inactive)
REMARK    1  A    between atoms: C_4  and  C_5 
REMARK    2  A    between atoms: C_5  and  C_6 
REMARK    3  A    between atoms: C_6  and  C_7 
REMARK    4  A    between atoms: C_7  and  N_8 
REMARK    5  A    between atoms: C_11  and  O_12 
REMARK    6  A    between atoms: C_11  and  C_13 
ROOT
HETATM    1  N   UNL     1      -6.493   0.925 -32.008  1.00  0.00    -0.314 N 
HETATM    2  C   UNL     1      -5.141   1.298 -32.058  1.00  0.00     0.269 A 
HETATM    3  O   UNL     1      -4.193   0.566 -32.314  1.00  0.00    -0.269 OA
HETATM    4  C   UNL     1      -5.061   2.805 -31.665  1.00  0.00     0.198 A 
HETATM    5  C   UNL     1      -6.499   3.123 -31.346  1.00  0.00     0.017 A 
HETATM    6  C   UNL     1      -7.290   1.988 -31.556  1.00  0.00     0.047 A 
HETATM    7  C   UNL     1      -7.060   4.293 -30.848  1.00  0.00     0.013 A 
HETATM    8  C   UNL     1      -8.432   4.313 -30.586  1.00  0.00     0.001 A 
HETATM    9  C   UNL     1      -9.220   3.173 -30.813  1.00  0.00     0.002 A 
HETATM   10  C   UNL     1      -8.650   1.994 -31.300  1.00  0.00     0.030 A 
ENDROOT
BRANCH   4  11
HETATM   11  O   UNL     1      -4.254   2.974 -30.504  1.00  0.00    -0.371 OA
HETATM   12  H   UNL     1      -4.835   3.436 -29.873  1.00  0.00     0.212 HD
ENDBRANCH   4  11
BRANCH   4  13
HETATM   13  C   UNL     1      -4.637   3.716 -32.791  1.00  0.00     0.018 A 
HETATM   14  C   UNL     1      -3.378   4.394 -32.994  1.00  0.00     0.002 A 
HETATM   15  C   UNL     1      -3.489   5.147 -34.166  1.00  0.00     0.043 A 
HETATM   16  C   UNL     1      -2.151   4.454 -32.294  1.00  0.00     0.014 A 
HETATM   17  C   UNL     1      -2.457   5.953 -34.662  1.00  0.00     0.030 A 
HETATM   18  N   UNL     1      -4.746   4.929 -34.675  1.00  0.00    -0.365 N 
HETATM   19  C   UNL     1      -1.263   5.998 -33.940  1.00  0.00     0.002 A 
HETATM   20  C   UNL     1      -1.109   5.259 -32.773  1.00  0.00     0.001 A 
HETATM   21  H   UNL     1      -5.099   5.345 -35.525  1.00  0.00     0.165 HD
HETATM   22  C   UNL     1      -5.442   4.081 -33.864  1.00  0.00     0.100 A 
ENDBRANCH   4  13
BRANCH   1  23
HETATM   23  C   UNL     1      -6.953  -0.427 -32.219  1.00  0.00     0.133 C 
BRANCH  23  24
HETATM   24  C   UNL     1      -7.565  -0.608 -33.606  1.00  0.00     0.025 C 
BRANCH  24  25
HETATM   25  C   UNL     1      -6.485  -0.866 -34.656  1.00  0.00     0.040 C 
BRANCH  25  26
HETATM   26  C   UNL     1      -5.958  -2.275 -34.561  1.00  0.00    -0.058 A 
HETATM   27  C   UNL     1      -4.619  -2.511 -34.221  1.00  0.00     0.007 A 
HETATM   28  C   UNL     1      -4.123  -3.815 -34.168  1.00  0.00     0.001 A 
HETATM   29  C   UNL     1      -4.959  -4.892 -34.456  1.00  0.00     0.000 A 
HETATM   30  C   UNL     1      -6.290  -4.668 -34.798  1.00  0.00     0.001 A 
HETATM   31  C   UNL     1      -6.789  -3.365 -34.853  1.00  0.00     0.007 A 
ENDBRANCH  25  26
ENDBRANCH  24  25
ENDBRANCH  23  24
ENDBRANCH   1  23
TORSDOF 6
ENDMDL
MODEL 2
REMARK VINA RESULT:      -9.7      2.990      5.891
REMARK  6 active torsions:
REMARK  status: ('A' for Active; 'I' for Inactive)
REMARK    1  A    between atoms: C_4  and  C_5 
REMARK    2  A    between atoms: C_5  and  C_6 
REMARK    3  A    between atoms: C_6  and  C_7 
REMARK    4  A    between atoms: C_7  and  N_8 
REMARK    5  A    between atoms: C_11  and  O_12 
REMARK    6  A    between atoms: C_11  and  C_13 
ROOT
HETATM    1  N   UNL     1      -6.257   1.555 -32.762  1.00  0.00    -0.314 N 
HETATM    2  C   UNL     1      -7.116   1.508 -33.871  1.00  0.00     0.269 A 
HETATM    3  O   UNL     1      -6.865   1.022 -34.966  1.00  0.00    -0.269 OA
HETATM    4  C   UNL     1      -8.429   2.249 -33.470  1.00  0.00     0.198 A 
HETATM    5  C   UNL     1      -8.107   2.729 -32.078  1.00  0.00     0.017 A 
HETATM    6  C   UNL     1      -6.824   2.301 -31.718  1.00  0.00     0.047 A 
HETATM    7  C   UNL     1      -8.852   3.530 -31.222  1.00  0.00     0.013 A 
HETATM    8  C   UNL     1      -8.297   3.877 -29.987  1.00  0.00     0.001 A 
HETATM    9  C   UNL     1      -7.015   3.433 -29.628  1.00  0.00     0.002 A 
HETATM   10  C   UNL     1      -6.264   2.639 -30.499  1.00  0.00     0.030 A 
ENDROOT
BRANCH   4  11
HETATM   11  O   UNL     1      -8.653   3.362 -34.330  1.00  0.00    -0.371 OA
HETATM   12  H   UNL     1      -8.562   4.138 -33.748  1.00  0.00     0.212 HD
ENDBRANCH   4  11
BRANCH   4  13
HETATM   13  C   UNL     1      -9.639   1.352 -33.371  1.00  0.00     0.018 A 
HETATM   14  C   UNL     1     -10.965   1.544 -33.908  1.00  0.00     0.002 A 
HETATM   15  C   UNL     1     -11.740   0.448 -33.516  1.00  0.00     0.043 A 
HETATM   16  C   UNL     1     -11.595   2.544 -34.683  1.00  0.00     0.014 A 
HETATM   17  C   UNL     1     -13.095   0.310 -33.845  1.00  0.00     0.030 A 
HETATM   18  N   UNL     1     -10.929  -0.389 -32.791  1.00  0.00    -0.365 N 
HETATM   19  C   UNL     1     -13.688   1.321 -34.602  1.00  0.00     0.002 A 
HETATM   20  C   UNL     1     -12.950   2.423 -35.018  1.00  0.00     0.001 A 
HETATM   21  H   UNL     1     -11.227  -1.265 -32.386  1.00  0.00     0.165 HD
HETATM   22  C   UNL     1      -9.674   0.138 -32.694  1.00  0.00     0.100 A 
ENDBRANCH   4  13
BRANCH   1  23
HETATM   23  C   UNL     1      -4.903   1.053 -32.784  1.00  0.00     0.133 C 
BRANCH  23  24
HETATM   24  C   UNL     1      -4.848  -0.441 -32.471  1.00  0.00     0.025 C 
BRANCH  24  25
HETATM   25  C   UNL     1      -4.048  -1.198 -33.531  1.00  0.00     0.040 C 
BRANCH  25  26
HETATM   26  C   UNL     1      -4.802  -2.409 -34.020  1.00  0.00    -0.058 A 
HETATM   27  C   UNL     1      -6.148  -2.305 -34.395  1.00  0.00     0.007 A 
HETATM   28  C   UNL     1      -6.854  -3.433 -34.814  1.00  0.00     0.001 A 
HETATM   29  C   UNL     1      -6.222  -4.675 -34.858  1.00  0.00     0.000 A 
HETATM   30  C   UNL     1      -4.886  -4.790 -34.483  1.00  0.00     0.001 A 
HETATM   31  C   UNL     1      -4.178  -3.663 -34.063  1.00  0.00     0.007 A 
ENDBRANCH  25  26
ENDBRANCH  24  25
ENDBRANCH  23  24
ENDBRANCH   1  23
TORSDOF 6
ENDMDL
MODEL 3
REMARK VINA RESULT:      -9.6      2.730      7.469
REMARK  6 active torsions:
REMARK  status: ('A' for Active; 'I' for Inactive)
REMARK    1  A    between atoms: C_4  and  C_5 
REMARK    2  A    between atoms: C_5  and  C_6 
REMARK    3  A    between atoms: C_6  and  C_7 
REMARK    4  A    between atoms: C_7  and  N_8 
REMARK    5  A    between atoms: C_11  and  O_12 
REMARK    6  A    between atoms: C_11  and  C_13 
ROOT
HETATM    1  N   UNL     1      -6.160   1.614 -31.517  1.00  0.00    -0.314 N 
HETATM    2  C   UNL     1      -7.447   2.022 -31.133  1.00  0.00     0.269 A 
HETATM    3  O   UNL     1      -7.723   2.823 -30.250  1.00  0.00    -0.269 OA
HETATM    4  C   UNL     1      -8.464   1.217 -31.998  1.00  0.00     0.198 A 
HETATM    5  C   UNL     1      -7.556   0.318 -32.797  1.00  0.00     0.017 A 
HETATM    6  C   UNL     1      -6.222   0.588 -32.471  1.00  0.00     0.047 A 
HETATM    7  C   UNL     1      -7.874  -0.699 -33.689  1.00  0.00     0.013 A 
HETATM    8  C   UNL     1      -6.830  -1.426 -34.267  1.00  0.00     0.001 A 
HETATM    9  C   UNL     1      -5.494  -1.140 -33.945  1.00  0.00     0.002 A 
HETATM   10  C   UNL     1      -5.180  -0.125 -33.036  1.00  0.00     0.030 A 
ENDROOT
BRANCH   4  11
HETATM   11  O   UNL     1      -9.314   0.434 -31.165  1.00  0.00    -0.371 OA
HETATM   12  H   UNL     1      -8.755  -0.313 -30.885  1.00  0.00     0.212 HD
ENDBRANCH   4  11
BRANCH   4  13
HETATM   13  C   UNL     1      -9.245   2.058 -32.979  1.00  0.00     0.018 A 
HETATM   14  C   UNL     1     -10.534   1.805 -33.577  1.00  0.00     0.002 A 
HETATM   15  C   UNL     1     -10.811   2.865 -34.444  1.00  0.00     0.043 A 
HETATM   16  C   UNL     1     -11.498   0.775 -33.477  1.00  0.00     0.014 A 
HETATM   17  C   UNL     1     -11.978   2.941 -35.215  1.00  0.00     0.030 A 
HETATM   18  N   UNL     1      -9.756   3.740 -34.371  1.00  0.00    -0.365 N 
HETATM   19  C   UNL     1     -12.903   1.902 -35.101  1.00  0.00     0.002 A 
HETATM   20  C   UNL     1     -12.669   0.833 -34.243  1.00  0.00     0.001 A 
HETATM   21  H   UNL     1      -9.691   4.603 -34.892  1.00  0.00     0.165 HD
HETATM   22  C   UNL     1      -8.814   3.270 -33.504  1.00  0.00     0.100 A 
ENDBRANCH   4  13
BRANCH   1  23
HETATM   23  C   UNL     1      -4.954   2.074 -30.869  1.00  0.00     0.133 C 
BRANCH  23  24
HETATM   24  C   UNL     1      -4.395   3.329 -31.536  1.00  0.00     0.025 C 
BRANCH  24  25
HETATM   25  C   UNL     1      -3.161   3.004 -32.376  1.00  0.00     0.040 C 
BRANCH  25  26
HETATM   26  C   UNL     1      -2.432   4.260 -32.783  1.00  0.00    -0.058 A 
HETATM   27  C   UNL     1      -2.590   4.787 -34.072  1.00  0.00     0.007 A 
HETATM   28  C   UNL     1      -1.888   5.930 -34.459  1.00  0.00     0.001 A 
HETATM   29  C   UNL     1      -1.020   6.553 -33.562  1.00  0.00     0.000 A 
HETATM   30  C   UNL     1      -0.854   6.034 -32.280  1.00  0.00     0.001 A 
HETATM   31  C   UNL     1      -1.555   4.891 -31.891  1.00  0.00     0.007 A 
ENDBRANCH  25  26
ENDBRANCH  24  25
ENDBRANCH  23  24
ENDBRANCH   1  23
TORSDOF 6
ENDMDL
MODEL 4
REMARK VINA RESULT:      -9.6      1.853      2.568
REMARK  6 active torsions:
REMARK  status: ('A' for Active; 'I' for Inactive)
REMARK    1  A    between atoms: C_4  and  C_5 
REMARK    2  A    between atoms: C_5  and  C_6 
REMARK    3  A    between atoms: C_6  and  C_7 
REMARK    4  A    between atoms: C_7  and  N_8 
REMARK    5  A    between atoms: C_11  and  O_12 
REMARK    6  A    between atoms: C_11  and  C_13 
ROOT
HETATM    1  N   UNL     1      -6.026   0.452 -31.440  1.00  0.00    -0.314 N 
HETATM    2  C   UNL     1      -5.804   1.124 -30.229  1.00  0.00     0.269 A 
HETATM    3  O   UNL     1      -5.227   0.679 -29.244  1.00  0.00    -0.269 OA
HETATM    4  C   UNL     1      -6.484   2.522 -30.344  1.00  0.00     0.198 A 
HETATM    5  C   UNL     1      -7.126   2.448 -31.706  1.00  0.00     0.017 A 
HETATM    6  C   UNL     1      -6.832   1.215 -32.298  1.00  0.00     0.047 A 
HETATM    7  C   UNL     1      -7.955   3.361 -32.346  1.00  0.00     0.013 A 
HETATM    8  C   UNL     1      -8.466   3.025 -33.603  1.00  0.00     0.001 A 
HETATM    9  C   UNL     1      -8.155   1.791 -34.196  1.00  0.00     0.002 A 
HETATM   10  C   UNL     1      -7.333   0.870 -33.541  1.00  0.00     0.030 A 
ENDROOT
BRANCH   4  11
HETATM   11  O   UNL     1      -7.484   2.673 -29.341  1.00  0.00    -0.371 OA
HETATM   12  H   UNL     1      -7.224   3.480 -28.862  1.00  0.00     0.212 HD
ENDBRANCH   4  11
BRANCH   4  13
HETATM   13  C   UNL     1      -5.517   3.681 -30.363  1.00  0.00     0.018 A 
HETATM   14  C   UNL     1      -4.374   3.904 -31.218  1.00  0.00     0.002 A 
HETATM   15  C   UNL     1      -3.780   5.105 -30.821  1.00  0.00     0.043 A 
HETATM   16  C   UNL     1      -3.774   3.202 -32.288  1.00  0.00     0.014 A 
HETATM   17  C   UNL     1      -2.627   5.626 -31.422  1.00  0.00     0.030 A 
HETATM   18  N   UNL     1      -4.529   5.611 -29.787  1.00  0.00    -0.365 N 
HETATM   19  C   UNL     1      -2.054   4.902 -32.468  1.00  0.00     0.002 A 
HETATM   20  C   UNL     1      -2.619   3.706 -32.898  1.00  0.00     0.001 A 
HETATM   21  H   UNL     1      -4.331   6.478 -29.308  1.00  0.00     0.165 HD
HETATM   22  C   UNL     1      -5.565   4.771 -29.502  1.00  0.00     0.100 A 
ENDBRANCH   4  13
BRANCH   1  23
HETATM   23  C   UNL     1      -5.624  -0.915 -31.676  1.00  0.00     0.133 C 
BRANCH  23  24
HETATM   24  C   UNL     1      -4.188  -1.003 -32.189  1.00  0.00     0.025 C 
BRANCH  24  25
HETATM   25  C   UNL     1      -4.153  -1.178 -33.707  1.00  0.00     0.040 C 
BRANCH  25  26
HETATM   26  C   UNL     1      -4.818  -2.466 -34.122  1.00  0.00    -0.058 A 
HETATM   27  C   UNL     1      -4.160  -3.692 -33.956  1.00  0.00     0.007 A 
HETATM   28  C   UNL     1      -4.762  -4.879 -34.374  1.00  0.00     0.001 A 
HETATM   29  C   UNL     1      -6.025  -4.852 -34.964  1.00  0.00     0.000 A 
HETATM   30  C   UNL     1      -6.686  -3.638 -35.136  1.00  0.00     0.001 A 
HETATM   31  C   UNL     1      -6.086  -2.449 -34.720  1.00  0.00     0.007 A 
ENDBRANCH  25  26
ENDBRANCH  24  25
ENDBRANCH  23  24
ENDBRANCH   1  23
TORSDOF 6
ENDMDL
MODEL 5
REMARK VINA RESULT:      -9.4      2.896      6.215
REMARK  6 active torsions:
REMARK  status: ('A' for Active; 'I' for Inactive)
REMARK    1  A    between atoms: C_4  and  C_5 
REMARK    2  A    between atoms: C_5  and  C_6 
REMARK    3  A    between atoms: C_6  and  C_7 
REMARK    4  A    between atoms: C_7  and  N_8 
REMARK    5  A    between atoms: C_11  and  O_12 
REMARK    6  A    between atoms: C_11  and  C_13 
ROOT
HETATM    1  N   UNL     1      -7.304   2.523 -32.606  1.00  0.00    -0.314 N 
HETATM    2  C   UNL     1      -6.980   1.582 -31.616  1.00  0.00     0.269 A 
HETATM    3  O   UNL     1      -7.769   0.912 -30.962  1.00  0.00    -0.269 OA
HETATM    4  C   UNL     1      -5.429   1.593 -31.457  1.00  0.00     0.198 A 
HETATM    5  C   UNL     1      -5.022   2.683 -32.415  1.00  0.00     0.017 A 
HETATM    6  C   UNL     1      -6.157   3.196 -33.053  1.00  0.00     0.047 A 
HETATM    7  C   UNL     1      -3.767   3.227 -32.660  1.00  0.00     0.013 A 
HETATM    8  C   UNL     1      -3.666   4.279 -33.573  1.00  0.00     0.001 A 
HETATM    9  C   UNL     1      -4.808   4.779 -34.219  1.00  0.00     0.002 A 
HETATM   10  C   UNL     1      -6.071   4.239 -33.959  1.00  0.00     0.030 A 
ENDROOT
BRANCH   4  11
HETATM   11  O   UNL     1      -5.068   1.953 -30.127  1.00  0.00    -0.371 OA
HETATM   12  H   UNL     1      -4.407   1.286 -29.869  1.00  0.00     0.212 HD
ENDBRANCH   4  11
BRANCH   4  13
HETATM   13  C   UNL     1      -4.752   0.321 -31.908  1.00  0.00     0.018 A 
HETATM   14  C   UNL     1      -5.138  -0.600 -32.951  1.00  0.00     0.002 A 
HETATM   15  C   UNL     1      -4.206  -1.642 -32.958  1.00  0.00     0.043 A 
HETATM   16  C   UNL     1      -6.193  -0.662 -33.890  1.00  0.00     0.014 A 
HETATM   17  C   UNL     1      -4.281  -2.732 -33.834  1.00  0.00     0.030 A 
HETATM   18  N   UNL     1      -3.279  -1.369 -31.983  1.00  0.00    -0.365 N 
HETATM   19  C   UNL     1      -5.342  -2.767 -34.741  1.00  0.00     0.002 A 
HETATM   20  C   UNL     1      -6.285  -1.746 -34.771  1.00  0.00     0.001 A 
HETATM   21  H   UNL     1      -2.484  -1.955 -31.769  1.00  0.00     0.165 HD
HETATM   22  C   UNL     1      -3.593  -0.204 -31.347  1.00  0.00     0.100 A 
ENDBRANCH   4  13
BRANCH   1  23
HETATM   23  C   UNL     1      -8.660   2.864 -32.964  1.00  0.00     0.133 C 
BRANCH  23  24
HETATM   24  C   UNL     1      -9.163   2.028 -34.140  1.00  0.00     0.025 C 
BRANCH  24  25
HETATM   25  C   UNL     1      -9.914   0.789 -33.655  1.00  0.00     0.040 C 
BRANCH  25  26
HETATM   26  C   UNL     1     -11.398   0.927 -33.883  1.00  0.00    -0.058 A 
HETATM   27  C   UNL     1     -12.276  -0.090 -33.484  1.00  0.00     0.007 A 
HETATM   28  C   UNL     1     -13.645   0.024 -33.727  1.00  0.00     0.001 A 
HETATM   29  C   UNL     1     -14.148   1.151 -34.373  1.00  0.00     0.000 A 
HETATM   30  C   UNL     1     -13.284   2.166 -34.777  1.00  0.00     0.001 A 
HETATM   31  C   UNL     1     -11.913   2.054 -34.536  1.00  0.00     0.007 A 
ENDBRANCH  25  26
ENDBRANCH  24  25
ENDBRANCH  23  24
ENDBRANCH   1  23
TORSDOF 6
ENDMDL
MODEL 6
REMARK VINA RESULT:      -9.1      2.549      5.102
REMARK  6 active torsions:
REMARK  status: ('A' for Active; 'I' for Inactive)
REMARK    1  A    between atoms: C_4  and  C_5 
REMARK    2  A    between atoms: C_5  and  C_6 
REMARK    3  A    between atoms: C_6  and  C_7 
REMARK    4  A    between atoms: C_7  and  N_8 
REMARK    5  A    between atoms: C_11  and  O_12 
REMARK    6  A    between atoms: C_11  and  C_13 
ROOT
HETATM    1  N   UNL     1      -5.951   3.275 -32.192  1.00  0.00    -0.314 N 
HETATM    2  C   UNL     1      -6.444   3.526 -33.482  1.00  0.00     0.269 A 
HETATM    3  O   UNL     1      -5.943   3.158 -34.537  1.00  0.00    -0.269 OA
HETATM    4  C   UNL     1      -7.716   4.414 -33.327  1.00  0.00     0.198 A 
HETATM    5  C   UNL     1      -7.763   4.638 -31.837  1.00  0.00     0.017 A 
HETATM    6  C   UNL     1      -6.705   3.956 -31.225  1.00  0.00     0.047 A 
HETATM    7  C   UNL     1      -8.623   5.429 -31.085  1.00  0.00     0.013 A 
HETATM    8  C   UNL     1      -8.419   5.506 -29.705  1.00  0.00     0.001 A 
HETATM    9  C   UNL     1      -7.364   4.807 -29.098  1.00  0.00     0.002 A 
HETATM   10  C   UNL     1      -6.492   4.025 -29.860  1.00  0.00     0.030 A 
ENDROOT
BRANCH   4  11
HETATM   11  O   UNL     1      -7.539   5.656 -34.001  1.00  0.00    -0.371 OA
HETATM   12  H   UNL     1      -6.824   6.098 -33.509  1.00  0.00     0.212 HD
ENDBRANCH   4  11
BRANCH   4  13
HETATM   13  C   UNL     1      -9.001   3.729 -33.721  1.00  0.00     0.018 A 
HETATM   14  C   UNL     1      -9.480   2.412 -33.371  1.00  0.00     0.002 A 
HETATM   15  C   UNL     1     -10.708   2.227 -34.011  1.00  0.00     0.043 A 
HETATM   16  C   UNL     1      -8.990   1.348 -32.580  1.00  0.00     0.014 A 
HETATM   17  C   UNL     1     -11.455   1.046 -33.911  1.00  0.00     0.030 A 
HETATM   18  N   UNL     1     -10.987   3.379 -34.704  1.00  0.00    -0.365 N 
HETATM   19  C   UNL     1     -10.937   0.011 -33.131  1.00  0.00     0.002 A 
HETATM   20  C   UNL     1      -9.722   0.159 -32.472  1.00  0.00     0.001 A 
HETATM   21  H   UNL     1     -11.819   3.527 -35.258  1.00  0.00     0.165 HD
HETATM   22  C   UNL     1      -9.976   4.281 -34.543  1.00  0.00     0.100 A 
ENDBRANCH   4  13
BRANCH   1  23
HETATM   23  C   UNL     1      -4.722   2.560 -31.936  1.00  0.00     0.133 C 
BRANCH  23  24
HETATM   24  C   UNL     1      -4.965   1.063 -31.752  1.00  0.00     0.025 C 
BRANCH  24  25
HETATM   25  C   UNL     1      -4.101   0.242 -32.707  1.00  0.00     0.040 C 
BRANCH  25  26
HETATM   26  C   UNL     1      -4.921  -0.798 -33.428  1.00  0.00    -0.058 A 
HETATM   27  C   UNL     1      -4.376  -2.055 -33.721  1.00  0.00     0.007 A 
HETATM   28  C   UNL     1      -5.124  -3.004 -34.419  1.00  0.00     0.001 A 
HETATM   29  C   UNL     1      -6.421  -2.704 -34.833  1.00  0.00     0.000 A 
HETATM   30  C   UNL     1      -6.970  -1.455 -34.550  1.00  0.00     0.001 A 
HETATM   31  C   UNL     1      -6.223  -0.504 -33.852  1.00  0.00     0.007 A 
ENDBRANCH  25  26
ENDBRANCH  24  25
ENDBRANCH  23  24
ENDBRANCH   1  23
TORSDOF 6
ENDMDL
MODEL 7
REMARK VINA RESULT:      -8.9      2.176      3.533
REMARK  6 active torsions:
REMARK  status: ('A' for Active; 'I' for Inactive)
REMARK    1  A    between atoms: C_4  and  C_5 
REMARK    2  A    between atoms: C_5  and  C_6 
REMARK    3  A    between atoms: C_6  and  C_7 
REMARK    4  A    between atoms: C_7  and  N_8 
REMARK    5  A    between atoms: C_11  and  O_12 
REMARK    6  A    between atoms: C_11  and  C_13 
ROOT
HETATM    1  N   UNL     1      -7.265   3.004 -31.512  1.00  0.00    -0.314 N 
HETATM    2  C   UNL     1      -7.105   4.020 -32.467  1.00  0.00     0.269 A 
HETATM    3  O   UNL     1      -7.961   4.812 -32.838  1.00  0.00    -0.269 OA
HETATM    4  C   UNL     1      -5.650   3.912 -33.018  1.00  0.00     0.198 A 
HETATM    5  C   UNL     1      -5.129   2.698 -32.293  1.00  0.00     0.017 A 
HETATM    6  C   UNL     1      -6.115   2.204 -31.433  1.00  0.00     0.047 A 
HETATM    7  C   UNL     1      -3.912   2.040 -32.425  1.00  0.00     0.013 A 
HETATM    8  C   UNL     1      -3.692   0.891 -31.661  1.00  0.00     0.001 A 
HETATM    9  C   UNL     1      -4.683   0.409 -30.791  1.00  0.00     0.002 A 
HETATM   10  C   UNL     1      -5.911   1.066 -30.672  1.00  0.00     0.030 A 
ENDROOT
BRANCH   4  11
HETATM   11  O   UNL     1      -5.666   3.673 -34.421  1.00  0.00    -0.371 OA
HETATM   12  H   UNL     1      -5.774   4.557 -34.815  1.00  0.00     0.212 HD
ENDBRANCH   4  11
BRANCH   4  13
HETATM   13  C   UNL     1      -4.761   5.075 -32.648  1.00  0.00     0.018 A 
HETATM   14  C   UNL     1      -3.510   5.492 -33.235  1.00  0.00     0.002 A 
HETATM   15  C   UNL     1      -3.059   6.604 -32.518  1.00  0.00     0.043 A 
HETATM   16  C   UNL     1      -2.704   5.033 -34.302  1.00  0.00     0.014 A 
HETATM   17  C   UNL     1      -1.856   7.264 -32.802  1.00  0.00     0.030 A 
HETATM   18  N   UNL     1      -3.994   6.875 -31.551  1.00  0.00    -0.365 N 
HETATM   19  C   UNL     1      -1.079   6.777 -33.854  1.00  0.00     0.002 A 
HETATM   20  C   UNL     1      -1.496   5.678 -34.597  1.00  0.00     0.001 A 
HETATM   21  H   UNL     1      -3.928   7.633 -30.886  1.00  0.00     0.165 HD
HETATM   22  C   UNL     1      -5.013   5.969 -31.614  1.00  0.00     0.100 A 
ENDBRANCH   4  13
BRANCH   1  23
HETATM   23  C   UNL     1      -8.518   2.726 -30.850  1.00  0.00     0.133 C 
BRANCH  23  24
HETATM   24  C   UNL     1      -9.059   1.346 -31.215  1.00  0.00     0.025 C 
BRANCH  24  25
HETATM   25  C   UNL     1      -9.458   1.282 -32.689  1.00  0.00     0.040 C 
BRANCH  25  26
HETATM   26  C   UNL     1      -8.437   0.524 -33.498  1.00  0.00    -0.058 A 
HETATM   27  C   UNL     1      -7.933   1.062 -34.690  1.00  0.00     0.007 A 
HETATM   28  C   UNL     1      -7.014   0.344 -35.457  1.00  0.00     0.001 A 
HETATM   29  C   UNL     1      -6.593  -0.918 -35.041  1.00  0.00     0.000 A 
HETATM   30  C   UNL     1      -7.091  -1.463 -33.860  1.00  0.00     0.001 A 
HETATM   31  C   UNL     1      -8.011  -0.747 -33.091  1.00  0.00     0.007 A 
ENDBRANCH  25  26
ENDBRANCH  24  25
ENDBRANCH  23  24
ENDBRANCH   1  23
TORSDOF 6
ENDMDL
MODEL 8
REMARK VINA RESULT:      -8.9      2.518      6.877
REMARK  6 active torsions:
REMARK  status: ('A' for Active; 'I' for Inactive)
REMARK    1  A    between atoms: C_4  and  C_5 
REMARK    2  A    between atoms: C_5  and  C_6 
REMARK    3  A    between atoms: C_6  and  C_7 
REMARK    4  A    between atoms: C_7  and  N_8 
REMARK    5  A    between atoms: C_11  and  O_12 
REMARK    6  A    between atoms: C_11  and  C_13 
ROOT
HETATM    1  N   UNL     1      -6.306   1.774 -31.568  1.00  0.00    -0.314 N 
HETATM    2  C   UNL     1      -7.616   2.031 -31.135  1.00  0.00     0.269 A 
HETATM    3  O   UNL     1      -7.952   2.825 -30.265  1.00  0.00    -0.269 OA
HETATM    4  C   UNL     1      -8.561   1.071 -31.921  1.00  0.00     0.198 A 
HETATM    5  C   UNL     1      -7.582   0.263 -32.734  1.00  0.00     0.017 A 
HETATM    6  C   UNL     1      -6.280   0.711 -32.484  1.00  0.00     0.047 A 
HETATM    7  C   UNL     1      -7.808  -0.819 -33.575  1.00  0.00     0.013 A 
HETATM    8  C   UNL     1      -6.707  -1.431 -34.181  1.00  0.00     0.001 A 
HETATM    9  C   UNL     1      -5.405  -0.967 -33.934  1.00  0.00     0.002 A 
HETATM   10  C   UNL     1      -5.182   0.113 -33.076  1.00  0.00     0.030 A 
ENDROOT
BRANCH   4  11
HETATM   11  O   UNL     1      -9.266   0.221 -31.021  1.00  0.00    -0.371 OA
HETATM   12  H   UNL     1     -10.161   0.160 -31.400  1.00  0.00     0.212 HD
ENDBRANCH   4  11
BRANCH   4  13
HETATM   13  C   UNL     1      -9.485   1.768 -32.889  1.00  0.00     0.018 A 
HETATM   14  C   UNL     1      -9.358   3.073 -33.496  1.00  0.00     0.002 A 
HETATM   15  C   UNL     1     -10.488   3.278 -34.292  1.00  0.00     0.043 A 
HETATM   16  C   UNL     1      -8.398   4.109 -33.445  1.00  0.00     0.014 A 
HETATM   17  C   UNL     1     -10.711   4.454 -35.019  1.00  0.00     0.030 A 
HETATM   18  N   UNL     1     -11.265   2.150 -34.199  1.00  0.00    -0.365 N 
HETATM   19  C   UNL     1      -9.749   5.462 -34.937  1.00  0.00     0.002 A 
HETATM   20  C   UNL     1      -8.607   5.294 -34.163  1.00  0.00     0.001 A 
HETATM   21  H   UNL     1     -12.145   2.020 -34.678  1.00  0.00     0.165 HD
HETATM   22  C   UNL     1     -10.681   1.243 -33.364  1.00  0.00     0.100 A 
ENDBRANCH   4  13
BRANCH   1  23
HETATM   23  C   UNL     1      -5.141   2.406 -30.996  1.00  0.00     0.133 C 
BRANCH  23  24
HETATM   24  C   UNL     1      -4.566   3.477 -31.920  1.00  0.00     0.025 C 
BRANCH  24  25
HETATM   25  C   UNL     1      -3.163   3.102 -32.394  1.00  0.00     0.040 C 
BRANCH  25  26
HETATM   26  C   UNL     1      -2.379   4.325 -32.799  1.00  0.00    -0.058 A 
HETATM   27  C   UNL     1      -1.553   4.978 -31.874  1.00  0.00     0.007 A 
HETATM   28  C   UNL     1      -0.856   6.131 -32.240  1.00  0.00     0.001 A 
HETATM   29  C   UNL     1      -0.982   6.642 -33.531  1.00  0.00     0.000 A 
HETATM   30  C   UNL     1      -1.803   6.003 -34.456  1.00  0.00     0.001 A 
HETATM   31  C   UNL     1      -2.502   4.850 -34.092  1.00  0.00     0.007 A 
ENDBRANCH  25  26
ENDBRANCH  24  25
ENDBRANCH  23  24
ENDBRANCH   1  23
TORSDOF 6
ENDMDL
MODEL 9
REMARK VINA RESULT:      -8.8      2.214      4.005
REMARK  6 active torsions:
REMARK  status: ('A' for Active; 'I' for Inactive)
REMARK    1  A    between atoms: C_4  and  C_5 
REMARK    2  A    between atoms: C_5  and  C_6 
REMARK    3  A    between atoms: C_6  and  C_7 
REMARK    4  A    between atoms: C_7  and  N_8 
REMARK    5  A    between atoms: C_11  and  O_12 
REMARK    6  A    between atoms: C_11  and  C_13 
ROOT
HETATM    1  N   UNL     1      -6.947   2.196 -33.327  1.00  0.00    -0.314 N 
HETATM    2  C   UNL     1      -6.200   3.376 -33.473  1.00  0.00     0.269 A 
HETATM    3  O   UNL     1      -6.147   4.084 -34.469  1.00  0.00    -0.269 OA
HETATM    4  C   UNL     1      -5.400   3.583 -32.151  1.00  0.00     0.198 A 
HETATM    5  C   UNL     1      -5.769   2.352 -31.364  1.00  0.00     0.017 A 
HETATM    6  C   UNL     1      -6.668   1.574 -32.101  1.00  0.00     0.047 A 
HETATM    7  C   UNL     1      -5.303   1.915 -30.129  1.00  0.00     0.013 A 
HETATM    8  C   UNL     1      -5.773   0.696 -29.636  1.00  0.00     0.001 A 
HETATM    9  C   UNL     1      -6.685  -0.072 -30.376  1.00  0.00     0.002 A 
HETATM   10  C   UNL     1      -7.140   0.364 -31.624  1.00  0.00     0.030 A 
ENDROOT
BRANCH   4  11
HETATM   11  O   UNL     1      -4.000   3.593 -32.414  1.00  0.00    -0.371 OA
HETATM   12  H   UNL     1      -3.654   4.306 -31.847  1.00  0.00     0.212 HD
ENDBRANCH   4  11
BRANCH   4  13
HETATM   13  C   UNL     1      -5.838   4.782 -31.345  1.00  0.00     0.018 A 
HETATM   14  C   UNL     1      -7.153   5.125 -30.856  1.00  0.00     0.002 A 
HETATM   15  C   UNL     1      -7.049   6.350 -30.193  1.00  0.00     0.043 A 
HETATM   16  C   UNL     1      -8.430   4.522 -30.917  1.00  0.00     0.014 A 
HETATM   17  C   UNL     1      -8.142   7.000 -29.606  1.00  0.00     0.030 A 
HETATM   18  N   UNL     1      -5.733   6.736 -30.249  1.00  0.00    -0.365 N 
HETATM   19  C   UNL     1      -9.391   6.383 -29.694  1.00  0.00     0.002 A 
HETATM   20  C   UNL     1      -9.535   5.160 -30.339  1.00  0.00     0.001 A 
HETATM   21  H   UNL     1      -5.368   7.587 -29.844  1.00  0.00     0.165 HD
HETATM   22  C   UNL     1      -5.000   5.813 -30.935  1.00  0.00     0.100 A 
ENDBRANCH   4  13
BRANCH   1  23
HETATM   23  C   UNL     1      -7.744   1.624 -34.387  1.00  0.00     0.133 C 
BRANCH  23  24
HETATM   24  C   UNL     1      -6.968   0.570 -35.174  1.00  0.00     0.025 C 
BRANCH  24  25
HETATM   25  C   UNL     1      -7.531  -0.829 -34.927  1.00  0.00     0.040 C 
BRANCH  25  26
HETATM   26  C   UNL     1      -6.430  -1.811 -34.613  1.00  0.00    -0.058 A 
HETATM   27  C   UNL     1      -5.262  -1.386 -33.967  1.00  0.00     0.007 A 
HETATM   28  C   UNL     1      -4.229  -2.289 -33.710  1.00  0.00     0.001 A 
HETATM   29  C   UNL     1      -4.354  -3.622 -34.098  1.00  0.00     0.000 A 
HETATM   30  C   UNL     1      -5.510  -4.053 -34.745  1.00  0.00     0.001 A 
HETATM   31  C   UNL     1      -6.544  -3.152 -35.004  1.00  0.00     0.007 A 
ENDBRANCH  25  26
ENDBRANCH  24  25
ENDBRANCH  23  24
ENDBRANCH   1  23
TORSDOF 6
ENDMDL
MODEL 10
REMARK VINA RESULT:      -8.8      2.818      7.313
REMARK  6 active torsions:
REMARK  status: ('A' for Active; 'I' for Inactive)
REMARK    1  A    between atoms: C_4  and  C_5 
REMARK    2  A    between atoms: C_5  and  C_6 
REMARK    3  A    between atoms: C_6  and  C_7 
REMARK    4  A    between atoms: C_7  and  N_8 
REMARK    5  A    between atoms: C_11  and  O_12 
REMARK    6  A    between atoms: C_11  and  C_13 
ROOT
HETATM    1  N   UNL     1      -4.071   5.794 -33.076  1.00  0.00    -0.314 N 
HETATM    2  C   UNL     1      -4.713   5.099 -34.113  1.00  0.00     0.269 A 
HETATM    3  O   UNL     1      -4.377   5.074 -35.290  1.00  0.00    -0.269 OA
HETATM    4  C   UNL     1      -5.974   4.417 -33.500  1.00  0.00     0.198 A 
HETATM    5  C   UNL     1      -5.932   4.901 -32.074  1.00  0.00     0.017 A 
HETATM    6  C   UNL     1      -4.804   5.707 -31.884  1.00  0.00     0.047 A 
HETATM    7  C   UNL     1      -6.843   4.705 -31.043  1.00  0.00     0.013 A 
HETATM    8  C   UNL     1      -6.591   5.313 -29.810  1.00  0.00     0.001 A 
HETATM    9  C   UNL     1      -5.450   6.109 -29.624  1.00  0.00     0.002 A 
HETATM   10  C   UNL     1      -4.544   6.315 -30.668  1.00  0.00     0.030 A 
ENDROOT
BRANCH   4  11
HETATM   11  O   UNL     1      -7.156   4.889 -34.141  1.00  0.00    -0.371 OA
HETATM   12  H   UNL     1      -7.871   4.355 -33.751  1.00  0.00     0.212 HD
ENDBRANCH   4  11
BRANCH   4  13
HETATM   13  C   UNL     1      -5.907   2.909 -33.468  1.00  0.00     0.018 A 
HETATM   14  C   UNL     1      -5.029   2.049 -32.709  1.00  0.00     0.002 A 
HETATM   15  C   UNL     1      -5.336   0.729 -33.050  1.00  0.00     0.043 A 
HETATM   16  C   UNL     1      -3.993   2.257 -31.770  1.00  0.00     0.014 A 
HETATM   17  C   UNL     1      -4.663  -0.377 -32.516  1.00  0.00     0.030 A 
HETATM   18  N   UNL     1      -6.366   0.769 -33.956  1.00  0.00    -0.365 N 
HETATM   19  C   UNL     1      -3.638  -0.136 -31.600  1.00  0.00     0.002 A 
HETATM   20  C   UNL     1      -3.307   1.162 -31.229  1.00  0.00     0.001 A 
HETATM   21  H   UNL     1      -6.795  -0.046 -34.371  1.00  0.00     0.165 HD
HETATM   22  C   UNL     1      -6.715   2.062 -34.217  1.00  0.00     0.100 A 
ENDBRANCH   4  13
BRANCH   1  23
HETATM   23  C   UNL     1      -2.912   6.631 -33.280  1.00  0.00     0.133 C 
BRANCH  23  24
HETATM   24  C   UNL     1      -1.612   5.871 -33.023  1.00  0.00     0.025 C 
BRANCH  24  25
HETATM   25  C   UNL     1      -0.513   6.808 -32.523  1.00  0.00     0.040 C 
BRANCH  25  26
HETATM   26  C   UNL     1      -0.106   6.468 -31.112  1.00  0.00    -0.058 A 
HETATM   27  C   UNL     1       0.610   5.294 -30.843  1.00  0.00     0.007 A 
HETATM   28  C   UNL     1       0.955   4.962 -29.532  1.00  0.00     0.001 A 
HETATM   29  C   UNL     1       0.585   5.798 -28.480  1.00  0.00     0.000 A 
HETATM   30  C   UNL     1      -0.130   6.965 -28.737  1.00  0.00     0.001 A 
HETATM   31  C   UNL     1      -0.477   7.299 -30.047  1.00  0.00     0.007 A 
ENDBRANCH  25  26
ENDBRANCH  24  25
ENDBRANCH  23  24
ENDBRANCH   1  23
TORSDOF 6
ENDMDL
