MODEL 1
REMARK VINA RESULT:      -8.6      0.000      0.000
REMARK  7 active torsions:
REMARK  status: ('A' for Active; 'I' for Inactive)
REMARK    1  A    between atoms: C_7  and  S_8 
REMARK    2  A    between atoms: S_8  and  C_9 
REMARK    3  A    between atoms: C_9  and  C_10 
REMARK    4  A    between atoms: C_18  and  C_19 
REMARK    5  A    between atoms: C_26  and  C_27 
REMARK    6  A    between atoms: C_27  and  O_28 
REMARK    7  A    between atoms: O_28  and  C_29 
ROOT
HETATM    1  C   UNL     1      -8.327   6.632 -31.418  1.00  0.00     0.070 C 
HETATM    2  C   UNL     1      -7.482   5.511 -31.971  1.00  0.00     0.037 A 
HETATM    3  N   UNL     1      -8.145   4.616 -32.802  1.00  0.00    -0.192 N 
HETATM    4  C   UNL     1      -7.587   3.481 -33.262  1.00  0.00     0.726 A 
HETATM    5  N   UNL     1      -6.286   3.199 -32.956  1.00  0.00    -0.082 N 
HETATM    6  N   UNL     1      -5.923   1.988 -33.428  1.00  0.00    -0.128 NA
HETATM    7  C   UNL     1      -7.031   1.638 -34.094  1.00  0.00     0.226 A 
HETATM    8  N   UNL     1      -8.081   2.518 -33.992  1.00  0.00    -0.035 NA
HETATM    9  C   UNL     1      -5.408   4.097 -32.192  1.00  0.00     0.203 A 
HETATM   10  C   UNL     1      -6.173   5.309 -31.671  1.00  0.00     0.070 A 
HETATM   11  H   UNL     1      -9.127   4.788 -32.999  1.00  0.00     0.184 HD
ENDROOT
BRANCH   7  12
HETATM   12  S   UNL     1      -7.168   0.184 -35.042  1.00  0.00    -0.083 SA
BRANCH  12  13
HETATM   13  C   UNL     1      -7.272  -1.086 -33.752  1.00  0.00     0.123 C 
BRANCH  13  14
HETATM   14  C   UNL     1      -6.437  -2.293 -34.114  1.00  0.00    -0.027 A 
HETATM   15  C   UNL     1      -5.038  -2.317 -33.984  1.00  0.00     0.041 A 
HETATM   16 CL   UNL     1      -4.148  -0.973 -33.360  1.00  0.00    -0.084 Cl
HETATM   17  C   UNL     1      -4.307  -3.447 -34.367  1.00  0.00     0.024 A 
HETATM   18  C   UNL     1      -4.958  -4.562 -34.892  1.00  0.00     0.002 A 
HETATM   19  C   UNL     1      -6.342  -4.551 -35.037  1.00  0.00     0.001 A 
HETATM   20  C   UNL     1      -7.076  -3.427 -34.652  1.00  0.00     0.009 A 
ENDBRANCH  13  14
ENDBRANCH  12  13
ENDBRANCH   7  12
BRANCH   9  21
HETATM   21  C   UNL     1      -4.199   4.476 -33.048  1.00  0.00    -0.028 A 
HETATM   22  C   UNL     1      -4.350   5.069 -34.316  1.00  0.00     0.012 A 
HETATM   23  C   UNL     1      -3.229   5.386 -35.086  1.00  0.00     0.043 A 
HETATM   24  C   UNL     1      -1.959   5.113 -34.596  1.00  0.00     0.116 A 
HETATM   25  F   UNL     1      -0.886   5.415 -35.339  1.00  0.00    -0.206 F 
HETATM   26  C   UNL     1      -1.784   4.532 -33.347  1.00  0.00     0.043 A 
HETATM   27  C   UNL     1      -2.901   4.214 -32.572  1.00  0.00     0.012 A 
ENDBRANCH   9  21
BRANCH  10  28
HETATM   28  C   UNL     1      -5.373   6.188 -30.794  1.00  0.00     0.294 C 
HETATM   29  O   UNL     1      -5.113   5.908 -29.635  1.00  0.00    -0.259 OA
BRANCH  28  30
HETATM   30  O   UNL     1      -4.935   7.265 -31.485  1.00  0.00    -0.313 OA
BRANCH  30  31
HETATM   31  C   UNL     1      -3.773   7.950 -30.980  1.00  0.00     0.124 C 
HETATM   32  C   UNL     1      -2.695   7.905 -32.053  1.00  0.00     0.040 C 
HETATM   33  C   UNL     1      -4.189   9.384 -30.678  1.00  0.00     0.040 C 
ENDBRANCH  30  31
ENDBRANCH  28  30
ENDBRANCH  10  28
TORSDOF 7
ENDMDL
MODEL 2
REMARK VINA RESULT:      -8.6      4.068      7.847
REMARK  7 active torsions:
REMARK  status: ('A' for Active; 'I' for Inactive)
REMARK    1  A    between atoms: C_7  and  S_8 
REMARK    2  A    between atoms: S_8  and  C_9 
REMARK    3  A    between atoms: C_9  and  C_10 
REMARK    4  A    between atoms: C_18  and  C_19 
REMARK    5  A    between atoms: C_26  and  C_27 
REMARK    6  A    between atoms: C_27  and  O_28 
REMARK    7  A    between atoms: O_28  and  C_29 
ROOT
HETATM    1  C   UNL     1      -5.977   1.240 -29.725  1.00  0.00     0.070 C 
HETATM    2  C   UNL     1      -5.674   2.623 -30.246  1.00  0.00     0.037 A 
HETATM    3  N   UNL     1      -5.392   3.579 -29.277  1.00  0.00    -0.192 N 
HETATM    4  C   UNL     1      -5.245   4.888 -29.549  1.00  0.00     0.726 A 
HETATM    5  N   UNL     1      -5.317   5.318 -30.844  1.00  0.00    -0.082 N 
HETATM    6  N   UNL     1      -5.231   6.662 -30.920  1.00  0.00    -0.128 NA
HETATM    7  C   UNL     1      -5.012   6.971 -29.635  1.00  0.00     0.226 A 
HETATM    8  N   UNL     1      -5.039   5.910 -28.763  1.00  0.00    -0.035 NA
HETATM    9  C   UNL     1      -5.486   4.424 -31.998  1.00  0.00     0.203 A 
HETATM   10  C   UNL     1      -5.710   2.982 -31.554  1.00  0.00     0.070 A 
HETATM   11  H   UNL     1      -5.383   3.282 -28.305  1.00  0.00     0.184 HD
ENDROOT
BRANCH   7  12
HETATM   12  S   UNL     1      -4.698   8.588 -29.072  1.00  0.00    -0.083 SA
BRANCH  12  13
HETATM   13  C   UNL     1      -3.478   9.166 -30.282  1.00  0.00     0.123 C 
BRANCH  13  14
HETATM   14  C   UNL     1      -2.172   8.418 -30.132  1.00  0.00    -0.027 A 
HETATM   15  C   UNL     1      -1.521   7.799 -31.213  1.00  0.00     0.041 A 
HETATM   16 CL   UNL     1      -2.142   7.870 -32.824  1.00  0.00    -0.084 Cl
HETATM   17  C   UNL     1      -0.332   7.089 -31.015  1.00  0.00     0.024 A 
HETATM   18  C   UNL     1       0.218   6.978 -29.739  1.00  0.00     0.002 A 
HETATM   19  C   UNL     1      -0.419   7.577 -28.656  1.00  0.00     0.001 A 
HETATM   20  C   UNL     1      -1.603   8.291 -28.850  1.00  0.00     0.009 A 
ENDBRANCH  13  14
ENDBRANCH  12  13
ENDBRANCH   7  12
BRANCH   9  21
HETATM   21  C   UNL     1      -4.294   4.580 -32.943  1.00  0.00    -0.028 A 
HETATM   22  C   UNL     1      -2.986   4.253 -32.539  1.00  0.00     0.012 A 
HETATM   23  C   UNL     1      -1.911   4.425 -33.414  1.00  0.00     0.043 A 
HETATM   24  C   UNL     1      -2.138   4.923 -34.691  1.00  0.00     0.116 A 
HETATM   25  F   UNL     1      -1.105   5.090 -35.527  1.00  0.00    -0.206 F 
HETATM   26  C   UNL     1      -3.420   5.250 -35.114  1.00  0.00     0.043 A 
HETATM   27  C   UNL     1      -4.497   5.078 -34.244  1.00  0.00     0.012 A 
ENDBRANCH   9  21
BRANCH  10  28
HETATM   28  C   UNL     1      -6.007   2.054 -32.665  1.00  0.00     0.294 C 
HETATM   29  O   UNL     1      -5.162   1.326 -33.163  1.00  0.00    -0.259 OA
BRANCH  28  30
HETATM   30  O   UNL     1      -7.325   2.090 -32.967  1.00  0.00    -0.313 OA
BRANCH  30  31
HETATM   31  C   UNL     1      -8.026   0.834 -33.034  1.00  0.00     0.124 C 
HETATM   32  C   UNL     1      -9.037   0.797 -31.897  1.00  0.00     0.040 C 
HETATM   33  C   UNL     1      -8.718   0.774 -34.390  1.00  0.00     0.040 C 
ENDBRANCH  30  31
ENDBRANCH  28  30
ENDBRANCH  10  28
TORSDOF 7
ENDMDL
MODEL 3
REMARK VINA RESULT:      -8.5      3.710      7.760
REMARK  7 active torsions:
REMARK  status: ('A' for Active; 'I' for Inactive)
REMARK    1  A    between atoms: C_7  and  S_8 
REMARK    2  A    between atoms: S_8  and  C_9 
REMARK    3  A    between atoms: C_9  and  C_10 
REMARK    4  A    between atoms: C_18  and  C_19 
REMARK    5  A    between atoms: C_26  and  C_27 
REMARK    6  A    between atoms: C_27  and  O_28 
REMARK    7  A    between atoms: O_28  and  C_29 
ROOT
HETATM    1  C   UNL     1      -6.126   1.417 -29.752  1.00  0.00     0.070 C 
HETATM    2  C   UNL     1      -5.766   2.796 -30.249  1.00  0.00     0.037 A 
HETATM    3  N   UNL     1      -5.419   3.714 -29.266  1.00  0.00    -0.192 N 
HETATM    4  C   UNL     1      -5.213   5.021 -29.512  1.00  0.00     0.726 A 
HETATM    5  N   UNL     1      -5.291   5.483 -30.796  1.00  0.00    -0.082 N 
HETATM    6  N   UNL     1      -5.141   6.823 -30.844  1.00  0.00    -0.128 NA
HETATM    7  C   UNL     1      -4.881   7.091 -29.557  1.00  0.00     0.226 A 
HETATM    8  N   UNL     1      -4.942   6.013 -28.709  1.00  0.00    -0.035 NA
HETATM    9  C   UNL     1      -5.526   4.625 -31.965  1.00  0.00     0.203 A 
HETATM   10  C   UNL     1      -5.811   3.186 -31.549  1.00  0.00     0.070 A 
HETATM   11  H   UNL     1      -5.405   3.395 -28.301  1.00  0.00     0.184 HD
ENDROOT
BRANCH   7  12
HETATM   12  S   UNL     1      -4.477   8.678 -28.966  1.00  0.00    -0.083 SA
BRANCH  12  13
HETATM   13  C   UNL     1      -3.293   9.244 -30.217  1.00  0.00     0.123 C 
BRANCH  13  14
HETATM   14  C   UNL     1      -2.003   8.460 -30.134  1.00  0.00    -0.027 A 
HETATM   15  C   UNL     1      -1.429   7.821 -31.247  1.00  0.00     0.041 A 
HETATM   16 CL   UNL     1      -2.133   7.908 -32.823  1.00  0.00    -0.084 Cl
HETATM   17  C   UNL     1      -0.252   7.078 -31.111  1.00  0.00     0.024 A 
HETATM   18  C   UNL     1       0.362   6.953 -29.865  1.00  0.00     0.002 A 
HETATM   19  C   UNL     1      -0.199   7.570 -28.752  1.00  0.00     0.001 A 
HETATM   20  C   UNL     1      -1.371   8.318 -28.884  1.00  0.00     0.009 A 
ENDBRANCH  13  14
ENDBRANCH  12  13
ENDBRANCH   7  12
BRANCH   9  21
HETATM   21  C   UNL     1      -4.347   4.745 -32.931  1.00  0.00    -0.028 A 
HETATM   22  C   UNL     1      -4.520   5.200 -34.252  1.00  0.00     0.012 A 
HETATM   23  C   UNL     1      -3.429   5.280 -35.121  1.00  0.00     0.043 A 
HETATM   24  C   UNL     1      -2.168   4.906 -34.676  1.00  0.00     0.116 A 
HETATM   25  F   UNL     1      -1.124   4.980 -35.513  1.00  0.00    -0.206 F 
HETATM   26  C   UNL     1      -1.971   4.456 -33.377  1.00  0.00     0.043 A 
HETATM   27  C   UNL     1      -3.057   4.376 -32.505  1.00  0.00     0.012 A 
ENDBRANCH   9  21
BRANCH  10  28
HETATM   28  C   UNL     1      -6.175   2.299 -32.673  1.00  0.00     0.294 C 
HETATM   29  O   UNL     1      -7.307   2.234 -33.126  1.00  0.00    -0.259 OA
BRANCH  28  30
HETATM   30  O   UNL     1      -5.077   1.663 -33.142  1.00  0.00    -0.313 OA
BRANCH  30  31
HETATM   31  C   UNL     1      -4.921   0.272 -32.805  1.00  0.00     0.124 C 
HETATM   32  C   UNL     1      -5.507  -0.557 -33.940  1.00  0.00     0.040 C 
HETATM   33  C   UNL     1      -3.429   0.010 -32.646  1.00  0.00     0.040 C 
ENDBRANCH  30  31
ENDBRANCH  28  30
ENDBRANCH  10  28
TORSDOF 7
ENDMDL
MODEL 4
REMARK VINA RESULT:      -8.5      3.796      5.215
REMARK  7 active torsions:
REMARK  status: ('A' for Active; 'I' for Inactive)
REMARK    1  A    between atoms: C_7  and  S_8 
REMARK    2  A    between atoms: S_8  and  C_9 
REMARK    3  A    between atoms: C_9  and  C_10 
REMARK    4  A    between atoms: C_18  and  C_19 
REMARK    5  A    between atoms: C_26  and  C_27 
REMARK    6  A    between atoms: C_27  and  O_28 
REMARK    7  A    between atoms: O_28  and  C_29 
ROOT
HETATM    1  C   UNL     1      -6.335   4.946 -28.893  1.00  0.00     0.070 C 
HETATM    2  C   UNL     1      -6.255   3.879 -29.958  1.00  0.00     0.037 A 
HETATM    3  N   UNL     1      -5.420   2.807 -29.667  1.00  0.00    -0.192 N 
HETATM    4  C   UNL     1      -5.115   1.844 -30.556  1.00  0.00     0.726 A 
HETATM    5  N   UNL     1      -5.685   1.870 -31.797  1.00  0.00    -0.082 N 
HETATM    6  N   UNL     1      -5.203   0.881 -32.580  1.00  0.00    -0.128 NA
HETATM    7  C   UNL     1      -4.414   0.238 -31.709  1.00  0.00     0.226 A 
HETATM    8  N   UNL     1      -4.316   0.815 -30.467  1.00  0.00    -0.035 NA
HETATM    9  C   UNL     1      -6.681   2.863 -32.223  1.00  0.00     0.203 A 
HETATM   10  C   UNL     1      -6.887   3.934 -31.157  1.00  0.00     0.070 A 
HETATM   11  H   UNL     1      -4.951   2.800 -28.765  1.00  0.00     0.184 HD
ENDROOT
BRANCH   7  12
HETATM   12  S   UNL     1      -3.565  -1.235 -32.084  1.00  0.00    -0.083 SA
BRANCH  12  13
HETATM   13  C   UNL     1      -3.803  -1.348 -33.877  1.00  0.00     0.123 C 
BRANCH  13  14
HETATM   14  C   UNL     1      -4.649  -2.550 -34.235  1.00  0.00    -0.027 A 
HETATM   15  C   UNL     1      -5.979  -2.440 -34.674  1.00  0.00     0.041 A 
HETATM   16 CL   UNL     1      -6.757  -0.911 -34.881  1.00  0.00    -0.084 Cl
HETATM   17  C   UNL     1      -6.731  -3.585 -34.959  1.00  0.00     0.024 A 
HETATM   18  C   UNL     1      -6.171  -4.852 -34.800  1.00  0.00     0.002 A 
HETATM   19  C   UNL     1      -4.859  -4.979 -34.356  1.00  0.00     0.001 A 
HETATM   20  C   UNL     1      -4.103  -3.838 -34.076  1.00  0.00     0.009 A 
ENDBRANCH  13  14
ENDBRANCH  12  13
ENDBRANCH   7  12
BRANCH   9  21
HETATM   21  C   UNL     1      -7.977   2.151 -32.613  1.00  0.00    -0.028 A 
HETATM   22  C   UNL     1      -8.631   2.425 -33.830  1.00  0.00     0.012 A 
HETATM   23  C   UNL     1      -9.825   1.776 -34.152  1.00  0.00     0.043 A 
HETATM   24  C   UNL     1     -10.368   0.856 -33.265  1.00  0.00     0.116 A 
HETATM   25  F   UNL     1     -11.516   0.238 -33.575  1.00  0.00    -0.206 F 
HETATM   26  C   UNL     1      -9.741   0.567 -32.060  1.00  0.00     0.043 A 
HETATM   27  C   UNL     1      -8.546   1.211 -31.734  1.00  0.00     0.012 A 
ENDBRANCH   9  21
BRANCH  10  28
HETATM   28  C   UNL     1      -7.788   5.028 -31.575  1.00  0.00     0.294 C 
HETATM   29  O   UNL     1      -7.488   5.839 -32.438  1.00  0.00    -0.259 OA
BRANCH  28  30
HETATM   30  O   UNL     1      -8.972   4.934 -30.928  1.00  0.00    -0.313 OA
BRANCH  30  31
HETATM   31  C   UNL     1     -10.159   5.297 -31.658  1.00  0.00     0.124 C 
HETATM   32  C   UNL     1     -11.146   4.143 -31.557  1.00  0.00     0.040 C 
HETATM   33  C   UNL     1     -10.718   6.558 -31.013  1.00  0.00     0.040 C 
ENDBRANCH  30  31
ENDBRANCH  28  30
ENDBRANCH  10  28
TORSDOF 7
ENDMDL
MODEL 5
REMARK VINA RESULT:      -8.5      2.041      2.748
REMARK  7 active torsions:
REMARK  status: ('A' for Active; 'I' for Inactive)
REMARK    1  A    between atoms: C_7  and  S_8 
REMARK    2  A    between atoms: S_8  and  C_9 
REMARK    3  A    between atoms: C_9  and  C_10 
REMARK    4  A    between atoms: C_18  and  C_19 
REMARK    5  A    between atoms: C_26  and  C_27 
REMARK    6  A    between atoms: C_27  and  O_28 
REMARK    7  A    between atoms: O_28  and  C_29 
ROOT
HETATM    1  C   UNL     1      -7.849   4.974 -30.567  1.00  0.00     0.070 C 
HETATM    2  C   UNL     1      -6.573   4.216 -30.837  1.00  0.00     0.037 A 
HETATM    3  N   UNL     1      -6.734   2.884 -31.200  1.00  0.00    -0.192 N 
HETATM    4  C   UNL     1      -5.708   2.023 -31.333  1.00  0.00     0.726 A 
HETATM    5  N   UNL     1      -4.429   2.471 -31.163  1.00  0.00    -0.082 N 
HETATM    6  N   UNL     1      -3.539   1.459 -31.250  1.00  0.00    -0.128 NA
HETATM    7  C   UNL     1      -4.350   0.442 -31.572  1.00  0.00     0.226 A 
HETATM    8  N   UNL     1      -5.689   0.747 -31.606  1.00  0.00    -0.035 NA
HETATM    9  C   UNL     1      -4.077   3.873 -30.898  1.00  0.00     0.203 A 
HETATM   10  C   UNL     1      -5.324   4.729 -30.701  1.00  0.00     0.070 A 
HETATM   11  H   UNL     1      -7.681   2.525 -31.283  1.00  0.00     0.184 HD
ENDROOT
BRANCH   7  12
HETATM   12  S   UNL     1      -3.785  -1.162 -31.939  1.00  0.00    -0.083 SA
BRANCH  12  13
HETATM   13  C   UNL     1      -3.978  -1.215 -33.741  1.00  0.00     0.123 C 
BRANCH  13  14
HETATM   14  C   UNL     1      -4.749  -2.445 -34.166  1.00  0.00    -0.027 A 
HETATM   15  C   UNL     1      -6.059  -2.385 -34.670  1.00  0.00     0.041 A 
HETATM   16 CL   UNL     1      -6.896  -0.888 -34.883  1.00  0.00    -0.084 Cl
HETATM   17  C   UNL     1      -6.742  -3.556 -35.016  1.00  0.00     0.024 A 
HETATM   18  C   UNL     1      -6.133  -4.800 -34.856  1.00  0.00     0.002 A 
HETATM   19  C   UNL     1      -4.840  -4.877 -34.349  1.00  0.00     0.001 A 
HETATM   20  C   UNL     1      -4.153  -3.711 -34.007  1.00  0.00     0.009 A 
ENDBRANCH  13  14
ENDBRANCH  12  13
ENDBRANCH   7  12
BRANCH   9  21
HETATM   21  C   UNL     1      -3.168   4.390 -32.014  1.00  0.00    -0.028 A 
HETATM   22  C   UNL     1      -1.845   4.798 -31.757  1.00  0.00     0.012 A 
HETATM   23  C   UNL     1      -1.043   5.286 -32.791  1.00  0.00     0.043 A 
HETATM   24  C   UNL     1      -1.556   5.369 -34.079  1.00  0.00     0.116 A 
HETATM   25  F   UNL     1      -0.785   5.841 -35.067  1.00  0.00    -0.206 F 
HETATM   26  C   UNL     1      -2.856   4.970 -34.357  1.00  0.00     0.043 A 
HETATM   27  C   UNL     1      -3.662   4.480 -33.329  1.00  0.00     0.012 A 
ENDBRANCH   9  21
BRANCH  10  28
HETATM   28  C   UNL     1      -5.034   6.125 -30.313  1.00  0.00     0.294 C 
HETATM   29  O   UNL     1      -5.097   7.057 -31.099  1.00  0.00    -0.259 OA
BRANCH  28  30
HETATM   30  O   UNL     1      -4.778   6.199 -28.987  1.00  0.00    -0.313 OA
BRANCH  30  31
HETATM   31  C   UNL     1      -4.987   7.469 -28.340  1.00  0.00     0.124 C 
HETATM   32  C   UNL     1      -6.465   7.583 -27.992  1.00  0.00     0.040 C 
HETATM   33  C   UNL     1      -4.124   7.485 -27.085  1.00  0.00     0.040 C 
ENDBRANCH  30  31
ENDBRANCH  28  30
ENDBRANCH  10  28
TORSDOF 7
ENDMDL
MODEL 6
REMARK VINA RESULT:      -8.4      1.500      1.697
REMARK  7 active torsions:
REMARK  status: ('A' for Active; 'I' for Inactive)
REMARK    1  A    between atoms: C_7  and  S_8 
REMARK    2  A    between atoms: S_8  and  C_9 
REMARK    3  A    between atoms: C_9  and  C_10 
REMARK    4  A    between atoms: C_18  and  C_19 
REMARK    5  A    between atoms: C_26  and  C_27 
REMARK    6  A    between atoms: C_27  and  O_28 
REMARK    7  A    between atoms: O_28  and  C_29 
ROOT
HETATM    1  C   UNL     1      -7.047   7.560 -29.556  1.00  0.00     0.070 C 
HETATM    2  C   UNL     1      -6.468   6.301 -30.153  1.00  0.00     0.037 A 
HETATM    3  N   UNL     1      -7.397   5.348 -30.555  1.00  0.00    -0.192 N 
HETATM    4  C   UNL     1      -7.059   4.114 -30.970  1.00  0.00     0.726 A 
HETATM    5  N   UNL     1      -5.739   3.773 -31.061  1.00  0.00    -0.082 N 
HETATM    6  N   UNL     1      -5.590   2.478 -31.410  1.00  0.00    -0.128 NA
HETATM    7  C   UNL     1      -6.867   2.125 -31.607  1.00  0.00     0.226 A 
HETATM    8  N   UNL     1      -7.796   3.095 -31.322  1.00  0.00    -0.035 NA
HETATM    9  C   UNL     1      -4.631   4.700 -30.791  1.00  0.00     0.203 A 
HETATM   10  C   UNL     1      -5.141   6.037 -30.265  1.00  0.00     0.070 A 
HETATM   11  H   UNL     1      -8.383   5.570 -30.447  1.00  0.00     0.184 HD
ENDROOT
BRANCH   7  12
HETATM   12  S   UNL     1      -7.355   0.561 -32.194  1.00  0.00    -0.083 SA
BRANCH  12  13
HETATM   13  C   UNL     1      -6.416   0.441 -33.740  1.00  0.00     0.123 C 
BRANCH  13  14
HETATM   14  C   UNL     1      -5.997  -0.987 -34.008  1.00  0.00    -0.027 A 
HETATM   15  C   UNL     1      -4.694  -1.455 -33.767  1.00  0.00     0.041 A 
HETATM   16 CL   UNL     1      -3.459  -0.443 -33.104  1.00  0.00    -0.084 Cl
HETATM   17  C   UNL     1      -4.347  -2.778 -34.065  1.00  0.00     0.024 A 
HETATM   18  C   UNL     1      -5.288  -3.646 -34.616  1.00  0.00     0.002 A 
HETATM   19  C   UNL     1      -6.580  -3.195 -34.870  1.00  0.00     0.001 A 
HETATM   20  C   UNL     1      -6.932  -1.878 -34.569  1.00  0.00     0.009 A 
ENDBRANCH  13  14
ENDBRANCH  12  13
ENDBRANCH   7  12
BRANCH   9  21
HETATM   21  C   UNL     1      -3.768   4.841 -32.046  1.00  0.00    -0.028 A 
HETATM   22  C   UNL     1      -4.305   5.309 -33.261  1.00  0.00     0.012 A 
HETATM   23  C   UNL     1      -3.500   5.408 -34.397  1.00  0.00     0.043 A 
HETATM   24  C   UNL     1      -2.163   5.042 -34.327  1.00  0.00     0.116 A 
HETATM   25  F   UNL     1      -1.394   5.135 -35.421  1.00  0.00    -0.206 F 
HETATM   26  C   UNL     1      -1.609   4.579 -33.140  1.00  0.00     0.043 A 
HETATM   27  C   UNL     1      -2.409   4.480 -32.000  1.00  0.00     0.012 A 
ENDBRANCH   9  21
BRANCH  10  28
HETATM   28  C   UNL     1      -4.069   6.969 -29.862  1.00  0.00     0.294 C 
HETATM   29  O   UNL     1      -3.491   6.890 -28.790  1.00  0.00    -0.259 OA
BRANCH  28  30
HETATM   30  O   UNL     1      -3.796   7.833 -30.867  1.00  0.00    -0.313 OA
BRANCH  30  31
HETATM   31  C   UNL     1      -2.474   8.402 -30.914  1.00  0.00     0.124 C 
HETATM   32  C   UNL     1      -1.894   8.134 -32.295  1.00  0.00     0.040 C 
HETATM   33  C   UNL     1      -2.617   9.897 -30.657  1.00  0.00     0.040 C 
ENDBRANCH  30  31
ENDBRANCH  28  30
ENDBRANCH  10  28
TORSDOF 7
ENDMDL
MODEL 7
REMARK VINA RESULT:      -7.8      4.078      8.223
REMARK  7 active torsions:
REMARK  status: ('A' for Active; 'I' for Inactive)
REMARK    1  A    between atoms: C_7  and  S_8 
REMARK    2  A    between atoms: S_8  and  C_9 
REMARK    3  A    between atoms: C_9  and  C_10 
REMARK    4  A    between atoms: C_18  and  C_19 
REMARK    5  A    between atoms: C_26  and  C_27 
REMARK    6  A    between atoms: C_27  and  O_28 
REMARK    7  A    between atoms: O_28  and  C_29 
ROOT
HETATM    1  C   UNL     1     -10.444  -0.416 -32.821  1.00  0.00     0.070 C 
HETATM    2  C   UNL     1      -9.391   0.588 -32.420  1.00  0.00     0.037 A 
HETATM    3  N   UNL     1      -9.744   1.441 -31.381  1.00  0.00    -0.192 N 
HETATM    4  C   UNL     1      -8.991   2.487 -30.993  1.00  0.00     0.726 A 
HETATM    5  N   UNL     1      -7.788   2.710 -31.600  1.00  0.00    -0.082 N 
HETATM    6  N   UNL     1      -7.212   3.843 -31.145  1.00  0.00    -0.128 NA
HETATM    7  C   UNL     1      -8.084   4.200 -30.193  1.00  0.00     0.226 A 
HETATM    8  N   UNL     1      -9.199   3.406 -30.090  1.00  0.00    -0.035 NA
HETATM    9  C   UNL     1      -7.211   1.834 -32.629  1.00  0.00     0.203 A 
HETATM   10  C   UNL     1      -8.186   0.731 -33.028  1.00  0.00     0.070 A 
HETATM   11  H   UNL     1     -10.657   1.317 -30.953  1.00  0.00     0.184 HD
ENDROOT
BRANCH   7  12
HETATM   12  S   UNL     1      -7.850   5.561 -29.133  1.00  0.00    -0.083 SA
BRANCH  12  13
HETATM   13  C   UNL     1      -6.530   6.466 -29.985  1.00  0.00     0.123 C 
BRANCH  13  14
HETATM   14  C   UNL     1      -5.376   6.746 -29.049  1.00  0.00    -0.027 A 
HETATM   15  C   UNL     1      -4.143   7.255 -29.492  1.00  0.00     0.041 A 
HETATM   16 CL   UNL     1      -3.849   7.640 -31.151  1.00  0.00    -0.084 Cl
HETATM   17  C   UNL     1      -3.095   7.464 -28.590  1.00  0.00     0.024 A 
HETATM   18  C   UNL     1      -3.257   7.161 -27.239  1.00  0.00     0.002 A 
HETATM   19  C   UNL     1      -4.468   6.647 -26.785  1.00  0.00     0.001 A 
HETATM   20  C   UNL     1      -5.519   6.442 -27.682  1.00  0.00     0.009 A 
ENDBRANCH  13  14
ENDBRANCH  12  13
ENDBRANCH   7  12
BRANCH   9  21
HETATM   21  C   UNL     1      -5.865   1.294 -32.143  1.00  0.00    -0.028 A 
HETATM   22  C   UNL     1      -5.775   0.417 -31.045  1.00  0.00     0.012 A 
HETATM   23  C   UNL     1      -4.532  -0.044 -30.609  1.00  0.00     0.043 A 
HETATM   24  C   UNL     1      -3.378   0.367 -31.263  1.00  0.00     0.116 A 
HETATM   25  F   UNL     1      -2.186  -0.075 -30.839  1.00  0.00    -0.206 F 
HETATM   26  C   UNL     1      -3.440   1.229 -32.350  1.00  0.00     0.043 A 
HETATM   27  C   UNL     1      -4.681   1.691 -32.792  1.00  0.00     0.012 A 
ENDBRANCH   9  21
BRANCH  10  28
HETATM   28  C   UNL     1      -7.711  -0.111 -34.145  1.00  0.00     0.294 C 
HETATM   29  O   UNL     1      -7.712   0.267 -35.306  1.00  0.00    -0.259 OA
BRANCH  28  30
HETATM   30  O   UNL     1      -7.226  -1.283 -33.675  1.00  0.00    -0.313 OA
BRANCH  30  31
HETATM   31  C   UNL     1      -6.298  -2.001 -34.510  1.00  0.00     0.124 C 
HETATM   32  C   UNL     1      -4.941  -1.993 -33.822  1.00  0.00     0.040 C 
HETATM   33  C   UNL     1      -6.831  -3.420 -34.663  1.00  0.00     0.040 C 
ENDBRANCH  30  31
ENDBRANCH  28  30
ENDBRANCH  10  28
TORSDOF 7
ENDMDL
MODEL 8
REMARK VINA RESULT:      -7.8      4.072      6.174
REMARK  7 active torsions:
REMARK  status: ('A' for Active; 'I' for Inactive)
REMARK    1  A    between atoms: C_7  and  S_8 
REMARK    2  A    between atoms: S_8  and  C_9 
REMARK    3  A    between atoms: C_9  and  C_10 
REMARK    4  A    between atoms: C_18  and  C_19 
REMARK    5  A    between atoms: C_26  and  C_27 
REMARK    6  A    between atoms: C_27  and  O_28 
REMARK    7  A    between atoms: O_28  and  C_29 
ROOT
HETATM    1  C   UNL     1     -12.362   2.377 -35.352  1.00  0.00     0.070 C 
HETATM    2  C   UNL     1     -11.277   2.324 -34.304  1.00  0.00     0.037 A 
HETATM    3  N   UNL     1     -10.243   1.432 -34.560  1.00  0.00    -0.192 N 
HETATM    4  C   UNL     1      -9.273   1.148 -33.671  1.00  0.00     0.726 A 
HETATM    5  N   UNL     1      -9.251   1.798 -32.470  1.00  0.00    -0.082 N 
HETATM    6  N   UNL     1      -8.265   1.329 -31.676  1.00  0.00    -0.128 NA
HETATM    7  C   UNL     1      -7.670   0.461 -32.505  1.00  0.00     0.226 A 
HETATM    8  N   UNL     1      -8.277   0.305 -33.728  1.00  0.00    -0.035 NA
HETATM    9  C   UNL     1     -10.197   2.857 -32.091  1.00  0.00     0.203 A 
HETATM   10  C   UNL     1     -11.282   3.035 -33.148  1.00  0.00     0.070 A 
HETATM   11  H   UNL     1     -10.272   0.905 -35.429  1.00  0.00     0.184 HD
ENDROOT
BRANCH   7  12
HETATM   12  S   UNL     1      -6.223  -0.418 -32.104  1.00  0.00    -0.083 SA
BRANCH  12  13
HETATM   13  C   UNL     1      -5.500  -0.702 -33.742  1.00  0.00     0.123 C 
BRANCH  13  14
HETATM   14  C   UNL     1      -5.325  -2.180 -34.006  1.00  0.00    -0.027 A 
HETATM   15  C   UNL     1      -4.276  -2.932 -33.450  1.00  0.00     0.041 A 
HETATM   16 CL   UNL     1      -3.110  -2.237 -32.380  1.00  0.00    -0.084 Cl
HETATM   17  C   UNL     1      -4.136  -4.291 -33.754  1.00  0.00     0.024 A 
HETATM   18  C   UNL     1      -5.032  -4.914 -34.622  1.00  0.00     0.002 A 
HETATM   19  C   UNL     1      -6.070  -4.181 -35.189  1.00  0.00     0.001 A 
HETATM   20  C   UNL     1      -6.216  -2.826 -34.884  1.00  0.00     0.009 A 
ENDBRANCH  13  14
ENDBRANCH  12  13
ENDBRANCH   7  12
BRANCH   9  21
HETATM   21  C   UNL     1      -9.429   4.147 -31.801  1.00  0.00    -0.028 A 
HETATM   22  C   UNL     1      -9.429   4.732 -30.520  1.00  0.00     0.012 A 
HETATM   23  C   UNL     1      -8.736   5.922 -30.287  1.00  0.00     0.043 A 
HETATM   24  C   UNL     1      -8.045   6.530 -31.327  1.00  0.00     0.116 A 
HETATM   25  F   UNL     1      -7.385   7.674 -31.100  1.00  0.00    -0.206 F 
HETATM   26  C   UNL     1      -8.028   5.971 -32.598  1.00  0.00     0.043 A 
HETATM   27  C   UNL     1      -8.717   4.781 -32.836  1.00  0.00     0.012 A 
ENDBRANCH   9  21
BRANCH  10  28
HETATM   28  C   UNL     1     -12.333   4.002 -32.769  1.00  0.00     0.294 C 
HETATM   29  O   UNL     1     -12.356   5.150 -33.185  1.00  0.00    -0.259 OA
BRANCH  28  30
HETATM   30  O   UNL     1     -13.260   3.405 -31.986  1.00  0.00    -0.313 OA
BRANCH  30  31
HETATM   31  C   UNL     1     -14.618   3.382 -32.465  1.00  0.00     0.124 C 
HETATM   32  C   UNL     1     -15.139   1.958 -32.335  1.00  0.00     0.040 C 
HETATM   33  C   UNL     1     -15.419   4.343 -31.596  1.00  0.00     0.040 C 
ENDBRANCH  30  31
ENDBRANCH  28  30
ENDBRANCH  10  28
TORSDOF 7
ENDMDL
MODEL 9
REMARK VINA RESULT:      -7.7      3.204      5.004
REMARK  7 active torsions:
REMARK  status: ('A' for Active; 'I' for Inactive)
REMARK    1  A    between atoms: C_7  and  S_8 
REMARK    2  A    between atoms: S_8  and  C_9 
REMARK    3  A    between atoms: C_9  and  C_10 
REMARK    4  A    between atoms: C_18  and  C_19 
REMARK    5  A    between atoms: C_26  and  C_27 
REMARK    6  A    between atoms: C_27  and  O_28 
REMARK    7  A    between atoms: O_28  and  C_29 
ROOT
HETATM    1  C   UNL     1       0.305   6.206 -31.004  1.00  0.00     0.070 C 
HETATM    2  C   UNL     1      -1.155   5.838 -31.095  1.00  0.00     0.037 A 
HETATM    3  N   UNL     1      -1.435   4.479 -31.025  1.00  0.00    -0.192 N 
HETATM    4  C   UNL     1      -2.660   3.963 -31.235  1.00  0.00     0.726 A 
HETATM    5  N   UNL     1      -3.710   4.802 -31.478  1.00  0.00    -0.082 N 
HETATM    6  N   UNL     1      -4.838   4.111 -31.747  1.00  0.00    -0.128 NA
HETATM    7  C   UNL     1      -4.412   2.856 -31.554  1.00  0.00     0.226 A 
HETATM    8  N   UNL     1      -3.076   2.726 -31.264  1.00  0.00    -0.035 NA
HETATM    9  C   UNL     1      -3.610   6.268 -31.465  1.00  0.00     0.203 A 
HETATM   10  C   UNL     1      -2.166   6.724 -31.286  1.00  0.00     0.070 A 
HETATM   11  H   UNL     1      -0.656   3.839 -30.893  1.00  0.00     0.184 HD
ENDROOT
BRANCH   7  12
HETATM   12  S   UNL     1      -5.451   1.462 -31.643  1.00  0.00    -0.083 SA
BRANCH  12  13
HETATM   13  C   UNL     1      -5.656   1.272 -33.434  1.00  0.00     0.123 C 
BRANCH  13  14
HETATM   14  C   UNL     1      -5.556  -0.181 -33.839  1.00  0.00    -0.027 A 
HETATM   15  C   UNL     1      -6.519  -0.816 -34.641  1.00  0.00     0.041 A 
HETATM   16 CL   UNL     1      -7.893   0.024 -35.269  1.00  0.00    -0.084 Cl
HETATM   17  C   UNL     1      -6.399  -2.173 -34.958  1.00  0.00     0.024 A 
HETATM   18  C   UNL     1      -5.324  -2.917 -34.473  1.00  0.00     0.002 A 
HETATM   19  C   UNL     1      -4.366  -2.306 -33.669  1.00  0.00     0.001 A 
HETATM   20  C   UNL     1      -4.480  -0.950 -33.355  1.00  0.00     0.009 A 
ENDBRANCH  13  14
ENDBRANCH  12  13
ENDBRANCH   7  12
BRANCH   9  21
HETATM   21  C   UNL     1      -4.551   6.833 -30.400  1.00  0.00    -0.028 A 
HETATM   22  C   UNL     1      -4.488   6.408 -29.059  1.00  0.00     0.012 A 
HETATM   23  C   UNL     1      -5.374   6.924 -28.111  1.00  0.00     0.043 A 
HETATM   24  C   UNL     1      -6.322   7.863 -28.496  1.00  0.00     0.116 A 
HETATM   25  F   UNL     1      -7.172   8.354 -27.585  1.00  0.00    -0.206 F 
HETATM   26  C   UNL     1      -6.402   8.301 -29.812  1.00  0.00     0.043 A 
HETATM   27  C   UNL     1      -5.519   7.789 -30.763  1.00  0.00     0.012 A 
ENDBRANCH   9  21
BRANCH  10  28
HETATM   28  C   UNL     1      -1.984   8.187 -31.384  1.00  0.00     0.294 C 
HETATM   29  O   UNL     1      -2.181   8.810 -32.416  1.00  0.00    -0.259 OA
BRANCH  28  30
HETATM   30  O   UNL     1      -1.657   8.701 -30.177  1.00  0.00    -0.313 OA
BRANCH  30  31
HETATM   31  C   UNL     1      -2.627   9.544 -29.528  1.00  0.00     0.124 C 
HETATM   32  C   UNL     1      -2.531   9.307 -28.028  1.00  0.00     0.040 C 
HETATM   33  C   UNL     1      -2.282  10.985 -29.882  1.00  0.00     0.040 C 
ENDBRANCH  30  31
ENDBRANCH  28  30
ENDBRANCH  10  28
TORSDOF 7
ENDMDL
MODEL 10
REMARK VINA RESULT:      -7.6      1.576      2.008
REMARK  7 active torsions:
REMARK  status: ('A' for Active; 'I' for Inactive)
REMARK    1  A    between atoms: C_7  and  S_8 
REMARK    2  A    between atoms: S_8  and  C_9 
REMARK    3  A    between atoms: C_9  and  C_10 
REMARK    4  A    between atoms: C_18  and  C_19 
REMARK    5  A    between atoms: C_26  and  C_27 
REMARK    6  A    between atoms: C_27  and  O_28 
REMARK    7  A    between atoms: O_28  and  C_29 
ROOT
HETATM    1  C   UNL     1      -8.705   6.025 -30.406  1.00  0.00     0.070 C 
HETATM    2  C   UNL     1      -7.740   4.975 -30.901  1.00  0.00     0.037 A 
HETATM    3  N   UNL     1      -8.323   3.841 -31.455  1.00  0.00    -0.192 N 
HETATM    4  C   UNL     1      -7.624   2.748 -31.811  1.00  0.00     0.726 A 
HETATM    5  N   UNL     1      -6.264   2.749 -31.682  1.00  0.00    -0.082 N 
HETATM    6  N   UNL     1      -5.740   1.547 -32.005  1.00  0.00    -0.128 NA
HETATM    7  C   UNL     1      -6.839   0.899 -32.413  1.00  0.00     0.226 A 
HETATM    8  N   UNL     1      -8.015   1.596 -32.284  1.00  0.00    -0.035 NA
HETATM    9  C   UNL     1      -5.482   3.908 -31.229  1.00  0.00     0.203 A 
HETATM   10  C   UNL     1      -6.390   5.053 -30.792  1.00  0.00     0.070 A 
HETATM   11  H   UNL     1      -9.337   3.808 -31.513  1.00  0.00     0.184 HD
ENDROOT
BRANCH   7  12
HETATM   12  S   UNL     1      -6.818  -0.710 -33.078  1.00  0.00    -0.083 SA
BRANCH  12  13
HETATM   13  C   UNL     1      -5.176  -0.767 -33.845  1.00  0.00     0.123 C 
BRANCH  13  14
HETATM   14  C   UNL     1      -4.448  -2.039 -33.469  1.00  0.00    -0.027 A 
HETATM   15  C   UNL     1      -4.571  -3.230 -34.204  1.00  0.00     0.041 A 
HETATM   16 CL   UNL     1      -5.542  -3.337 -35.630  1.00  0.00    -0.084 Cl
HETATM   17  C   UNL     1      -3.905  -4.390 -33.795  1.00  0.00     0.024 A 
HETATM   18  C   UNL     1      -3.117  -4.380 -32.645  1.00  0.00     0.002 A 
HETATM   19  C   UNL     1      -2.992  -3.211 -31.900  1.00  0.00     0.001 A 
HETATM   20  C   UNL     1      -3.652  -2.050 -32.308  1.00  0.00     0.009 A 
ENDBRANCH  13  14
ENDBRANCH  12  13
ENDBRANCH   7  12
BRANCH   9  21
HETATM   21  C   UNL     1      -4.492   4.313 -32.322  1.00  0.00    -0.028 A 
HETATM   22  C   UNL     1      -4.929   4.825 -33.559  1.00  0.00     0.012 A 
HETATM   23  C   UNL     1      -4.005   5.168 -34.548  1.00  0.00     0.043 A 
HETATM   24  C   UNL     1      -2.648   5.001 -34.308  1.00  0.00     0.116 A 
HETATM   25  F   UNL     1      -1.764   5.328 -35.261  1.00  0.00    -0.206 F 
HETATM   26  C   UNL     1      -2.192   4.501 -33.095  1.00  0.00     0.043 A 
HETATM   27  C   UNL     1      -3.111   4.159 -32.102  1.00  0.00     0.012 A 
ENDBRANCH   9  21
BRANCH  10  28
HETATM   28  C   UNL     1      -5.665   6.202 -30.213  1.00  0.00     0.294 C 
HETATM   29  O   UNL     1      -5.110   6.156 -29.127  1.00  0.00    -0.259 OA
BRANCH  28  30
HETATM   30  O   UNL     1      -5.655   7.237 -31.084  1.00  0.00    -0.313 OA
BRANCH  30  31
HETATM   31  C   UNL     1      -5.993   8.540 -30.572  1.00  0.00     0.124 C 
HETATM   32  C   UNL     1      -4.711   9.355 -30.474  1.00  0.00     0.040 C 
HETATM   33  C   UNL     1      -6.973   9.171 -31.553  1.00  0.00     0.040 C 
ENDBRANCH  30  31
ENDBRANCH  28  30
ENDBRANCH  10  28
TORSDOF 7
ENDMDL
