MODEL 1
REMARK VINA RESULT:      -9.3      0.000      0.000
REMARK  7 active torsions:
REMARK  status: ('A' for Active; 'I' for Inactive)
REMARK    1  A    between atoms: C_2  and  N_3 
REMARK    2  A    between atoms: C_2  and  C_26 
REMARK       I    between atoms: N_3  and  C_4 
REMARK    3  A    between atoms: C_4  and  C_5 
REMARK    4  A    between atoms: C_8  and  C_9 
REMARK       I    between atoms: C_9  and  N_10 
REMARK    5  A    between atoms: N_10  and  C_11 
REMARK    6  A    between atoms: N_20  and  C_21 
REMARK    7  A    between atoms: C_29  and  O_30 
ROOT
HETATM    1  C   UNL     1      -5.678   4.191 -33.308  1.00  0.00     0.098 A 
HETATM    2  C   UNL     1      -5.437   2.791 -32.838  1.00  0.00     0.206 A 
HETATM    3  O   UNL     1      -4.354   2.467 -32.346  1.00  0.00    -0.286 OA
HETATM    4  C   UNL     1      -6.534   1.788 -33.000  1.00  0.00     0.098 A 
HETATM    5  C   UNL     1      -7.713   2.246 -33.457  1.00  0.00     0.112 A 
HETATM    6  N   UNL     1      -7.954   3.569 -33.765  1.00  0.00    -0.360 N 
HETATM    7  C   UNL     1      -6.918   4.479 -33.740  1.00  0.00     0.112 A 
ENDROOT
BRANCH   1   8
HETATM    8  C   UNL     1      -4.642   5.259 -33.356  1.00  0.00     0.257 C 
HETATM    9  N   UNL     1      -3.361   4.823 -33.573  1.00  0.00    -0.348 N 
HETATM   10  H   UNL     1      -3.205   3.826 -33.701  1.00  0.00     0.163 HD
HETATM   11  O   UNL     1      -4.933   6.445 -33.226  1.00  0.00    -0.267 OA
BRANCH   9  12
HETATM   12  C   UNL     1      -2.248   5.729 -33.798  1.00  0.00     0.114 C 
HETATM   13  C   UNL     1      -1.350   5.221 -34.929  1.00  0.00     0.037 C 
BRANCH  12  14
HETATM   14  C   UNL     1      -1.455   5.929 -32.519  1.00  0.00    -0.036 A 
HETATM   15  C   UNL     1      -0.960   7.199 -32.196  1.00  0.00     0.012 A 
HETATM   16  C   UNL     1      -0.222   7.399 -31.026  1.00  0.00     0.037 A 
HETATM   17  C   UNL     1       0.031   6.341 -30.152  1.00  0.00     0.068 A 
HETATM   18  C   UNL     1      -0.451   5.071 -30.466  1.00  0.00     0.037 A 
HETATM   19  C   UNL     1      -1.184   4.866 -31.641  1.00  0.00     0.012 A 
BRANCH  17  20
HETATM   20  O   UNL     1       0.759   6.675 -29.043  1.00  0.00    -0.356 OA
HETATM   21  C   UNL     1       0.508   7.953 -28.472  1.00  0.00     0.210 C 
ENDBRANCH  17  20
ENDBRANCH  12  14
ENDBRANCH   9  12
ENDBRANCH   1   8
BRANCH   4  22
HETATM   22  C   UNL     1      -6.401   0.333 -32.710  1.00  0.00     0.257 C 
HETATM   23  N   UNL     1      -5.939  -0.427 -33.756  1.00  0.00    -0.352 N 
HETATM   24  H   UNL     1      -5.827   0.038 -34.656  1.00  0.00     0.163 HD
HETATM   25  O   UNL     1      -6.695  -0.124 -31.610  1.00  0.00    -0.267 OA
BRANCH  23  26
HETATM   26  C   UNL     1      -5.849  -1.887 -33.761  1.00  0.00     0.084 C 
HETATM   27  C   UNL     1      -6.974  -2.532 -34.579  1.00  0.00     0.025 C 
HETATM   28  C   UNL     1      -6.995  -4.061 -34.553  1.00  0.00     0.002 C 
HETATM   29  C   UNL     1      -5.864  -4.681 -35.365  1.00  0.00     0.000 C 
HETATM   30  C   UNL     1      -4.553  -4.875 -34.609  1.00  0.00     0.000 C 
HETATM   31  C   UNL     1      -4.123  -3.759 -33.662  1.00  0.00     0.002 C 
HETATM   32  C   UNL     1      -4.430  -2.341 -34.137  1.00  0.00     0.025 C 
ENDBRANCH  23  26
ENDBRANCH   4  22
BRANCH   6  33
HETATM   33  C   UNL     1      -9.248   3.955 -34.342  1.00  0.00     0.089 A 
HETATM   34  C   UNL     1     -10.293   4.668 -33.522  1.00  0.00     0.028 A 
HETATM   35  C   UNL     1      -9.592   5.393 -34.629  1.00  0.00     0.028 A 
ENDBRANCH   6  33
TORSDOF 7
ENDMDL
MODEL 2
REMARK VINA RESULT:      -9.0      2.413      3.337
REMARK  7 active torsions:
REMARK  status: ('A' for Active; 'I' for Inactive)
REMARK    1  A    between atoms: C_2  and  N_3 
REMARK    2  A    between atoms: C_2  and  C_26 
REMARK       I    between atoms: N_3  and  C_4 
REMARK    3  A    between atoms: C_4  and  C_5 
REMARK    4  A    between atoms: C_8  and  C_9 
REMARK       I    between atoms: C_9  and  N_10 
REMARK    5  A    between atoms: N_10  and  C_11 
REMARK    6  A    between atoms: N_20  and  C_21 
REMARK    7  A    between atoms: C_29  and  O_30 
ROOT
HETATM    1  C   UNL     1      -3.528   4.789 -31.332  1.00  0.00     0.098 A 
HETATM    2  C   UNL     1      -3.672   3.301 -31.283  1.00  0.00     0.206 A 
HETATM    3  O   UNL     1      -2.680   2.570 -31.244  1.00  0.00    -0.286 OA
HETATM    4  C   UNL     1      -5.049   2.719 -31.307  1.00  0.00     0.098 A 
HETATM    5  C   UNL     1      -6.076   3.585 -31.255  1.00  0.00     0.112 A 
HETATM    6  N   UNL     1      -5.920   4.954 -31.170  1.00  0.00    -0.360 N 
HETATM    7  C   UNL     1      -4.662   5.509 -31.274  1.00  0.00     0.112 A 
ENDROOT
BRANCH   1   8
HETATM    8  C   UNL     1      -2.233   5.511 -31.468  1.00  0.00     0.257 C 
HETATM    9  N   UNL     1      -1.382   5.392 -30.401  1.00  0.00    -0.348 N 
HETATM   10  H   UNL     1      -1.672   4.820 -29.612  1.00  0.00     0.163 HD
HETATM   11  O   UNL     1      -1.955   6.150 -32.479  1.00  0.00    -0.267 OA
BRANCH   9  12
HETATM   12  C   UNL     1      -0.022   5.902 -30.418  1.00  0.00     0.114 C 
HETATM   13  C   UNL     1       0.980   4.780 -30.700  1.00  0.00     0.037 C 
BRANCH  12  14
HETATM   14  C   UNL     1       0.302   6.607 -29.113  1.00  0.00    -0.036 A 
HETATM   15  C   UNL     1      -0.047   6.014 -27.894  1.00  0.00     0.012 A 
HETATM   16  C   UNL     1       0.237   6.652 -26.683  1.00  0.00     0.037 A 
HETATM   17  C   UNL     1       0.882   7.890 -26.664  1.00  0.00     0.068 A 
HETATM   18  C   UNL     1       1.229   8.494 -27.872  1.00  0.00     0.037 A 
HETATM   19  C   UNL     1       0.938   7.860 -29.086  1.00  0.00     0.012 A 
BRANCH  17  20
HETATM   20  O   UNL     1       1.105   8.400 -25.415  1.00  0.00    -0.356 OA
HETATM   21  C   UNL     1       2.453   8.699 -25.075  1.00  0.00     0.210 C 
ENDBRANCH  17  20
ENDBRANCH  12  14
ENDBRANCH   9  12
ENDBRANCH   1   8
BRANCH   4  22
HETATM   22  C   UNL     1      -5.352   1.263 -31.403  1.00  0.00     0.257 C 
HETATM   23  N   UNL     1      -4.875   0.645 -32.533  1.00  0.00    -0.352 N 
HETATM   24  H   UNL     1      -4.453   1.239 -33.246  1.00  0.00     0.163 HD
HETATM   25  O   UNL     1      -5.987   0.688 -30.525  1.00  0.00    -0.267 OA
BRANCH  23  26
HETATM   26  C   UNL     1      -5.154  -0.738 -32.917  1.00  0.00     0.084 C 
HETATM   27  C   UNL     1      -6.260  -0.831 -33.975  1.00  0.00     0.025 C 
HETATM   28  C   UNL     1      -6.668  -2.254 -34.359  1.00  0.00     0.002 C 
HETATM   29  C   UNL     1      -5.614  -2.964 -35.201  1.00  0.00     0.000 C 
HETATM   30  C   UNL     1      -4.531  -3.690 -34.409  1.00  0.00     0.000 C 
HETATM   31  C   UNL     1      -3.991  -2.993 -33.165  1.00  0.00     0.002 C 
HETATM   32  C   UNL     1      -3.853  -1.476 -33.271  1.00  0.00     0.025 C 
ENDBRANCH  23  26
ENDBRANCH   4  22
BRANCH   6  33
HETATM   33  C   UNL     1      -7.104   5.821 -31.207  1.00  0.00     0.089 A 
HETATM   34  C   UNL     1      -7.746   6.330 -29.942  1.00  0.00     0.028 A 
HETATM   35  C   UNL     1      -7.029   7.283 -30.849  1.00  0.00     0.028 A 
ENDBRANCH   6  33
TORSDOF 7
ENDMDL
MODEL 3
REMARK VINA RESULT:      -9.0      2.468      7.712
REMARK  7 active torsions:
REMARK  status: ('A' for Active; 'I' for Inactive)
REMARK    1  A    between atoms: C_2  and  N_3 
REMARK    2  A    between atoms: C_2  and  C_26 
REMARK       I    between atoms: N_3  and  C_4 
REMARK    3  A    between atoms: C_4  and  C_5 
REMARK    4  A    between atoms: C_8  and  C_9 
REMARK       I    between atoms: C_9  and  N_10 
REMARK    5  A    between atoms: N_10  and  C_11 
REMARK    6  A    between atoms: N_20  and  C_21 
REMARK    7  A    between atoms: C_29  and  O_30 
ROOT
HETATM    1  C   UNL     1      -6.269   3.692 -33.238  1.00  0.00     0.098 A 
HETATM    2  C   UNL     1      -6.237   2.199 -33.318  1.00  0.00     0.206 A 
HETATM    3  O   UNL     1      -7.187   1.571 -33.791  1.00  0.00    -0.286 OA
HETATM    4  C   UNL     1      -5.036   1.484 -32.788  1.00  0.00     0.098 A 
HETATM    5  C   UNL     1      -4.007   2.246 -32.377  1.00  0.00     0.112 A 
HETATM    6  N   UNL     1      -4.006   3.625 -32.431  1.00  0.00    -0.360 N 
HETATM    7  C   UNL     1      -5.152   4.299 -32.798  1.00  0.00     0.112 A 
ENDROOT
BRANCH   1   8
HETATM    8  C   UNL     1      -7.448   4.535 -33.579  1.00  0.00     0.257 C 
HETATM    9  N   UNL     1      -8.666   3.987 -33.276  1.00  0.00    -0.348 N 
HETATM   10  H   UNL     1      -8.688   3.071 -32.834  1.00  0.00     0.163 HD
HETATM   11  O   UNL     1      -7.321   5.649 -34.080  1.00  0.00    -0.267 OA
BRANCH   9  12
HETATM   12  C   UNL     1      -9.914   4.721 -33.399  1.00  0.00     0.114 C 
HETATM   13  C   UNL     1     -10.296   5.377 -32.070  1.00  0.00     0.037 C 
BRANCH  12  14
HETATM   14  C   UNL     1     -11.023   3.812 -33.898  1.00  0.00    -0.036 A 
HETATM   15  C   UNL     1     -11.746   3.029 -32.989  1.00  0.00     0.012 A 
HETATM   16  C   UNL     1     -12.766   2.182 -33.432  1.00  0.00     0.037 A 
HETATM   17  C   UNL     1     -13.090   2.105 -34.787  1.00  0.00     0.068 A 
HETATM   18  C   UNL     1     -12.373   2.875 -35.702  1.00  0.00     0.037 A 
HETATM   19  C   UNL     1     -11.346   3.718 -35.262  1.00  0.00     0.012 A 
BRANCH  17  20
HETATM   20  O   UNL     1     -14.110   1.243 -35.084  1.00  0.00    -0.356 OA
HETATM   21  C   UNL     1     -14.979   0.886 -34.016  1.00  0.00     0.210 C 
ENDBRANCH  17  20
ENDBRANCH  12  14
ENDBRANCH   9  12
ENDBRANCH   1   8
BRANCH   4  22
HETATM   22  C   UNL     1      -4.915   0.004 -32.671  1.00  0.00     0.257 C 
HETATM   23  N   UNL     1      -5.436  -0.706 -33.725  1.00  0.00    -0.352 N 
HETATM   24  H   UNL     1      -5.944  -0.180 -34.435  1.00  0.00     0.163 HD
HETATM   25  O   UNL     1      -4.388  -0.515 -31.691  1.00  0.00    -0.267 OA
BRANCH  23  26
HETATM   26  C   UNL     1      -5.555  -2.163 -33.782  1.00  0.00     0.084 C 
HETATM   27  C   UNL     1      -6.835  -2.609 -34.500  1.00  0.00     0.025 C 
HETATM   28  C   UNL     1      -7.071  -4.120 -34.517  1.00  0.00     0.002 C 
HETATM   29  C   UNL     1      -6.123  -4.855 -35.459  1.00  0.00     0.000 C 
HETATM   30  C   UNL     1      -4.787  -5.261 -34.847  1.00  0.00     0.000 C 
HETATM   31  C   UNL     1      -4.112  -4.259 -33.916  1.00  0.00     0.002 C 
HETATM   32  C   UNL     1      -4.259  -2.793 -34.315  1.00  0.00     0.025 C 
ENDBRANCH  23  26
ENDBRANCH   4  22
BRANCH   6  33
HETATM   33  C   UNL     1      -2.870   4.371 -31.876  1.00  0.00     0.089 A 
HETATM   34  C   UNL     1      -1.725   4.823 -32.746  1.00  0.00     0.028 A 
HETATM   35  C   UNL     1      -2.664   5.835 -32.164  1.00  0.00     0.028 A 
ENDBRANCH   6  33
TORSDOF 7
ENDMDL
MODEL 4
REMARK VINA RESULT:      -8.6      2.412      5.097
REMARK  7 active torsions:
REMARK  status: ('A' for Active; 'I' for Inactive)
REMARK    1  A    between atoms: C_2  and  N_3 
REMARK    2  A    between atoms: C_2  and  C_26 
REMARK       I    between atoms: N_3  and  C_4 
REMARK    3  A    between atoms: C_4  and  C_5 
REMARK    4  A    between atoms: C_8  and  C_9 
REMARK       I    between atoms: C_9  and  N_10 
REMARK    5  A    between atoms: N_10  and  C_11 
REMARK    6  A    between atoms: N_20  and  C_21 
REMARK    7  A    between atoms: C_29  and  O_30 
ROOT
HETATM    1  C   UNL     1      -4.720   3.144 -32.897  1.00  0.00     0.098 A 
HETATM    2  C   UNL     1      -5.925   2.862 -33.737  1.00  0.00     0.206 A 
HETATM    3  O   UNL     1      -6.416   3.738 -34.452  1.00  0.00    -0.286 OA
HETATM    4  C   UNL     1      -6.534   1.499 -33.670  1.00  0.00     0.098 A 
HETATM    5  C   UNL     1      -5.883   0.577 -32.939  1.00  0.00     0.112 A 
HETATM    6  N   UNL     1      -4.699   0.823 -32.274  1.00  0.00    -0.360 N 
HETATM    7  C   UNL     1      -4.194   2.106 -32.223  1.00  0.00     0.112 A 
ENDROOT
BRANCH   1   8
HETATM    8  C   UNL     1      -4.092   4.485 -32.737  1.00  0.00     0.257 C 
HETATM    9  N   UNL     1      -2.811   4.592 -33.210  1.00  0.00    -0.348 N 
HETATM   10  H   UNL     1      -2.386   3.776 -33.644  1.00  0.00     0.163 HD
HETATM   11  O   UNL     1      -4.700   5.425 -32.230  1.00  0.00    -0.267 OA
BRANCH   9  12
HETATM   12  C   UNL     1      -2.098   5.856 -33.275  1.00  0.00     0.114 C 
HETATM   13  C   UNL     1      -1.154   5.890 -34.479  1.00  0.00     0.037 C 
BRANCH  12  14
HETATM   14  C   UNL     1      -1.344   6.111 -31.982  1.00  0.00    -0.036 A 
HETATM   15  C   UNL     1      -0.353   5.215 -31.563  1.00  0.00     0.012 A 
HETATM   16  C   UNL     1       0.347   5.431 -30.372  1.00  0.00     0.037 A 
HETATM   17  C   UNL     1       0.078   6.549 -29.581  1.00  0.00     0.068 A 
HETATM   18  C   UNL     1      -0.911   7.445 -29.984  1.00  0.00     0.037 A 
HETATM   19  C   UNL     1      -1.617   7.226 -31.172  1.00  0.00     0.012 A 
BRANCH  17  20
HETATM   20  O   UNL     1       0.838   6.644 -28.447  1.00  0.00    -0.356 OA
HETATM   21  C   UNL     1       0.179   6.399 -27.211  1.00  0.00     0.210 C 
ENDBRANCH  17  20
ENDBRANCH  12  14
ENDBRANCH   9  12
ENDBRANCH   1   8
BRANCH   4  22
HETATM   22  C   UNL     1      -7.808   1.107 -34.336  1.00  0.00     0.257 C 
HETATM   23  N   UNL     1      -8.936   1.701 -33.825  1.00  0.00    -0.352 N 
HETATM   24  H   UNL     1      -8.824   2.268 -32.985  1.00  0.00     0.163 HD
HETATM   25  O   UNL     1      -7.819   0.306 -35.265  1.00  0.00    -0.267 OA
BRANCH  23  26
HETATM   26  C   UNL     1     -10.308   1.381 -34.219  1.00  0.00     0.084 C 
HETATM   27  C   UNL     1     -10.988   0.435 -33.222  1.00  0.00     0.025 C 
HETATM   28  C   UNL     1     -12.396  -0.014 -33.618  1.00  0.00     0.002 C 
HETATM   29  C   UNL     1     -13.431   1.097 -33.480  1.00  0.00     0.000 C 
HETATM   30  C   UNL     1     -13.581   1.999 -34.701  1.00  0.00     0.000 C 
HETATM   31  C   UNL     1     -12.304   2.403 -35.430  1.00  0.00     0.002 C 
HETATM   32  C   UNL     1     -11.093   2.663 -34.538  1.00  0.00     0.025 C 
ENDBRANCH  23  26
ENDBRANCH   4  22
BRANCH   6  33
HETATM   33  C   UNL     1      -4.111  -0.224 -31.430  1.00  0.00     0.089 A 
HETATM   34  C   UNL     1      -3.523  -1.478 -32.026  1.00  0.00     0.028 A 
HETATM   35  C   UNL     1      -2.625  -0.466 -31.383  1.00  0.00     0.028 A 
ENDBRANCH   6  33
TORSDOF 7
ENDMDL
MODEL 5
REMARK VINA RESULT:      -8.5      2.309      8.914
REMARK  7 active torsions:
REMARK  status: ('A' for Active; 'I' for Inactive)
REMARK    1  A    between atoms: C_2  and  N_3 
REMARK    2  A    between atoms: C_2  and  C_26 
REMARK       I    between atoms: N_3  and  C_4 
REMARK    3  A    between atoms: C_4  and  C_5 
REMARK    4  A    between atoms: C_8  and  C_9 
REMARK       I    between atoms: C_9  and  N_10 
REMARK    5  A    between atoms: N_10  and  C_11 
REMARK    6  A    between atoms: N_20  and  C_21 
REMARK    7  A    between atoms: C_29  and  O_30 
ROOT
HETATM    1  C   UNL     1      -7.664   1.419 -32.173  1.00  0.00     0.098 A 
HETATM    2  C   UNL     1      -6.429   2.192 -31.831  1.00  0.00     0.206 A 
HETATM    3  O   UNL     1      -6.505   3.313 -31.324  1.00  0.00    -0.286 OA
HETATM    4  C   UNL     1      -5.100   1.582 -32.143  1.00  0.00     0.098 A 
HETATM    5  C   UNL     1      -5.105   0.321 -32.608  1.00  0.00     0.112 A 
HETATM    6  N   UNL     1      -6.252  -0.423 -32.795  1.00  0.00    -0.360 N 
HETATM    7  C   UNL     1      -7.487   0.168 -32.632  1.00  0.00     0.112 A 
ENDROOT
BRANCH   1   8
HETATM    8  C   UNL     1      -9.052   1.948 -32.066  1.00  0.00     0.257 C 
HETATM    9  N   UNL     1      -9.798   1.867 -33.212  1.00  0.00    -0.348 N 
HETATM   10  H   UNL     1      -9.375   1.446 -34.037  1.00  0.00     0.163 HD
HETATM   11  O   UNL     1      -9.488   2.406 -31.014  1.00  0.00    -0.267 OA
BRANCH   9  12
HETATM   12  C   UNL     1     -11.213   2.194 -33.256  1.00  0.00     0.114 C 
HETATM   13  C   UNL     1     -12.014   1.072 -33.921  1.00  0.00     0.037 C 
BRANCH  12  14
HETATM   14  C   UNL     1     -11.434   3.517 -33.967  1.00  0.00    -0.036 A 
HETATM   15  C   UNL     1     -10.394   4.094 -34.709  1.00  0.00     0.012 A 
HETATM   16  C   UNL     1     -10.579   5.314 -35.365  1.00  0.00     0.037 A 
HETATM   17  C   UNL     1     -11.804   5.980 -35.300  1.00  0.00     0.068 A 
HETATM   18  C   UNL     1     -12.844   5.419 -34.560  1.00  0.00     0.037 A 
HETATM   19  C   UNL     1     -12.659   4.201 -33.897  1.00  0.00     0.012 A 
BRANCH  17  20
HETATM   20  O   UNL     1     -11.851   7.160 -35.991  1.00  0.00    -0.356 OA
HETATM   21  C   UNL     1     -10.863   8.130 -35.673  1.00  0.00     0.210 C 
ENDBRANCH  17  20
ENDBRANCH  12  14
ENDBRANCH   9  12
ENDBRANCH   1   8
BRANCH   4  22
HETATM   22  C   UNL     1      -3.792   2.279 -31.992  1.00  0.00     0.257 C 
HETATM   23  N   UNL     1      -3.677   3.455 -32.692  1.00  0.00    -0.352 N 
HETATM   24  H   UNL     1      -4.439   3.697 -33.325  1.00  0.00     0.163 HD
HETATM   25  O   UNL     1      -2.901   1.810 -31.291  1.00  0.00    -0.267 OA
BRANCH  23  26
HETATM   26  C   UNL     1      -2.454   4.249 -32.809  1.00  0.00     0.084 C 
HETATM   27  C   UNL     1      -2.416   5.060 -34.109  1.00  0.00     0.025 C 
HETATM   28  C   UNL     1      -1.123   5.845 -34.341  1.00  0.00     0.002 C 
HETATM   29  C   UNL     1      -0.994   7.055 -33.423  1.00  0.00     0.000 C 
HETATM   30  C   UNL     1      -0.357   6.773 -32.066  1.00  0.00     0.000 C 
HETATM   31  C   UNL     1      -0.752   5.478 -31.364  1.00  0.00     0.002 C 
HETATM   32  C   UNL     1      -2.212   5.063 -31.528  1.00  0.00     0.025 C 
ENDBRANCH  23  26
ENDBRANCH   4  22
BRANCH   6  33
HETATM   33  C   UNL     1      -6.158  -1.762 -33.392  1.00  0.00     0.089 A 
HETATM   34  C   UNL     1      -6.182  -1.960 -34.886  1.00  0.00     0.028 A 
HETATM   35  C   UNL     1      -4.922  -2.222 -34.120  1.00  0.00     0.028 A 
ENDBRANCH   6  33
TORSDOF 7
ENDMDL
MODEL 6
REMARK VINA RESULT:      -8.3      1.583      2.008
REMARK  7 active torsions:
REMARK  status: ('A' for Active; 'I' for Inactive)
REMARK    1  A    between atoms: C_2  and  N_3 
REMARK    2  A    between atoms: C_2  and  C_26 
REMARK       I    between atoms: N_3  and  C_4 
REMARK    3  A    between atoms: C_4  and  C_5 
REMARK    4  A    between atoms: C_8  and  C_9 
REMARK       I    between atoms: C_9  and  N_10 
REMARK    5  A    between atoms: N_10  and  C_11 
REMARK    6  A    between atoms: N_20  and  C_21 
REMARK    7  A    between atoms: C_29  and  O_30 
ROOT
HETATM    1  C   UNL     1      -5.067   3.945 -31.607  1.00  0.00     0.098 A 
HETATM    2  C   UNL     1      -4.628   2.530 -31.817  1.00  0.00     0.206 A 
HETATM    3  O   UNL     1      -3.432   2.230 -31.801  1.00  0.00    -0.286 OA
HETATM    4  C   UNL     1      -5.673   1.492 -32.070  1.00  0.00     0.098 A 
HETATM    5  C   UNL     1      -6.955   1.885 -31.976  1.00  0.00     0.112 A 
HETATM    6  N   UNL     1      -7.341   3.170 -31.654  1.00  0.00    -0.360 N 
HETATM    7  C   UNL     1      -6.391   4.165 -31.543  1.00  0.00     0.112 A 
ENDROOT
BRANCH   1   8
HETATM    8  C   UNL     1      -4.147   5.111 -31.496  1.00  0.00     0.257 C 
HETATM    9  N   UNL     1      -2.974   4.999 -32.196  1.00  0.00    -0.348 N 
HETATM   10  H   UNL     1      -2.817   4.158 -32.746  1.00  0.00     0.163 HD
HETATM   11  O   UNL     1      -4.440   6.103 -30.834  1.00  0.00    -0.267 OA
BRANCH   9  12
HETATM   12  C   UNL     1      -2.027   6.093 -32.326  1.00  0.00     0.114 C 
HETATM   13  C   UNL     1      -1.154   5.916 -33.570  1.00  0.00     0.037 C 
BRANCH  12  14
HETATM   14  C   UNL     1      -1.176   6.215 -31.075  1.00  0.00    -0.036 A 
HETATM   15  C   UNL     1      -1.241   7.378 -30.297  1.00  0.00     0.012 A 
HETATM   16  C   UNL     1      -0.460   7.510 -29.146  1.00  0.00     0.037 A 
HETATM   17  C   UNL     1       0.396   6.483 -28.743  1.00  0.00     0.068 A 
HETATM   18  C   UNL     1       0.474   5.324 -29.513  1.00  0.00     0.037 A 
HETATM   19  C   UNL     1      -0.302   5.192 -30.670  1.00  0.00     0.012 A 
BRANCH  17  20
HETATM   20  O   UNL     1       1.098   6.738 -27.597  1.00  0.00    -0.356 OA
HETATM   21  C   UNL     1       1.473   8.089 -27.361  1.00  0.00     0.210 C 
ENDBRANCH  17  20
ENDBRANCH  12  14
ENDBRANCH   9  12
ENDBRANCH   1   8
BRANCH   4  22
HETATM   22  C   UNL     1      -5.389   0.075 -32.432  1.00  0.00     0.257 C 
HETATM   23  N   UNL     1      -5.486  -0.212 -33.771  1.00  0.00    -0.352 N 
HETATM   24  H   UNL     1      -5.838   0.525 -34.381  1.00  0.00     0.163 HD
HETATM   25  O   UNL     1      -5.098  -0.753 -31.574  1.00  0.00    -0.267 OA
BRANCH  23  26
HETATM   26  C   UNL     1      -5.384  -1.550 -34.354  1.00  0.00     0.084 C 
HETATM   27  C   UNL     1      -4.124  -2.288 -33.888  1.00  0.00     0.025 C 
HETATM   28  C   UNL     1      -3.905  -3.659 -34.529  1.00  0.00     0.002 C 
HETATM   29  C   UNL     1      -4.879  -4.714 -34.015  1.00  0.00     0.000 C 
HETATM   30  C   UNL     1      -6.208  -4.787 -34.760  1.00  0.00     0.000 C 
HETATM   31  C   UNL     1      -6.853  -3.467 -35.167  1.00  0.00     0.002 C 
HETATM   32  C   UNL     1      -6.698  -2.325 -34.167  1.00  0.00     0.025 C 
ENDBRANCH  23  26
ENDBRANCH   4  22
BRANCH   6  33
HETATM   33  C   UNL     1      -8.766   3.523 -31.664  1.00  0.00     0.089 A 
HETATM   34  C   UNL     1      -9.570   3.587 -30.390  1.00  0.00     0.028 A 
HETATM   35  C   UNL     1      -9.261   4.847 -31.140  1.00  0.00     0.028 A 
ENDBRANCH   6  33
TORSDOF 7
ENDMDL
MODEL 7
REMARK VINA RESULT:      -8.2      4.543      9.665
REMARK  7 active torsions:
REMARK  status: ('A' for Active; 'I' for Inactive)
REMARK    1  A    between atoms: C_2  and  N_3 
REMARK    2  A    between atoms: C_2  and  C_26 
REMARK       I    between atoms: N_3  and  C_4 
REMARK    3  A    between atoms: C_4  and  C_5 
REMARK    4  A    between atoms: C_8  and  C_9 
REMARK       I    between atoms: C_9  and  N_10 
REMARK    5  A    between atoms: N_10  and  C_11 
REMARK    6  A    between atoms: N_20  and  C_21 
REMARK    7  A    between atoms: C_29  and  O_30 
ROOT
HETATM    1  C   UNL     1     -10.314   2.335 -33.632  1.00  0.00     0.098 A 
HETATM    2  C   UNL     1     -10.428   3.743 -34.123  1.00  0.00     0.206 A 
HETATM    3  O   UNL     1      -9.483   4.529 -34.016  1.00  0.00    -0.286 OA
HETATM    4  C   UNL     1     -11.723   4.184 -34.725  1.00  0.00     0.098 A 
HETATM    5  C   UNL     1     -12.668   3.242 -34.890  1.00  0.00     0.112 A 
HETATM    6  N   UNL     1     -12.496   1.916 -34.548  1.00  0.00    -0.360 N 
HETATM    7  C   UNL     1     -11.357   1.523 -33.877  1.00  0.00     0.112 A 
ENDROOT
BRANCH   1   8
HETATM    8  C   UNL     1      -9.152   1.792 -32.875  1.00  0.00     0.257 C 
HETATM    9  N   UNL     1      -7.980   1.714 -33.579  1.00  0.00    -0.348 N 
HETATM   10  H   UNL     1      -7.972   2.038 -34.544  1.00  0.00     0.163 HD
HETATM   11  O   UNL     1      -9.250   1.458 -31.697  1.00  0.00    -0.267 OA
BRANCH   9  12
HETATM   12  C   UNL     1      -6.714   1.351 -32.965  1.00  0.00     0.114 C 
HETATM   13  C   UNL     1      -5.655   2.426 -33.220  1.00  0.00     0.037 C 
BRANCH  12  14
HETATM   14  C   UNL     1      -6.247  -0.005 -33.463  1.00  0.00    -0.036 A 
HETATM   15  C   UNL     1      -7.121  -0.820 -34.193  1.00  0.00     0.012 A 
HETATM   16  C   UNL     1      -6.709  -2.074 -34.653  1.00  0.00     0.037 A 
HETATM   17  C   UNL     1      -5.417  -2.537 -34.401  1.00  0.00     0.068 A 
HETATM   18  C   UNL     1      -4.540  -1.737 -33.670  1.00  0.00     0.037 A 
HETATM   19  C   UNL     1      -4.953  -0.484 -33.201  1.00  0.00     0.012 A 
BRANCH  17  20
HETATM   20  O   UNL     1      -5.143  -3.776 -34.912  1.00  0.00    -0.356 OA
HETATM   21  C   UNL     1      -6.257  -4.596 -35.241  1.00  0.00     0.210 C 
ENDBRANCH  17  20
ENDBRANCH  12  14
ENDBRANCH   9  12
ENDBRANCH   1   8
BRANCH   4  22
HETATM   22  C   UNL     1     -12.036   5.583 -35.132  1.00  0.00     0.257 C 
HETATM   23  N   UNL     1     -10.964   6.305 -35.595  1.00  0.00    -0.352 N 
HETATM   24  H   UNL     1     -10.045   5.870 -35.528  1.00  0.00     0.163 HD
HETATM   25  O   UNL     1     -13.175   6.030 -35.041  1.00  0.00    -0.267 OA
BRANCH  23  26
HETATM   26  C   UNL     1     -10.990   7.730 -35.927  1.00  0.00     0.084 C 
HETATM   27  C   UNL     1     -10.711   8.612 -34.704  1.00  0.00     0.025 C 
HETATM   28  C   UNL     1     -10.811  10.116 -34.958  1.00  0.00     0.002 C 
HETATM   29  C   UNL     1      -9.647  10.655 -35.783  1.00  0.00     0.000 C 
HETATM   30  C   UNL     1      -9.833  10.579 -37.294  1.00  0.00     0.000 C 
HETATM   31  C   UNL     1     -10.483   9.318 -37.855  1.00  0.00     0.002 C 
HETATM   32  C   UNL     1     -10.105   8.017 -37.150  1.00  0.00     0.025 C 
ENDBRANCH  23  26
ENDBRANCH   4  22
BRANCH   6  33
HETATM   33  C   UNL     1     -13.620   0.981 -34.684  1.00  0.00     0.089 A 
HETATM   34  C   UNL     1     -13.970   0.007 -33.588  1.00  0.00     0.028 A 
HETATM   35  C   UNL     1     -14.892   1.147 -33.895  1.00  0.00     0.028 A 
ENDBRANCH   6  33
TORSDOF 7
ENDMDL
MODEL 8
REMARK VINA RESULT:      -7.9      2.562      5.436
REMARK  7 active torsions:
REMARK  status: ('A' for Active; 'I' for Inactive)
REMARK    1  A    between atoms: C_2  and  N_3 
REMARK    2  A    between atoms: C_2  and  C_26 
REMARK       I    between atoms: N_3  and  C_4 
REMARK    3  A    between atoms: C_4  and  C_5 
REMARK    4  A    between atoms: C_8  and  C_9 
REMARK       I    between atoms: C_9  and  N_10 
REMARK    5  A    between atoms: N_10  and  C_11 
REMARK    6  A    between atoms: N_20  and  C_21 
REMARK    7  A    between atoms: C_29  and  O_30 
ROOT
HETATM    1  C   UNL     1      -3.554   3.496 -32.225  1.00  0.00     0.098 A 
HETATM    2  C   UNL     1      -4.994   3.837 -32.451  1.00  0.00     0.206 A 
HETATM    3  O   UNL     1      -5.321   4.943 -32.885  1.00  0.00    -0.286 OA
HETATM    4  C   UNL     1      -6.028   2.811 -32.114  1.00  0.00     0.098 A 
HETATM    5  C   UNL     1      -5.582   1.600 -31.737  1.00  0.00     0.112 A 
HETATM    6  N   UNL     1      -4.246   1.265 -31.659  1.00  0.00    -0.360 N 
HETATM    7  C   UNL     1      -3.283   2.236 -31.843  1.00  0.00     0.112 A 
ENDROOT
BRANCH   1   8
HETATM    8  C   UNL     1      -2.424   4.455 -32.365  1.00  0.00     0.257 C 
HETATM    9  N   UNL     1      -1.845   4.852 -31.189  1.00  0.00    -0.348 N 
HETATM   10  H   UNL     1      -2.202   4.465 -30.319  1.00  0.00     0.163 HD
HETATM   11  O   UNL     1      -2.038   4.840 -33.466  1.00  0.00    -0.267 OA
BRANCH   9  12
HETATM   12  C   UNL     1      -0.640   5.663 -31.138  1.00  0.00     0.114 C 
HETATM   13  C   UNL     1       0.596   4.792 -30.907  1.00  0.00     0.037 C 
BRANCH  12  14
HETATM   14  C   UNL     1      -0.761   6.734 -30.069  1.00  0.00    -0.036 A 
HETATM   15  C   UNL     1       0.386   7.202 -29.416  1.00  0.00     0.012 A 
HETATM   16  C   UNL     1       0.292   8.183 -28.425  1.00  0.00     0.037 A 
HETATM   17  C   UNL     1      -0.945   8.721 -28.069  1.00  0.00     0.068 A 
HETATM   18  C   UNL     1      -2.095   8.259 -28.707  1.00  0.00     0.037 A 
HETATM   19  C   UNL     1      -2.004   7.271 -29.695  1.00  0.00     0.012 A 
BRANCH  17  20
HETATM   20  O   UNL     1      -0.895   9.676 -27.091  1.00  0.00    -0.356 OA
HETATM   21  C   UNL     1      -0.798   9.216 -25.749  1.00  0.00     0.210 C 
ENDBRANCH  17  20
ENDBRANCH  12  14
ENDBRANCH   9  12
ENDBRANCH   1   8
BRANCH   4  22
HETATM   22  C   UNL     1      -7.498   3.047 -32.153  1.00  0.00     0.257 C 
HETATM   23  N   UNL     1      -8.172   2.354 -33.127  1.00  0.00    -0.352 N 
HETATM   24  H   UNL     1      -7.611   1.827 -33.796  1.00  0.00     0.163 HD
HETATM   25  O   UNL     1      -8.038   3.815 -31.362  1.00  0.00    -0.267 OA
BRANCH  23  26
HETATM   26  C   UNL     1      -9.590   2.516 -33.449  1.00  0.00     0.084 C 
HETATM   27  C   UNL     1      -9.838   3.722 -34.364  1.00  0.00     0.025 C 
HETATM   28  C   UNL     1     -11.310   4.006 -34.669  1.00  0.00     0.002 C 
HETATM   29  C   UNL     1     -11.925   2.985 -35.619  1.00  0.00     0.000 C 
HETATM   30  C   UNL     1     -12.500   1.741 -34.950  1.00  0.00     0.000 C 
HETATM   31  C   UNL     1     -11.707   1.141 -33.794  1.00  0.00     0.002 C 
HETATM   32  C   UNL     1     -10.189   1.191 -33.944  1.00  0.00     0.025 C 
ENDBRANCH  23  26
ENDBRANCH   4  22
BRANCH   6  33
HETATM   33  C   UNL     1      -3.858  -0.057 -31.150  1.00  0.00     0.089 A 
HETATM   34  C   UNL     1      -4.001  -1.297 -31.995  1.00  0.00     0.028 A 
HETATM   35  C   UNL     1      -2.637  -0.777 -31.660  1.00  0.00     0.028 A 
ENDBRANCH   6  33
TORSDOF 7
ENDMDL
MODEL 9
REMARK VINA RESULT:      -7.9     17.111     20.702
REMARK  7 active torsions:
REMARK  status: ('A' for Active; 'I' for Inactive)
REMARK    1  A    between atoms: C_2  and  N_3 
REMARK    2  A    between atoms: C_2  and  C_26 
REMARK       I    between atoms: N_3  and  C_4 
REMARK    3  A    between atoms: C_4  and  C_5 
REMARK    4  A    between atoms: C_8  and  C_9 
REMARK       I    between atoms: C_9  and  N_10 
REMARK    5  A    between atoms: N_10  and  C_11 
REMARK    6  A    between atoms: N_20  and  C_21 
REMARK    7  A    between atoms: C_29  and  O_30 
ROOT
HETATM    1  C   UNL     1      -3.244 -13.654 -39.268  1.00  0.00     0.098 A 
HETATM    2  C   UNL     1      -3.443 -14.378 -40.562  1.00  0.00     0.206 A 
HETATM    3  O   UNL     1      -4.540 -14.376 -41.125  1.00  0.00    -0.286 OA
HETATM    4  C   UNL     1      -2.286 -15.124 -41.145  1.00  0.00     0.098 A 
HETATM    5  C   UNL     1      -1.103 -14.996 -40.518  1.00  0.00     0.112 A 
HETATM    6  N   UNL     1      -0.911 -14.218 -39.395  1.00  0.00    -0.360 N 
HETATM    7  C   UNL     1      -1.993 -13.628 -38.776  1.00  0.00     0.112 A 
ENDROOT
BRANCH   1   8
HETATM    8  C   UNL     1      -4.329 -12.998 -38.488  1.00  0.00     0.257 C 
HETATM    9  N   UNL     1      -5.575 -13.545 -38.644  1.00  0.00    -0.348 N 
HETATM   10  H   UNL     1      -5.676 -14.353 -39.254  1.00  0.00     0.163 HD
HETATM   11  O   UNL     1      -4.104 -12.045 -37.746  1.00  0.00    -0.267 OA
BRANCH   9  12
HETATM   12  C   UNL     1      -6.721 -13.134 -37.852  1.00  0.00     0.114 C 
HETATM   13  C   UNL     1      -6.777 -13.903 -36.530  1.00  0.00     0.037 C 
BRANCH  12  14
HETATM   14  C   UNL     1      -8.007 -13.309 -38.640  1.00  0.00    -0.036 A 
HETATM   15  C   UNL     1      -8.595 -14.576 -38.744  1.00  0.00     0.012 A 
HETATM   16  C   UNL     1      -9.776 -14.756 -39.471  1.00  0.00     0.037 A 
HETATM   17  C   UNL     1     -10.396 -13.677 -40.102  1.00  0.00     0.068 A 
HETATM   18  C   UNL     1      -9.816 -12.412 -40.012  1.00  0.00     0.037 A 
HETATM   19  C   UNL     1      -8.631 -12.231 -39.290  1.00  0.00     0.012 A 
BRANCH  17  20
HETATM   20  O   UNL     1     -11.546 -13.990 -40.774  1.00  0.00    -0.356 OA
HETATM   21  C   UNL     1     -11.495 -15.110 -41.647  1.00  0.00     0.210 C 
ENDBRANCH  17  20
ENDBRANCH  12  14
ENDBRANCH   9  12
ENDBRANCH   1   8
BRANCH   4  22
HETATM   22  C   UNL     1      -2.363 -16.001 -42.347  1.00  0.00     0.257 C 
HETATM   23  N   UNL     1      -3.297 -15.625 -43.281  1.00  0.00    -0.352 N 
HETATM   24  H   UNL     1      -3.918 -14.855 -43.034  1.00  0.00     0.163 HD
HETATM   25  O   UNL     1      -1.636 -16.983 -42.463  1.00  0.00    -0.267 OA
BRANCH  23  26
HETATM   26  C   UNL     1      -3.650 -16.393 -44.474  1.00  0.00     0.084 C 
HETATM   27  C   UNL     1      -5.109 -16.171 -44.891  1.00  0.00     0.025 C 
HETATM   28  C   UNL     1      -5.575 -17.013 -46.080  1.00  0.00     0.002 C 
HETATM   29  C   UNL     1      -4.982 -16.545 -47.404  1.00  0.00     0.000 C 
HETATM   30  C   UNL     1      -3.624 -17.143 -47.754  1.00  0.00     0.000 C 
HETATM   31  C   UNL     1      -2.615 -17.294 -46.621  1.00  0.00     0.002 C 
HETATM   32  C   UNL     1      -2.616 -16.170 -45.588  1.00  0.00     0.025 C 
ENDBRANCH  23  26
ENDBRANCH   4  22
BRANCH   6  33
HETATM   33  C   UNL     1       0.399 -14.214 -38.732  1.00  0.00     0.089 A 
HETATM   34  C   UNL     1       0.862 -15.383 -37.899  1.00  0.00     0.028 A 
HETATM   35  C   UNL     1       1.532 -15.088 -39.206  1.00  0.00     0.028 A 
ENDBRANCH   6  33
TORSDOF 7
ENDMDL
MODEL 10
REMARK VINA RESULT:      -7.8      3.021      4.333
REMARK  7 active torsions:
REMARK  status: ('A' for Active; 'I' for Inactive)
REMARK    1  A    between atoms: C_2  and  N_3 
REMARK    2  A    between atoms: C_2  and  C_26 
REMARK       I    between atoms: N_3  and  C_4 
REMARK    3  A    between atoms: C_4  and  C_5 
REMARK    4  A    between atoms: C_8  and  C_9 
REMARK       I    between atoms: C_9  and  N_10 
REMARK    5  A    between atoms: N_10  and  C_11 
REMARK    6  A    between atoms: N_20  and  C_21 
REMARK    7  A    between atoms: C_29  and  O_30 
ROOT
HETATM    1  C   UNL     1      -4.373   4.549 -30.850  1.00  0.00     0.098 A 
HETATM    2  C   UNL     1      -4.782   3.111 -30.813  1.00  0.00     0.206 A 
HETATM    3  O   UNL     1      -5.600   2.707 -29.983  1.00  0.00    -0.286 OA
HETATM    4  C   UNL     1      -4.158   2.170 -31.793  1.00  0.00     0.098 A 
HETATM    5  C   UNL     1      -3.350   2.708 -32.723  1.00  0.00     0.112 A 
HETATM    6  N   UNL     1      -3.086   4.058 -32.819  1.00  0.00    -0.360 N 
HETATM    7  C   UNL     1      -3.553   4.920 -31.848  1.00  0.00     0.112 A 
ENDROOT
BRANCH   1   8
HETATM    8  C   UNL     1      -4.785   5.574 -29.850  1.00  0.00     0.257 C 
HETATM    9  N   UNL     1      -3.773   6.362 -29.369  1.00  0.00    -0.348 N 
HETATM   10  H   UNL     1      -2.832   6.213 -29.727  1.00  0.00     0.163 HD
HETATM   11  O   UNL     1      -5.957   5.702 -29.505  1.00  0.00    -0.267 OA
BRANCH   9  12
HETATM   12  C   UNL     1      -4.008   7.505 -28.505  1.00  0.00     0.114 C 
HETATM   13  C   UNL     1      -4.535   8.697 -29.307  1.00  0.00     0.037 C 
BRANCH  12  14
HETATM   14  C   UNL     1      -2.744   7.873 -27.748  1.00  0.00    -0.036 A 
HETATM   15  C   UNL     1      -2.330   7.094 -26.661  1.00  0.00     0.012 A 
HETATM   16  C   UNL     1      -1.172   7.421 -25.949  1.00  0.00     0.037 A 
HETATM   17  C   UNL     1      -0.401   8.527 -26.312  1.00  0.00     0.068 A 
HETATM   18  C   UNL     1      -0.807   9.313 -27.389  1.00  0.00     0.037 A 
HETATM   19  C   UNL     1      -1.970   8.992 -28.098  1.00  0.00     0.012 A 
BRANCH  17  20
HETATM   20  O   UNL     1       0.708   8.731 -25.537  1.00  0.00    -0.356 OA
HETATM   21  C   UNL     1       1.941   8.232 -26.038  1.00  0.00     0.210 C 
ENDBRANCH  17  20
ENDBRANCH  12  14
ENDBRANCH   9  12
ENDBRANCH   1   8
BRANCH   4  22
HETATM   22  C   UNL     1      -4.357   0.693 -31.793  1.00  0.00     0.257 C 
HETATM   23  N   UNL     1      -4.736   0.159 -32.999  1.00  0.00    -0.352 N 
HETATM   24  H   UNL     1      -4.946   0.812 -33.753  1.00  0.00     0.163 HD
HETATM   25  O   UNL     1      -4.193   0.031 -30.773  1.00  0.00    -0.267 OA
BRANCH  23  26
HETATM   26  C   UNL     1      -5.117  -1.236 -33.220  1.00  0.00     0.084 C 
HETATM   27  C   UNL     1      -6.302  -1.364 -34.186  1.00  0.00     0.025 C 
HETATM   28  C   UNL     1      -6.813  -2.791 -34.393  1.00  0.00     0.002 C 
HETATM   29  C   UNL     1      -5.863  -3.644 -35.228  1.00  0.00     0.000 C 
HETATM   30  C   UNL     1      -4.766  -4.353 -34.440  1.00  0.00     0.000 C 
HETATM   31  C   UNL     1      -4.099  -3.571 -33.313  1.00  0.00     0.002 C 
HETATM   32  C   UNL     1      -3.888  -2.083 -33.584  1.00  0.00     0.025 C 
ENDBRANCH  23  26
ENDBRANCH   4  22
BRANCH   6  33
HETATM   33  C   UNL     1      -2.119   4.539 -33.814  1.00  0.00     0.089 A 
HETATM   34  C   UNL     1      -2.402   5.752 -34.663  1.00  0.00     0.028 A 
HETATM   35  C   UNL     1      -1.336   5.810 -33.612  1.00  0.00     0.028 A 
ENDBRANCH   6  33
TORSDOF 7
ENDMDL
