MODEL 1
REMARK VINA RESULT:      -9.4      0.000      0.000
REMARK  6 active torsions:
REMARK  status: ('A' for Active; 'I' for Inactive)
REMARK    1  A    between atoms: C_4  and  O_5 
REMARK    2  A    between atoms: O_5  and  C_6 
REMARK    3  A    between atoms: C_6  and  C_7 
REMARK       I    between atoms: C_7  and  N_8 
REMARK    4  A    between atoms: N_8  and  C_9 
REMARK    5  A    between atoms: C_9  and  C_10 
REMARK       I    between atoms: C_10  and  N_11 
REMARK    6  A    between atoms: N_11  and  N_12 
ROOT
HETATM    1  C   UNL     1      -5.020   3.038 -33.208  1.00  0.00     0.255 C 
HETATM    2  N   UNL     1      -4.473   1.910 -32.627  1.00  0.00    -0.245 N 
HETATM    3  O   UNL     1      -5.970   3.032 -33.994  1.00  0.00    -0.270 OA
HETATM    4  H   UNL     1      -3.656   2.010 -32.023  1.00  0.00     0.192 HD
ENDROOT
BRANCH   1   5
HETATM    5  C   UNL     1      -4.425   4.364 -32.721  1.00  0.00     0.227 C 
BRANCH   5   6
HETATM    6  N   UNL     1      -3.057   4.711 -33.094  1.00  0.00    -0.350 N 
HETATM    7  C   UNL     1      -2.848   5.572 -34.160  1.00  0.00     0.242 C 
HETATM    8  O   UNL     1      -3.686   5.750 -35.039  1.00  0.00    -0.271 OA
HETATM    9  H   UNL     1      -2.425   4.860 -32.314  1.00  0.00     0.163 HD
BRANCH   7  10
HETATM   10  C   UNL     1      -1.495   6.269 -34.155  1.00  0.00     0.278 C 
BRANCH  10  11
HETATM   11  O   UNL     1      -1.744   7.619 -33.757  1.00  0.00    -0.342 OA
BRANCH  11  12
HETATM   12  C   UNL     1      -1.550   7.806 -32.415  1.00  0.00     0.069 A 
HETATM   13  C   UNL     1      -0.612   7.073 -31.688  1.00  0.00     0.043 A 
HETATM   14  C   UNL     1      -0.477   7.276 -30.309  1.00  0.00    -0.059 A 
HETATM   15  C   UNL     1       0.512   6.485 -29.505  1.00  0.00     0.048 C 
HETATM   16  C   UNL     1      -1.306   8.210 -29.671  1.00  0.00     0.007 A 
HETATM   17  C   UNL     1      -2.257   8.927 -30.399  1.00  0.00     0.003 A 
HETATM   18  C   UNL     1      -2.386   8.717 -31.770  1.00  0.00     0.037 A 
ENDBRANCH  11  12
ENDBRANCH  10  11
ENDBRANCH   7  10
ENDBRANCH   5   6
ENDBRANCH   1   5
BRANCH   2  19
HETATM   19  N   UNL     1      -4.826   0.674 -33.088  1.00  0.00    -0.166 NA
HETATM   20  C   UNL     1      -4.124  -0.329 -32.673  1.00  0.00     0.157 A 
HETATM   21  C   UNL     1      -2.974  -0.350 -31.660  1.00  0.00     0.277 A 
HETATM   22  C   UNL     1      -4.309  -1.712 -33.098  1.00  0.00     0.028 A 
HETATM   23  O   UNL     1      -2.507   0.625 -31.110  1.00  0.00    -0.266 OA
HETATM   24  N   UNL     1      -2.618  -1.677 -31.537  1.00  0.00    -0.321 N 
HETATM   25  C   UNL     1      -3.386  -2.474 -32.383  1.00  0.00     0.048 A 
HETATM   26  H   UNL     1      -1.877  -1.998 -30.932  1.00  0.00     0.169 HD
HETATM   27  C   UNL     1      -3.296  -3.838 -32.564  1.00  0.00     0.032 A 
HETATM   28  C   UNL     1      -4.157  -4.420 -33.504  1.00  0.00     0.021 A 
HETATM   29  C   UNL     1      -5.077  -3.634 -34.229  1.00  0.00     0.012 A 
HETATM   30 BR   UNL     1      -6.200  -4.465 -35.504  1.00  0.00    -0.051 Br
HETATM   31  C   UNL     1      -5.168  -2.256 -34.030  1.00  0.00     0.035 A 
ENDBRANCH   2  19
TORSDOF 6
ENDMDL
MODEL 2
REMARK VINA RESULT:      -8.9      3.774      8.862
REMARK  6 active torsions:
REMARK  status: ('A' for Active; 'I' for Inactive)
REMARK    1  A    between atoms: C_4  and  O_5 
REMARK    2  A    between atoms: O_5  and  C_6 
REMARK    3  A    between atoms: C_6  and  C_7 
REMARK       I    between atoms: C_7  and  N_8 
REMARK    4  A    between atoms: N_8  and  C_9 
REMARK    5  A    between atoms: C_9  and  C_10 
REMARK       I    between atoms: C_10  and  N_11 
REMARK    6  A    between atoms: N_11  and  N_12 
ROOT
HETATM    1  C   UNL     1      -7.369   3.623 -30.777  1.00  0.00     0.255 C 
HETATM    2  N   UNL     1      -6.335   3.053 -31.495  1.00  0.00    -0.245 N 
HETATM    3  O   UNL     1      -7.329   4.739 -30.254  1.00  0.00    -0.270 OA
HETATM    4  H   UNL     1      -6.444   2.103 -31.853  1.00  0.00     0.192 HD
ENDROOT
BRANCH   1   5
HETATM    5  C   UNL     1      -8.663   2.801 -30.753  1.00  0.00     0.227 C 
BRANCH   5   6
HETATM    6  N   UNL     1      -8.641   1.424 -31.237  1.00  0.00    -0.350 N 
HETATM    7  C   UNL     1      -9.012   1.166 -32.547  1.00  0.00     0.242 C 
HETATM    8  O   UNL     1      -9.715   1.933 -33.198  1.00  0.00    -0.271 OA
HETATM    9  H   UNL     1      -7.856   0.869 -30.913  1.00  0.00     0.163 HD
BRANCH   7  10
HETATM   10  C   UNL     1      -8.485  -0.148 -33.106  1.00  0.00     0.278 C 
BRANCH  10  11
HETATM   11  O   UNL     1      -7.316   0.181 -33.861  1.00  0.00    -0.342 OA
BRANCH  11  12
HETATM   12  C   UNL     1      -6.503  -0.904 -34.052  1.00  0.00     0.069 A 
HETATM   13  C   UNL     1      -6.964  -2.089 -34.626  1.00  0.00     0.043 A 
HETATM   14  C   UNL     1      -6.100  -3.184 -34.766  1.00  0.00    -0.059 A 
HETATM   15  C   UNL     1      -6.580  -4.473 -35.364  1.00  0.00     0.048 C 
HETATM   16  C   UNL     1      -4.779  -3.076 -34.308  1.00  0.00     0.007 A 
HETATM   17  C   UNL     1      -4.329  -1.895 -33.716  1.00  0.00     0.003 A 
HETATM   18  C   UNL     1      -5.195  -0.812 -33.579  1.00  0.00     0.037 A 
ENDBRANCH  11  12
ENDBRANCH  10  11
ENDBRANCH   7  10
ENDBRANCH   5   6
ENDBRANCH   1   5
BRANCH   2  19
HETATM   19  N   UNL     1      -5.095   3.626 -31.466  1.00  0.00    -0.166 NA
HETATM   20  C   UNL     1      -4.656   4.132 -32.571  1.00  0.00     0.157 A 
HETATM   21  C   UNL     1      -5.365   4.255 -33.924  1.00  0.00     0.277 A 
HETATM   22  C   UNL     1      -3.340   4.731 -32.752  1.00  0.00     0.028 A 
HETATM   23  O   UNL     1      -6.474   3.835 -34.175  1.00  0.00    -0.266 OA
HETATM   24  N   UNL     1      -4.477   4.922 -34.743  1.00  0.00    -0.321 N 
HETATM   25  C   UNL     1      -3.289   5.191 -34.067  1.00  0.00     0.048 A 
HETATM   26  H   UNL     1      -4.673   5.145 -35.708  1.00  0.00     0.169 HD
HETATM   27  C   UNL     1      -2.160   5.806 -34.564  1.00  0.00     0.032 A 
HETATM   28  C   UNL     1      -1.065   5.937 -33.699  1.00  0.00     0.021 A 
HETATM   29  C   UNL     1      -1.127   5.455 -32.375  1.00  0.00     0.012 A 
HETATM   30 BR   UNL     1       0.388   5.632 -31.254  1.00  0.00    -0.051 Br
HETATM   31  C   UNL     1      -2.278   4.844 -31.878  1.00  0.00     0.035 A 
ENDBRANCH   2  19
TORSDOF 6
ENDMDL
MODEL 3
REMARK VINA RESULT:      -8.8      4.382      9.499
REMARK  6 active torsions:
REMARK  status: ('A' for Active; 'I' for Inactive)
REMARK    1  A    between atoms: C_4  and  O_5 
REMARK    2  A    between atoms: O_5  and  C_6 
REMARK    3  A    between atoms: C_6  and  C_7 
REMARK       I    between atoms: C_7  and  N_8 
REMARK    4  A    between atoms: N_8  and  C_9 
REMARK    5  A    between atoms: C_9  and  C_10 
REMARK       I    between atoms: C_10  and  N_11 
REMARK    6  A    between atoms: N_11  and  N_12 
ROOT
HETATM    1  C   UNL     1      -1.290   6.696 -33.400  1.00  0.00     0.255 C 
HETATM    2  N   UNL     1      -0.728   6.282 -32.207  1.00  0.00    -0.245 N 
HETATM    3  O   UNL     1      -1.519   7.871 -33.698  1.00  0.00    -0.270 OA
HETATM    4  H   UNL     1      -0.618   5.283 -32.031  1.00  0.00     0.192 HD
ENDROOT
BRANCH   1   5
HETATM    5  C   UNL     1      -1.525   5.577 -34.421  1.00  0.00     0.227 C 
BRANCH   5   6
HETATM    6  N   UNL     1      -2.793   4.854 -34.406  1.00  0.00    -0.350 N 
HETATM    7  C   UNL     1      -3.133   4.118 -33.282  1.00  0.00     0.242 C 
HETATM    8  O   UNL     1      -2.298   3.717 -32.477  1.00  0.00    -0.271 OA
HETATM    9  H   UNL     1      -3.573   5.348 -34.827  1.00  0.00     0.163 HD
BRANCH   7  10
HETATM   10  C   UNL     1      -4.623   3.841 -33.134  1.00  0.00     0.278 C 
BRANCH  10  11
HETATM   11  O   UNL     1      -4.737   2.761 -32.204  1.00  0.00    -0.342 OA
BRANCH  11  12
HETATM   12  C   UNL     1      -5.079   1.586 -32.816  1.00  0.00     0.069 A 
HETATM   13  C   UNL     1      -6.141   1.496 -33.716  1.00  0.00     0.043 A 
HETATM   14  C   UNL     1      -6.474   0.262 -34.289  1.00  0.00    -0.059 A 
HETATM   15  C   UNL     1      -7.624   0.139 -35.245  1.00  0.00     0.048 C 
HETATM   16  C   UNL     1      -5.739  -0.878 -33.933  1.00  0.00     0.007 A 
HETATM   17  C   UNL     1      -4.690  -0.787 -33.017  1.00  0.00     0.003 A 
HETATM   18  C   UNL     1      -4.367   0.445 -32.450  1.00  0.00     0.037 A 
ENDBRANCH  11  12
ENDBRANCH  10  11
ENDBRANCH   7  10
ENDBRANCH   5   6
ENDBRANCH   1   5
BRANCH   2  19
HETATM   19  N   UNL     1      -0.606   7.168 -31.175  1.00  0.00    -0.166 NA
HETATM   20  C   UNL     1      -0.167   6.703 -30.051  1.00  0.00     0.157 A 
HETATM   21  C   UNL     1       0.319   5.289 -29.716  1.00  0.00     0.277 A 
HETATM   22  C   UNL     1      -0.026   7.477 -28.824  1.00  0.00     0.028 A 
HETATM   23  O   UNL     1       0.319   4.348 -30.482  1.00  0.00    -0.266 OA
HETATM   24  N   UNL     1       0.730   5.346 -28.401  1.00  0.00    -0.321 N 
HETATM   25  C   UNL     1       0.520   6.617 -27.872  1.00  0.00     0.048 A 
HETATM   26  H   UNL     1       1.101   4.550 -27.901  1.00  0.00     0.169 HD
HETATM   27  C   UNL     1       0.771   7.045 -26.585  1.00  0.00     0.032 A 
HETATM   28  C   UNL     1       0.442   8.371 -26.273  1.00  0.00     0.021 A 
HETATM   29  C   UNL     1      -0.121   9.225 -27.244  1.00  0.00     0.012 A 
HETATM   30 BR   UNL     1      -0.571  11.000 -26.764  1.00  0.00    -0.051 Br
HETATM   31  C   UNL     1      -0.361   8.787 -28.546  1.00  0.00     0.035 A 
ENDBRANCH   2  19
TORSDOF 6
ENDMDL
MODEL 4
REMARK VINA RESULT:      -8.5      1.858      3.098
REMARK  6 active torsions:
REMARK  status: ('A' for Active; 'I' for Inactive)
REMARK    1  A    between atoms: C_4  and  O_5 
REMARK    2  A    between atoms: O_5  and  C_6 
REMARK    3  A    between atoms: C_6  and  C_7 
REMARK       I    between atoms: C_7  and  N_8 
REMARK    4  A    between atoms: N_8  and  C_9 
REMARK    5  A    between atoms: C_9  and  C_10 
REMARK       I    between atoms: C_10  and  N_11 
REMARK    6  A    between atoms: N_11  and  N_12 
ROOT
HETATM    1  C   UNL     1      -3.768   2.483 -31.533  1.00  0.00     0.255 C 
HETATM    2  N   UNL     1      -4.474   1.937 -32.588  1.00  0.00    -0.245 N 
HETATM    3  O   UNL     1      -2.817   1.938 -30.967  1.00  0.00    -0.270 OA
HETATM    4  H   UNL     1      -5.277   2.443 -32.962  1.00  0.00     0.192 HD
ENDROOT
BRANCH   1   5
HETATM    5  C   UNL     1      -4.182   3.910 -31.154  1.00  0.00     0.227 C 
BRANCH   5   6
HETATM    6  N   UNL     1      -3.162   4.950 -31.078  1.00  0.00    -0.350 N 
HETATM    7  C   UNL     1      -2.512   5.341 -32.238  1.00  0.00     0.242 C 
HETATM    8  O   UNL     1      -2.449   4.625 -33.233  1.00  0.00    -0.271 OA
HETATM    9  H   UNL     1      -3.377   5.717 -30.448  1.00  0.00     0.163 HD
BRANCH   7  10
HETATM   10  C   UNL     1      -1.877   6.723 -32.174  1.00  0.00     0.278 C 
BRANCH  10  11
HETATM   11  O   UNL     1      -0.467   6.510 -32.077  1.00  0.00    -0.342 OA
BRANCH  11  12
HETATM   12  C   UNL     1      -0.043   6.443 -30.778  1.00  0.00     0.069 A 
HETATM   13  C   UNL     1       0.042   7.571 -29.962  1.00  0.00     0.043 A 
HETATM   14  C   UNL     1       0.517   7.455 -28.649  1.00  0.00    -0.059 A 
HETATM   15  C   UNL     1       0.634   8.659 -27.761  1.00  0.00     0.048 C 
HETATM   16  C   UNL     1       0.919   6.198 -28.176  1.00  0.00     0.007 A 
HETATM   17  C   UNL     1       0.851   5.076 -29.002  1.00  0.00     0.003 A 
HETATM   18  C   UNL     1       0.379   5.200 -30.307  1.00  0.00     0.037 A 
ENDBRANCH  11  12
ENDBRANCH  10  11
ENDBRANCH   7  10
ENDBRANCH   5   6
ENDBRANCH   1   5
BRANCH   2  19
HETATM   19  N   UNL     1      -4.289   0.624 -32.918  1.00  0.00    -0.166 NA
HETATM   20  C   UNL     1      -5.272   0.021 -33.501  1.00  0.00     0.157 A 
HETATM   21  C   UNL     1      -6.620   0.591 -33.955  1.00  0.00     0.277 A 
HETATM   22  C   UNL     1      -5.286  -1.388 -33.874  1.00  0.00     0.028 A 
HETATM   23  O   UNL     1      -6.992   1.732 -33.785  1.00  0.00    -0.266 OA
HETATM   24  N   UNL     1      -7.272  -0.459 -34.570  1.00  0.00    -0.321 N 
HETATM   25  C   UNL     1      -6.503  -1.618 -34.514  1.00  0.00     0.048 A 
HETATM   26  H   UNL     1      -8.196  -0.379 -34.970  1.00  0.00     0.169 HD
HETATM   27  C   UNL     1      -6.834  -2.871 -34.986  1.00  0.00     0.032 A 
HETATM   28  C   UNL     1      -5.906  -3.901 -34.782  1.00  0.00     0.021 A 
HETATM   29  C   UNL     1      -4.684  -3.655 -34.122  1.00  0.00     0.012 A 
HETATM   30 BR   UNL     1      -3.476  -5.086 -33.850  1.00  0.00    -0.051 Br
HETATM   31  C   UNL     1      -4.353  -2.382 -33.659  1.00  0.00     0.035 A 
ENDBRANCH   2  19
TORSDOF 6
ENDMDL
MODEL 5
REMARK VINA RESULT:      -8.1      2.023      2.501
REMARK  6 active torsions:
REMARK  status: ('A' for Active; 'I' for Inactive)
REMARK    1  A    between atoms: C_4  and  O_5 
REMARK    2  A    between atoms: O_5  and  C_6 
REMARK    3  A    between atoms: C_6  and  C_7 
REMARK       I    between atoms: C_7  and  N_8 
REMARK    4  A    between atoms: N_8  and  C_9 
REMARK    5  A    between atoms: C_9  and  C_10 
REMARK       I    between atoms: C_10  and  N_11 
REMARK    6  A    between atoms: N_11  and  N_12 
ROOT
HETATM    1  C   UNL     1      -7.593   3.910 -33.471  1.00  0.00     0.255 C 
HETATM    2  N   UNL     1      -6.652   3.074 -32.900  1.00  0.00    -0.245 N 
HETATM    3  O   UNL     1      -8.577   3.528 -34.109  1.00  0.00    -0.270 OA
HETATM    4  H   UNL     1      -5.845   3.485 -32.428  1.00  0.00     0.192 HD
ENDROOT
BRANCH   1   5
HETATM    5  C   UNL     1      -7.398   5.400 -33.166  1.00  0.00     0.227 C 
BRANCH   5   6
HETATM    6  N   UNL     1      -6.271   5.815 -32.337  1.00  0.00    -0.350 N 
HETATM    7  C   UNL     1      -5.050   6.071 -32.941  1.00  0.00     0.242 C 
HETATM    8  O   UNL     1      -4.744   5.608 -34.036  1.00  0.00    -0.271 OA
HETATM    9  H   UNL     1      -6.504   6.461 -31.589  1.00  0.00     0.163 HD
BRANCH   7  10
HETATM   10  C   UNL     1      -4.118   6.963 -32.133  1.00  0.00     0.278 C 
BRANCH  10  11
HETATM   11  O   UNL     1      -3.688   6.181 -31.015  1.00  0.00    -0.342 OA
BRANCH  11  12
HETATM   12  C   UNL     1      -2.324   6.136 -30.911  1.00  0.00     0.069 A 
HETATM   13  C   UNL     1      -1.622   6.900 -29.979  1.00  0.00     0.043 A 
HETATM   14  C   UNL     1      -0.222   6.846 -29.937  1.00  0.00    -0.059 A 
HETATM   15  C   UNL     1       0.553   7.674 -28.955  1.00  0.00     0.048 C 
HETATM   16  C   UNL     1       0.458   6.028 -30.851  1.00  0.00     0.007 A 
HETATM   17  C   UNL     1      -0.248   5.281 -31.794  1.00  0.00     0.003 A 
HETATM   18  C   UNL     1      -1.640   5.342 -31.831  1.00  0.00     0.037 A 
ENDBRANCH  11  12
ENDBRANCH  10  11
ENDBRANCH   7  10
ENDBRANCH   5   6
ENDBRANCH   1   5
BRANCH   2  19
HETATM   19  N   UNL     1      -6.645   1.747 -33.220  1.00  0.00    -0.166 NA
HETATM   20  C   UNL     1      -5.547   1.098 -33.008  1.00  0.00     0.157 A 
HETATM   21  C   UNL     1      -4.244   1.589 -32.368  1.00  0.00     0.277 A 
HETATM   22  C   UNL     1      -5.327  -0.305 -33.339  1.00  0.00     0.028 A 
HETATM   23  O   UNL     1      -4.032   2.722 -31.992  1.00  0.00    -0.266 OA
HETATM   24  N   UNL     1      -3.416   0.486 -32.332  1.00  0.00    -0.321 N 
HETATM   25  C   UNL     1      -4.039  -0.618 -32.908  1.00  0.00     0.048 A 
HETATM   26  H   UNL     1      -2.478   0.510 -31.961  1.00  0.00     0.169 HD
HETATM   27  C   UNL     1      -3.516  -1.882 -33.086  1.00  0.00     0.032 A 
HETATM   28  C   UNL     1      -4.325  -2.828 -33.728  1.00  0.00     0.021 A 
HETATM   29  C   UNL     1      -5.622  -2.492 -34.171  1.00  0.00     0.012 A 
HETATM   30 BR   UNL     1      -6.665  -3.800 -35.056  1.00  0.00    -0.051 Br
HETATM   31  C   UNL     1      -6.147  -1.215 -33.976  1.00  0.00     0.035 A 
ENDBRANCH   2  19
TORSDOF 6
ENDMDL
MODEL 6
REMARK VINA RESULT:      -8.1      2.343      3.259
REMARK  6 active torsions:
REMARK  status: ('A' for Active; 'I' for Inactive)
REMARK    1  A    between atoms: C_4  and  O_5 
REMARK    2  A    between atoms: O_5  and  C_6 
REMARK    3  A    between atoms: C_6  and  C_7 
REMARK       I    between atoms: C_7  and  N_8 
REMARK    4  A    between atoms: N_8  and  C_9 
REMARK    5  A    between atoms: C_9  and  C_10 
REMARK       I    between atoms: C_10  and  N_11 
REMARK    6  A    between atoms: N_11  and  N_12 
ROOT
HETATM    1  C   UNL     1      -8.738   2.920 -33.376  1.00  0.00     0.255 C 
HETATM    2  N   UNL     1      -7.915   2.102 -32.625  1.00  0.00    -0.245 N 
HETATM    3  O   UNL     1      -9.429   2.539 -34.324  1.00  0.00    -0.270 OA
HETATM    4  H   UNL     1      -7.345   2.517 -31.886  1.00  0.00     0.192 HD
ENDROOT
BRANCH   1   5
HETATM    5  C   UNL     1      -8.831   4.367 -32.880  1.00  0.00     0.227 C 
BRANCH   5   6
HETATM    6  N   UNL     1      -7.663   4.983 -32.258  1.00  0.00    -0.350 N 
HETATM    7  C   UNL     1      -6.662   5.496 -33.068  1.00  0.00     0.242 C 
HETATM    8  O   UNL     1      -6.499   5.130 -34.229  1.00  0.00    -0.271 OA
HETATM    9  H   UNL     1      -7.862   5.551 -31.440  1.00  0.00     0.163 HD
BRANCH   7  10
HETATM   10  C   UNL     1      -5.778   6.539 -32.399  1.00  0.00     0.278 C 
BRANCH  10  11
HETATM   11  O   UNL     1      -4.936   5.825 -31.491  1.00  0.00    -0.342 OA
BRANCH  11  12
HETATM   12  C   UNL     1      -3.613   5.918 -31.831  1.00  0.00     0.069 A 
HETATM   13  C   UNL     1      -3.153   5.635 -33.117  1.00  0.00     0.043 A 
HETATM   14  C   UNL     1      -1.784   5.711 -33.406  1.00  0.00    -0.059 A 
HETATM   15  C   UNL     1      -1.265   5.392 -34.777  1.00  0.00     0.048 C 
HETATM   16  C   UNL     1      -0.888   6.058 -32.385  1.00  0.00     0.007 A 
HETATM   17  C   UNL     1      -1.351   6.321 -31.095  1.00  0.00     0.003 A 
HETATM   18  C   UNL     1      -2.715   6.242 -30.816  1.00  0.00     0.037 A 
ENDBRANCH  11  12
ENDBRANCH  10  11
ENDBRANCH   7  10
ENDBRANCH   5   6
ENDBRANCH   1   5
BRANCH   2  19
HETATM   19  N   UNL     1      -7.647   0.834 -33.055  1.00  0.00    -0.166 NA
HETATM   20  C   UNL     1      -6.407   0.467 -33.062  1.00  0.00     0.157 A 
HETATM   21  C   UNL     1      -5.172   1.232 -32.577  1.00  0.00     0.277 A 
HETATM   22  C   UNL     1      -5.919  -0.821 -33.541  1.00  0.00     0.028 A 
HETATM   23  O   UNL     1      -5.175   2.363 -32.139  1.00  0.00    -0.266 OA
HETATM   24  N   UNL     1      -4.112   0.367 -32.756  1.00  0.00    -0.321 N 
HETATM   25  C   UNL     1      -4.542  -0.828 -33.329  1.00  0.00     0.048 A 
HETATM   26  H   UNL     1      -3.159   0.603 -32.524  1.00  0.00     0.169 HD
HETATM   27  C   UNL     1      -3.771  -1.913 -33.689  1.00  0.00     0.032 A 
HETATM   28  C   UNL     1      -4.426  -2.998 -34.287  1.00  0.00     0.021 A 
HETATM   29  C   UNL     1      -5.820  -2.970 -34.506  1.00  0.00     0.012 A 
HETATM   30 BR   UNL     1      -6.653  -4.450 -35.340  1.00  0.00    -0.051 Br
HETATM   31  C   UNL     1      -6.593  -1.873 -34.128  1.00  0.00     0.035 A 
ENDBRANCH   2  19
TORSDOF 6
ENDMDL
MODEL 7
REMARK VINA RESULT:      -8.1      4.072      9.782
REMARK  6 active torsions:
REMARK  status: ('A' for Active; 'I' for Inactive)
REMARK    1  A    between atoms: C_4  and  O_5 
REMARK    2  A    between atoms: O_5  and  C_6 
REMARK    3  A    between atoms: C_6  and  C_7 
REMARK       I    between atoms: C_7  and  N_8 
REMARK    4  A    between atoms: N_8  and  C_9 
REMARK    5  A    between atoms: C_9  and  C_10 
REMARK       I    between atoms: C_10  and  N_11 
REMARK    6  A    between atoms: N_11  and  N_12 
ROOT
HETATM    1  C   UNL     1      -3.286   5.794 -32.602  1.00  0.00     0.255 C 
HETATM    2  N   UNL     1      -3.089   5.615 -31.246  1.00  0.00    -0.245 N 
HETATM    3  O   UNL     1      -2.951   6.799 -33.233  1.00  0.00    -0.270 OA
HETATM    4  H   UNL     1      -3.442   4.767 -30.801  1.00  0.00     0.192 HD
ENDROOT
BRANCH   1   5
HETATM    5  C   UNL     1      -3.873   4.580 -33.331  1.00  0.00     0.227 C 
BRANCH   5   6
HETATM    6  N   UNL     1      -4.616   3.582 -32.568  1.00  0.00    -0.350 N 
HETATM    7  C   UNL     1      -5.694   2.946 -33.164  1.00  0.00     0.242 C 
HETATM    8  O   UNL     1      -6.299   3.425 -34.118  1.00  0.00    -0.271 OA
HETATM    9  H   UNL     1      -4.047   2.973 -31.989  1.00  0.00     0.163 HD
BRANCH   7  10
HETATM   10  C   UNL     1      -6.070   1.613 -32.533  1.00  0.00     0.278 C 
BRANCH  10  11
HETATM   11  O   UNL     1      -6.680   0.840 -33.570  1.00  0.00    -0.342 OA
BRANCH  11  12
HETATM   12  C   UNL     1      -6.075  -0.377 -33.731  1.00  0.00     0.069 A 
HETATM   13  C   UNL     1      -5.048  -0.816 -32.894  1.00  0.00     0.043 A 
HETATM   14  C   UNL     1      -4.436  -2.055 -33.123  1.00  0.00    -0.059 A 
HETATM   15  C   UNL     1      -3.318  -2.537 -32.246  1.00  0.00     0.048 C 
HETATM   16  C   UNL     1      -4.856  -2.835 -34.209  1.00  0.00     0.007 A 
HETATM   17  C   UNL     1      -5.869  -2.383 -35.055  1.00  0.00     0.003 A 
HETATM   18  C   UNL     1      -6.472  -1.149 -34.822  1.00  0.00     0.037 A 
ENDBRANCH  11  12
ENDBRANCH  10  11
ENDBRANCH   7  10
ENDBRANCH   5   6
ENDBRANCH   1   5
BRANCH   2  19
HETATM   19  N   UNL     1      -2.705   6.674 -30.473  1.00  0.00    -0.166 NA
HETATM   20  C   UNL     1      -1.510   6.641 -29.982  1.00  0.00     0.157 A 
HETATM   21  C   UNL     1      -0.406   5.602 -30.203  1.00  0.00     0.277 A 
HETATM   22  C   UNL     1      -0.943   7.645 -29.090  1.00  0.00     0.028 A 
HETATM   23  O   UNL     1      -0.516   4.591 -30.865  1.00  0.00    -0.266 OA
HETATM   24  N   UNL     1       0.684   6.071 -29.498  1.00  0.00    -0.321 N 
HETATM   25  C   UNL     1       0.372   7.256 -28.838  1.00  0.00     0.048 A 
HETATM   26  H   UNL     1       1.568   5.585 -29.457  1.00  0.00     0.169 HD
HETATM   27  C   UNL     1       1.187   7.998 -28.010  1.00  0.00     0.032 A 
HETATM   28  C   UNL     1       0.637   9.146 -27.424  1.00  0.00     0.021 A 
HETATM   29  C   UNL     1      -0.700   9.519 -27.680  1.00  0.00     0.012 A 
HETATM   30 BR   UNL     1      -1.403  11.065 -26.845  1.00  0.00    -0.051 Br
HETATM   31  C   UNL     1      -1.514   8.769 -28.528  1.00  0.00     0.035 A 
ENDBRANCH   2  19
TORSDOF 6
ENDMDL
MODEL 8
REMARK VINA RESULT:      -8.1      3.833      9.556
REMARK  6 active torsions:
REMARK  status: ('A' for Active; 'I' for Inactive)
REMARK    1  A    between atoms: C_4  and  O_5 
REMARK    2  A    between atoms: O_5  and  C_6 
REMARK    3  A    between atoms: C_6  and  C_7 
REMARK       I    between atoms: C_7  and  N_8 
REMARK    4  A    between atoms: N_8  and  C_9 
REMARK    5  A    between atoms: C_9  and  C_10 
REMARK       I    between atoms: C_10  and  N_11 
REMARK    6  A    between atoms: N_11  and  N_12 
ROOT
HETATM    1  C   UNL     1      -5.872   4.425 -31.756  1.00  0.00     0.255 C 
HETATM    2  N   UNL     1      -4.919   5.278 -32.282  1.00  0.00    -0.245 N 
HETATM    3  O   UNL     1      -6.177   4.364 -30.563  1.00  0.00    -0.270 OA
HETATM    4  H   UNL     1      -4.702   5.225 -33.278  1.00  0.00     0.192 HD
ENDROOT
BRANCH   1   5
HETATM    5  C   UNL     1      -6.636   3.598 -32.796  1.00  0.00     0.227 C 
BRANCH   5   6
HETATM    6  N   UNL     1      -6.420   2.156 -32.857  1.00  0.00    -0.350 N 
HETATM    7  C   UNL     1      -7.321   1.314 -32.223  1.00  0.00     0.242 C 
HETATM    8  O   UNL     1      -8.046   1.691 -31.308  1.00  0.00    -0.271 OA
HETATM    9  H   UNL     1      -6.092   1.809 -33.753  1.00  0.00     0.163 HD
BRANCH   7  10
HETATM   10  C   UNL     1      -7.329  -0.115 -32.748  1.00  0.00     0.278 C 
BRANCH  10  11
HETATM   11  O   UNL     1      -5.965  -0.446 -33.023  1.00  0.00    -0.342 OA
BRANCH  11  12
HETATM   12  C   UNL     1      -5.838  -1.691 -33.577  1.00  0.00     0.069 A 
HETATM   13  C   UNL     1      -4.655  -2.425 -33.497  1.00  0.00     0.043 A 
HETATM   14  C   UNL     1      -4.563  -3.681 -34.112  1.00  0.00    -0.059 A 
HETATM   15  C   UNL     1      -3.294  -4.478 -34.054  1.00  0.00     0.048 C 
HETATM   16  C   UNL     1      -5.668  -4.178 -34.818  1.00  0.00     0.007 A 
HETATM   17  C   UNL     1      -6.843  -3.432 -34.912  1.00  0.00     0.003 A 
HETATM   18  C   UNL     1      -6.925  -2.182 -34.300  1.00  0.00     0.037 A 
ENDBRANCH  11  12
ENDBRANCH  10  11
ENDBRANCH   7  10
ENDBRANCH   5   6
ENDBRANCH   1   5
BRANCH   2  19
HETATM   19  N   UNL     1      -4.083   5.957 -31.442  1.00  0.00    -0.166 NA
HETATM   20  C   UNL     1      -2.813   5.815 -31.638  1.00  0.00     0.157 A 
HETATM   21  C   UNL     1      -2.088   5.041 -32.744  1.00  0.00     0.277 A 
HETATM   22  C   UNL     1      -1.768   6.408 -30.812  1.00  0.00     0.028 A 
HETATM   23  O   UNL     1      -2.627   4.382 -33.607  1.00  0.00    -0.266 OA
HETATM   24  N   UNL     1      -0.744   5.262 -32.524  1.00  0.00    -0.321 N 
HETATM   25  C   UNL     1      -0.552   6.049 -31.391  1.00  0.00     0.048 A 
HETATM   26  H   UNL     1      -0.016   4.869 -33.102  1.00  0.00     0.169 HD
HETATM   27  C   UNL     1       0.646   6.448 -30.838  1.00  0.00     0.032 A 
HETATM   28  C   UNL     1       0.590   7.214 -29.666  1.00  0.00     0.021 A 
HETATM   29  C   UNL     1      -0.648   7.559 -29.085  1.00  0.00     0.012 A 
HETATM   30 BR   UNL     1      -0.670   8.574 -27.488  1.00  0.00    -0.051 Br
HETATM   31  C   UNL     1      -1.855   7.160 -29.658  1.00  0.00     0.035 A 
ENDBRANCH   2  19
TORSDOF 6
ENDMDL
MODEL 9
REMARK VINA RESULT:      -7.9      7.493     11.266
REMARK  6 active torsions:
REMARK  status: ('A' for Active; 'I' for Inactive)
REMARK    1  A    between atoms: C_4  and  O_5 
REMARK    2  A    between atoms: O_5  and  C_6 
REMARK    3  A    between atoms: C_6  and  C_7 
REMARK       I    between atoms: C_7  and  N_8 
REMARK    4  A    between atoms: N_8  and  C_9 
REMARK    5  A    between atoms: C_9  and  C_10 
REMARK       I    between atoms: C_10  and  N_11 
REMARK    6  A    between atoms: N_11  and  N_12 
ROOT
HETATM    1  C   UNL     1     -10.109   3.299 -32.413  1.00  0.00     0.255 C 
HETATM    2  N   UNL     1     -11.249   3.246 -33.192  1.00  0.00    -0.245 N 
HETATM    3  O   UNL     1     -10.082   3.649 -31.230  1.00  0.00    -0.270 OA
HETATM    4  H   UNL     1     -11.166   2.987 -34.176  1.00  0.00     0.192 HD
ENDROOT
BRANCH   1   5
HETATM    5  C   UNL     1      -8.840   2.775 -33.096  1.00  0.00     0.227 C 
BRANCH   5   6
HETATM    6  N   UNL     1      -8.732   1.353 -33.405  1.00  0.00    -0.350 N 
HETATM    7  C   UNL     1      -7.551   0.871 -33.946  1.00  0.00     0.242 C 
HETATM    8  O   UNL     1      -6.752   1.591 -34.536  1.00  0.00    -0.271 OA
HETATM    9  H   UNL     1      -9.157   0.733 -32.723  1.00  0.00     0.163 HD
BRANCH   7  10
HETATM   10  C   UNL     1      -7.333  -0.624 -33.757  1.00  0.00     0.278 C 
BRANCH  10  11
HETATM   11  O   UNL     1      -6.067  -0.920 -34.352  1.00  0.00    -0.342 OA
BRANCH  11  12
HETATM   12  C   UNL     1      -5.832  -2.266 -34.423  1.00  0.00     0.069 A 
HETATM   13  C   UNL     1      -4.629  -2.836 -34.006  1.00  0.00     0.043 A 
HETATM   14  C   UNL     1      -4.423  -4.216 -34.133  1.00  0.00    -0.059 A 
HETATM   15  C   UNL     1      -3.130  -4.846 -33.708  1.00  0.00     0.048 C 
HETATM   16  C   UNL     1      -5.432  -5.009 -34.698  1.00  0.00     0.007 A 
HETATM   17  C   UNL     1      -6.626  -4.431 -35.132  1.00  0.00     0.003 A 
HETATM   18  C   UNL     1      -6.822  -3.057 -35.004  1.00  0.00     0.037 A 
ENDBRANCH  11  12
ENDBRANCH  10  11
ENDBRANCH   7  10
ENDBRANCH   5   6
ENDBRANCH   1   5
BRANCH   2  19
HETATM   19  N   UNL     1     -12.404   3.816 -32.738  1.00  0.00    -0.166 NA
HETATM   20  C   UNL     1     -13.462   3.072 -32.729  1.00  0.00     0.157 A 
HETATM   21  C   UNL     1     -13.601   1.589 -33.090  1.00  0.00     0.277 A 
HETATM   22  C   UNL     1     -14.794   3.516 -32.338  1.00  0.00     0.028 A 
HETATM   23  O   UNL     1     -12.706   0.880 -33.498  1.00  0.00    -0.266 OA
HETATM   24  N   UNL     1     -14.924   1.278 -32.854  1.00  0.00    -0.321 N 
HETATM   25  C   UNL     1     -15.627   2.402 -32.426  1.00  0.00     0.048 A 
HETATM   26  H   UNL     1     -15.313   0.360 -33.008  1.00  0.00     0.169 HD
HETATM   27  C   UNL     1     -16.970   2.492 -32.130  1.00  0.00     0.032 A 
HETATM   28  C   UNL     1     -17.463   3.747 -31.751  1.00  0.00     0.021 A 
HETATM   29  C   UNL     1     -16.610   4.869 -31.679  1.00  0.00     0.012 A 
HETATM   30 BR   UNL     1     -17.330   6.548 -31.187  1.00  0.00    -0.051 Br
HETATM   31  C   UNL     1     -15.250   4.766 -31.970  1.00  0.00     0.035 A 
ENDBRANCH   2  19
TORSDOF 6
ENDMDL
MODEL 10
REMARK VINA RESULT:      -7.9     17.060     18.533
REMARK  6 active torsions:
REMARK  status: ('A' for Active; 'I' for Inactive)
REMARK    1  A    between atoms: C_4  and  O_5 
REMARK    2  A    between atoms: O_5  and  C_6 
REMARK    3  A    between atoms: C_6  and  C_7 
REMARK       I    between atoms: C_7  and  N_8 
REMARK    4  A    between atoms: N_8  and  C_9 
REMARK    5  A    between atoms: C_9  and  C_10 
REMARK       I    between atoms: C_10  and  N_11 
REMARK    6  A    between atoms: N_11  and  N_12 
ROOT
HETATM    1  C   UNL     1      -6.983 -15.646 -33.384  1.00  0.00     0.255 C 
HETATM    2  N   UNL     1      -6.929 -14.373 -33.919  1.00  0.00    -0.245 N 
HETATM    3  O   UNL     1      -7.333 -16.653 -34.004  1.00  0.00    -0.270 OA
HETATM    4  H   UNL     1      -6.671 -13.591 -33.315  1.00  0.00     0.192 HD
ENDROOT
BRANCH   1   5
HETATM    5  C   UNL     1      -6.462 -15.761 -31.947  1.00  0.00     0.227 C 
BRANCH   5   6
HETATM    6  N   UNL     1      -5.024 -15.709 -31.704  1.00  0.00    -0.350 N 
HETATM    7  C   UNL     1      -4.552 -15.921 -30.419  1.00  0.00     0.242 C 
HETATM    8  O   UNL     1      -5.251 -15.763 -29.423  1.00  0.00    -0.271 OA
HETATM    9  H   UNL     1      -4.451 -16.130 -32.429  1.00  0.00     0.163 HD
BRANCH   7  10
HETATM   10  C   UNL     1      -3.095 -16.356 -30.344  1.00  0.00     0.278 C 
BRANCH  10  11
HETATM   11  O   UNL     1      -2.328 -15.158 -30.198  1.00  0.00    -0.342 OA
BRANCH  11  12
HETATM   12  C   UNL     1      -1.300 -15.308 -29.306  1.00  0.00     0.069 A 
HETATM   13  C   UNL     1      -0.190 -14.463 -29.300  1.00  0.00     0.043 A 
HETATM   14  C   UNL     1       0.853 -14.681 -28.391  1.00  0.00    -0.059 A 
HETATM   15  C   UNL     1       2.065 -13.796 -28.379  1.00  0.00     0.048 C 
HETATM   16  C   UNL     1       0.773 -15.764 -27.504  1.00  0.00     0.007 A 
HETATM   17  C   UNL     1      -0.331 -16.618 -27.528  1.00  0.00     0.003 A 
HETATM   18  C   UNL     1      -1.363 -16.396 -28.437  1.00  0.00     0.037 A 
ENDBRANCH  11  12
ENDBRANCH  10  11
ENDBRANCH   7  10
ENDBRANCH   5   6
ENDBRANCH   1   5
BRANCH   2  19
HETATM   19  N   UNL     1      -7.496 -14.126 -35.137  1.00  0.00    -0.166 NA
HETATM   20  C   UNL     1      -6.727 -13.642 -36.056  1.00  0.00     0.157 A 
HETATM   21  C   UNL     1      -5.221 -13.365 -36.006  1.00  0.00     0.277 A 
HETATM   22  C   UNL     1      -7.161 -13.260 -37.394  1.00  0.00     0.028 A 
HETATM   23  O   UNL     1      -4.510 -13.526 -35.036  1.00  0.00    -0.266 OA
HETATM   24  N   UNL     1      -4.891 -12.908 -37.265  1.00  0.00    -0.321 N 
HETATM   25  C   UNL     1      -6.022 -12.833 -38.075  1.00  0.00     0.048 A 
HETATM   26  H   UNL     1      -3.954 -12.640 -37.529  1.00  0.00     0.169 HD
HETATM   27  C   UNL     1      -6.095 -12.390 -39.378  1.00  0.00     0.032 A 
HETATM   28  C   UNL     1      -7.359 -12.372 -39.982  1.00  0.00     0.021 A 
HETATM   29  C   UNL     1      -8.505 -12.795 -39.276  1.00  0.00     0.012 A 
HETATM   30 BR   UNL     1     -10.193 -12.728 -40.128  1.00  0.00    -0.051 Br
HETATM   31  C   UNL     1      -8.419 -13.253 -37.961  1.00  0.00     0.035 A 
ENDBRANCH   2  19
TORSDOF 6
ENDMDL
