MODEL 1
REMARK VINA RESULT:      -7.3      0.000      0.000
REMARK  11 active torsions:
REMARK  status: ('A' for Active; 'I' for Inactive)
REMARK    1  A    between atoms: O_2  and  C_3 
REMARK    2  A    between atoms: C_6  and  C_7 
REMARK    3  A    between atoms: C_7  and  C_8 
REMARK       I    between atoms: C_8  and  N_9 
REMARK    4  A    between atoms: N_9  and  C_10 
REMARK    5  A    between atoms: C_10  and  N_11 
REMARK    6  A    between atoms: N_11  and  C_12 
REMARK    7  A    between atoms: C_13  and  C_14 
REMARK       I    between atoms: C_14  and  N_15 
REMARK    8  A    between atoms: N_15  and  C_16 
REMARK    9  A    between atoms: C_16  and  C_17 
REMARK   10  A    between atoms: C_17  and  C_18 
REMARK   11  A    between atoms: C_18  and  O_19 
ROOT
HETATM    1  N   UNL     1      -7.428   2.818 -31.929  1.00  0.00    -0.332 N 
HETATM    2  H   UNL     1      -8.233   2.631 -31.325  1.00  0.00     0.168 HD
ENDROOT
BRANCH   1   3
HETATM    3  C   UNL     1      -7.826   3.209 -33.196  1.00  0.00     0.178 C 
HETATM    4  S   UNL     1      -8.339   4.704 -33.732  1.00  0.00    -0.040 SA
BRANCH   3   5
HETATM    5  N   UNL     1      -7.716   2.220 -34.165  1.00  0.00    -0.303 N 
HETATM    6  C   UNL     1      -8.236   0.933 -34.129  1.00  0.00     0.228 C 
HETATM    7  O   UNL     1      -9.104   0.586 -33.328  1.00  0.00    -0.273 OA
HETATM    8  H   UNL     1      -6.961   2.394 -34.820  1.00  0.00     0.171 HD
BRANCH   6   9
HETATM    9  C   UNL     1      -7.698  -0.007 -35.191  1.00  0.00     0.141 C 
BRANCH   9  10
HETATM   10  C   UNL     1      -6.674  -1.021 -34.724  1.00  0.00    -0.049 A 
HETATM   11  C   UNL     1      -6.814  -2.399 -34.946  1.00  0.00     0.010 A 
HETATM   12  C   UNL     1      -5.832  -3.300 -34.514  1.00  0.00     0.037 A 
HETATM   13  C   UNL     1      -4.678  -2.835 -33.885  1.00  0.00     0.068 A 
HETATM   14  C   UNL     1      -4.513  -1.462 -33.701  1.00  0.00     0.037 A 
HETATM   15  C   UNL     1      -5.498  -0.562 -34.115  1.00  0.00     0.010 A 
BRANCH  13  16
HETATM   16  O   UNL     1      -3.645  -3.602 -33.425  1.00  0.00    -0.356 OA
HETATM   17  C   UNL     1      -3.723  -5.001 -33.671  1.00  0.00     0.210 C 
ENDBRANCH  13  16
ENDBRANCH   9  10
ENDBRANCH   6   9
ENDBRANCH   3   5
ENDBRANCH   1   3
BRANCH   1  18
HETATM   18  C   UNL     1      -6.258   2.104 -31.563  1.00  0.00     0.050 A 
HETATM   19  C   UNL     1      -4.938   2.396 -31.949  1.00  0.00     0.058 A 
HETATM   20  C   UNL     1      -3.899   1.525 -31.572  1.00  0.00     0.019 A 
HETATM   21  C   UNL     1      -4.149   0.408 -30.775  1.00  0.00     0.001 A 
HETATM   22  C   UNL     1      -5.441   0.161 -30.327  1.00  0.00     0.002 A 
HETATM   23  C   UNL     1      -6.483   1.007 -30.711  1.00  0.00     0.030 A 
BRANCH  19  24
HETATM   24  C   UNL     1      -4.487   3.660 -32.595  1.00  0.00     0.253 C 
HETATM   25  N   UNL     1      -3.481   4.348 -31.949  1.00  0.00    -0.357 N 
HETATM   26  H   UNL     1      -3.133   3.992 -31.068  1.00  0.00     0.162 HD
HETATM   27  O   UNL     1      -4.927   3.984 -33.692  1.00  0.00    -0.268 OA
BRANCH  25  28
HETATM   28  C   UNL     1      -2.892   5.544 -32.512  1.00  0.00     0.125 C 
BRANCH  28  29
HETATM   29  C   UNL     1      -1.658   5.261 -33.365  1.00  0.00     0.046 C 
BRANCH  29  30
HETATM   30  C   UNL     1      -1.910   5.379 -34.863  1.00  0.00     0.165 C 
BRANCH  30  31
HETATM   31  O   UNL     1      -3.213   5.914 -35.080  1.00  0.00    -0.401 OA
HETATM   32  H   UNL     1      -3.830   5.164 -35.108  1.00  0.00     0.209 HD
ENDBRANCH  30  31
ENDBRANCH  29  30
ENDBRANCH  28  29
ENDBRANCH  25  28
ENDBRANCH  19  24
ENDBRANCH   1  18
TORSDOF 11
ENDMDL
MODEL 2
REMARK VINA RESULT:      -7.2      3.137      4.876
REMARK  11 active torsions:
REMARK  status: ('A' for Active; 'I' for Inactive)
REMARK    1  A    between atoms: O_2  and  C_3 
REMARK    2  A    between atoms: C_6  and  C_7 
REMARK    3  A    between atoms: C_7  and  C_8 
REMARK       I    between atoms: C_8  and  N_9 
REMARK    4  A    between atoms: N_9  and  C_10 
REMARK    5  A    between atoms: C_10  and  N_11 
REMARK    6  A    between atoms: N_11  and  C_12 
REMARK    7  A    between atoms: C_13  and  C_14 
REMARK       I    between atoms: C_14  and  N_15 
REMARK    8  A    between atoms: N_15  and  C_16 
REMARK    9  A    between atoms: C_16  and  C_17 
REMARK   10  A    between atoms: C_17  and  C_18 
REMARK   11  A    between atoms: C_18  and  O_19 
ROOT
HETATM    1  N   UNL     1      -3.032   3.999 -31.207  1.00  0.00    -0.332 N 
HETATM    2  H   UNL     1      -2.589   3.087 -31.073  1.00  0.00     0.168 HD
ENDROOT
BRANCH   1   3
HETATM    3  C   UNL     1      -4.387   3.950 -30.927  1.00  0.00     0.178 C 
HETATM    4  S   UNL     1      -5.436   5.189 -30.538  1.00  0.00    -0.040 SA
BRANCH   3   5
HETATM    5  N   UNL     1      -4.957   2.689 -31.053  1.00  0.00    -0.303 N 
HETATM    6  C   UNL     1      -5.525   2.124 -32.187  1.00  0.00     0.228 C 
HETATM    7  O   UNL     1      -5.354   2.579 -33.318  1.00  0.00    -0.273 OA
HETATM    8  H   UNL     1      -5.205   2.278 -30.159  1.00  0.00     0.171 HD
BRANCH   6   9
HETATM    9  C   UNL     1      -6.330   0.862 -31.941  1.00  0.00     0.141 C 
BRANCH   9  10
HETATM   10  C   UNL     1      -6.011  -0.316 -32.838  1.00  0.00    -0.049 A 
HETATM   11  C   UNL     1      -4.733  -0.886 -32.917  1.00  0.00     0.010 A 
HETATM   12  C   UNL     1      -4.488  -1.988 -33.748  1.00  0.00     0.037 A 
HETATM   13  C   UNL     1      -5.524  -2.559 -34.484  1.00  0.00     0.068 A 
HETATM   14  C   UNL     1      -6.808  -2.023 -34.375  1.00  0.00     0.037 A 
HETATM   15  C   UNL     1      -7.052  -0.914 -33.562  1.00  0.00     0.010 A 
BRANCH  13  16
HETATM   16  O   UNL     1      -5.423  -3.635 -35.320  1.00  0.00    -0.356 OA
HETATM   17  C   UNL     1      -6.528  -4.529 -35.356  1.00  0.00     0.210 C 
ENDBRANCH  13  16
ENDBRANCH   9  10
ENDBRANCH   6   9
ENDBRANCH   3   5
ENDBRANCH   1   3
BRANCH   1  18
HETATM   18  C   UNL     1      -2.365   4.830 -32.143  1.00  0.00     0.050 A 
HETATM   19  C   UNL     1      -1.771   6.079 -31.887  1.00  0.00     0.058 A 
HETATM   20  C   UNL     1      -1.231   6.819 -32.956  1.00  0.00     0.019 A 
HETATM   21  C   UNL     1      -1.224   6.308 -34.254  1.00  0.00     0.001 A 
HETATM   22  C   UNL     1      -1.739   5.042 -34.495  1.00  0.00     0.002 A 
HETATM   23  C   UNL     1      -2.296   4.306 -33.446  1.00  0.00     0.030 A 
BRANCH  19  24
HETATM   24  C   UNL     1      -1.498   6.645 -30.537  1.00  0.00     0.253 C 
HETATM   25  N   UNL     1      -0.178   6.931 -30.253  1.00  0.00    -0.357 N 
HETATM   26  H   UNL     1       0.528   6.711 -30.944  1.00  0.00     0.162 HD
HETATM   27  O   UNL     1      -2.425   6.931 -29.788  1.00  0.00    -0.268 OA
BRANCH  25  28
HETATM   28  C   UNL     1       0.215   7.563 -29.012  1.00  0.00     0.125 C 
BRANCH  28  29
HETATM   29  C   UNL     1       0.771   6.579 -27.987  1.00  0.00     0.046 C 
BRANCH  29  30
HETATM   30  C   UNL     1      -0.131   6.380 -26.776  1.00  0.00     0.165 C 
BRANCH  30  31
HETATM   31  O   UNL     1      -1.488   6.308 -27.209  1.00  0.00    -0.401 OA
HETATM   32  H   UNL     1      -1.681   7.132 -27.686  1.00  0.00     0.209 HD
ENDBRANCH  30  31
ENDBRANCH  29  30
ENDBRANCH  28  29
ENDBRANCH  25  28
ENDBRANCH  19  24
ENDBRANCH   1  18
TORSDOF 11
ENDMDL
MODEL 3
REMARK VINA RESULT:      -7.2      3.588      5.301
REMARK  11 active torsions:
REMARK  status: ('A' for Active; 'I' for Inactive)
REMARK    1  A    between atoms: O_2  and  C_3 
REMARK    2  A    between atoms: C_6  and  C_7 
REMARK    3  A    between atoms: C_7  and  C_8 
REMARK       I    between atoms: C_8  and  N_9 
REMARK    4  A    between atoms: N_9  and  C_10 
REMARK    5  A    between atoms: C_10  and  N_11 
REMARK    6  A    between atoms: N_11  and  C_12 
REMARK    7  A    between atoms: C_13  and  C_14 
REMARK       I    between atoms: C_14  and  N_15 
REMARK    8  A    between atoms: N_15  and  C_16 
REMARK    9  A    between atoms: C_16  and  C_17 
REMARK   10  A    between atoms: C_17  and  C_18 
REMARK   11  A    between atoms: C_18  and  O_19 
ROOT
HETATM    1  N   UNL     1      -2.855   3.444 -31.394  1.00  0.00    -0.332 N 
HETATM    2  H   UNL     1      -2.254   3.130 -30.627  1.00  0.00     0.168 HD
ENDROOT
BRANCH   1   3
HETATM    3  C   UNL     1      -3.828   2.505 -31.691  1.00  0.00     0.178 C 
HETATM    4  S   UNL     1      -5.483   2.690 -31.796  1.00  0.00    -0.040 SA
BRANCH   3   5
HETATM    5  N   UNL     1      -3.335   1.246 -32.009  1.00  0.00    -0.303 N 
HETATM    6  C   UNL     1      -3.546   0.055 -31.328  1.00  0.00     0.228 C 
HETATM    7  O   UNL     1      -4.432  -0.086 -30.485  1.00  0.00    -0.273 OA
HETATM    8  H   UNL     1      -2.542   1.282 -32.640  1.00  0.00     0.171 HD
BRANCH   6   9
HETATM    9  C   UNL     1      -2.638  -1.089 -31.739  1.00  0.00     0.141 C 
BRANCH   9  10
HETATM   10  C   UNL     1      -3.288  -2.200 -32.537  1.00  0.00    -0.049 A 
HETATM   11  C   UNL     1      -3.078  -3.558 -32.259  1.00  0.00     0.010 A 
HETATM   12  C   UNL     1      -3.716  -4.553 -33.012  1.00  0.00     0.037 A 
HETATM   13  C   UNL     1      -4.601  -4.206 -34.031  1.00  0.00     0.068 A 
HETATM   14  C   UNL     1      -4.849  -2.856 -34.282  1.00  0.00     0.037 A 
HETATM   15  C   UNL     1      -4.201  -1.862 -33.545  1.00  0.00     0.010 A 
BRANCH  13  16
HETATM   16  O   UNL     1      -5.292  -5.073 -34.830  1.00  0.00    -0.356 OA
HETATM   17  C   UNL     1      -6.503  -4.596 -35.403  1.00  0.00     0.210 C 
ENDBRANCH  13  16
ENDBRANCH   9  10
ENDBRANCH   6   9
ENDBRANCH   3   5
ENDBRANCH   1   3
BRANCH   1  18
HETATM   18  C   UNL     1      -2.229   4.361 -32.276  1.00  0.00     0.050 A 
HETATM   19  C   UNL     1      -1.336   5.390 -31.928  1.00  0.00     0.058 A 
HETATM   20  C   UNL     1      -0.879   6.274 -32.923  1.00  0.00     0.019 A 
HETATM   21  C   UNL     1      -1.251   6.112 -34.257  1.00  0.00     0.001 A 
HETATM   22  C   UNL     1      -2.070   5.049 -34.615  1.00  0.00     0.002 A 
HETATM   23  C   UNL     1      -2.547   4.177 -33.635  1.00  0.00     0.030 A 
BRANCH  19  24
HETATM   24  C   UNL     1      -0.674   5.546 -30.604  1.00  0.00     0.253 C 
HETATM   25  N   UNL     1      -0.944   6.717 -29.924  1.00  0.00    -0.357 N 
HETATM   26  H   UNL     1      -1.532   7.412 -30.363  1.00  0.00     0.162 HD
HETATM   27  O   UNL     1      -0.022   4.625 -30.125  1.00  0.00    -0.268 OA
BRANCH  25  28
HETATM   28  C   UNL     1      -0.434   6.959 -28.591  1.00  0.00     0.125 C 
BRANCH  28  29
HETATM   29  C   UNL     1       0.853   7.778 -28.580  1.00  0.00     0.046 C 
BRANCH  29  30
HETATM   30  C   UNL     1       1.468   7.934 -27.195  1.00  0.00     0.165 C 
BRANCH  30  31
HETATM   31  O   UNL     1       2.174   9.171 -27.131  1.00  0.00    -0.401 OA
HETATM   32  H   UNL     1       1.837   9.654 -26.358  1.00  0.00     0.209 HD
ENDBRANCH  30  31
ENDBRANCH  29  30
ENDBRANCH  28  29
ENDBRANCH  25  28
ENDBRANCH  19  24
ENDBRANCH   1  18
TORSDOF 11
ENDMDL
MODEL 4
REMARK VINA RESULT:      -7.2      2.489      3.146
REMARK  11 active torsions:
REMARK  status: ('A' for Active; 'I' for Inactive)
REMARK    1  A    between atoms: O_2  and  C_3 
REMARK    2  A    between atoms: C_6  and  C_7 
REMARK    3  A    between atoms: C_7  and  C_8 
REMARK       I    between atoms: C_8  and  N_9 
REMARK    4  A    between atoms: N_9  and  C_10 
REMARK    5  A    between atoms: C_10  and  N_11 
REMARK    6  A    between atoms: N_11  and  C_12 
REMARK    7  A    between atoms: C_13  and  C_14 
REMARK       I    between atoms: C_14  and  N_15 
REMARK    8  A    between atoms: N_15  and  C_16 
REMARK    9  A    between atoms: C_16  and  C_17 
REMARK   10  A    between atoms: C_17  and  C_18 
REMARK   11  A    between atoms: C_18  and  O_19 
ROOT
HETATM    1  N   UNL     1      -7.386   1.804 -30.549  1.00  0.00    -0.332 N 
HETATM    2  H   UNL     1      -7.767   1.186 -29.828  1.00  0.00     0.168 HD
ENDROOT
BRANCH   1   3
HETATM    3  C   UNL     1      -8.338   2.108 -31.508  1.00  0.00     0.178 C 
HETATM    4  S   UNL     1      -9.736   3.009 -31.365  1.00  0.00    -0.040 SA
BRANCH   3   5
HETATM    5  N   UNL     1      -8.041   1.645 -32.783  1.00  0.00    -0.303 N 
HETATM    6  C   UNL     1      -8.429   0.443 -33.361  1.00  0.00     0.228 C 
HETATM    7  O   UNL     1      -9.326  -0.262 -32.899  1.00  0.00    -0.273 OA
HETATM    8  H   UNL     1      -7.251   2.124 -33.202  1.00  0.00     0.171 HD
BRANCH   6   9
HETATM    9  C   UNL     1      -7.704   0.085 -34.645  1.00  0.00     0.141 C 
BRANCH   9  10
HETATM   10  C   UNL     1      -6.724  -1.065 -34.556  1.00  0.00    -0.049 A 
HETATM   11  C   UNL     1      -5.419  -0.916 -34.063  1.00  0.00     0.010 A 
HETATM   12  C   UNL     1      -4.551  -2.013 -33.981  1.00  0.00     0.037 A 
HETATM   13  C   UNL     1      -4.985  -3.283 -34.356  1.00  0.00     0.068 A 
HETATM   14  C   UNL     1      -6.296  -3.446 -34.805  1.00  0.00     0.037 A 
HETATM   15  C   UNL     1      -7.158  -2.351 -34.905  1.00  0.00     0.010 A 
BRANCH  13  16
HETATM   16  O   UNL     1      -4.247  -4.432 -34.317  1.00  0.00    -0.356 OA
HETATM   17  C   UNL     1      -3.352  -4.585 -33.223  1.00  0.00     0.210 C 
ENDBRANCH  13  16
ENDBRANCH   9  10
ENDBRANCH   6   9
ENDBRANCH   3   5
ENDBRANCH   1   3
BRANCH   1  18
HETATM   18  C   UNL     1      -5.982   1.693 -30.718  1.00  0.00     0.050 A 
HETATM   19  C   UNL     1      -5.069   2.748 -30.891  1.00  0.00     0.058 A 
HETATM   20  C   UNL     1      -3.715   2.456 -31.141  1.00  0.00     0.019 A 
HETATM   21  C   UNL     1      -3.255   1.140 -31.163  1.00  0.00     0.001 A 
HETATM   22  C   UNL     1      -4.141   0.100 -30.913  1.00  0.00     0.002 A 
HETATM   23  C   UNL     1      -5.490   0.376 -30.684  1.00  0.00     0.030 A 
BRANCH  19  24
HETATM   24  C   UNL     1      -5.364   4.191 -30.668  1.00  0.00     0.253 C 
HETATM   25  N   UNL     1      -4.585   4.832 -29.726  1.00  0.00    -0.357 N 
HETATM   26  H   UNL     1      -3.894   4.295 -29.217  1.00  0.00     0.162 HD
HETATM   27  O   UNL     1      -6.181   4.771 -31.373  1.00  0.00    -0.268 OA
BRANCH  25  28
HETATM   28  C   UNL     1      -4.709   6.251 -29.473  1.00  0.00     0.125 C 
BRANCH  28  29
HETATM   29  C   UNL     1      -5.599   6.572 -28.276  1.00  0.00     0.046 C 
BRANCH  29  30
HETATM   30  C   UNL     1      -4.916   6.360 -26.930  1.00  0.00     0.165 C 
BRANCH  30  31
HETATM   31  O   UNL     1      -4.675   4.967 -26.741  1.00  0.00    -0.401 OA
HETATM   32  H   UNL     1      -3.714   4.833 -26.800  1.00  0.00     0.209 HD
ENDBRANCH  30  31
ENDBRANCH  29  30
ENDBRANCH  28  29
ENDBRANCH  25  28
ENDBRANCH  19  24
ENDBRANCH   1  18
TORSDOF 11
ENDMDL
MODEL 5
REMARK VINA RESULT:      -7.0      1.693      2.075
REMARK  11 active torsions:
REMARK  status: ('A' for Active; 'I' for Inactive)
REMARK    1  A    between atoms: O_2  and  C_3 
REMARK    2  A    between atoms: C_6  and  C_7 
REMARK    3  A    between atoms: C_7  and  C_8 
REMARK       I    between atoms: C_8  and  N_9 
REMARK    4  A    between atoms: N_9  and  C_10 
REMARK    5  A    between atoms: C_10  and  N_11 
REMARK    6  A    between atoms: N_11  and  C_12 
REMARK    7  A    between atoms: C_13  and  C_14 
REMARK       I    between atoms: C_14  and  N_15 
REMARK    8  A    between atoms: N_15  and  C_16 
REMARK    9  A    between atoms: C_16  and  C_17 
REMARK   10  A    between atoms: C_17  and  C_18 
REMARK   11  A    between atoms: C_18  and  O_19 
ROOT
HETATM    1  N   UNL     1      -6.922   2.764 -31.292  1.00  0.00    -0.332 N 
HETATM    2  H   UNL     1      -7.185   3.265 -30.439  1.00  0.00     0.168 HD
ENDROOT
BRANCH   1   3
HETATM    3  C   UNL     1      -8.023   2.522 -32.096  1.00  0.00     0.178 C 
HETATM    4  S   UNL     1      -9.453   3.373 -32.220  1.00  0.00    -0.040 SA
BRANCH   3   5
HETATM    5  N   UNL     1      -7.876   1.450 -32.967  1.00  0.00    -0.303 N 
HETATM    6  C   UNL     1      -7.208   1.429 -34.184  1.00  0.00     0.228 C 
HETATM    7  O   UNL     1      -6.419   2.309 -34.528  1.00  0.00    -0.273 OA
HETATM    8  H   UNL     1      -8.552   0.712 -32.800  1.00  0.00     0.171 HD
BRANCH   6   9
HETATM    9  C   UNL     1      -7.476   0.208 -35.043  1.00  0.00     0.141 C 
BRANCH   9  10
HETATM   10  C   UNL     1      -6.590  -0.993 -34.787  1.00  0.00    -0.049 A 
HETATM   11  C   UNL     1      -5.359  -0.900 -34.120  1.00  0.00     0.010 A 
HETATM   12  C   UNL     1      -4.580  -2.041 -33.887  1.00  0.00     0.037 A 
HETATM   13  C   UNL     1      -5.034  -3.297 -34.286  1.00  0.00     0.068 A 
HETATM   14  C   UNL     1      -6.277  -3.401 -34.910  1.00  0.00     0.037 A 
HETATM   15  C   UNL     1      -7.049  -2.263 -35.159  1.00  0.00     0.010 A 
BRANCH  13  16
HETATM   16  O   UNL     1      -4.379  -4.484 -34.113  1.00  0.00    -0.356 OA
HETATM   17  C   UNL     1      -3.337  -4.509 -33.146  1.00  0.00     0.210 C 
ENDBRANCH  13  16
ENDBRANCH   9  10
ENDBRANCH   6   9
ENDBRANCH   3   5
ENDBRANCH   1   3
BRANCH   1  18
HETATM   18  C   UNL     1      -5.749   1.978 -31.159  1.00  0.00     0.050 A 
HETATM   19  C   UNL     1      -4.436   2.360 -31.487  1.00  0.00     0.058 A 
HETATM   20  C   UNL     1      -3.395   1.419 -31.381  1.00  0.00     0.019 A 
HETATM   21  C   UNL     1      -3.635   0.131 -30.901  1.00  0.00     0.001 A 
HETATM   22  C   UNL     1      -4.917  -0.223 -30.502  1.00  0.00     0.002 A 
HETATM   23  C   UNL     1      -5.962   0.695 -30.622  1.00  0.00     0.030 A 
BRANCH  19  24
HETATM   24  C   UNL     1      -3.992   3.749 -31.787  1.00  0.00     0.253 C 
HETATM   25  N   UNL     1      -2.788   4.135 -31.234  1.00  0.00    -0.357 N 
HETATM   26  H   UNL     1      -2.296   3.486 -30.634  1.00  0.00     0.162 HD
HETATM   27  O   UNL     1      -4.625   4.446 -32.572  1.00  0.00    -0.268 OA
BRANCH  25  28
HETATM   28  C   UNL     1      -2.199   5.427 -31.516  1.00  0.00     0.125 C 
BRANCH  28  29
HETATM   29  C   UNL     1      -0.733   5.340 -31.932  1.00  0.00     0.046 C 
BRANCH  29  30
HETATM   30  C   UNL     1       0.240   5.383 -30.761  1.00  0.00     0.165 C 
BRANCH  30  31
HETATM   31  O   UNL     1       0.006   4.260 -29.914  1.00  0.00    -0.401 OA
HETATM   32  H   UNL     1      -0.555   3.640 -30.410  1.00  0.00     0.209 HD
ENDBRANCH  30  31
ENDBRANCH  29  30
ENDBRANCH  28  29
ENDBRANCH  25  28
ENDBRANCH  19  24
ENDBRANCH   1  18
TORSDOF 11
ENDMDL
MODEL 6
REMARK VINA RESULT:      -6.9      3.355      6.333
REMARK  11 active torsions:
REMARK  status: ('A' for Active; 'I' for Inactive)
REMARK    1  A    between atoms: O_2  and  C_3 
REMARK    2  A    between atoms: C_6  and  C_7 
REMARK    3  A    between atoms: C_7  and  C_8 
REMARK       I    between atoms: C_8  and  N_9 
REMARK    4  A    between atoms: N_9  and  C_10 
REMARK    5  A    between atoms: C_10  and  N_11 
REMARK    6  A    between atoms: N_11  and  C_12 
REMARK    7  A    between atoms: C_13  and  C_14 
REMARK       I    between atoms: C_14  and  N_15 
REMARK    8  A    between atoms: N_15  and  C_16 
REMARK    9  A    between atoms: C_16  and  C_17 
REMARK   10  A    between atoms: C_17  and  C_18 
REMARK   11  A    between atoms: C_18  and  O_19 
ROOT
HETATM    1  N   UNL     1      -9.027   1.798 -30.871  1.00  0.00    -0.332 N 
HETATM    2  H   UNL     1      -9.349   1.483 -29.952  1.00  0.00     0.168 HD
ENDROOT
BRANCH   1   3
HETATM    3  C   UNL     1      -7.726   1.393 -31.118  1.00  0.00     0.178 C 
HETATM    4  S   UNL     1      -6.349   1.639 -30.208  1.00  0.00    -0.040 SA
BRANCH   3   5
HETATM    5  N   UNL     1      -7.571   0.616 -32.258  1.00  0.00    -0.303 N 
HETATM    6  C   UNL     1      -7.129   1.024 -33.510  1.00  0.00     0.228 C 
HETATM    7  O   UNL     1      -6.555   2.096 -33.700  1.00  0.00    -0.273 OA
HETATM    8  H   UNL     1      -8.086  -0.257 -32.213  1.00  0.00     0.171 HD
BRANCH   6   9
HETATM    9  C   UNL     1      -7.352   0.022 -34.627  1.00  0.00     0.141 C 
BRANCH   9  10
HETATM   10  C   UNL     1      -6.553  -1.261 -34.539  1.00  0.00    -0.049 A 
HETATM   11  C   UNL     1      -7.061  -2.503 -34.949  1.00  0.00     0.010 A 
HETATM   12  C   UNL     1      -6.279  -3.663 -34.867  1.00  0.00     0.037 A 
HETATM   13  C   UNL     1      -4.965  -3.594 -34.409  1.00  0.00     0.068 A 
HETATM   14  C   UNL     1      -4.439  -2.355 -34.041  1.00  0.00     0.037 A 
HETATM   15  C   UNL     1      -5.222  -1.200 -34.105  1.00  0.00     0.010 A 
BRANCH  13  16
HETATM   16  O   UNL     1      -4.096  -4.642 -34.288  1.00  0.00    -0.356 OA
HETATM   17  C   UNL     1      -3.303  -4.689 -33.109  1.00  0.00     0.210 C 
ENDBRANCH  13  16
ENDBRANCH   9  10
ENDBRANCH   6   9
ENDBRANCH   3   5
ENDBRANCH   1   3
BRANCH   1  18
HETATM   18  C   UNL     1      -9.680   2.967 -31.340  1.00  0.00     0.050 A 
HETATM   19  C   UNL     1     -10.527   3.068 -32.457  1.00  0.00     0.058 A 
HETATM   20  C   UNL     1     -11.019   4.331 -32.840  1.00  0.00     0.019 A 
HETATM   21  C   UNL     1     -10.727   5.473 -32.095  1.00  0.00     0.001 A 
HETATM   22  C   UNL     1      -9.955   5.363 -30.945  1.00  0.00     0.002 A 
HETATM   23  C   UNL     1      -9.444   4.119 -30.567  1.00  0.00     0.030 A 
BRANCH  19  24
HETATM   24  C   UNL     1     -11.110   1.921 -33.206  1.00  0.00     0.253 C 
HETATM   25  N   UNL     1     -12.265   2.181 -33.915  1.00  0.00    -0.357 N 
HETATM   26  H   UNL     1     -12.673   3.105 -33.862  1.00  0.00     0.162 HD
HETATM   27  O   UNL     1     -10.515   0.850 -33.258  1.00  0.00    -0.268 OA
BRANCH  25  28
HETATM   28  C   UNL     1     -12.887   1.178 -34.753  1.00  0.00     0.125 C 
BRANCH  28  29
HETATM   29  C   UNL     1     -14.042   0.454 -34.067  1.00  0.00     0.046 C 
BRANCH  29  30
HETATM   30  C   UNL     1     -15.025   1.388 -33.372  1.00  0.00     0.165 C 
BRANCH  30  31
HETATM   31  O   UNL     1     -14.545   1.685 -32.062  1.00  0.00    -0.401 OA
HETATM   32  H   UNL     1     -13.595   1.874 -32.142  1.00  0.00     0.209 HD
ENDBRANCH  30  31
ENDBRANCH  29  30
ENDBRANCH  28  29
ENDBRANCH  25  28
ENDBRANCH  19  24
ENDBRANCH   1  18
TORSDOF 11
ENDMDL
MODEL 7
REMARK VINA RESULT:      -6.7      2.684      4.624
REMARK  11 active torsions:
REMARK  status: ('A' for Active; 'I' for Inactive)
REMARK    1  A    between atoms: O_2  and  C_3 
REMARK    2  A    between atoms: C_6  and  C_7 
REMARK    3  A    between atoms: C_7  and  C_8 
REMARK       I    between atoms: C_8  and  N_9 
REMARK    4  A    between atoms: N_9  and  C_10 
REMARK    5  A    between atoms: C_10  and  N_11 
REMARK    6  A    between atoms: N_11  and  C_12 
REMARK    7  A    between atoms: C_13  and  C_14 
REMARK       I    between atoms: C_14  and  N_15 
REMARK    8  A    between atoms: N_15  and  C_16 
REMARK    9  A    between atoms: C_16  and  C_17 
REMARK   10  A    between atoms: C_17  and  C_18 
REMARK   11  A    between atoms: C_18  and  O_19 
ROOT
HETATM    1  N   UNL     1     -10.903   2.058 -32.715  1.00  0.00    -0.332 N 
HETATM    2  H   UNL     1     -10.445   1.324 -32.169  1.00  0.00     0.168 HD
ENDROOT
BRANCH   1   3
HETATM    3  C   UNL     1     -10.935   1.740 -34.062  1.00  0.00     0.178 C 
HETATM    4  S   UNL     1     -12.218   1.772 -35.130  1.00  0.00    -0.040 SA
BRANCH   3   5
HETATM    5  N   UNL     1      -9.700   1.410 -34.606  1.00  0.00    -0.303 N 
HETATM    6  C   UNL     1      -8.695   0.646 -34.029  1.00  0.00     0.228 C 
HETATM    7  O   UNL     1      -8.881  -0.072 -33.047  1.00  0.00    -0.273 OA
HETATM    8  H   UNL     1      -9.435   2.016 -35.375  1.00  0.00     0.171 HD
BRANCH   6   9
HETATM    9  C   UNL     1      -7.353   0.712 -34.734  1.00  0.00     0.141 C 
BRANCH   9  10
HETATM   10  C   UNL     1      -6.417  -0.453 -34.493  1.00  0.00    -0.049 A 
HETATM   11  C   UNL     1      -5.268  -0.353 -33.695  1.00  0.00     0.010 A 
HETATM   12  C   UNL     1      -4.440  -1.464 -33.484  1.00  0.00     0.037 A 
HETATM   13  C   UNL     1      -4.767  -2.700 -34.036  1.00  0.00     0.068 A 
HETATM   14  C   UNL     1      -5.933  -2.817 -34.794  1.00  0.00     0.037 A 
HETATM   15  C   UNL     1      -6.751  -1.708 -35.022  1.00  0.00     0.010 A 
BRANCH  13  16
HETATM   16  O   UNL     1      -4.054  -3.859 -33.901  1.00  0.00    -0.356 OA
HETATM   17  C   UNL     1      -3.313  -4.021 -32.699  1.00  0.00     0.210 C 
ENDBRANCH  13  16
ENDBRANCH   9  10
ENDBRANCH   6   9
ENDBRANCH   3   5
ENDBRANCH   1   3
BRANCH   1  18
HETATM   18  C   UNL     1     -10.831   3.345 -32.124  1.00  0.00     0.050 A 
HETATM   19  C   UNL     1      -9.663   4.044 -31.770  1.00  0.00     0.058 A 
HETATM   20  C   UNL     1      -9.773   5.279 -31.102  1.00  0.00     0.019 A 
HETATM   21  C   UNL     1     -11.019   5.846 -30.839  1.00  0.00     0.001 A 
HETATM   22  C   UNL     1     -12.172   5.195 -31.259  1.00  0.00     0.002 A 
HETATM   23  C   UNL     1     -12.076   3.960 -31.904  1.00  0.00     0.030 A 
BRANCH  19  24
HETATM   24  C   UNL     1      -8.280   3.682 -32.185  1.00  0.00     0.253 C 
HETATM   25  N   UNL     1      -7.515   3.024 -31.243  1.00  0.00    -0.357 N 
HETATM   26  H   UNL     1      -7.907   2.858 -30.325  1.00  0.00     0.162 HD
HETATM   27  O   UNL     1      -7.911   3.872 -33.338  1.00  0.00    -0.268 OA
BRANCH  25  28
HETATM   28  C   UNL     1      -6.185   2.540 -31.545  1.00  0.00     0.125 C 
BRANCH  28  29
HETATM   29  C   UNL     1      -5.469   1.955 -30.331  1.00  0.00     0.046 C 
BRANCH  29  30
HETATM   30  C   UNL     1      -5.990   0.586 -29.913  1.00  0.00     0.165 C 
BRANCH  30  31
HETATM   31  O   UNL     1      -7.121   0.249 -30.714  1.00  0.00    -0.401 OA
HETATM   32  H   UNL     1      -7.050  -0.697 -30.926  1.00  0.00     0.209 HD
ENDBRANCH  30  31
ENDBRANCH  29  30
ENDBRANCH  28  29
ENDBRANCH  25  28
ENDBRANCH  19  24
ENDBRANCH   1  18
TORSDOF 11
ENDMDL
MODEL 8
REMARK VINA RESULT:      -6.6      2.349      5.312
REMARK  11 active torsions:
REMARK  status: ('A' for Active; 'I' for Inactive)
REMARK    1  A    between atoms: O_2  and  C_3 
REMARK    2  A    between atoms: C_6  and  C_7 
REMARK    3  A    between atoms: C_7  and  C_8 
REMARK       I    between atoms: C_8  and  N_9 
REMARK    4  A    between atoms: N_9  and  C_10 
REMARK    5  A    between atoms: C_10  and  N_11 
REMARK    6  A    between atoms: N_11  and  C_12 
REMARK    7  A    between atoms: C_13  and  C_14 
REMARK       I    between atoms: C_14  and  N_15 
REMARK    8  A    between atoms: N_15  and  C_16 
REMARK    9  A    between atoms: C_16  and  C_17 
REMARK   10  A    between atoms: C_17  and  C_18 
REMARK   11  A    between atoms: C_18  and  O_19 
ROOT
HETATM    1  N   UNL     1      -4.455   4.179 -33.499  1.00  0.00    -0.332 N 
HETATM    2  H   UNL     1      -4.407   3.706 -34.405  1.00  0.00     0.168 HD
ENDROOT
BRANCH   1   3
HETATM    3  C   UNL     1      -3.577   3.618 -32.588  1.00  0.00     0.178 C 
HETATM    4  S   UNL     1      -2.341   4.336 -31.727  1.00  0.00    -0.040 SA
BRANCH   3   5
HETATM    5  N   UNL     1      -3.812   2.278 -32.311  1.00  0.00    -0.303 N 
HETATM    6  C   UNL     1      -4.659   1.745 -31.348  1.00  0.00     0.228 C 
HETATM    7  O   UNL     1      -5.529   2.408 -30.783  1.00  0.00    -0.273 OA
HETATM    8  H   UNL     1      -3.088   1.668 -32.675  1.00  0.00     0.171 HD
BRANCH   6   9
HETATM    9  C   UNL     1      -4.477   0.263 -31.081  1.00  0.00     0.141 C 
BRANCH   9  10
HETATM   10  C   UNL     1      -4.904  -0.671 -32.195  1.00  0.00    -0.049 A 
HETATM   11  C   UNL     1      -6.217  -0.716 -32.686  1.00  0.00     0.010 A 
HETATM   12  C   UNL     1      -6.563  -1.583 -33.732  1.00  0.00     0.037 A 
HETATM   13  C   UNL     1      -5.596  -2.390 -34.326  1.00  0.00     0.068 A 
HETATM   14  C   UNL     1      -4.279  -2.317 -33.871  1.00  0.00     0.037 A 
HETATM   15  C   UNL     1      -3.934  -1.468 -32.817  1.00  0.00     0.010 A 
BRANCH  13  16
HETATM   16  O   UNL     1      -5.798  -3.268 -35.354  1.00  0.00    -0.356 OA
HETATM   17  C   UNL     1      -6.510  -4.462 -35.050  1.00  0.00     0.210 C 
ENDBRANCH  13  16
ENDBRANCH   9  10
ENDBRANCH   6   9
ENDBRANCH   3   5
ENDBRANCH   1   3
BRANCH   1  18
HETATM   18  C   UNL     1      -5.706   4.797 -33.240  1.00  0.00     0.050 A 
HETATM   19  C   UNL     1      -6.979   4.273 -33.524  1.00  0.00     0.058 A 
HETATM   20  C   UNL     1      -8.120   5.062 -33.287  1.00  0.00     0.019 A 
HETATM   21  C   UNL     1      -8.012   6.332 -32.720  1.00  0.00     0.001 A 
HETATM   22  C   UNL     1      -6.761   6.819 -32.365  1.00  0.00     0.002 A 
HETATM   23  C   UNL     1      -5.620   6.054 -32.614  1.00  0.00     0.030 A 
BRANCH  19  24
HETATM   24  C   UNL     1      -7.266   2.863 -33.910  1.00  0.00     0.253 C 
HETATM   25  N   UNL     1      -8.588   2.470 -33.838  1.00  0.00    -0.357 N 
HETATM   26  H   UNL     1      -9.275   3.130 -33.497  1.00  0.00     0.162 HD
HETATM   27  O   UNL     1      -6.377   2.153 -34.365  1.00  0.00    -0.268 OA
BRANCH  25  28
HETATM   28  C   UNL     1      -9.016   1.156 -34.265  1.00  0.00     0.125 C 
BRANCH  28  29
HETATM   29  C   UNL     1     -10.207   0.626 -33.472  1.00  0.00     0.046 C 
BRANCH  29  30
HETATM   30  C   UNL     1     -11.406   1.566 -33.465  1.00  0.00     0.165 C 
BRANCH  30  31
HETATM   31  O   UNL     1     -11.245   2.525 -32.423  1.00  0.00    -0.401 OA
HETATM   32  H   UNL     1     -12.018   2.446 -31.839  1.00  0.00     0.209 HD
ENDBRANCH  30  31
ENDBRANCH  29  30
ENDBRANCH  28  29
ENDBRANCH  25  28
ENDBRANCH  19  24
ENDBRANCH   1  18
TORSDOF 11
ENDMDL
MODEL 9
REMARK VINA RESULT:      -6.5      4.679      7.245
REMARK  11 active torsions:
REMARK  status: ('A' for Active; 'I' for Inactive)
REMARK    1  A    between atoms: O_2  and  C_3 
REMARK    2  A    between atoms: C_6  and  C_7 
REMARK    3  A    between atoms: C_7  and  C_8 
REMARK       I    between atoms: C_8  and  N_9 
REMARK    4  A    between atoms: N_9  and  C_10 
REMARK    5  A    between atoms: C_10  and  N_11 
REMARK    6  A    between atoms: N_11  and  C_12 
REMARK    7  A    between atoms: C_13  and  C_14 
REMARK       I    between atoms: C_14  and  N_15 
REMARK    8  A    between atoms: N_15  and  C_16 
REMARK    9  A    between atoms: C_16  and  C_17 
REMARK   10  A    between atoms: C_17  and  C_18 
REMARK   11  A    between atoms: C_18  and  O_19 
ROOT
HETATM    1  N   UNL     1     -10.990   2.166 -32.950  1.00  0.00    -0.332 N 
HETATM    2  H   UNL     1     -10.753   2.342 -31.970  1.00  0.00     0.168 HD
ENDROOT
BRANCH   1   3
HETATM    3  C   UNL     1     -10.097   2.787 -33.806  1.00  0.00     0.178 C 
HETATM    4  S   UNL     1      -9.712   4.405 -33.945  1.00  0.00    -0.040 SA
BRANCH   3   5
HETATM    5  N   UNL     1      -9.378   1.919 -34.617  1.00  0.00    -0.303 N 
HETATM    6  C   UNL     1      -8.816   0.699 -34.267  1.00  0.00     0.228 C 
HETATM    7  O   UNL     1      -9.118   0.095 -33.238  1.00  0.00    -0.273 OA
HETATM    8  H   UNL     1      -9.020   2.368 -35.454  1.00  0.00     0.171 HD
BRANCH   6   9
HETATM    9  C   UNL     1      -7.839   0.128 -35.277  1.00  0.00     0.141 C 
BRANCH   9  10
HETATM   10  C   UNL     1      -6.761  -0.779 -34.722  1.00  0.00    -0.049 A 
HETATM   11  C   UNL     1      -6.687  -2.146 -35.025  1.00  0.00     0.010 A 
HETATM   12  C   UNL     1      -5.660  -2.944 -34.503  1.00  0.00     0.037 A 
HETATM   13  C   UNL     1      -4.671  -2.381 -33.699  1.00  0.00     0.068 A 
HETATM   14  C   UNL     1      -4.714  -1.013 -33.430  1.00  0.00     0.037 A 
HETATM   15  C   UNL     1      -5.746  -0.218 -33.934  1.00  0.00     0.010 A 
BRANCH  13  16
HETATM   16  O   UNL     1      -3.616  -3.042 -33.137  1.00  0.00    -0.356 OA
HETATM   17  C   UNL     1      -3.100  -2.514 -31.921  1.00  0.00     0.210 C 
ENDBRANCH  13  16
ENDBRANCH   9  10
ENDBRANCH   6   9
ENDBRANCH   3   5
ENDBRANCH   1   3
BRANCH   1  18
HETATM   18  C   UNL     1     -12.366   1.898 -33.169  1.00  0.00     0.050 A 
HETATM   19  C   UNL     1     -13.456   2.664 -32.718  1.00  0.00     0.058 A 
HETATM   20  C   UNL     1     -14.766   2.202 -32.944  1.00  0.00     0.019 A 
HETATM   21  C   UNL     1     -15.002   1.027 -33.658  1.00  0.00     0.001 A 
HETATM   22  C   UNL     1     -13.929   0.311 -34.173  1.00  0.00     0.002 A 
HETATM   23  C   UNL     1     -12.624   0.748 -33.937  1.00  0.00     0.030 A 
BRANCH  19  24
HETATM   24  C   UNL     1     -13.369   4.039 -32.152  1.00  0.00     0.253 C 
HETATM   25  N   UNL     1     -14.486   4.834 -32.315  1.00  0.00    -0.357 N 
HETATM   26  H   UNL     1     -15.275   4.468 -32.832  1.00  0.00     0.162 HD
HETATM   27  O   UNL     1     -12.394   4.376 -31.491  1.00  0.00    -0.268 OA
BRANCH  25  28
HETATM   28  C   UNL     1     -14.567   6.159 -31.740  1.00  0.00     0.125 C 
BRANCH  28  29
HETATM   29  C   UNL     1     -15.142   6.166 -30.326  1.00  0.00     0.046 C 
BRANCH  29  30
HETATM   30  C   UNL     1     -14.181   6.714 -29.277  1.00  0.00     0.165 C 
BRANCH  30  31
HETATM   31  O   UNL     1     -14.018   5.748 -28.241  1.00  0.00    -0.401 OA
HETATM   32  H   UNL     1     -14.326   4.896 -28.593  1.00  0.00     0.209 HD
ENDBRANCH  30  31
ENDBRANCH  29  30
ENDBRANCH  28  29
ENDBRANCH  25  28
ENDBRANCH  19  24
ENDBRANCH   1  18
TORSDOF 11
ENDMDL
MODEL 10
REMARK VINA RESULT:      -6.5      2.005      2.748
REMARK  11 active torsions:
REMARK  status: ('A' for Active; 'I' for Inactive)
REMARK    1  A    between atoms: O_2  and  C_3 
REMARK    2  A    between atoms: C_6  and  C_7 
REMARK    3  A    between atoms: C_7  and  C_8 
REMARK       I    between atoms: C_8  and  N_9 
REMARK    4  A    between atoms: N_9  and  C_10 
REMARK    5  A    between atoms: C_10  and  N_11 
REMARK    6  A    between atoms: N_11  and  C_12 
REMARK    7  A    between atoms: C_13  and  C_14 
REMARK       I    between atoms: C_14  and  N_15 
REMARK    8  A    between atoms: N_15  and  C_16 
REMARK    9  A    between atoms: C_16  and  C_17 
REMARK   10  A    between atoms: C_17  and  C_18 
REMARK   11  A    between atoms: C_18  and  O_19 
ROOT
HETATM    1  N   UNL     1      -5.972   3.771 -29.850  1.00  0.00    -0.332 N 
HETATM    2  H   UNL     1      -6.199   3.525 -28.883  1.00  0.00     0.168 HD
ENDROOT
BRANCH   1   3
HETATM    3  C   UNL     1      -6.869   4.692 -30.363  1.00  0.00     0.178 C 
HETATM    4  S   UNL     1      -7.107   6.289 -29.940  1.00  0.00    -0.040 SA
BRANCH   3   5
HETATM    5  N   UNL     1      -7.630   4.225 -31.427  1.00  0.00    -0.303 N 
HETATM    6  C   UNL     1      -8.655   3.290 -31.391  1.00  0.00     0.228 C 
HETATM    7  O   UNL     1      -9.208   2.943 -30.347  1.00  0.00    -0.273 OA
HETATM    8  H   UNL     1      -7.197   4.401 -32.327  1.00  0.00     0.171 HD
BRANCH   6   9
HETATM    9  C   UNL     1      -9.091   2.763 -32.745  1.00  0.00     0.141 C 
BRANCH   9  10
HETATM   10  C   UNL     1      -8.328   1.564 -33.269  1.00  0.00    -0.049 A 
HETATM   11  C   UNL     1      -8.654   0.245 -32.919  1.00  0.00     0.010 A 
HETATM   12  C   UNL     1      -7.932  -0.837 -33.443  1.00  0.00     0.037 A 
HETATM   13  C   UNL     1      -6.899  -0.619 -34.352  1.00  0.00     0.068 A 
HETATM   14  C   UNL     1      -6.599   0.688 -34.738  1.00  0.00     0.037 A 
HETATM   15  C   UNL     1      -7.305   1.770 -34.204  1.00  0.00     0.010 A 
BRANCH  13  16
HETATM   16  O   UNL     1      -6.126  -1.580 -34.941  1.00  0.00    -0.356 OA
HETATM   17  C   UNL     1      -5.123  -2.184 -34.134  1.00  0.00     0.210 C 
ENDBRANCH  13  16
ENDBRANCH   9  10
ENDBRANCH   6   9
ENDBRANCH   3   5
ENDBRANCH   1   3
BRANCH   1  18
HETATM   18  C   UNL     1      -5.267   2.757 -30.549  1.00  0.00     0.050 A 
HETATM   19  C   UNL     1      -4.140   2.930 -31.373  1.00  0.00     0.058 A 
HETATM   20  C   UNL     1      -3.619   1.824 -32.071  1.00  0.00     0.019 A 
HETATM   21  C   UNL     1      -4.165   0.551 -31.913  1.00  0.00     0.001 A 
HETATM   22  C   UNL     1      -5.227   0.364 -31.039  1.00  0.00     0.002 A 
HETATM   23  C   UNL     1      -5.767   1.457 -30.357  1.00  0.00     0.030 A 
BRANCH  19  24
HETATM   24  C   UNL     1      -3.316   4.167 -31.459  1.00  0.00     0.253 C 
HETATM   25  N   UNL     1      -2.262   4.134 -32.351  1.00  0.00    -0.357 N 
HETATM   26  H   UNL     1      -2.081   3.279 -32.861  1.00  0.00     0.162 HD
HETATM   27  O   UNL     1      -3.644   5.174 -30.844  1.00  0.00    -0.268 OA
BRANCH  25  28
HETATM   28  C   UNL     1      -1.434   5.295 -32.595  1.00  0.00     0.125 C 
BRANCH  28  29
HETATM   29  C   UNL     1      -2.061   6.284 -33.573  1.00  0.00     0.046 C 
BRANCH  29  30
HETATM   30  C   UNL     1      -2.602   5.634 -34.840  1.00  0.00     0.165 C 
BRANCH  30  31
HETATM   31  O   UNL     1      -1.573   4.851 -35.443  1.00  0.00    -0.401 OA
HETATM   32  H   UNL     1      -0.913   4.668 -34.753  1.00  0.00     0.209 HD
ENDBRANCH  30  31
ENDBRANCH  29  30
ENDBRANCH  28  29
ENDBRANCH  25  28
ENDBRANCH  19  24
ENDBRANCH   1  18
TORSDOF 11
ENDMDL
