MODEL 1
REMARK VINA RESULT:      -8.8      0.000      0.000
REMARK  11 active torsions:
REMARK  status: ('A' for Active; 'I' for Inactive)
REMARK    1  A    between atoms: C_4  and  C_5 
REMARK    2  A    between atoms: C_7  and  O_8 
REMARK    3  A    between atoms: C_10  and  O_11 
REMARK    4  A    between atoms: C_16  and  C_17 
REMARK    5  A    between atoms: C_20  and  C_21 
REMARK    6  A    between atoms: C_21  and  N_22 
REMARK    7  A    between atoms: N_22  and  C_23 
REMARK    8  A    between atoms: C_23  and  N_24 
REMARK    9  A    between atoms: N_24  and  C_25 
REMARK   10  A    between atoms: C_27  and  O_28 
REMARK   11  A    between atoms: C_31  and  O_32 
ROOT
HETATM    1  C   UNL     1      -1.110   6.754 -31.523  1.00  0.00     0.067 C 
HETATM    2  C   UNL     1      -2.120   7.351 -32.524  1.00  0.00     0.001 C 
HETATM    3  C   UNL     1      -3.469   6.599 -32.461  1.00  0.00     0.040 C 
HETATM    4  C   UNL     1      -3.313   5.140 -32.924  1.00  0.00     0.206 C 
HETATM    5  N   UNL     1      -1.811   4.855 -32.998  1.00  0.00    -0.065 N 
HETATM    6  H   UNL     1      -1.676   3.851 -33.190  1.00  0.00     0.280 HD
HETATM    7  C   UNL     1      -1.093   5.211 -31.702  1.00  0.00     0.246 C 
HETATM    8  C   UNL     1      -1.540   7.116 -33.944  1.00  0.00     0.033 C 
HETATM    9  C   UNL     1      -1.212   5.634 -34.156  1.00  0.00     0.236 C 
ENDROOT
BRANCH   4  10
HETATM   10  C   UNL     1      -4.043   4.121 -32.019  1.00  0.00     0.155 C 
BRANCH  10  11
HETATM   11  N   UNL     1      -3.667   2.735 -32.269  1.00  0.00    -0.365 N 
HETATM   12  H   UNL     1      -2.817   2.568 -32.798  1.00  0.00     0.161 HD
BRANCH  11  13
HETATM   13  C   UNL     1      -4.303   1.612 -31.824  1.00  0.00     0.172 C 
HETATM   14  S   UNL     1      -5.222   1.530 -30.431  1.00  0.00    -0.041 SA
BRANCH  13  15
HETATM   15  N   UNL     1      -4.105   0.464 -32.537  1.00  0.00    -0.333 N 
HETATM   16  H   UNL     1      -3.207   0.024 -32.351  1.00  0.00     0.168 HD
BRANCH  15  17
HETATM   17  C   UNL     1      -4.984  -0.292 -33.347  1.00  0.00     0.039 A 
HETATM   18  C   UNL     1      -4.745  -1.618 -33.718  1.00  0.00     0.066 A 
HETATM   19  C   UNL     1      -5.651  -2.317 -34.521  1.00  0.00     0.073 A 
HETATM   20  C   UNL     1      -6.794  -1.670 -34.983  1.00  0.00     0.073 A 
HETATM   21  C   UNL     1      -7.022  -0.328 -34.668  1.00  0.00     0.073 A 
HETATM   22  C   UNL     1      -6.117   0.358 -33.852  1.00  0.00     0.066 A 
BRANCH  19  23
HETATM   23  O   UNL     1      -5.297  -3.614 -34.777  1.00  0.00    -0.356 OA
HETATM   24  C   UNL     1      -6.358  -4.530 -35.025  1.00  0.00     0.210 C 
ENDBRANCH  19  23
BRANCH  21  25
HETATM   25  O   UNL     1      -8.168   0.191 -35.206  1.00  0.00    -0.356 OA
HETATM   26  C   UNL     1      -9.064   0.850 -34.320  1.00  0.00     0.210 C 
ENDBRANCH  21  25
ENDBRANCH  15  17
ENDBRANCH  13  15
ENDBRANCH  11  13
ENDBRANCH  10  11
ENDBRANCH   4  10
BRANCH   1  27
HETATM   27  C   UNL     1      -1.152   7.121 -30.060  1.00  0.00     0.038 C 
HETATM   28  N   UNL     1      -2.164   7.059 -29.125  1.00  0.00    -0.277 N 
HETATM   29  C   UNL     1      -3.575   6.779 -29.244  1.00  0.00     0.179 C 
HETATM   30  N   UNL     1      -1.736   7.312 -27.877  1.00  0.00    -0.172 NA
HETATM   31  C   UNL     1      -0.493   7.783 -28.005  1.00  0.00     0.089 C 
HETATM   32  C   UNL     1      -0.085   7.667 -29.353  1.00  0.00     0.061 C 
BRANCH  31  33
HETATM   33  C   UNL     1       0.266   8.295 -26.865  1.00  0.00    -0.003 A 
HETATM   34  C   UNL     1      -0.333   9.175 -25.951  1.00  0.00     0.053 A 
HETATM   35  C   UNL     1       0.383   9.671 -24.854  1.00  0.00     0.102 A 
HETATM   36  C   UNL     1       1.728   9.294 -24.671  1.00  0.00     0.101 A 
HETATM   37  C   UNL     1       2.329   8.422 -25.584  1.00  0.00     0.040 A 
HETATM   38  C   UNL     1       1.603   7.925 -26.671  1.00  0.00     0.017 A 
BRANCH  35  39
HETATM   39  O   UNL     1      -0.135  10.523 -23.910  1.00  0.00    -0.353 OA
HETATM   40  C   UNL     1      -1.185  10.039 -23.085  1.00  0.00     0.210 C 
ENDBRANCH  35  39
BRANCH  36  41
HETATM   41  O   UNL     1       2.361   9.821 -23.574  1.00  0.00    -0.353 OA
HETATM   42  C   UNL     1       2.797   8.921 -22.566  1.00  0.00     0.210 C 
ENDBRANCH  36  41
ENDBRANCH  31  33
ENDBRANCH   1  27
TORSDOF 11
ENDMDL
MODEL 2
REMARK VINA RESULT:      -8.8      1.326      2.111
REMARK  11 active torsions:
REMARK  status: ('A' for Active; 'I' for Inactive)
REMARK    1  A    between atoms: C_4  and  C_5 
REMARK    2  A    between atoms: C_7  and  O_8 
REMARK    3  A    between atoms: C_10  and  O_11 
REMARK    4  A    between atoms: C_16  and  C_17 
REMARK    5  A    between atoms: C_20  and  C_21 
REMARK    6  A    between atoms: C_21  and  N_22 
REMARK    7  A    between atoms: N_22  and  C_23 
REMARK    8  A    between atoms: C_23  and  N_24 
REMARK    9  A    between atoms: N_24  and  C_25 
REMARK   10  A    between atoms: C_27  and  O_28 
REMARK   11  A    between atoms: C_31  and  O_32 
ROOT
HETATM    1  C   UNL     1      -1.579   6.429 -31.846  1.00  0.00     0.067 C 
HETATM    2  C   UNL     1      -2.707   6.857 -32.806  1.00  0.00     0.001 C 
HETATM    3  C   UNL     1      -3.958   5.968 -32.619  1.00  0.00     0.040 C 
HETATM    4  C   UNL     1      -3.668   4.511 -33.021  1.00  0.00     0.206 C 
HETATM    5  N   UNL     1      -2.151   4.387 -33.179  1.00  0.00    -0.065 N 
HETATM    6  H   UNL     1      -1.916   3.394 -33.332  1.00  0.00     0.280 HD
HETATM    7  C   UNL     1      -1.401   4.889 -31.952  1.00  0.00     0.246 C 
HETATM    8  C   UNL     1      -2.190   6.609 -34.248  1.00  0.00     0.033 C 
HETATM    9  C   UNL     1      -1.713   5.162 -34.410  1.00  0.00     0.236 C 
ENDROOT
BRANCH   4  10
HETATM   10  C   UNL     1      -4.224   3.471 -32.022  1.00  0.00     0.155 C 
BRANCH  10  11
HETATM   11  N   UNL     1      -5.674   3.326 -32.066  1.00  0.00    -0.365 N 
HETATM   12  H   UNL     1      -6.233   4.150 -31.866  1.00  0.00     0.161 HD
BRANCH  11  13
HETATM   13  C   UNL     1      -6.385   2.210 -32.400  1.00  0.00     0.172 C 
HETATM   14  S   UNL     1      -7.715   1.646 -31.560  1.00  0.00    -0.041 SA
BRANCH  13  15
HETATM   15  N   UNL     1      -5.922   1.471 -33.451  1.00  0.00    -0.333 N 
HETATM   16  H   UNL     1      -5.757   2.023 -34.290  1.00  0.00     0.168 HD
BRANCH  15  17
HETATM   17  C   UNL     1      -5.481   0.128 -33.523  1.00  0.00     0.039 A 
HETATM   18  C   UNL     1      -6.054  -0.829 -34.365  1.00  0.00     0.066 A 
HETATM   19  C   UNL     1      -5.576  -2.142 -34.394  1.00  0.00     0.073 A 
HETATM   20  C   UNL     1      -4.532  -2.508 -33.548  1.00  0.00     0.073 A 
HETATM   21  C   UNL     1      -3.984  -1.578 -32.660  1.00  0.00     0.073 A 
HETATM   22  C   UNL     1      -4.459  -0.264 -32.649  1.00  0.00     0.066 A 
BRANCH  19  23
HETATM   23  O   UNL     1      -6.216  -2.957 -35.288  1.00  0.00    -0.356 OA
HETATM   24  C   UNL     1      -6.465  -4.295 -34.870  1.00  0.00     0.210 C 
ENDBRANCH  19  23
BRANCH  21  25
HETATM   25  O   UNL     1      -2.983  -2.076 -31.870  1.00  0.00    -0.356 OA
HETATM   26  C   UNL     1      -2.884  -3.490 -31.759  1.00  0.00     0.210 C 
ENDBRANCH  21  25
ENDBRANCH  15  17
ENDBRANCH  13  15
ENDBRANCH  11  13
ENDBRANCH  10  11
ENDBRANCH   4  10
BRANCH   1  27
HETATM   27  C   UNL     1      -1.574   6.868 -30.403  1.00  0.00     0.038 C 
HETATM   28  N   UNL     1      -2.567   6.894 -29.446  1.00  0.00    -0.277 N 
HETATM   29  C   UNL     1      -3.990   6.668 -29.523  1.00  0.00     0.179 C 
HETATM   30  N   UNL     1      -2.101   7.190 -28.221  1.00  0.00    -0.172 NA
HETATM   31  C   UNL     1      -0.843   7.602 -28.396  1.00  0.00     0.089 C 
HETATM   32  C   UNL     1      -0.470   7.403 -29.745  1.00  0.00     0.061 C 
BRANCH  31  33
HETATM   33  C   UNL     1      -0.039   8.137 -27.299  1.00  0.00    -0.003 A 
HETATM   34  C   UNL     1      -0.614   9.000 -26.353  1.00  0.00     0.053 A 
HETATM   35  C   UNL     1       0.145   9.517 -25.296  1.00  0.00     0.102 A 
HETATM   36  C   UNL     1       1.509   9.181 -25.187  1.00  0.00     0.101 A 
HETATM   37  C   UNL     1       2.085   8.326 -26.131  1.00  0.00     0.040 A 
HETATM   38  C   UNL     1       1.316   7.807 -27.177  1.00  0.00     0.017 A 
BRANCH  35  39
HETATM   39  O   UNL     1      -0.346  10.354 -24.325  1.00  0.00    -0.353 OA
HETATM   40  C   UNL     1      -1.365   9.854 -23.471  1.00  0.00     0.210 C 
ENDBRANCH  35  39
BRANCH  36  41
HETATM   41  O   UNL     1       2.184   9.727 -24.125  1.00  0.00    -0.353 OA
HETATM   42  C   UNL     1       3.601   9.628 -24.120  1.00  0.00     0.210 C 
ENDBRANCH  36  41
ENDBRANCH  31  33
ENDBRANCH   1  27
TORSDOF 11
ENDMDL
MODEL 3
REMARK VINA RESULT:      -8.8      6.287     10.051
REMARK  11 active torsions:
REMARK  status: ('A' for Active; 'I' for Inactive)
REMARK    1  A    between atoms: C_4  and  C_5 
REMARK    2  A    between atoms: C_7  and  O_8 
REMARK    3  A    between atoms: C_10  and  O_11 
REMARK    4  A    between atoms: C_16  and  C_17 
REMARK    5  A    between atoms: C_20  and  C_21 
REMARK    6  A    between atoms: C_21  and  N_22 
REMARK    7  A    between atoms: N_22  and  C_23 
REMARK    8  A    between atoms: C_23  and  N_24 
REMARK    9  A    between atoms: N_24  and  C_25 
REMARK   10  A    between atoms: C_27  and  O_28 
REMARK   11  A    between atoms: C_31  and  O_32 
ROOT
HETATM    1  C   UNL     1      -5.652   4.337 -30.311  1.00  0.00     0.067 C 
HETATM    2  C   UNL     1      -7.021   4.130 -29.633  1.00  0.00     0.001 C 
HETATM    3  C   UNL     1      -8.174   4.350 -30.639  1.00  0.00     0.040 C 
HETATM    4  C   UNL     1      -8.219   5.811 -31.120  1.00  0.00     0.206 C 
HETATM    5  N   UNL     1      -6.915   6.470 -30.665  1.00  0.00    -0.065 N 
HETATM    6  H   UNL     1      -6.864   7.415 -31.074  1.00  0.00     0.280 HD
HETATM    7  C   UNL     1      -5.688   5.677 -31.096  1.00  0.00     0.246 C 
HETATM    8  C   UNL     1      -7.157   5.230 -28.547  1.00  0.00     0.033 C 
HETATM    9  C   UNL     1      -6.934   6.620 -29.153  1.00  0.00     0.236 C 
ENDROOT
BRANCH   4  10
HETATM   10  C   UNL     1      -8.428   5.956 -32.645  1.00  0.00     0.155 C 
BRANCH  10  11
HETATM   11  N   UNL     1      -9.741   6.471 -33.014  1.00  0.00    -0.365 N 
HETATM   12  H   UNL     1      -9.826   7.471 -33.165  1.00  0.00     0.161 HD
BRANCH  11  13
HETATM   13  C   UNL     1     -10.880   5.752 -33.237  1.00  0.00     0.172 C 
HETATM   14  S   UNL     1     -12.317   5.972 -32.413  1.00  0.00    -0.041 SA
BRANCH  13  15
HETATM   15  N   UNL     1     -10.804   4.736 -34.146  1.00  0.00    -0.333 N 
HETATM   16  H   UNL     1     -10.221   4.959 -34.951  1.00  0.00     0.168 HD
BRANCH  15  17
HETATM   17  C   UNL     1     -11.251   3.396 -34.085  1.00  0.00     0.039 A 
HETATM   18  C   UNL     1     -12.480   2.966 -34.591  1.00  0.00     0.066 A 
HETATM   19  C   UNL     1     -12.868   1.626 -34.502  1.00  0.00     0.073 A 
HETATM   20  C   UNL     1     -12.028   0.713 -33.871  1.00  0.00     0.073 A 
HETATM   21  C   UNL     1     -10.820   1.134 -33.310  1.00  0.00     0.073 A 
HETATM   22  C   UNL     1     -10.434   2.474 -33.417  1.00  0.00     0.066 A 
BRANCH  19  23
HETATM   23  O   UNL     1     -14.084   1.351 -35.068  1.00  0.00    -0.356 OA
HETATM   24  C   UNL     1     -15.048   0.714 -34.235  1.00  0.00     0.210 C 
ENDBRANCH  19  23
BRANCH  21  25
HETATM   25  O   UNL     1     -10.105   0.140 -32.700  1.00  0.00    -0.356 OA
HETATM   26  C   UNL     1      -9.040   0.536 -31.844  1.00  0.00     0.210 C 
ENDBRANCH  21  25
ENDBRANCH  15  17
ENDBRANCH  13  15
ENDBRANCH  11  13
ENDBRANCH  10  11
ENDBRANCH   4  10
BRANCH   1  27
HETATM   27  C   UNL     1      -5.022   3.248 -31.144  1.00  0.00     0.038 C 
HETATM   28  N   UNL     1      -3.729   3.057 -31.583  1.00  0.00    -0.277 N 
HETATM   29  C   UNL     1      -2.560   3.904 -31.545  1.00  0.00     0.179 C 
HETATM   30  N   UNL     1      -3.544   1.855 -32.152  1.00  0.00    -0.172 NA
HETATM   31  C   UNL     1      -4.763   1.336 -32.317  1.00  0.00     0.089 C 
HETATM   32  C   UNL     1      -5.715   2.170 -31.687  1.00  0.00     0.061 C 
BRANCH  31  33
HETATM   33  C   UNL     1      -4.984   0.078 -33.029  1.00  0.00    -0.003 A 
HETATM   34  C   UNL     1      -4.191  -1.045 -32.747  1.00  0.00     0.053 A 
HETATM   35  C   UNL     1      -4.394  -2.256 -33.421  1.00  0.00     0.102 A 
HETATM   36  C   UNL     1      -5.398  -2.347 -34.406  1.00  0.00     0.101 A 
HETATM   37  C   UNL     1      -6.185  -1.228 -34.692  1.00  0.00     0.040 A 
HETATM   38  C   UNL     1      -5.980  -0.025 -34.007  1.00  0.00     0.017 A 
BRANCH  35  39
HETATM   39  O   UNL     1      -3.672  -3.401 -33.193  1.00  0.00    -0.353 OA
HETATM   40  C   UNL     1      -2.987  -3.518 -31.954  1.00  0.00     0.210 C 
ENDBRANCH  35  39
BRANCH  36  41
HETATM   41  O   UNL     1      -5.535  -3.566 -35.021  1.00  0.00    -0.353 OA
HETATM   42  C   UNL     1      -6.754  -4.268 -34.832  1.00  0.00     0.210 C 
ENDBRANCH  36  41
ENDBRANCH  31  33
ENDBRANCH   1  27
TORSDOF 11
ENDMDL
MODEL 4
REMARK VINA RESULT:      -8.8      6.165     11.013
REMARK  11 active torsions:
REMARK  status: ('A' for Active; 'I' for Inactive)
REMARK    1  A    between atoms: C_4  and  C_5 
REMARK    2  A    between atoms: C_7  and  O_8 
REMARK    3  A    between atoms: C_10  and  O_11 
REMARK    4  A    between atoms: C_16  and  C_17 
REMARK    5  A    between atoms: C_20  and  C_21 
REMARK    6  A    between atoms: C_21  and  N_22 
REMARK    7  A    between atoms: N_22  and  C_23 
REMARK    8  A    between atoms: C_23  and  N_24 
REMARK    9  A    between atoms: N_24  and  C_25 
REMARK   10  A    between atoms: C_27  and  O_28 
REMARK   11  A    between atoms: C_31  and  O_32 
ROOT
HETATM    1  C   UNL     1     -11.150   1.929 -33.217  1.00  0.00     0.067 C 
HETATM    2  C   UNL     1     -11.587   2.092 -34.687  1.00  0.00     0.001 C 
HETATM    3  C   UNL     1     -11.001   3.385 -35.298  1.00  0.00     0.040 C 
HETATM    4  C   UNL     1     -11.573   4.634 -34.606  1.00  0.00     0.206 C 
HETATM    5  N   UNL     1     -12.297   4.152 -33.346  1.00  0.00    -0.065 N 
HETATM    6  H   UNL     1     -12.588   4.977 -32.799  1.00  0.00     0.280 HD
HETATM    7  C   UNL     1     -11.411   3.269 -32.476  1.00  0.00     0.246 C 
HETATM    8  C   UNL     1     -13.130   2.255 -34.683  1.00  0.00     0.033 C 
HETATM    9  C   UNL     1     -13.551   3.396 -33.750  1.00  0.00     0.236 C 
ENDROOT
BRANCH   4  10
HETATM   10  C   UNL     1     -10.507   5.703 -34.276  1.00  0.00     0.155 C 
BRANCH  10  11
HETATM   11  N   UNL     1      -9.158   5.168 -34.138  1.00  0.00    -0.365 N 
HETATM   12  H   UNL     1      -8.904   4.380 -34.725  1.00  0.00     0.161 HD
BRANCH  11  13
HETATM   13  C   UNL     1      -8.158   5.640 -33.337  1.00  0.00     0.172 C 
HETATM   14  S   UNL     1      -8.390   6.304 -31.821  1.00  0.00    -0.041 SA
BRANCH  13  15
HETATM   15  N   UNL     1      -6.894   5.633 -33.854  1.00  0.00    -0.333 N 
HETATM   16  H   UNL     1      -6.788   6.235 -34.668  1.00  0.00     0.168 HD
BRANCH  15  17
HETATM   17  C   UNL     1      -5.690   5.075 -33.363  1.00  0.00     0.039 A 
HETATM   18  C   UNL     1      -4.422   5.569 -33.681  1.00  0.00     0.066 A 
HETATM   19  C   UNL     1      -3.267   4.976 -33.166  1.00  0.00     0.073 A 
HETATM   20  C   UNL     1      -3.381   3.856 -32.347  1.00  0.00     0.073 A 
HETATM   21  C   UNL     1      -4.638   3.314 -32.063  1.00  0.00     0.073 A 
HETATM   22  C   UNL     1      -5.788   3.923 -32.571  1.00  0.00     0.066 A 
BRANCH  19  23
HETATM   23  O   UNL     1      -2.101   5.587 -33.541  1.00  0.00    -0.356 OA
HETATM   24  C   UNL     1      -1.537   5.181 -34.784  1.00  0.00     0.210 C 
ENDBRANCH  19  23
BRANCH  21  25
HETATM   25  O   UNL     1      -4.605   2.201 -31.268  1.00  0.00    -0.356 OA
HETATM   26  C   UNL     1      -5.350   2.243 -30.057  1.00  0.00     0.210 C 
ENDBRANCH  21  25
ENDBRANCH  15  17
ENDBRANCH  13  15
ENDBRANCH  11  13
ENDBRANCH  10  11
ENDBRANCH   4  10
BRANCH   1  27
HETATM   27  C   UNL     1      -9.789   1.381 -32.864  1.00  0.00     0.038 C 
HETATM   28  N   UNL     1      -8.933   1.650 -31.817  1.00  0.00    -0.277 N 
HETATM   29  C   UNL     1      -8.955   2.658 -30.784  1.00  0.00     0.179 C 
HETATM   30  N   UNL     1      -7.889   0.806 -31.769  1.00  0.00    -0.172 NA
HETATM   31  C   UNL     1      -7.911   0.130 -32.920  1.00  0.00     0.089 C 
HETATM   32  C   UNL     1      -9.092   0.450 -33.627  1.00  0.00     0.061 C 
BRANCH  31  33
HETATM   33  C   UNL     1      -6.848  -0.801 -33.296  1.00  0.00    -0.003 A 
HETATM   34  C   UNL     1      -5.687  -0.906 -32.515  1.00  0.00     0.053 A 
HETATM   35  C   UNL     1      -4.663  -1.795 -32.864  1.00  0.00     0.102 A 
HETATM   36  C   UNL     1      -4.790  -2.585 -34.023  1.00  0.00     0.101 A 
HETATM   37  C   UNL     1      -5.943  -2.478 -34.806  1.00  0.00     0.040 A 
HETATM   38  C   UNL     1      -6.965  -1.594 -34.444  1.00  0.00     0.017 A 
BRANCH  35  39
HETATM   39  O   UNL     1      -3.505  -1.965 -32.146  1.00  0.00    -0.353 OA
HETATM   40  C   UNL     1      -2.709  -0.817 -31.889  1.00  0.00     0.210 C 
ENDBRANCH  35  39
BRANCH  36  41
HETATM   41  O   UNL     1      -3.745  -3.431 -34.298  1.00  0.00    -0.353 OA
HETATM   42  C   UNL     1      -3.916  -4.810 -34.005  1.00  0.00     0.210 C 
ENDBRANCH  36  41
ENDBRANCH  31  33
ENDBRANCH   1  27
TORSDOF 11
ENDMDL
MODEL 5
REMARK VINA RESULT:      -8.8      3.577     11.003
REMARK  11 active torsions:
REMARK  status: ('A' for Active; 'I' for Inactive)
REMARK    1  A    between atoms: C_4  and  C_5 
REMARK    2  A    between atoms: C_7  and  O_8 
REMARK    3  A    between atoms: C_10  and  O_11 
REMARK    4  A    between atoms: C_16  and  C_17 
REMARK    5  A    between atoms: C_20  and  C_21 
REMARK    6  A    between atoms: C_21  and  N_22 
REMARK    7  A    between atoms: N_22  and  C_23 
REMARK    8  A    between atoms: C_23  and  N_24 
REMARK    9  A    between atoms: N_24  and  C_25 
REMARK   10  A    between atoms: C_27  and  O_28 
REMARK   11  A    between atoms: C_31  and  O_32 
ROOT
HETATM    1  C   UNL     1      -9.216   3.327 -32.002  1.00  0.00     0.067 C 
HETATM    2  C   UNL     1      -8.664   4.705 -32.419  1.00  0.00     0.001 C 
HETATM    3  C   UNL     1      -7.226   4.907 -31.891  1.00  0.00     0.040 C 
HETATM    4  C   UNL     1      -7.200   4.952 -30.353  1.00  0.00     0.206 C 
HETATM    5  N   UNL     1      -8.574   4.477 -29.871  1.00  0.00    -0.065 N 
HETATM    6  H   UNL     1      -8.547   4.384 -28.845  1.00  0.00     0.280 HD
HETATM    7  C   UNL     1      -8.965   3.137 -30.481  1.00  0.00     0.246 C 
HETATM    8  C   UNL     1      -9.551   5.774 -31.727  1.00  0.00     0.033 C 
HETATM    9  C   UNL     1      -9.614   5.530 -30.216  1.00  0.00     0.236 C 
ENDROOT
BRANCH   4  10
HETATM   10  C   UNL     1      -6.058   4.121 -29.727  1.00  0.00     0.155 C 
BRANCH  10  11
HETATM   11  N   UNL     1      -5.222   4.872 -28.799  1.00  0.00    -0.365 N 
HETATM   12  H   UNL     1      -4.807   4.364 -28.025  1.00  0.00     0.161 HD
BRANCH  11  13
HETATM   13  C   UNL     1      -4.879   6.192 -28.876  1.00  0.00     0.172 C 
HETATM   14  S   UNL     1      -5.219   7.330 -27.700  1.00  0.00    -0.041 SA
BRANCH  13  15
HETATM   15  N   UNL     1      -4.285   6.612 -30.031  1.00  0.00    -0.333 N 
HETATM   16  H   UNL     1      -4.749   7.413 -30.454  1.00  0.00     0.168 HD
BRANCH  15  17
HETATM   17  C   UNL     1      -3.063   6.240 -30.638  1.00  0.00     0.039 A 
HETATM   18  C   UNL     1      -1.811   6.473 -30.064  1.00  0.00     0.066 A 
HETATM   19  C   UNL     1      -0.636   6.082 -30.712  1.00  0.00     0.073 A 
HETATM   20  C   UNL     1      -0.715   5.478 -31.963  1.00  0.00     0.073 A 
HETATM   21  C   UNL     1      -1.955   5.286 -32.578  1.00  0.00     0.073 A 
HETATM   22  C   UNL     1      -3.125   5.668 -31.915  1.00  0.00     0.066 A 
BRANCH  19  23
HETATM   23  O   UNL     1       0.511   6.350 -30.014  1.00  0.00    -0.356 OA
HETATM   24  C   UNL     1       0.454   7.418 -29.074  1.00  0.00     0.210 C 
ENDBRANCH  19  23
BRANCH  21  25
HETATM   25  O   UNL     1      -1.887   4.705 -33.815  1.00  0.00    -0.356 OA
HETATM   26  C   UNL     1      -2.702   5.259 -34.841  1.00  0.00     0.210 C 
ENDBRANCH  21  25
ENDBRANCH  15  17
ENDBRANCH  13  15
ENDBRANCH  11  13
ENDBRANCH  10  11
ENDBRANCH   4  10
BRANCH   1  27
HETATM   27  C   UNL     1      -8.850   2.077 -32.763  1.00  0.00     0.038 C 
HETATM   28  N   UNL     1      -9.503   1.384 -33.760  1.00  0.00    -0.277 N 
HETATM   29  C   UNL     1     -10.830   1.506 -34.314  1.00  0.00     0.179 C 
HETATM   30  N   UNL     1      -8.745   0.415 -34.302  1.00  0.00    -0.172 NA
HETATM   31  C   UNL     1      -7.679   0.296 -33.507  1.00  0.00     0.089 C 
HETATM   32  C   UNL     1      -7.699   1.327 -32.541  1.00  0.00     0.061 C 
BRANCH  31  33
HETATM   33  C   UNL     1      -6.678  -0.753 -33.699  1.00  0.00    -0.003 A 
HETATM   34  C   UNL     1      -5.495  -0.751 -32.946  1.00  0.00     0.053 A 
HETATM   35  C   UNL     1      -4.530  -1.751 -33.119  1.00  0.00     0.102 A 
HETATM   36  C   UNL     1      -4.741  -2.766 -34.074  1.00  0.00     0.101 A 
HETATM   37  C   UNL     1      -5.916  -2.766 -34.830  1.00  0.00     0.040 A 
HETATM   38  C   UNL     1      -6.879  -1.768 -34.642  1.00  0.00     0.017 A 
BRANCH  35  39
HETATM   39  O   UNL     1      -3.355  -1.826 -32.413  1.00  0.00    -0.353 OA
HETATM   40  C   UNL     1      -2.916  -0.661 -31.729  1.00  0.00     0.210 C 
ENDBRANCH  35  39
BRANCH  36  41
HETATM   41  O   UNL     1      -3.750  -3.708 -34.185  1.00  0.00    -0.353 OA
HETATM   42  C   UNL     1      -4.072  -5.050 -33.848  1.00  0.00     0.210 C 
ENDBRANCH  36  41
ENDBRANCH  31  33
ENDBRANCH   1  27
TORSDOF 11
ENDMDL
MODEL 6
REMARK VINA RESULT:      -8.8      6.159     10.044
REMARK  11 active torsions:
REMARK  status: ('A' for Active; 'I' for Inactive)
REMARK    1  A    between atoms: C_4  and  C_5 
REMARK    2  A    between atoms: C_7  and  O_8 
REMARK    3  A    between atoms: C_10  and  O_11 
REMARK    4  A    between atoms: C_16  and  C_17 
REMARK    5  A    between atoms: C_20  and  C_21 
REMARK    6  A    between atoms: C_21  and  N_22 
REMARK    7  A    between atoms: N_22  and  C_23 
REMARK    8  A    between atoms: C_23  and  N_24 
REMARK    9  A    between atoms: N_24  and  C_25 
REMARK   10  A    between atoms: C_27  and  O_28 
REMARK   11  A    between atoms: C_31  and  O_32 
ROOT
HETATM    1  C   UNL     1      -5.695   4.716 -30.946  1.00  0.00     0.067 C 
HETATM    2  C   UNL     1      -6.099   4.702 -29.458  1.00  0.00     0.001 C 
HETATM    3  C   UNL     1      -7.453   3.984 -29.260  1.00  0.00     0.040 C 
HETATM    4  C   UNL     1      -8.595   4.757 -29.942  1.00  0.00     0.206 C 
HETATM    5  N   UNL     1      -7.945   5.812 -30.840  1.00  0.00    -0.065 N 
HETATM    6  H   UNL     1      -8.681   6.266 -31.400  1.00  0.00     0.280 HD
HETATM    7  C   UNL     1      -6.909   5.208 -31.780  1.00  0.00     0.246 C 
HETATM    8  C   UNL     1      -6.307   6.180 -29.033  1.00  0.00     0.033 C 
HETATM    9  C   UNL     1      -7.300   6.877 -29.969  1.00  0.00     0.236 C 
ENDROOT
BRANCH   4  10
HETATM   10  C   UNL     1      -9.566   3.854 -30.736  1.00  0.00     0.155 C 
BRANCH  10  11
HETATM   11  N   UNL     1      -9.135   2.465 -30.832  1.00  0.00    -0.365 N 
HETATM   12  H   UNL     1      -8.798   2.019 -29.985  1.00  0.00     0.161 HD
BRANCH  11  13
HETATM   13  C   UNL     1      -9.179   1.658 -31.933  1.00  0.00     0.172 C 
HETATM   14  S   UNL     1      -9.079  -0.009 -31.893  1.00  0.00    -0.041 SA
BRANCH  13  15
HETATM   15  N   UNL     1      -9.231   2.274 -33.151  1.00  0.00    -0.333 N 
HETATM   16  H   UNL     1      -8.327   2.328 -33.615  1.00  0.00     0.168 HD
BRANCH  15  17
HETATM   17  C   UNL     1     -10.331   2.693 -33.936  1.00  0.00     0.039 A 
HETATM   18  C   UNL     1     -10.481   3.993 -34.426  1.00  0.00     0.066 A 
HETATM   19  C   UNL     1     -11.589   4.349 -35.199  1.00  0.00     0.073 A 
HETATM   20  C   UNL     1     -12.575   3.401 -35.457  1.00  0.00     0.073 A 
HETATM   21  C   UNL     1     -12.469   2.111 -34.929  1.00  0.00     0.073 A 
HETATM   22  C   UNL     1     -11.349   1.760 -34.170  1.00  0.00     0.066 A 
BRANCH  19  23
HETATM   23  O   UNL     1     -11.583   5.648 -35.631  1.00  0.00    -0.356 OA
HETATM   24  C   UNL     1     -10.480   6.452 -35.228  1.00  0.00     0.210 C 
ENDBRANCH  19  23
BRANCH  21  25
HETATM   25  O   UNL     1     -13.517   1.288 -35.239  1.00  0.00    -0.356 OA
HETATM   26  C   UNL     1     -14.488   1.059 -34.225  1.00  0.00     0.210 C 
ENDBRANCH  21  25
ENDBRANCH  15  17
ENDBRANCH  13  15
ENDBRANCH  11  13
ENDBRANCH  10  11
ENDBRANCH   4  10
BRANCH   1  27
HETATM   27  C   UNL     1      -5.056   3.512 -31.592  1.00  0.00     0.038 C 
HETATM   28  N   UNL     1      -3.737   3.183 -31.822  1.00  0.00    -0.277 N 
HETATM   29  C   UNL     1      -2.513   3.935 -31.679  1.00  0.00     0.179 C 
HETATM   30  N   UNL     1      -3.584   1.924 -32.264  1.00  0.00    -0.172 NA
HETATM   31  C   UNL     1      -4.811   1.489 -32.564  1.00  0.00     0.089 C 
HETATM   32  C   UNL     1      -5.762   2.448 -32.145  1.00  0.00     0.061 C 
BRANCH  31  33
HETATM   33  C   UNL     1      -5.043   0.194 -33.202  1.00  0.00    -0.003 A 
HETATM   34  C   UNL     1      -4.208  -0.897 -32.918  1.00  0.00     0.053 A 
HETATM   35  C   UNL     1      -4.421  -2.143 -33.520  1.00  0.00     0.102 A 
HETATM   36  C   UNL     1      -5.480  -2.302 -34.437  1.00  0.00     0.101 A 
HETATM   37  C   UNL     1      -6.309  -1.215 -34.726  1.00  0.00     0.040 A 
HETATM   38  C   UNL     1      -6.094   0.023 -34.112  1.00  0.00     0.017 A 
BRANCH  35  39
HETATM   39  O   UNL     1      -3.659  -3.260 -33.285  1.00  0.00    -0.353 OA
HETATM   40  C   UNL     1      -3.098  -3.419 -31.989  1.00  0.00     0.210 C 
ENDBRANCH  35  39
BRANCH  36  41
HETATM   41  O   UNL     1      -5.623  -3.552 -34.985  1.00  0.00    -0.353 OA
HETATM   42  C   UNL     1      -6.864  -4.217 -34.798  1.00  0.00     0.210 C 
ENDBRANCH  36  41
ENDBRANCH  31  33
ENDBRANCH   1  27
TORSDOF 11
ENDMDL
MODEL 7
REMARK VINA RESULT:      -8.7      3.547     11.308
REMARK  11 active torsions:
REMARK  status: ('A' for Active; 'I' for Inactive)
REMARK    1  A    between atoms: C_4  and  C_5 
REMARK    2  A    between atoms: C_7  and  O_8 
REMARK    3  A    between atoms: C_10  and  O_11 
REMARK    4  A    between atoms: C_16  and  C_17 
REMARK    5  A    between atoms: C_20  and  C_21 
REMARK    6  A    between atoms: C_21  and  N_22 
REMARK    7  A    between atoms: N_22  and  C_23 
REMARK    8  A    between atoms: C_23  and  N_24 
REMARK    9  A    between atoms: N_24  and  C_25 
REMARK   10  A    between atoms: C_27  and  O_28 
REMARK   11  A    between atoms: C_31  and  O_32 
ROOT
HETATM    1  C   UNL     1      -9.128   3.210 -31.541  1.00  0.00     0.067 C 
HETATM    2  C   UNL     1      -9.105   4.587 -32.235  1.00  0.00     0.001 C 
HETATM    3  C   UNL     1      -7.657   5.104 -32.389  1.00  0.00     0.040 C 
HETATM    4  C   UNL     1      -7.016   5.375 -31.017  1.00  0.00     0.206 C 
HETATM    5  N   UNL     1      -7.934   4.748 -29.965  1.00  0.00    -0.065 N 
HETATM    6  H   UNL     1      -7.471   4.810 -29.046  1.00  0.00     0.280 HD
HETATM    7  C   UNL     1      -8.242   3.287 -30.267  1.00  0.00     0.246 C 
HETATM    8  C   UNL     1      -9.840   5.578 -31.294  1.00  0.00     0.033 C 
HETATM    9  C   UNL     1      -9.224   5.547 -29.890  1.00  0.00     0.236 C 
ENDROOT
BRANCH   4  10
HETATM   10  C   UNL     1      -5.568   4.849 -30.895  1.00  0.00     0.155 C 
BRANCH  10  11
HETATM   11  N   UNL     1      -4.857   5.344 -29.722  1.00  0.00    -0.365 N 
HETATM   12  H   UNL     1      -4.372   4.664 -29.146  1.00  0.00     0.161 HD
BRANCH  11  13
HETATM   13  C   UNL     1      -4.719   6.643 -29.325  1.00  0.00     0.172 C 
HETATM   14  S   UNL     1      -5.433   7.300 -27.964  1.00  0.00    -0.041 SA
BRANCH  13  15
HETATM   15  N   UNL     1      -4.007   7.470 -30.146  1.00  0.00    -0.333 N 
HETATM   16  H   UNL     1      -4.442   8.381 -30.276  1.00  0.00     0.168 HD
BRANCH  15  17
HETATM   17  C   UNL     1      -2.713   7.342 -30.702  1.00  0.00     0.039 A 
HETATM   18  C   UNL     1      -2.468   7.224 -32.073  1.00  0.00     0.066 A 
HETATM   19  C   UNL     1      -1.166   7.101 -32.565  1.00  0.00     0.073 A 
HETATM   20  C   UNL     1      -0.099   7.063 -31.672  1.00  0.00     0.073 A 
HETATM   21  C   UNL     1      -0.328   7.123 -30.294  1.00  0.00     0.073 A 
HETATM   22  C   UNL     1      -1.633   7.262 -29.813  1.00  0.00     0.066 A 
BRANCH  19  23
HETATM   23  O   UNL     1      -1.082   7.025 -33.929  1.00  0.00    -0.356 OA
HETATM   24  C   UNL     1      -1.387   5.766 -34.521  1.00  0.00     0.210 C 
ENDBRANCH  19  23
BRANCH  21  25
HETATM   25  O   UNL     1       0.805   7.051 -29.531  1.00  0.00    -0.356 OA
HETATM   26  C   UNL     1       0.877   7.900 -28.392  1.00  0.00     0.210 C 
ENDBRANCH  21  25
ENDBRANCH  15  17
ENDBRANCH  13  15
ENDBRANCH  11  13
ENDBRANCH  10  11
ENDBRANCH   4  10
BRANCH   1  27
HETATM   27  C   UNL     1      -8.846   1.944 -32.311  1.00  0.00     0.038 C 
HETATM   28  N   UNL     1      -9.627   1.193 -33.165  1.00  0.00    -0.277 N 
HETATM   29  C   UNL     1     -11.030   1.254 -33.497  1.00  0.00     0.179 C 
HETATM   30  N   UNL     1      -8.933   0.228 -33.792  1.00  0.00    -0.172 NA
HETATM   31  C   UNL     1      -7.748   0.172 -33.180  1.00  0.00     0.089 C 
HETATM   32  C   UNL     1      -7.647   1.238 -32.257  1.00  0.00     0.061 C 
BRANCH  31  33
HETATM   33  C   UNL     1      -6.754  -0.852 -33.500  1.00  0.00    -0.003 A 
HETATM   34  C   UNL     1      -5.506  -0.854 -32.859  1.00  0.00     0.053 A 
HETATM   35  C   UNL     1      -4.547  -1.831 -33.155  1.00  0.00     0.102 A 
HETATM   36  C   UNL     1      -4.831  -2.817 -34.121  1.00  0.00     0.101 A 
HETATM   37  C   UNL     1      -6.072  -2.813 -34.764  1.00  0.00     0.040 A 
HETATM   38  C   UNL     1      -7.027  -1.839 -34.454  1.00  0.00     0.017 A 
BRANCH  35  39
HETATM   39  O   UNL     1      -3.311  -1.909 -32.563  1.00  0.00    -0.353 OA
HETATM   40  C   UNL     1      -2.914  -0.844 -31.712  1.00  0.00     0.210 C 
ENDBRANCH  35  39
BRANCH  36  41
HETATM   41  O   UNL     1      -3.842  -3.738 -34.355  1.00  0.00    -0.353 OA
HETATM   42  C   UNL     1      -4.065  -5.073 -33.925  1.00  0.00     0.210 C 
ENDBRANCH  36  41
ENDBRANCH  31  33
ENDBRANCH   1  27
TORSDOF 11
ENDMDL
MODEL 8
REMARK VINA RESULT:      -8.7      2.360     11.867
REMARK  11 active torsions:
REMARK  status: ('A' for Active; 'I' for Inactive)
REMARK    1  A    between atoms: C_4  and  C_5 
REMARK    2  A    between atoms: C_7  and  O_8 
REMARK    3  A    between atoms: C_10  and  O_11 
REMARK    4  A    between atoms: C_16  and  C_17 
REMARK    5  A    between atoms: C_20  and  C_21 
REMARK    6  A    between atoms: C_21  and  N_22 
REMARK    7  A    between atoms: N_22  and  C_23 
REMARK    8  A    between atoms: C_23  and  N_24 
REMARK    9  A    between atoms: N_24  and  C_25 
REMARK   10  A    between atoms: C_27  and  O_28 
REMARK   11  A    between atoms: C_31  and  O_32 
ROOT
HETATM    1  C   UNL     1      -6.079   4.389 -32.026  1.00  0.00     0.067 C 
HETATM    2  C   UNL     1      -5.760   5.579 -32.954  1.00  0.00     0.001 C 
HETATM    3  C   UNL     1      -4.264   5.594 -33.339  1.00  0.00     0.040 C 
HETATM    4  C   UNL     1      -3.376   5.841 -32.107  1.00  0.00     0.206 C 
HETATM    5  N   UNL     1      -4.271   5.685 -30.875  1.00  0.00    -0.065 N 
HETATM    6  H   UNL     1      -3.679   5.728 -30.032  1.00  0.00     0.280 HD
HETATM    7  C   UNL     1      -5.031   4.365 -30.880  1.00  0.00     0.246 C 
HETATM    8  C   UNL     1      -6.027   6.871 -32.137  1.00  0.00     0.033 C 
HETATM    9  C   UNL     1      -5.247   6.848 -30.818  1.00  0.00     0.236 C 
ENDROOT
BRANCH   4  10
HETATM   10  C   UNL     1      -2.142   4.914 -32.036  1.00  0.00     0.155 C 
BRANCH  10  11
HETATM   11  N   UNL     1      -1.513   4.869 -30.722  1.00  0.00    -0.365 N 
HETATM   12  H   UNL     1      -1.797   4.126 -30.091  1.00  0.00     0.161 HD
BRANCH  11  13
HETATM   13  C   UNL     1      -0.531   5.690 -30.245  1.00  0.00     0.172 C 
HETATM   14  S   UNL     1       0.357   6.751 -31.183  1.00  0.00    -0.041 SA
BRANCH  13  15
HETATM   15  N   UNL     1      -0.212   5.571 -28.923  1.00  0.00    -0.333 N 
HETATM   16  H   UNL     1       0.201   4.671 -28.687  1.00  0.00     0.168 HD
BRANCH  15  17
HETATM   17  C   UNL     1      -0.201   6.525 -27.878  1.00  0.00     0.039 A 
HETATM   18  C   UNL     1      -1.345   7.181 -27.418  1.00  0.00     0.066 A 
HETATM   19  C   UNL     1      -1.274   8.115 -26.381  1.00  0.00     0.073 A 
HETATM   20  C   UNL     1      -0.037   8.417 -25.818  1.00  0.00     0.073 A 
HETATM   21  C   UNL     1       1.126   7.811 -26.302  1.00  0.00     0.073 A 
HETATM   22  C   UNL     1       1.042   6.868 -27.330  1.00  0.00     0.066 A 
BRANCH  19  23
HETATM   23  O   UNL     1      -2.480   8.652 -26.019  1.00  0.00    -0.356 OA
HETATM   24  C   UNL     1      -3.318   9.113 -27.074  1.00  0.00     0.210 C 
ENDBRANCH  19  23
BRANCH  21  25
HETATM   25  O   UNL     1       2.274   8.216 -25.678  1.00  0.00    -0.356 OA
HETATM   26  C   UNL     1       2.244   9.472 -25.010  1.00  0.00     0.210 C 
ENDBRANCH  21  25
ENDBRANCH  15  17
ENDBRANCH  13  15
ENDBRANCH  11  13
ENDBRANCH  10  11
ENDBRANCH   4  10
BRANCH   1  27
HETATM   27  C   UNL     1      -6.294   3.003 -32.582  1.00  0.00     0.038 C 
HETATM   28  N   UNL     1      -7.378   2.419 -33.202  1.00  0.00    -0.277 N 
HETATM   29  C   UNL     1      -8.739   2.863 -33.393  1.00  0.00     0.179 C 
HETATM   30  N   UNL     1      -7.096   1.209 -33.714  1.00  0.00    -0.172 NA
HETATM   31  C   UNL     1      -5.898   0.876 -33.227  1.00  0.00     0.089 C 
HETATM   32  C   UNL     1      -5.356   1.977 -32.525  1.00  0.00     0.061 C 
BRANCH  31  33
HETATM   33  C   UNL     1      -5.302  -0.439 -33.458  1.00  0.00    -0.003 A 
HETATM   34  C   UNL     1      -5.864  -1.317 -34.398  1.00  0.00     0.053 A 
HETATM   35  C   UNL     1      -5.302  -2.578 -34.630  1.00  0.00     0.102 A 
HETATM   36  C   UNL     1      -4.166  -2.981 -33.900  1.00  0.00     0.101 A 
HETATM   37  C   UNL     1      -3.608  -2.110 -32.959  1.00  0.00     0.040 A 
HETATM   38  C   UNL     1      -4.171  -0.849 -32.742  1.00  0.00     0.017 A 
BRANCH  35  39
HETATM   39  O   UNL     1      -5.783  -3.487 -35.540  1.00  0.00    -0.353 OA
HETATM   40  C   UNL     1      -6.851  -4.332 -35.132  1.00  0.00     0.210 C 
ENDBRANCH  35  39
BRANCH  36  41
HETATM   41  O   UNL     1      -3.675  -4.230 -34.184  1.00  0.00    -0.353 OA
HETATM   42  C   UNL     1      -3.829  -5.241 -33.199  1.00  0.00     0.210 C 
ENDBRANCH  36  41
ENDBRANCH  31  33
ENDBRANCH   1  27
TORSDOF 11
ENDMDL
MODEL 9
REMARK VINA RESULT:      -8.6      6.184      9.933
REMARK  11 active torsions:
REMARK  status: ('A' for Active; 'I' for Inactive)
REMARK    1  A    between atoms: C_4  and  C_5 
REMARK    2  A    between atoms: C_7  and  O_8 
REMARK    3  A    between atoms: C_10  and  O_11 
REMARK    4  A    between atoms: C_16  and  C_17 
REMARK    5  A    between atoms: C_20  and  C_21 
REMARK    6  A    between atoms: C_21  and  N_22 
REMARK    7  A    between atoms: N_22  and  C_23 
REMARK    8  A    between atoms: C_23  and  N_24 
REMARK    9  A    between atoms: N_24  and  C_25 
REMARK   10  A    between atoms: C_27  and  O_28 
REMARK   11  A    between atoms: C_31  and  O_32 
ROOT
HETATM    1  C   UNL     1      -5.727   4.793 -31.260  1.00  0.00     0.067 C 
HETATM    2  C   UNL     1      -6.019   4.974 -29.757  1.00  0.00     0.001 C 
HETATM    3  C   UNL     1      -7.309   4.227 -29.351  1.00  0.00     0.040 C 
HETATM    4  C   UNL     1      -8.543   4.836 -30.039  1.00  0.00     0.206 C 
HETATM    5  N   UNL     1      -8.025   5.781 -31.126  1.00  0.00    -0.065 N 
HETATM    6  H   UNL     1      -8.827   6.113 -31.682  1.00  0.00     0.280 HD
HETATM    7  C   UNL     1      -7.027   5.099 -32.054  1.00  0.00     0.246 C 
HETATM    8  C   UNL     1      -6.283   6.486 -29.528  1.00  0.00     0.033 C 
HETATM    9  C   UNL     1      -7.382   6.991 -30.469  1.00  0.00     0.236 C 
ENDROOT
BRANCH   4  10
HETATM   10  C   UNL     1      -9.514   3.781 -30.617  1.00  0.00     0.155 C 
BRANCH  10  11
HETATM   11  N   UNL     1      -8.906   2.474 -30.830  1.00  0.00    -0.365 N 
HETATM   12  H   UNL     1      -8.310   2.108 -30.095  1.00  0.00     0.161 HD
BRANCH  11  13
HETATM   13  C   UNL     1      -9.086   1.641 -31.898  1.00  0.00     0.172 C 
HETATM   14  S   UNL     1      -9.053  -0.028 -31.816  1.00  0.00    -0.041 SA
BRANCH  13  15
HETATM   15  N   UNL     1      -9.226   2.226 -33.123  1.00  0.00    -0.333 N 
HETATM   16  H   UNL     1      -8.350   2.303 -33.636  1.00  0.00     0.168 HD
BRANCH  15  17
HETATM   17  C   UNL     1     -10.381   2.585 -33.857  1.00  0.00     0.039 A 
HETATM   18  C   UNL     1     -11.392   1.683 -34.199  1.00  0.00     0.066 A 
HETATM   19  C   UNL     1     -12.511   2.096 -34.926  1.00  0.00     0.073 A 
HETATM   20  C   UNL     1     -12.604   3.421 -35.343  1.00  0.00     0.073 A 
HETATM   21  C   UNL     1     -11.577   4.325 -35.058  1.00  0.00     0.073 A 
HETATM   22  C   UNL     1     -10.468   3.905 -34.318  1.00  0.00     0.066 A 
BRANCH  19  23
HETATM   23  O   UNL     1     -13.430   1.108 -35.159  1.00  0.00    -0.356 OA
HETATM   24  C   UNL     1     -14.509   1.007 -34.236  1.00  0.00     0.210 C 
ENDBRANCH  19  23
BRANCH  21  25
HETATM   25  O   UNL     1     -11.785   5.586 -35.547  1.00  0.00    -0.356 OA
HETATM   26  C   UNL     1     -11.501   6.676 -34.678  1.00  0.00     0.210 C 
ENDBRANCH  21  25
ENDBRANCH  15  17
ENDBRANCH  13  15
ENDBRANCH  11  13
ENDBRANCH  10  11
ENDBRANCH   4  10
BRANCH   1  27
HETATM   27  C   UNL     1      -5.067   3.540 -31.781  1.00  0.00     0.038 C 
HETATM   28  N   UNL     1      -3.741   3.175 -31.887  1.00  0.00    -0.277 N 
HETATM   29  C   UNL     1      -2.516   3.914 -31.695  1.00  0.00     0.179 C 
HETATM   30  N   UNL     1      -3.582   1.889 -32.240  1.00  0.00    -0.172 NA
HETATM   31  C   UNL     1      -4.791   1.457 -32.609  1.00  0.00     0.089 C 
HETATM   32  C   UNL     1      -5.750   2.456 -32.323  1.00  0.00     0.061 C 
BRANCH  31  33
HETATM   33  C   UNL     1      -5.002   0.130 -33.184  1.00  0.00    -0.003 A 
HETATM   34  C   UNL     1      -4.110  -0.916 -32.900  1.00  0.00     0.053 A 
HETATM   35  C   UNL     1      -4.302  -2.192 -33.443  1.00  0.00     0.102 A 
HETATM   36  C   UNL     1      -5.396  -2.429 -34.299  1.00  0.00     0.101 A 
HETATM   37  C   UNL     1      -6.282  -1.387 -34.588  1.00  0.00     0.040 A 
HETATM   38  C   UNL     1      -6.087  -0.118 -34.033  1.00  0.00     0.017 A 
BRANCH  35  39
HETATM   39  O   UNL     1      -3.484  -3.269 -33.203  1.00  0.00    -0.353 OA
HETATM   40  C   UNL     1      -3.043  -3.482 -31.869  1.00  0.00     0.210 C 
ENDBRANCH  35  39
BRANCH  36  41
HETATM   41  O   UNL     1      -5.516  -3.704 -34.790  1.00  0.00    -0.353 OA
HETATM   42  C   UNL     1      -6.824  -4.200 -35.032  1.00  0.00     0.210 C 
ENDBRANCH  36  41
ENDBRANCH  31  33
ENDBRANCH   1  27
TORSDOF 11
ENDMDL
MODEL 10
REMARK VINA RESULT:      -8.5      3.502     11.416
REMARK  11 active torsions:
REMARK  status: ('A' for Active; 'I' for Inactive)
REMARK    1  A    between atoms: C_4  and  C_5 
REMARK    2  A    between atoms: C_7  and  O_8 
REMARK    3  A    between atoms: C_10  and  O_11 
REMARK    4  A    between atoms: C_16  and  C_17 
REMARK    5  A    between atoms: C_20  and  C_21 
REMARK    6  A    between atoms: C_21  and  N_22 
REMARK    7  A    between atoms: N_22  and  C_23 
REMARK    8  A    between atoms: C_23  and  N_24 
REMARK    9  A    between atoms: N_24  and  C_25 
REMARK   10  A    between atoms: C_27  and  O_28 
REMARK   11  A    between atoms: C_31  and  O_32 
ROOT
HETATM    1  C   UNL     1      -9.133   3.120 -31.470  1.00  0.00     0.067 C 
HETATM    2  C   UNL     1      -9.357   4.475 -32.170  1.00  0.00     0.001 C 
HETATM    3  C   UNL     1      -8.010   5.137 -32.537  1.00  0.00     0.040 C 
HETATM    4  C   UNL     1      -7.211   5.505 -31.275  1.00  0.00     0.206 C 
HETATM    5  N   UNL     1      -7.896   4.811 -30.096  1.00  0.00    -0.065 N 
HETATM    6  H   UNL     1      -7.315   4.942 -29.255  1.00  0.00     0.280 HD
HETATM    7  C   UNL     1      -8.087   3.318 -30.339  1.00  0.00     0.246 C 
HETATM    8  C   UNL     1     -10.050   5.406 -31.140  1.00  0.00     0.033 C 
HETATM    9  C   UNL     1      -9.240   5.473 -29.841  1.00  0.00     0.236 C 
ENDROOT
BRANCH   4  10
HETATM   10  C   UNL     1      -5.712   5.136 -31.360  1.00  0.00     0.155 C 
BRANCH  10  11
HETATM   11  N   UNL     1      -5.268   4.778 -32.702  1.00  0.00    -0.365 N 
HETATM   12  H   UNL     1      -5.940   4.325 -33.314  1.00  0.00     0.161 HD
BRANCH  11  13
HETATM   13  C   UNL     1      -4.050   5.029 -33.265  1.00  0.00     0.172 C 
HETATM   14  S   UNL     1      -3.782   5.212 -34.905  1.00  0.00    -0.041 SA
BRANCH  13  15
HETATM   15  N   UNL     1      -2.973   5.055 -32.427  1.00  0.00    -0.333 N 
HETATM   16  H   UNL     1      -2.453   4.180 -32.410  1.00  0.00     0.168 HD
BRANCH  15  17
HETATM   17  C   UNL     1      -2.369   6.121 -31.718  1.00  0.00     0.039 A 
HETATM   18  C   UNL     1      -2.770   7.454 -31.837  1.00  0.00     0.066 A 
HETATM   19  C   UNL     1      -2.137   8.466 -31.111  1.00  0.00     0.073 A 
HETATM   20  C   UNL     1      -1.068   8.142 -30.280  1.00  0.00     0.073 A 
HETATM   21  C   UNL     1      -0.617   6.822 -30.190  1.00  0.00     0.073 A 
HETATM   22  C   UNL     1      -1.268   5.816 -30.909  1.00  0.00     0.066 A 
BRANCH  19  23
HETATM   23  O   UNL     1      -2.658   9.716 -31.309  1.00  0.00    -0.356 OA
HETATM   24  C   UNL     1      -2.546  10.635 -30.227  1.00  0.00     0.210 C 
ENDBRANCH  19  23
BRANCH  21  25
HETATM   25  O   UNL     1       0.454   6.648 -29.356  1.00  0.00    -0.356 OA
HETATM   26  C   UNL     1       0.217   5.987 -28.120  1.00  0.00     0.210 C 
ENDBRANCH  21  25
ENDBRANCH  15  17
ENDBRANCH  13  15
ENDBRANCH  11  13
ENDBRANCH  10  11
ENDBRANCH   4  10
BRANCH   1  27
HETATM   27  C   UNL     1      -8.831   1.873 -32.262  1.00  0.00     0.038 C 
HETATM   28  N   UNL     1      -9.594   1.137 -33.146  1.00  0.00    -0.277 N 
HETATM   29  C   UNL     1     -10.992   1.199 -33.501  1.00  0.00     0.179 C 
HETATM   30  N   UNL     1      -8.885   0.190 -33.782  1.00  0.00    -0.172 NA
HETATM   31  C   UNL     1      -7.710   0.126 -33.150  1.00  0.00     0.089 C 
HETATM   32  C   UNL     1      -7.631   1.171 -32.203  1.00  0.00     0.061 C 
BRANCH  31  33
HETATM   33  C   UNL     1      -6.706  -0.887 -33.475  1.00  0.00    -0.003 A 
HETATM   34  C   UNL     1      -5.468  -0.896 -32.815  1.00  0.00     0.053 A 
HETATM   35  C   UNL     1      -4.499  -1.861 -33.115  1.00  0.00     0.102 A 
HETATM   36  C   UNL     1      -4.762  -2.829 -34.105  1.00  0.00     0.101 A 
HETATM   37  C   UNL     1      -5.993  -2.818 -34.768  1.00  0.00     0.040 A 
HETATM   38  C   UNL     1      -6.957  -1.855 -34.454  1.00  0.00     0.017 A 
BRANCH  35  39
HETATM   39  O   UNL     1      -3.272  -1.946 -32.505  1.00  0.00    -0.353 OA
HETATM   40  C   UNL     1      -2.807  -0.809 -31.791  1.00  0.00     0.210 C 
ENDBRANCH  35  39
BRANCH  36  41
HETATM   41  O   UNL     1      -3.764  -3.740 -34.342  1.00  0.00    -0.353 OA
HETATM   42  C   UNL     1      -3.863  -5.009 -33.712  1.00  0.00     0.210 C 
ENDBRANCH  36  41
ENDBRANCH  31  33
ENDBRANCH   1  27
TORSDOF 11
ENDMDL
