MODEL 1
REMARK VINA RESULT:      -8.8      0.000      0.000
REMARK  6 active torsions:
REMARK  status: ('A' for Active; 'I' for Inactive)
REMARK    1  A    between atoms: C_2  and  O_3 
REMARK    2  A    between atoms: C_2  and  C_10 
REMARK    3  A    between atoms: O_3  and  C_4 
REMARK       I    between atoms: C_10  and  N_11 
REMARK    4  A    between atoms: N_11  and  C_12 
REMARK    5  A    between atoms: N_13  and  C_14 
REMARK    6  A    between atoms: C_26  and  C_27 
ROOT
HETATM    1  C   UNL     1      -5.074   4.756 -31.372  1.00  0.00     0.152 A 
HETATM    2  N   UNL     1      -4.284   3.681 -31.750  1.00  0.00    -0.044 N 
HETATM    3  N   UNL     1      -2.950   3.936 -31.607  1.00  0.00    -0.150 NA
HETATM    4  C   UNL     1      -2.906   5.188 -31.131  1.00  0.00     0.099 A 
HETATM    5  C   UNL     1      -4.198   5.735 -30.963  1.00  0.00     0.086 A 
ENDROOT
BRANCH   1   6
HETATM    6  N   UNL     1      -6.457   4.720 -31.454  1.00  0.00    -0.309 N 
HETATM    7  C   UNL     1      -7.279   4.231 -30.456  1.00  0.00     0.252 C 
HETATM    8  O   UNL     1      -6.909   3.746 -29.390  1.00  0.00    -0.270 OA
HETATM    9  H   UNL     1      -6.896   5.033 -32.326  1.00  0.00     0.170 HD
BRANCH   7  10
HETATM   10  C   UNL     1      -8.774   4.411 -30.773  1.00  0.00     0.217 C 
HETATM   11  C   UNL     1      -9.107   5.898 -30.685  1.00  0.00     0.050 C 
BRANCH  10  12
HETATM   12  O   UNL     1      -9.115   3.994 -32.097  1.00  0.00    -0.337 OA
BRANCH  12  13
HETATM   13  C   UNL     1      -9.392   2.666 -32.268  1.00  0.00     0.070 A 
HETATM   14  C   UNL     1     -10.244   2.371 -33.336  1.00  0.00     0.037 A 
HETATM   15  C   UNL     1     -10.597   1.051 -33.617  1.00  0.00     0.003 A 
HETATM   16  C   UNL     1     -10.084   0.015 -32.839  1.00  0.00     0.000 A 
HETATM   17  C   UNL     1      -9.215   0.302 -31.787  1.00  0.00     0.003 A 
HETATM   18  C   UNL     1      -8.866   1.626 -31.501  1.00  0.00     0.037 A 
ENDBRANCH  12  13
ENDBRANCH  10  12
ENDBRANCH   7  10
ENDBRANCH   1   6
BRANCH   2  19
HETATM   19  C   UNL     1      -4.706   2.436 -32.256  1.00  0.00     0.732 A 
HETATM   20  N   UNL     1      -5.613   2.317 -33.173  1.00  0.00    -0.067 NA
HETATM   21  C   UNL     1      -5.913   1.033 -33.568  1.00  0.00     0.065 A 
HETATM   22  C   UNL     1      -5.317  -0.070 -33.076  1.00  0.00     0.036 A 
HETATM   23  C   UNL     1      -6.976   0.932 -34.639  1.00  0.00     0.060 C 
HETATM   24  C   UNL     1      -5.641  -1.471 -33.499  1.00  0.00     0.046 C 
HETATM   25  C   UNL     1      -4.273   0.109 -32.035  1.00  0.00     0.268 A 
HETATM   26  C   UNL     1      -6.925  -1.565 -34.326  1.00  0.00     0.005 C 
HETATM   27  C   UNL     1      -7.013  -0.429 -35.338  1.00  0.00     0.006 C 
HETATM   28  O   UNL     1      -3.665  -0.836 -31.546  1.00  0.00    -0.267 OA
HETATM   29  N   UNL     1      -4.040   1.398 -31.671  1.00  0.00    -0.152 N 
HETATM   30  H   UNL     1      -3.336   1.592 -30.967  1.00  0.00     0.188 HD
ENDBRANCH   2  19
BRANCH   4  31
HETATM   31  C   UNL     1      -1.604   5.877 -30.839  1.00  0.00     0.035 A 
HETATM   32  S   UNL     1      -1.318   6.864 -29.473  1.00  0.00    -0.100 SA
HETATM   33  C   UNL     1       0.290   7.186 -29.959  1.00  0.00     0.050 A 
HETATM   34  C   UNL     1       0.608   6.553 -31.140  1.00  0.00     0.008 A 
HETATM   35  C   UNL     1      -0.488   5.793 -31.648  1.00  0.00     0.022 A 
ENDBRANCH   4  31
TORSDOF 6
ENDMDL
MODEL 2
REMARK VINA RESULT:      -8.6      3.449      7.495
REMARK  6 active torsions:
REMARK  status: ('A' for Active; 'I' for Inactive)
REMARK    1  A    between atoms: C_2  and  O_3 
REMARK    2  A    between atoms: C_2  and  C_10 
REMARK    3  A    between atoms: O_3  and  C_4 
REMARK       I    between atoms: C_10  and  N_11 
REMARK    4  A    between atoms: N_11  and  C_12 
REMARK    5  A    between atoms: N_13  and  C_14 
REMARK    6  A    between atoms: C_26  and  C_27 
ROOT
HETATM    1  C   UNL     1      -9.022   2.806 -33.225  1.00  0.00     0.152 A 
HETATM    2  N   UNL     1      -8.877   1.427 -33.203  1.00  0.00    -0.044 N 
HETATM    3  N   UNL     1     -10.073   0.774 -33.294  1.00  0.00    -0.150 NA
HETATM    4  C   UNL     1     -10.979   1.759 -33.376  1.00  0.00     0.099 A 
HETATM    5  C   UNL     1     -10.373   3.035 -33.344  1.00  0.00     0.086 A 
ENDROOT
BRANCH   1   6
HETATM    6  N   UNL     1      -7.937   3.663 -33.125  1.00  0.00    -0.309 N 
HETATM    7  C   UNL     1      -7.702   4.488 -32.041  1.00  0.00     0.252 C 
HETATM    8  O   UNL     1      -8.416   4.595 -31.047  1.00  0.00    -0.270 OA
HETATM    9  H   UNL     1      -7.295   3.723 -33.922  1.00  0.00     0.170 HD
BRANCH   7  10
HETATM   10  C   UNL     1      -6.371   5.252 -32.152  1.00  0.00     0.217 C 
HETATM   11  C   UNL     1      -6.284   6.237 -30.989  1.00  0.00     0.050 C 
BRANCH  10  12
HETATM   12  O   UNL     1      -5.229   4.396 -32.048  1.00  0.00    -0.337 OA
BRANCH  12  13
HETATM   13  C   UNL     1      -4.212   4.623 -32.933  1.00  0.00     0.070 A 
HETATM   14  C   UNL     1      -4.616   4.998 -34.216  1.00  0.00     0.037 A 
HETATM   15  C   UNL     1      -3.670   5.262 -35.207  1.00  0.00     0.003 A 
HETATM   16  C   UNL     1      -2.312   5.170 -34.912  1.00  0.00     0.000 A 
HETATM   17  C   UNL     1      -1.903   4.818 -33.626  1.00  0.00     0.003 A 
HETATM   18  C   UNL     1      -2.851   4.547 -32.635  1.00  0.00     0.037 A 
ENDBRANCH  12  13
ENDBRANCH  10  12
ENDBRANCH   7  10
ENDBRANCH   1   6
BRANCH   2  19
HETATM   19  C   UNL     1      -7.685   0.686 -33.082  1.00  0.00     0.732 A 
HETATM   20  N   UNL     1      -6.647   1.119 -32.440  1.00  0.00    -0.067 NA
HETATM   21  C   UNL     1      -5.559   0.276 -32.404  1.00  0.00     0.065 A 
HETATM   22  C   UNL     1      -5.528  -0.944 -32.972  1.00  0.00     0.036 A 
HETATM   23  C   UNL     1      -4.366   0.814 -31.647  1.00  0.00     0.060 C 
HETATM   24  C   UNL     1      -4.346  -1.866 -32.941  1.00  0.00     0.046 C 
HETATM   25  C   UNL     1      -6.742  -1.410 -33.689  1.00  0.00     0.268 A 
HETATM   26  C   UNL     1      -3.064  -1.179 -32.464  1.00  0.00     0.005 C 
HETATM   27  C   UNL     1      -3.339  -0.260 -31.280  1.00  0.00     0.006 C 
HETATM   28  O   UNL     1      -6.811  -2.514 -34.217  1.00  0.00    -0.267 OA
HETATM   29  N   UNL     1      -7.773  -0.523 -33.709  1.00  0.00    -0.152 N 
HETATM   30  H   UNL     1      -8.635  -0.779 -34.177  1.00  0.00     0.188 HD
ENDBRANCH   2  19
BRANCH   4  31
HETATM   31  C   UNL     1     -12.449   1.474 -33.479  1.00  0.00     0.035 A 
HETATM   32  S   UNL     1     -13.679   2.621 -33.169  1.00  0.00    -0.100 SA
HETATM   33  C   UNL     1     -14.914   1.484 -33.501  1.00  0.00     0.050 A 
HETATM   34  C   UNL     1     -14.402   0.253 -33.845  1.00  0.00     0.008 A 
HETATM   35  C   UNL     1     -12.975   0.247 -33.834  1.00  0.00     0.022 A 
ENDBRANCH   4  31
TORSDOF 6
ENDMDL
MODEL 3
REMARK VINA RESULT:      -8.6      3.146      6.682
REMARK  6 active torsions:
REMARK  status: ('A' for Active; 'I' for Inactive)
REMARK    1  A    between atoms: C_2  and  O_3 
REMARK    2  A    between atoms: C_2  and  C_10 
REMARK    3  A    between atoms: O_3  and  C_4 
REMARK       I    between atoms: C_10  and  N_11 
REMARK    4  A    between atoms: N_11  and  C_12 
REMARK    5  A    between atoms: N_13  and  C_14 
REMARK    6  A    between atoms: C_26  and  C_27 
ROOT
HETATM    1  C   UNL     1      -7.482   0.661 -34.237  1.00  0.00     0.152 A 
HETATM    2  N   UNL     1      -6.193   0.841 -33.759  1.00  0.00    -0.044 N 
HETATM    3  N   UNL     1      -5.460  -0.310 -33.786  1.00  0.00    -0.150 NA
HETATM    4  C   UNL     1      -6.302  -1.224 -34.290  1.00  0.00     0.099 A 
HETATM    5  C   UNL     1      -7.565  -0.667 -34.590  1.00  0.00     0.086 A 
ENDROOT
BRANCH   1   6
HETATM    6  N   UNL     1      -8.404   1.695 -34.281  1.00  0.00    -0.309 N 
HETATM    7  C   UNL     1      -9.493   1.796 -33.436  1.00  0.00     0.252 C 
HETATM    8  O   UNL     1      -9.805   0.991 -32.562  1.00  0.00    -0.270 OA
HETATM    9  H   UNL     1      -8.299   2.403 -35.014  1.00  0.00     0.170 HD
BRANCH   7  10
HETATM   10  C   UNL     1     -10.286   3.098 -33.639  1.00  0.00     0.217 C 
HETATM   11  C   UNL     1      -9.331   4.166 -34.165  1.00  0.00     0.050 C 
BRANCH  10  12
HETATM   12  O   UNL     1     -11.328   2.968 -34.611  1.00  0.00    -0.337 OA
BRANCH  12  13
HETATM   13  C   UNL     1     -12.497   2.403 -34.183  1.00  0.00     0.070 A 
HETATM   14  C   UNL     1     -13.082   3.020 -33.074  1.00  0.00     0.037 A 
HETATM   15  C   UNL     1     -14.281   2.540 -32.547  1.00  0.00     0.003 A 
HETATM   16  C   UNL     1     -14.911   1.448 -33.139  1.00  0.00     0.000 A 
HETATM   17  C   UNL     1     -14.343   0.843 -34.260  1.00  0.00     0.003 A 
HETATM   18  C   UNL     1     -13.138   1.320 -34.784  1.00  0.00     0.037 A 
ENDBRANCH  12  13
ENDBRANCH  10  12
ENDBRANCH   7  10
ENDBRANCH   1   6
BRANCH   2  19
HETATM   19  C   UNL     1      -5.615   2.025 -33.262  1.00  0.00     0.732 A 
HETATM   20  N   UNL     1      -6.108   3.201 -33.489  1.00  0.00    -0.067 NA
HETATM   21  C   UNL     1      -5.433   4.262 -32.928  1.00  0.00     0.065 A 
HETATM   22  C   UNL     1      -4.330   4.140 -32.166  1.00  0.00     0.036 A 
HETATM   23  C   UNL     1      -6.036   5.619 -33.216  1.00  0.00     0.060 C 
HETATM   24  C   UNL     1      -3.588   5.291 -31.555  1.00  0.00     0.046 C 
HETATM   25  C   UNL     1      -3.803   2.774 -31.917  1.00  0.00     0.268 A 
HETATM   26  C   UNL     1      -4.016   6.646 -32.121  1.00  0.00     0.005 C 
HETATM   27  C   UNL     1      -5.529   6.723 -32.285  1.00  0.00     0.006 C 
HETATM   28  O   UNL     1      -2.818   2.567 -31.218  1.00  0.00    -0.267 OA
HETATM   29  N   UNL     1      -4.499   1.772 -32.517  1.00  0.00    -0.152 N 
HETATM   30  H   UNL     1      -4.197   0.813 -32.385  1.00  0.00     0.188 HD
ENDBRANCH   2  19
BRANCH   4  31
HETATM   31  C   UNL     1      -5.894  -2.656 -34.479  1.00  0.00     0.035 A 
HETATM   32  S   UNL     1      -4.342  -3.275 -34.117  1.00  0.00    -0.100 SA
HETATM   33  C   UNL     1      -4.778  -4.849 -34.623  1.00  0.00     0.050 A 
HETATM   34  C   UNL     1      -6.083  -4.907 -35.059  1.00  0.00     0.008 A 
HETATM   35  C   UNL     1      -6.730  -3.638 -34.974  1.00  0.00     0.022 A 
ENDBRANCH   4  31
TORSDOF 6
ENDMDL
MODEL 4
REMARK VINA RESULT:      -8.5      3.280      7.641
REMARK  6 active torsions:
REMARK  status: ('A' for Active; 'I' for Inactive)
REMARK    1  A    between atoms: C_2  and  O_3 
REMARK    2  A    between atoms: C_2  and  C_10 
REMARK    3  A    between atoms: O_3  and  C_4 
REMARK       I    between atoms: C_10  and  N_11 
REMARK    4  A    between atoms: N_11  and  C_12 
REMARK    5  A    between atoms: N_13  and  C_14 
REMARK    6  A    between atoms: C_26  and  C_27 
ROOT
HETATM    1  C   UNL     1      -6.493   1.118 -33.560  1.00  0.00     0.152 A 
HETATM    2  N   UNL     1      -7.748   0.651 -33.917  1.00  0.00    -0.044 N 
HETATM    3  N   UNL     1      -7.743  -0.680 -34.223  1.00  0.00    -0.150 NA
HETATM    4  C   UNL     1      -6.466  -1.050 -34.053  1.00  0.00     0.099 A 
HETATM    5  C   UNL     1      -5.655   0.029 -33.637  1.00  0.00     0.086 A 
ENDROOT
BRANCH   1   6
HETATM    6  N   UNL     1      -6.266   2.445 -33.229  1.00  0.00    -0.309 N 
HETATM    7  C   UNL     1      -6.119   2.905 -31.934  1.00  0.00     0.252 C 
HETATM    8  O   UNL     1      -6.192   2.224 -30.914  1.00  0.00    -0.270 OA
HETATM    9  H   UNL     1      -6.252   3.135 -33.987  1.00  0.00     0.170 HD
BRANCH   7  10
HETATM   10  C   UNL     1      -5.773   4.402 -31.868  1.00  0.00     0.217 C 
HETATM   11  C   UNL     1      -6.544   5.024 -30.707  1.00  0.00     0.050 C 
BRANCH  10  12
HETATM   12  O   UNL     1      -4.386   4.640 -31.612  1.00  0.00    -0.337 OA
BRANCH  12  13
HETATM   13  C   UNL     1      -3.601   4.915 -32.697  1.00  0.00     0.070 A 
HETATM   14  C   UNL     1      -2.229   4.966 -32.437  1.00  0.00     0.037 A 
HETATM   15  C   UNL     1      -1.323   5.232 -33.464  1.00  0.00     0.003 A 
HETATM   16  C   UNL     1      -1.786   5.431 -34.763  1.00  0.00     0.000 A 
HETATM   17  C   UNL     1      -3.152   5.358 -35.031  1.00  0.00     0.003 A 
HETATM   18  C   UNL     1      -4.061   5.098 -34.001  1.00  0.00     0.037 A 
ENDBRANCH  12  13
ENDBRANCH  10  12
ENDBRANCH   7  10
ENDBRANCH   1   6
BRANCH   2  19
HETATM   19  C   UNL     1      -8.948   1.383 -34.005  1.00  0.00     0.732 A 
HETATM   20  N   UNL     1      -8.991   2.628 -34.358  1.00  0.00    -0.067 NA
HETATM   21  C   UNL     1     -10.241   3.204 -34.405  1.00  0.00     0.065 A 
HETATM   22  C   UNL     1     -11.386   2.553 -34.126  1.00  0.00     0.036 A 
HETATM   23  C   UNL     1     -10.253   4.658 -34.820  1.00  0.00     0.060 C 
HETATM   24  C   UNL     1     -12.750   3.174 -34.171  1.00  0.00     0.046 C 
HETATM   25  C   UNL     1     -11.296   1.122 -33.738  1.00  0.00     0.268 A 
HETATM   26  C   UNL     1     -12.708   4.701 -34.269  1.00  0.00     0.005 C 
HETATM   27  C   UNL     1     -11.633   5.162 -35.246  1.00  0.00     0.006 C 
HETATM   28  O   UNL     1     -12.287   0.446 -33.487  1.00  0.00    -0.267 OA
HETATM   29  N   UNL     1     -10.034   0.619 -33.687  1.00  0.00    -0.152 N 
HETATM   30  H   UNL     1      -9.900  -0.354 -33.433  1.00  0.00     0.188 HD
ENDBRANCH   2  19
BRANCH   4  31
HETATM   31  C   UNL     1      -6.012  -2.460 -34.302  1.00  0.00     0.035 A 
HETATM   32  S   UNL     1      -4.403  -3.004 -34.108  1.00  0.00    -0.100 SA
HETATM   33  C   UNL     1      -4.813  -4.594 -34.588  1.00  0.00     0.050 A 
HETATM   34  C   UNL     1      -6.152  -4.713 -34.888  1.00  0.00     0.008 A 
HETATM   35  C   UNL     1      -6.846  -3.477 -34.722  1.00  0.00     0.022 A 
ENDBRANCH   4  31
TORSDOF 6
ENDMDL
MODEL 5
REMARK VINA RESULT:      -8.4      1.378      1.844
REMARK  6 active torsions:
REMARK  status: ('A' for Active; 'I' for Inactive)
REMARK    1  A    between atoms: C_2  and  O_3 
REMARK    2  A    between atoms: C_2  and  C_10 
REMARK    3  A    between atoms: O_3  and  C_4 
REMARK       I    between atoms: C_10  and  N_11 
REMARK    4  A    between atoms: N_11  and  C_12 
REMARK    5  A    between atoms: N_13  and  C_14 
REMARK    6  A    between atoms: C_26  and  C_27 
ROOT
HETATM    1  C   UNL     1      -5.171   3.396 -31.895  1.00  0.00     0.152 A 
HETATM    2  N   UNL     1      -4.136   2.498 -32.108  1.00  0.00    -0.044 N 
HETATM    3  N   UNL     1      -2.907   3.058 -31.906  1.00  0.00    -0.150 NA
HETATM    4  C   UNL     1      -3.178   4.325 -31.559  1.00  0.00     0.099 A 
HETATM    5  C   UNL     1      -4.568   4.579 -31.534  1.00  0.00     0.086 A 
ENDROOT
BRANCH   1   6
HETATM    6  N   UNL     1      -6.500   3.043 -32.064  1.00  0.00    -0.309 N 
HETATM    7  C   UNL     1      -7.319   2.603 -31.041  1.00  0.00     0.252 C 
HETATM    8  O   UNL     1      -6.987   2.443 -29.869  1.00  0.00    -0.270 OA
HETATM    9  H   UNL     1      -6.888   3.065 -33.012  1.00  0.00     0.170 HD
BRANCH   7  10
HETATM   10  C   UNL     1      -8.773   2.384 -31.493  1.00  0.00     0.217 C 
HETATM   11  C   UNL     1      -9.653   3.421 -30.801  1.00  0.00     0.050 C 
BRANCH  10  12
HETATM   12  O   UNL     1      -8.951   2.571 -32.900  1.00  0.00    -0.337 OA
BRANCH  12  13
HETATM   13  C   UNL     1     -10.133   2.135 -33.432  1.00  0.00     0.070 A 
HETATM   14  C   UNL     1     -10.712   2.991 -34.371  1.00  0.00     0.037 A 
HETATM   15  C   UNL     1     -11.916   2.654 -34.989  1.00  0.00     0.003 A 
HETATM   16  C   UNL     1     -12.539   1.446 -34.682  1.00  0.00     0.000 A 
HETATM   17  C   UNL     1     -11.953   0.578 -33.763  1.00  0.00     0.003 A 
HETATM   18  C   UNL     1     -10.750   0.918 -33.138  1.00  0.00     0.037 A 
ENDBRANCH  12  13
ENDBRANCH  10  12
ENDBRANCH   7  10
ENDBRANCH   1   6
BRANCH   2  19
HETATM   19  C   UNL     1      -4.231   1.151 -32.509  1.00  0.00     0.732 A 
HETATM   20  N   UNL     1      -5.154   0.716 -33.307  1.00  0.00    -0.067 NA
HETATM   21  C   UNL     1      -5.110  -0.627 -33.611  1.00  0.00     0.065 A 
HETATM   22  C   UNL     1      -4.176  -1.478 -33.147  1.00  0.00     0.036 A 
HETATM   23  C   UNL     1      -6.202  -1.100 -34.544  1.00  0.00     0.060 C 
HETATM   24  C   UNL     1      -4.125  -2.942 -33.471  1.00  0.00     0.046 C 
HETATM   25  C   UNL     1      -3.128  -0.938 -32.245  1.00  0.00     0.268 A 
HETATM   26  C   UNL     1      -5.404  -3.452 -34.136  1.00  0.00     0.005 C 
HETATM   27  C   UNL     1      -5.917  -2.464 -35.177  1.00  0.00     0.006 C 
HETATM   28  O   UNL     1      -2.227  -1.635 -31.793  1.00  0.00    -0.267 OA
HETATM   29  N   UNL     1      -3.240   0.387 -31.964  1.00  0.00    -0.152 N 
HETATM   30  H   UNL     1      -2.554   0.823 -31.357  1.00  0.00     0.188 HD
ENDBRANCH   2  19
BRANCH   4  31
HETATM   31  C   UNL     1      -2.088   5.312 -31.256  1.00  0.00     0.035 A 
HETATM   32  S   UNL     1      -2.279   6.687 -30.258  1.00  0.00    -0.100 SA
HETATM   33  C   UNL     1      -0.654   7.166 -30.494  1.00  0.00     0.050 A 
HETATM   34  C   UNL     1       0.026   6.295 -31.315  1.00  0.00     0.008 A 
HETATM   35  C   UNL     1      -0.803   5.221 -31.755  1.00  0.00     0.022 A 
ENDBRANCH   4  31
TORSDOF 6
ENDMDL
MODEL 6
REMARK VINA RESULT:      -8.3      3.114      7.034
REMARK  6 active torsions:
REMARK  status: ('A' for Active; 'I' for Inactive)
REMARK    1  A    between atoms: C_2  and  O_3 
REMARK    2  A    between atoms: C_2  and  C_10 
REMARK    3  A    between atoms: O_3  and  C_4 
REMARK       I    between atoms: C_10  and  N_11 
REMARK    4  A    between atoms: N_11  and  C_12 
REMARK    5  A    between atoms: N_13  and  C_14 
REMARK    6  A    between atoms: C_26  and  C_27 
ROOT
HETATM    1  C   UNL     1      -5.265   1.629 -31.577  1.00  0.00     0.152 A 
HETATM    2  N   UNL     1      -4.031   1.885 -32.156  1.00  0.00    -0.044 N 
HETATM    3  N   UNL     1      -3.429   0.753 -32.626  1.00  0.00    -0.150 NA
HETATM    4  C   UNL     1      -4.299  -0.225 -32.338  1.00  0.00     0.099 A 
HETATM    5  C   UNL     1      -5.455   0.270 -31.692  1.00  0.00     0.086 A 
ENDROOT
BRANCH   1   6
HETATM    6  N   UNL     1      -6.039   2.632 -31.017  1.00  0.00    -0.309 N 
HETATM    7  C   UNL     1      -6.861   3.472 -31.746  1.00  0.00     0.252 C 
HETATM    8  O   UNL     1      -6.998   3.466 -32.967  1.00  0.00    -0.270 OA
HETATM    9  H   UNL     1      -5.965   2.792 -30.008  1.00  0.00     0.170 HD
BRANCH   7  10
HETATM   10  C   UNL     1      -7.683   4.421 -30.857  1.00  0.00     0.217 C 
HETATM   11  C   UNL     1      -8.800   3.616 -30.200  1.00  0.00     0.050 C 
BRANCH  10  12
HETATM   12  O   UNL     1      -6.913   4.994 -29.797  1.00  0.00    -0.337 OA
BRANCH  12  13
HETATM   13  C   UNL     1      -6.109   6.050 -30.125  1.00  0.00     0.070 A 
HETATM   14  C   UNL     1      -4.834   6.023 -29.553  1.00  0.00     0.037 A 
HETATM   15  C   UNL     1      -3.918   7.042 -29.817  1.00  0.00     0.003 A 
HETATM   16  C   UNL     1      -4.269   8.086 -30.670  1.00  0.00     0.000 A 
HETATM   17  C   UNL     1      -5.531   8.105 -31.261  1.00  0.00     0.003 A 
HETATM   18  C   UNL     1      -6.452   7.088 -30.991  1.00  0.00     0.037 A 
ENDBRANCH  12  13
ENDBRANCH  10  12
ENDBRANCH   7  10
ENDBRANCH   1   6
BRANCH   2  19
HETATM   19  C   UNL     1      -3.377   3.125 -32.279  1.00  0.00     0.732 A 
HETATM   20  N   UNL     1      -2.416   3.497 -31.493  1.00  0.00    -0.067 NA
HETATM   21  C   UNL     1      -1.871   4.736 -31.744  1.00  0.00     0.065 A 
HETATM   22  C   UNL     1      -2.264   5.548 -32.744  1.00  0.00     0.036 A 
HETATM   23  C   UNL     1      -0.753   5.138 -30.808  1.00  0.00     0.060 C 
HETATM   24  C   UNL     1      -1.677   6.900 -33.021  1.00  0.00     0.046 C 
HETATM   25  C   UNL     1      -3.359   5.081 -33.631  1.00  0.00     0.268 A 
HETATM   26  C   UNL     1      -0.794   7.413 -31.882  1.00  0.00     0.005 C 
HETATM   27  C   UNL     1       0.091   6.304 -31.327  1.00  0.00     0.006 C 
HETATM   28  O   UNL     1      -3.766   5.744 -34.577  1.00  0.00    -0.267 OA
HETATM   29  N   UNL     1      -3.871   3.861 -33.317  1.00  0.00    -0.152 N 
HETATM   30  H   UNL     1      -4.620   3.479 -33.884  1.00  0.00     0.188 HD
ENDBRANCH   2  19
BRANCH   4  31
HETATM   31  C   UNL     1      -4.018  -1.661 -32.677  1.00  0.00     0.035 A 
HETATM   32  S   UNL     1      -4.628  -2.464 -34.057  1.00  0.00    -0.100 SA
HETATM   33  C   UNL     1      -3.854  -3.928 -33.628  1.00  0.00     0.050 A 
HETATM   34  C   UNL     1      -3.140  -3.810 -32.456  1.00  0.00     0.008 A 
HETATM   35  C   UNL     1      -3.234  -2.497 -31.906  1.00  0.00     0.022 A 
ENDBRANCH   4  31
TORSDOF 6
ENDMDL
MODEL 7
REMARK VINA RESULT:      -8.3      3.870      6.969
REMARK  6 active torsions:
REMARK  status: ('A' for Active; 'I' for Inactive)
REMARK    1  A    between atoms: C_2  and  O_3 
REMARK    2  A    between atoms: C_2  and  C_10 
REMARK    3  A    between atoms: O_3  and  C_4 
REMARK       I    between atoms: C_10  and  N_11 
REMARK    4  A    between atoms: N_11  and  C_12 
REMARK    5  A    between atoms: N_13  and  C_14 
REMARK    6  A    between atoms: C_26  and  C_27 
ROOT
HETATM    1  C   UNL     1      -8.163   0.522 -34.624  1.00  0.00     0.152 A 
HETATM    2  N   UNL     1      -7.076   1.117 -34.003  1.00  0.00    -0.044 N 
HETATM    3  N   UNL     1      -6.049   0.241 -33.794  1.00  0.00    -0.150 NA
HETATM    4  C   UNL     1      -6.500  -0.918 -34.294  1.00  0.00     0.099 A 
HETATM    5  C   UNL     1      -7.804  -0.791 -34.824  1.00  0.00     0.086 A 
ENDROOT
BRANCH   1   6
HETATM    6  N   UNL     1      -9.322   1.224 -34.914  1.00  0.00    -0.309 N 
HETATM    7  C   UNL     1     -10.460   1.196 -34.129  1.00  0.00     0.252 C 
HETATM    8  O   UNL     1     -10.611   0.540 -33.101  1.00  0.00    -0.270 OA
HETATM    9  H   UNL     1      -9.356   1.761 -35.786  1.00  0.00     0.170 HD
BRANCH   7  10
HETATM   10  C   UNL     1     -11.556   2.151 -34.632  1.00  0.00     0.217 C 
HETATM   11  C   UNL     1     -12.818   1.336 -34.898  1.00  0.00     0.050 C 
BRANCH  10  12
HETATM   12  O   UNL     1     -11.908   3.148 -33.669  1.00  0.00    -0.337 OA
BRANCH  12  13
HETATM   13  C   UNL     1     -11.280   4.357 -33.781  1.00  0.00     0.070 A 
HETATM   14  C   UNL     1     -11.569   5.271 -32.765  1.00  0.00     0.037 A 
HETATM   15  C   UNL     1     -10.984   6.538 -32.764  1.00  0.00     0.003 A 
HETATM   16  C   UNL     1     -10.092   6.890 -33.774  1.00  0.00     0.000 A 
HETATM   17  C   UNL     1      -9.782   5.973 -34.778  1.00  0.00     0.003 A 
HETATM   18  C   UNL     1     -10.373   4.706 -34.782  1.00  0.00     0.037 A 
ENDBRANCH  12  13
ENDBRANCH  10  12
ENDBRANCH   7  10
ENDBRANCH   1   6
BRANCH   2  19
HETATM   19  C   UNL     1      -6.950   2.453 -33.577  1.00  0.00     0.732 A 
HETATM   20  N   UNL     1      -7.609   2.939 -32.573  1.00  0.00    -0.067 NA
HETATM   21  C   UNL     1      -7.374   4.263 -32.274  1.00  0.00     0.065 A 
HETATM   22  C   UNL     1      -6.507   5.047 -32.942  1.00  0.00     0.036 A 
HETATM   23  C   UNL     1      -8.160   4.796 -31.098  1.00  0.00     0.060 C 
HETATM   24  C   UNL     1      -6.247   6.489 -32.625  1.00  0.00     0.046 C 
HETATM   25  C   UNL     1      -5.760   4.450 -34.079  1.00  0.00     0.268 A 
HETATM   26  C   UNL     1      -7.277   7.084 -31.662  1.00  0.00     0.005 C 
HETATM   27  C   UNL     1      -7.610   6.110 -30.539  1.00  0.00     0.006 C 
HETATM   28  O   UNL     1      -4.937   5.083 -34.729  1.00  0.00    -0.267 OA
HETATM   29  N   UNL     1      -6.055   3.148 -34.339  1.00  0.00    -0.152 N 
HETATM   30  H   UNL     1      -5.578   2.676 -35.099  1.00  0.00     0.188 HD
ENDBRANCH   2  19
BRANCH   4  31
HETATM   31  C   UNL     1      -5.674  -2.171 -34.255  1.00  0.00     0.035 A 
HETATM   32  S   UNL     1      -4.134  -2.290 -33.522  1.00  0.00    -0.100 SA
HETATM   33  C   UNL     1      -3.984  -3.939 -33.953  1.00  0.00     0.050 A 
HETATM   34  C   UNL     1      -5.087  -4.395 -34.641  1.00  0.00     0.008 A 
HETATM   35  C   UNL     1      -6.066  -3.372 -34.814  1.00  0.00     0.022 A 
ENDBRANCH   4  31
TORSDOF 6
ENDMDL
MODEL 8
REMARK VINA RESULT:      -8.3      3.588      7.651
REMARK  6 active torsions:
REMARK  status: ('A' for Active; 'I' for Inactive)
REMARK    1  A    between atoms: C_2  and  O_3 
REMARK    2  A    between atoms: C_2  and  C_10 
REMARK    3  A    between atoms: O_3  and  C_4 
REMARK       I    between atoms: C_10  and  N_11 
REMARK    4  A    between atoms: N_11  and  C_12 
REMARK    5  A    between atoms: N_13  and  C_14 
REMARK    6  A    between atoms: C_26  and  C_27 
ROOT
HETATM    1  C   UNL     1      -9.462   2.739 -33.034  1.00  0.00     0.152 A 
HETATM    2  N   UNL     1      -9.348   1.376 -33.264  1.00  0.00    -0.044 N 
HETATM    3  N   UNL     1     -10.559   0.775 -33.458  1.00  0.00    -0.150 NA
HETATM    4  C   UNL     1     -11.443   1.777 -33.349  1.00  0.00     0.099 A 
HETATM    5  C   UNL     1     -10.809   3.014 -33.092  1.00  0.00     0.086 A 
ENDROOT
BRANCH   1   6
HETATM    6  N   UNL     1      -8.358   3.541 -32.793  1.00  0.00    -0.309 N 
HETATM    7  C   UNL     1      -8.012   4.633 -33.567  1.00  0.00     0.252 C 
HETATM    8  O   UNL     1      -8.605   5.024 -34.569  1.00  0.00    -0.270 OA
HETATM    9  H   UNL     1      -7.734   3.283 -32.022  1.00  0.00     0.170 HD
BRANCH   7  10
HETATM   10  C   UNL     1      -6.802   5.401 -33.007  1.00  0.00     0.217 C 
HETATM   11  C   UNL     1      -7.256   6.180 -31.775  1.00  0.00     0.050 C 
BRANCH  10  12
HETATM   12  O   UNL     1      -5.746   4.537 -32.577  1.00  0.00    -0.337 OA
BRANCH  12  13
HETATM   13  C   UNL     1      -4.534   4.700 -33.188  1.00  0.00     0.070 A 
HETATM   14  C   UNL     1      -3.429   4.318 -32.424  1.00  0.00     0.037 A 
HETATM   15  C   UNL     1      -2.138   4.431 -32.939  1.00  0.00     0.003 A 
HETATM   16  C   UNL     1      -1.947   4.912 -34.233  1.00  0.00     0.000 A 
HETATM   17  C   UNL     1      -3.048   5.274 -35.008  1.00  0.00     0.003 A 
HETATM   18  C   UNL     1      -4.342   5.167 -34.489  1.00  0.00     0.037 A 
ENDBRANCH  12  13
ENDBRANCH  10  12
ENDBRANCH   7  10
ENDBRANCH   1   6
BRANCH   2  19
HETATM   19  C   UNL     1      -8.172   0.602 -33.294  1.00  0.00     0.732 A 
HETATM   20  N   UNL     1      -8.053  -0.473 -34.006  1.00  0.00    -0.067 NA
HETATM   21  C   UNL     1      -6.838  -1.118 -33.936  1.00  0.00     0.065 A 
HETATM   22  C   UNL     1      -5.796  -0.690 -33.199  1.00  0.00     0.036 A 
HETATM   23  C   UNL     1      -6.735  -2.368 -34.779  1.00  0.00     0.060 C 
HETATM   24  C   UNL     1      -4.471  -1.388 -33.114  1.00  0.00     0.046 C 
HETATM   25  C   UNL     1      -5.967   0.554 -32.405  1.00  0.00     0.268 A 
HETATM   26  C   UNL     1      -4.501  -2.800 -33.703  1.00  0.00     0.005 C 
HETATM   27  C   UNL     1      -5.296  -2.839 -35.003  1.00  0.00     0.006 C 
HETATM   28  O   UNL     1      -5.066   1.027 -31.723  1.00  0.00    -0.267 OA
HETATM   29  N   UNL     1      -7.196   1.129 -32.498  1.00  0.00    -0.152 N 
HETATM   30  H   UNL     1      -7.381   1.984 -31.985  1.00  0.00     0.188 HD
ENDBRANCH   2  19
BRANCH   4  31
HETATM   31  C   UNL     1     -12.920   1.547 -33.484  1.00  0.00     0.035 A 
HETATM   32  S   UNL     1     -14.115   2.385 -32.593  1.00  0.00    -0.100 SA
HETATM   33  C   UNL     1     -15.381   1.516 -33.348  1.00  0.00     0.050 A 
HETATM   34  C   UNL     1     -14.906   0.605 -34.265  1.00  0.00     0.008 A 
HETATM   35  C   UNL     1     -13.482   0.623 -34.345  1.00  0.00     0.022 A 
ENDBRANCH   4  31
TORSDOF 6
ENDMDL
MODEL 9
REMARK VINA RESULT:      -8.2      2.601      5.743
REMARK  6 active torsions:
REMARK  status: ('A' for Active; 'I' for Inactive)
REMARK    1  A    between atoms: C_2  and  O_3 
REMARK    2  A    between atoms: C_2  and  C_10 
REMARK    3  A    between atoms: O_3  and  C_4 
REMARK       I    between atoms: C_10  and  N_11 
REMARK    4  A    between atoms: N_11  and  C_12 
REMARK    5  A    between atoms: N_13  and  C_14 
REMARK    6  A    between atoms: C_26  and  C_27 
ROOT
HETATM    1  C   UNL     1      -5.800   3.231 -33.431  1.00  0.00     0.152 A 
HETATM    2  N   UNL     1      -6.617   4.331 -33.647  1.00  0.00    -0.044 N 
HETATM    3  N   UNL     1      -5.957   5.514 -33.478  1.00  0.00    -0.150 NA
HETATM    4  C   UNL     1      -4.708   5.149 -33.153  1.00  0.00     0.099 A 
HETATM    5  C   UNL     1      -4.562   3.744 -33.118  1.00  0.00     0.086 A 
ENDROOT
BRANCH   1   6
HETATM    6  N   UNL     1      -6.271   1.932 -33.531  1.00  0.00    -0.309 N 
HETATM    7  C   UNL     1      -5.644   0.837 -32.965  1.00  0.00     0.252 C 
HETATM    8  O   UNL     1      -4.593   0.856 -32.329  1.00  0.00    -0.270 OA
HETATM    9  H   UNL     1      -7.109   1.764 -34.097  1.00  0.00     0.170 HD
BRANCH   7  10
HETATM   10  C   UNL     1      -6.443  -0.466 -33.144  1.00  0.00     0.217 C 
HETATM   11  C   UNL     1      -7.930  -0.133 -33.058  1.00  0.00     0.050 C 
BRANCH  10  12
HETATM   12  O   UNL     1      -6.234  -1.073 -34.422  1.00  0.00    -0.337 OA
BRANCH  12  13
HETATM   13  C   UNL     1      -5.778  -2.362 -34.420  1.00  0.00     0.070 A 
HETATM   14  C   UNL     1      -6.714  -3.323 -34.811  1.00  0.00     0.037 A 
HETATM   15  C   UNL     1      -6.368  -4.673 -34.855  1.00  0.00     0.003 A 
HETATM   16  C   UNL     1      -5.073  -5.068 -34.525  1.00  0.00     0.000 A 
HETATM   17  C   UNL     1      -4.128  -4.111 -34.157  1.00  0.00     0.003 A 
HETATM   18  C   UNL     1      -4.478  -2.758 -34.106  1.00  0.00     0.037 A 
ENDBRANCH  12  13
ENDBRANCH  10  12
ENDBRANCH   7  10
ENDBRANCH   1   6
BRANCH   2  19
HETATM   19  C   UNL     1      -7.984   4.336 -33.984  1.00  0.00     0.732 A 
HETATM   20  N   UNL     1      -8.712   3.265 -34.000  1.00  0.00    -0.067 NA
HETATM   21  C   UNL     1     -10.035   3.434 -34.343  1.00  0.00     0.065 A 
HETATM   22  C   UNL     1     -10.595   4.622 -34.638  1.00  0.00     0.036 A 
HETATM   23  C   UNL     1     -10.853   2.163 -34.353  1.00  0.00     0.060 C 
HETATM   24  C   UNL     1     -12.033   4.813 -35.016  1.00  0.00     0.046 C 
HETATM   25  C   UNL     1      -9.730   5.829 -34.596  1.00  0.00     0.268 A 
HETATM   26  C   UNL     1     -12.747   3.498 -35.335  1.00  0.00     0.005 C 
HETATM   27  C   UNL     1     -12.364   2.408 -34.342  1.00  0.00     0.006 C 
HETATM   28  O   UNL     1     -10.160   6.953 -34.829  1.00  0.00    -0.267 OA
HETATM   29  N   UNL     1      -8.431   5.594 -34.274  1.00  0.00    -0.152 N 
HETATM   30  H   UNL     1      -7.785   6.374 -34.223  1.00  0.00     0.188 HD
ENDBRANCH   2  19
BRANCH   4  31
HETATM   31  C   UNL     1      -3.638   6.162 -32.863  1.00  0.00     0.035 A 
HETATM   32  S   UNL     1      -3.401   6.909 -31.343  1.00  0.00    -0.100 SA
HETATM   33  C   UNL     1      -2.086   7.832 -31.928  1.00  0.00     0.050 A 
HETATM   34  C   UNL     1      -1.827   7.577 -33.257  1.00  0.00     0.008 A 
HETATM   35  C   UNL     1      -2.725   6.609 -33.798  1.00  0.00     0.022 A 
ENDBRANCH   4  31
TORSDOF 6
ENDMDL
MODEL 10
REMARK VINA RESULT:      -8.2      3.116      7.390
REMARK  6 active torsions:
REMARK  status: ('A' for Active; 'I' for Inactive)
REMARK    1  A    between atoms: C_2  and  O_3 
REMARK    2  A    between atoms: C_2  and  C_10 
REMARK    3  A    between atoms: O_3  and  C_4 
REMARK       I    between atoms: C_10  and  N_11 
REMARK    4  A    between atoms: N_11  and  C_12 
REMARK    5  A    between atoms: N_13  and  C_14 
REMARK    6  A    between atoms: C_26  and  C_27 
ROOT
HETATM    1  C   UNL     1      -7.082   3.193 -33.830  1.00  0.00     0.152 A 
HETATM    2  N   UNL     1      -6.850   4.560 -33.792  1.00  0.00    -0.044 N 
HETATM    3  N   UNL     1      -7.968   5.288 -34.081  1.00  0.00    -0.150 NA
HETATM    4  C   UNL     1      -8.914   4.364 -34.302  1.00  0.00     0.099 A 
HETATM    5  C   UNL     1      -8.412   3.051 -34.152  1.00  0.00     0.086 A 
ENDROOT
BRANCH   1   6
HETATM    6  N   UNL     1      -6.080   2.268 -33.587  1.00  0.00    -0.309 N 
HETATM    7  C   UNL     1      -5.691   1.863 -32.323  1.00  0.00     0.252 C 
HETATM    8  O   UNL     1      -6.151   2.274 -31.261  1.00  0.00    -0.270 OA
HETATM    9  H   UNL     1      -5.563   1.894 -34.389  1.00  0.00     0.170 HD
BRANCH   7  10
HETATM   10  C   UNL     1      -4.630   0.749 -32.354  1.00  0.00     0.217 C 
HETATM   11  C   UNL     1      -3.561   1.076 -31.315  1.00  0.00     0.050 C 
BRANCH  10  12
HETATM   12  O   UNL     1      -5.160  -0.533 -32.006  1.00  0.00    -0.337 OA
BRANCH  12  13
HETATM   13  C   UNL     1      -5.281  -1.442 -33.020  1.00  0.00     0.070 A 
HETATM   14  C   UNL     1      -6.527  -1.462 -33.652  1.00  0.00     0.037 A 
HETATM   15  C   UNL     1      -6.772  -2.342 -34.706  1.00  0.00     0.003 A 
HETATM   16  C   UNL     1      -5.763  -3.196 -35.145  1.00  0.00     0.000 A 
HETATM   17  C   UNL     1      -4.511  -3.164 -34.533  1.00  0.00     0.003 A 
HETATM   18  C   UNL     1      -4.267  -2.286 -33.472  1.00  0.00     0.037 A 
ENDBRANCH  12  13
ENDBRANCH  10  12
ENDBRANCH   7  10
ENDBRANCH   1   6
BRANCH   2  19
HETATM   19  C   UNL     1      -5.637   5.221 -33.519  1.00  0.00     0.732 A 
HETATM   20  N   UNL     1      -4.529   4.945 -34.129  1.00  0.00    -0.067 NA
HETATM   21  C   UNL     1      -3.429   5.684 -33.756  1.00  0.00     0.065 A 
HETATM   22  C   UNL     1      -3.451   6.660 -32.829  1.00  0.00     0.036 A 
HETATM   23  C   UNL     1      -2.153   5.334 -34.488  1.00  0.00     0.060 C 
HETATM   24  C   UNL     1      -2.256   7.467 -32.415  1.00  0.00     0.046 C 
HETATM   25  C   UNL     1      -4.744   6.957 -32.161  1.00  0.00     0.268 A 
HETATM   26  C   UNL     1      -0.936   6.882 -32.921  1.00  0.00     0.005 C 
HETATM   27  C   UNL     1      -1.062   6.399 -34.360  1.00  0.00     0.006 C 
HETATM   28  O   UNL     1      -4.862   7.841 -31.321  1.00  0.00    -0.267 OA
HETATM   29  N   UNL     1      -5.786   6.177 -32.555  1.00  0.00    -0.152 N 
HETATM   30  H   UNL     1      -6.700   6.328 -32.142  1.00  0.00     0.188 HD
ENDBRANCH   2  19
BRANCH   4  31
HETATM   31  C   UNL     1     -10.319   4.742 -34.671  1.00  0.00     0.035 A 
HETATM   32  S   UNL     1     -10.911   6.346 -34.703  1.00  0.00    -0.100 SA
HETATM   33  C   UNL     1     -12.470   5.831 -35.181  1.00  0.00     0.050 A 
HETATM   34  C   UNL     1     -12.542   4.462 -35.317  1.00  0.00     0.008 A 
HETATM   35  C   UNL     1     -11.296   3.832 -35.024  1.00  0.00     0.022 A 
ENDBRANCH   4  31
TORSDOF 6
ENDMDL
