MODEL 1
REMARK VINA RESULT:      -9.1      0.000      0.000
REMARK  2 active torsions:
REMARK  status: ('A' for Active; 'I' for Inactive)
REMARK    1  A    between atoms: C_2  and  N_3 
REMARK    2  A    between atoms: N_3  and  C_4 
ROOT
HETATM    1  C   UNL     1      -6.452   1.660 -31.652  1.00  0.00     0.143 A 
HETATM    2  N   UNL     1      -5.953   2.864 -31.272  1.00  0.00    -0.223 NA
HETATM    3  C   UNL     1      -4.639   3.095 -31.339  1.00  0.00     0.236 A 
HETATM    4  N   UNL     1      -3.699   2.246 -31.732  1.00  0.00    -0.234 NA
HETATM    5  C   UNL     1      -4.206   1.073 -32.143  1.00  0.00     0.114 A 
HETATM    6  C   UNL     1      -5.545   0.703 -32.194  1.00  0.00     0.053 A 
HETATM    7  S   UNL     1      -3.147  -0.156 -32.636  1.00  0.00    -0.073 SA
HETATM    8  C   UNL     1      -4.431  -1.218 -32.984  1.00  0.00    -0.008 C 
HETATM    9  C   UNL     1      -5.674  -0.619 -32.819  1.00  0.00    -0.028 C 
HETATM   10  C   UNL     1      -6.951  -1.305 -33.229  1.00  0.00     0.041 C 
HETATM   11  C   UNL     1      -6.949  -1.821 -34.674  1.00  0.00     0.005 C 
HETATM   12  C   UNL     1      -6.149  -3.103 -34.898  1.00  0.00     0.001 C 
HETATM   13  C   UNL     1      -4.633  -2.924 -34.828  1.00  0.00     0.005 C 
HETATM   14  C   UNL     1      -4.120  -2.620 -33.425  1.00  0.00     0.047 C 
ENDROOT
BRANCH   1  15
HETATM   15  N   UNL     1      -7.827   1.415 -31.488  1.00  0.00    -0.340 N 
HETATM   16  H   UNL     1      -8.158   1.590 -30.553  1.00  0.00     0.167 HD
BRANCH  15  17
HETATM   17  C   UNL     1      -8.890   1.442 -32.415  1.00  0.00     0.036 A 
HETATM   18  C   UNL     1      -9.857   0.439 -32.523  1.00  0.00     0.032 A 
HETATM   19  C   UNL     1     -10.884   0.521 -33.470  1.00  0.00     0.042 A 
HETATM   20  C   UNL     1     -10.994   1.643 -34.286  1.00  0.00     0.102 A 
HETATM   21  C   UNL     1     -10.065   2.675 -34.166  1.00  0.00     0.104 A 
HETATM   22  O   UNL     1     -11.965   1.612 -35.247  1.00  0.00    -0.348 OA
HETATM   23  C   UNL     1      -9.015   2.566 -33.249  1.00  0.00     0.069 A 
HETATM   24  O   UNL     1     -10.056   3.778 -34.978  1.00  0.00    -0.348 OA
HETATM   25  C   UNL     1     -11.255   4.546 -34.853  1.00  0.00     0.178 C 
HETATM   26  C   UNL     1     -12.388   3.977 -35.693  1.00  0.00     0.053 C 
HETATM   27  C   UNL     1     -12.905   2.675 -35.102  1.00  0.00     0.178 C 
ENDBRANCH  15  17
ENDBRANCH   1  15
TORSDOF 2
ENDMDL
MODEL 2
REMARK VINA RESULT:      -9.1      3.891      6.784
REMARK  2 active torsions:
REMARK  status: ('A' for Active; 'I' for Inactive)
REMARK    1  A    between atoms: C_2  and  N_3 
REMARK    2  A    between atoms: N_3  and  C_4 
ROOT
HETATM    1  C   UNL     1      -6.255   2.129 -31.313  1.00  0.00     0.143 A 
HETATM    2  N   UNL     1      -7.130   2.823 -30.541  1.00  0.00    -0.223 NA
HETATM    3  C   UNL     1      -8.444   2.632 -30.682  1.00  0.00     0.236 A 
HETATM    4  N   UNL     1      -9.045   1.822 -31.543  1.00  0.00    -0.234 NA
HETATM    5  C   UNL     1      -8.171   1.112 -32.274  1.00  0.00     0.114 A 
HETATM    6  C   UNL     1      -6.783   1.148 -32.202  1.00  0.00     0.053 A 
HETATM    7  S   UNL     1      -8.758   0.056 -33.464  1.00  0.00    -0.073 SA
HETATM    8  C   UNL     1      -7.187  -0.433 -33.903  1.00  0.00    -0.008 C 
HETATM    9  C   UNL     1      -6.210   0.128 -33.089  1.00  0.00    -0.028 C 
HETATM   10  C   UNL     1      -4.764  -0.287 -33.175  1.00  0.00     0.041 C 
HETATM   11  C   UNL     1      -4.541  -1.802 -33.075  1.00  0.00     0.005 C 
HETATM   12  C   UNL     1      -4.877  -2.587 -34.341  1.00  0.00     0.001 C 
HETATM   13  C   UNL     1      -6.371  -2.701 -34.638  1.00  0.00     0.005 C 
HETATM   14  C   UNL     1      -7.012  -1.382 -35.053  1.00  0.00     0.047 C 
ENDROOT
BRANCH   1  15
HETATM   15  N   UNL     1      -4.882   2.414 -31.204  1.00  0.00    -0.340 N 
HETATM   16  H   UNL     1      -4.333   1.634 -30.882  1.00  0.00     0.167 HD
BRANCH  15  17
HETATM   17  C   UNL     1      -4.075   3.356 -31.877  1.00  0.00     0.036 A 
HETATM   18  C   UNL     1      -4.480   4.061 -33.014  1.00  0.00     0.032 A 
HETATM   19  C   UNL     1      -3.629   4.978 -33.640  1.00  0.00     0.042 A 
HETATM   20  C   UNL     1      -2.375   5.249 -33.100  1.00  0.00     0.102 A 
HETATM   21  C   UNL     1      -1.967   4.588 -31.942  1.00  0.00     0.104 A 
HETATM   22  O   UNL     1      -1.565   6.084 -33.816  1.00  0.00    -0.348 OA
HETATM   23  C   UNL     1      -2.804   3.640 -31.348  1.00  0.00     0.069 A 
HETATM   24  O   UNL     1      -0.724   4.739 -31.388  1.00  0.00    -0.348 OA
HETATM   25  C   UNL     1      -0.483   6.085 -30.970  1.00  0.00     0.178 C 
HETATM   26  C   UNL     1      -0.041   6.972 -32.124  1.00  0.00     0.053 C 
HETATM   27  C   UNL     1      -1.195   7.246 -33.075  1.00  0.00     0.178 C 
ENDBRANCH  15  17
ENDBRANCH   1  15
TORSDOF 2
ENDMDL
MODEL 3
REMARK VINA RESULT:      -8.9      3.040      6.564
REMARK  2 active torsions:
REMARK  status: ('A' for Active; 'I' for Inactive)
REMARK    1  A    between atoms: C_2  and  N_3 
REMARK    2  A    between atoms: N_3  and  C_4 
ROOT
HETATM    1  C   UNL     1      -4.267   2.038 -31.753  1.00  0.00     0.143 A 
HETATM    2  N   UNL     1      -3.014   2.536 -31.596  1.00  0.00    -0.223 NA
HETATM    3  C   UNL     1      -2.724   3.767 -32.026  1.00  0.00     0.236 A 
HETATM    4  N   UNL     1      -3.542   4.610 -32.641  1.00  0.00    -0.234 NA
HETATM    5  C   UNL     1      -4.789   4.124 -32.756  1.00  0.00     0.114 A 
HETATM    6  C   UNL     1      -5.262   2.897 -32.306  1.00  0.00     0.053 A 
HETATM    7  S   UNL     1      -5.962   5.046 -33.560  1.00  0.00    -0.073 SA
HETATM    8  C   UNL     1      -7.164   3.868 -33.303  1.00  0.00    -0.008 C 
HETATM    9  C   UNL     1      -6.711   2.810 -32.524  1.00  0.00    -0.028 C 
HETATM   10  C   UNL     1      -7.638   1.734 -32.022  1.00  0.00     0.041 C 
HETATM   11  C   UNL     1      -8.874   2.266 -31.285  1.00  0.00     0.005 C 
HETATM   12  C   UNL     1      -9.967   2.833 -32.189  1.00  0.00     0.001 C 
HETATM   13  C   UNL     1      -9.621   4.173 -32.837  1.00  0.00     0.005 C 
HETATM   14  C   UNL     1      -8.529   4.074 -33.895  1.00  0.00     0.047 C 
ENDROOT
BRANCH   1  15
HETATM   15  N   UNL     1      -4.520   0.709 -31.371  1.00  0.00    -0.340 N 
HETATM   16  H   UNL     1      -5.233   0.622 -30.664  1.00  0.00     0.167 HD
BRANCH  15  17
HETATM   17  C   UNL     1      -4.350  -0.505 -32.070  1.00  0.00     0.036 A 
HETATM   18  C   UNL     1      -3.409  -1.480 -31.724  1.00  0.00     0.032 A 
HETATM   19  C   UNL     1      -3.285  -2.660 -32.464  1.00  0.00     0.042 A 
HETATM   20  C   UNL     1      -4.144  -2.912 -33.530  1.00  0.00     0.102 A 
HETATM   21  C   UNL     1      -5.117  -1.972 -33.866  1.00  0.00     0.104 A 
HETATM   22  O   UNL     1      -3.903  -4.040 -34.261  1.00  0.00    -0.348 OA
HETATM   23  C   UNL     1      -5.206  -0.774 -33.151  1.00  0.00     0.069 A 
HETATM   24  O   UNL     1      -5.952  -2.105 -34.943  1.00  0.00    -0.348 OA
HETATM   25  C   UNL     1      -6.789  -3.259 -34.833  1.00  0.00     0.178 C 
HETATM   26  C   UNL     1      -6.074  -4.528 -35.271  1.00  0.00     0.053 C 
HETATM   27  C   UNL     1      -5.014  -4.934 -34.260  1.00  0.00     0.178 C 
ENDBRANCH  15  17
ENDBRANCH   1  15
TORSDOF 2
ENDMDL
MODEL 4
REMARK VINA RESULT:      -8.7      2.970      6.701
REMARK  2 active torsions:
REMARK  status: ('A' for Active; 'I' for Inactive)
REMARK    1  A    between atoms: C_2  and  N_3 
REMARK    2  A    between atoms: N_3  and  C_4 
ROOT
HETATM    1  C   UNL     1      -8.036   2.161 -31.599  1.00  0.00     0.143 A 
HETATM    2  N   UNL     1      -7.325   2.882 -30.694  1.00  0.00    -0.223 NA
HETATM    3  C   UNL     1      -7.386   4.216 -30.704  1.00  0.00     0.236 A 
HETATM    4  N   UNL     1      -8.074   4.977 -31.545  1.00  0.00    -0.234 NA
HETATM    5  C   UNL     1      -8.804   4.255 -32.410  1.00  0.00     0.114 A 
HETATM    6  C   UNL     1      -8.898   2.870 -32.486  1.00  0.00     0.053 A 
HETATM    7  S   UNL     1      -9.713   5.060 -33.594  1.00  0.00    -0.073 SA
HETATM    8  C   UNL     1     -10.307   3.597 -34.230  1.00  0.00    -0.008 C 
HETATM    9  C   UNL     1      -9.897   2.492 -33.493  1.00  0.00    -0.028 C 
HETATM   10  C   UNL     1     -10.433   1.110 -33.762  1.00  0.00     0.041 C 
HETATM   11  C   UNL     1     -11.965   1.025 -33.783  1.00  0.00     0.005 C 
HETATM   12  C   UNL     1     -12.621   1.563 -35.053  1.00  0.00     0.001 C 
HETATM   13  C   UNL     1     -12.579   3.084 -35.193  1.00  0.00     0.005 C 
HETATM   14  C   UNL     1     -11.181   3.633 -35.451  1.00  0.00     0.047 C 
ENDROOT
BRANCH   1  15
HETATM   15  N   UNL     1      -7.884   0.764 -31.622  1.00  0.00    -0.340 N 
HETATM   16  H   UNL     1      -8.742   0.263 -31.454  1.00  0.00     0.167 HD
BRANCH  15  17
HETATM   17  C   UNL     1      -6.940  -0.055 -32.277  1.00  0.00     0.036 A 
HETATM   18  C   UNL     1      -5.579  -0.084 -31.959  1.00  0.00     0.032 A 
HETATM   19  C   UNL     1      -4.691  -0.914 -32.652  1.00  0.00     0.042 A 
HETATM   20  C   UNL     1      -5.163  -1.776 -33.637  1.00  0.00     0.102 A 
HETATM   21  C   UNL     1      -6.524  -1.794 -33.941  1.00  0.00     0.104 A 
HETATM   22  O   UNL     1      -4.228  -2.488 -34.333  1.00  0.00    -0.348 OA
HETATM   23  C   UNL     1      -7.399  -0.930 -33.276  1.00  0.00     0.069 A 
HETATM   24  O   UNL     1      -7.061  -2.556 -34.944  1.00  0.00    -0.348 OA
HETATM   25  C   UNL     1      -6.868  -3.954 -34.720  1.00  0.00     0.178 C 
HETATM   26  C   UNL     1      -5.485  -4.416 -35.152  1.00  0.00     0.053 C 
HETATM   27  C   UNL     1      -4.414  -3.896 -34.206  1.00  0.00     0.178 C 
ENDBRANCH  15  17
ENDBRANCH   1  15
TORSDOF 2
ENDMDL
MODEL 5
REMARK VINA RESULT:      -8.6      0.943      1.741
REMARK  2 active torsions:
REMARK  status: ('A' for Active; 'I' for Inactive)
REMARK    1  A    between atoms: C_2  and  N_3 
REMARK    2  A    between atoms: N_3  and  C_4 
ROOT
HETATM    1  C   UNL     1      -5.882   1.929 -31.591  1.00  0.00     0.143 A 
HETATM    2  N   UNL     1      -5.186   3.014 -31.162  1.00  0.00    -0.223 NA
HETATM    3  C   UNL     1      -3.851   2.990 -31.151  1.00  0.00     0.236 A 
HETATM    4  N   UNL     1      -3.067   1.981 -31.505  1.00  0.00    -0.234 NA
HETATM    5  C   UNL     1      -3.763   0.929 -31.965  1.00  0.00     0.114 A 
HETATM    6  C   UNL     1      -5.143   0.821 -32.099  1.00  0.00     0.053 A 
HETATM    7  S   UNL     1      -2.929  -0.475 -32.421  1.00  0.00    -0.073 SA
HETATM    8  C   UNL     1      -4.369  -1.271 -32.860  1.00  0.00    -0.008 C 
HETATM    9  C   UNL     1      -5.483  -0.447 -32.754  1.00  0.00    -0.028 C 
HETATM   10  C   UNL     1      -6.841  -0.875 -33.247  1.00  0.00     0.041 C 
HETATM   11  C   UNL     1      -6.852  -1.371 -34.699  1.00  0.00     0.005 C 
HETATM   12  C   UNL     1      -6.298  -2.780 -34.901  1.00  0.00     0.001 C 
HETATM   13  C   UNL     1      -4.783  -2.894 -34.743  1.00  0.00     0.005 C 
HETATM   14  C   UNL     1      -4.305  -2.703 -33.308  1.00  0.00     0.047 C 
ENDROOT
BRANCH   1  15
HETATM   15  N   UNL     1      -7.285   1.949 -31.509  1.00  0.00    -0.340 N 
HETATM   16  H   UNL     1      -7.636   1.808 -30.575  1.00  0.00     0.167 HD
BRANCH  15  17
HETATM   17  C   UNL     1      -8.253   2.576 -32.323  1.00  0.00     0.036 A 
HETATM   18  C   UNL     1      -8.016   3.740 -33.061  1.00  0.00     0.032 A 
HETATM   19  C   UNL     1      -9.021   4.317 -33.844  1.00  0.00     0.042 A 
HETATM   20  C   UNL     1     -10.266   3.703 -33.949  1.00  0.00     0.102 A 
HETATM   21  C   UNL     1     -10.510   2.519 -33.255  1.00  0.00     0.104 A 
HETATM   22  O   UNL     1     -11.224   4.372 -34.657  1.00  0.00    -0.348 OA
HETATM   23  C   UNL     1      -9.516   1.972 -32.438  1.00  0.00     0.069 A 
HETATM   24  O   UNL     1     -11.726   1.890 -33.244  1.00  0.00    -0.348 OA
HETATM   25  C   UNL     1     -12.123   1.465 -34.549  1.00  0.00     0.178 C 
HETATM   26  C   UNL     1     -12.750   2.595 -35.352  1.00  0.00     0.053 C 
HETATM   27  C   UNL     1     -11.704   3.616 -35.767  1.00  0.00     0.178 C 
ENDBRANCH  15  17
ENDBRANCH   1  15
TORSDOF 2
ENDMDL
MODEL 6
REMARK VINA RESULT:      -8.4      3.411      6.845
REMARK  2 active torsions:
REMARK  status: ('A' for Active; 'I' for Inactive)
REMARK    1  A    between atoms: C_2  and  N_3 
REMARK    2  A    between atoms: N_3  and  C_4 
ROOT
HETATM    1  C   UNL     1      -6.511   1.719 -31.177  1.00  0.00     0.143 A 
HETATM    2  N   UNL     1      -7.845   1.468 -31.215  1.00  0.00    -0.223 NA
HETATM    3  C   UNL     1      -8.712   2.477 -31.332  1.00  0.00     0.236 A 
HETATM    4  N   UNL     1      -8.427   3.771 -31.400  1.00  0.00    -0.234 NA
HETATM    5  C   UNL     1      -7.105   4.005 -31.402  1.00  0.00     0.114 A 
HETATM    6  C   UNL     1      -6.080   3.067 -31.350  1.00  0.00     0.053 A 
HETATM    7  S   UNL     1      -6.552   5.607 -31.434  1.00  0.00    -0.073 SA
HETATM    8  C   UNL     1      -4.921   5.117 -31.427  1.00  0.00    -0.008 C 
HETATM    9  C   UNL     1      -4.782   3.736 -31.496  1.00  0.00    -0.028 C 
HETATM   10  C   UNL     1      -3.439   3.077 -31.674  1.00  0.00     0.041 C 
HETATM   11  C   UNL     1      -2.630   3.616 -32.861  1.00  0.00     0.005 C 
HETATM   12  C   UNL     1      -1.970   4.973 -32.627  1.00  0.00     0.001 C 
HETATM   13  C   UNL     1      -2.942   6.152 -32.594  1.00  0.00     0.005 C 
HETATM   14  C   UNL     1      -3.845   6.163 -31.366  1.00  0.00     0.047 C 
ENDROOT
BRANCH   1  15
HETATM   15  N   UNL     1      -5.626   0.647 -30.965  1.00  0.00    -0.340 N 
HETATM   16  H   UNL     1      -5.566   0.360 -30.001  1.00  0.00     0.167 HD
BRANCH  15  17
HETATM   17  C   UNL     1      -5.194  -0.383 -31.827  1.00  0.00     0.036 A 
HETATM   18  C   UNL     1      -3.959  -1.029 -31.715  1.00  0.00     0.032 A 
HETATM   19  C   UNL     1      -3.586  -2.039 -32.608  1.00  0.00     0.042 A 
HETATM   20  C   UNL     1      -4.471  -2.462 -33.595  1.00  0.00     0.102 A 
HETATM   21  C   UNL     1      -5.724  -1.860 -33.699  1.00  0.00     0.104 A 
HETATM   22  O   UNL     1      -4.003  -3.386 -34.486  1.00  0.00    -0.348 OA
HETATM   23  C   UNL     1      -6.074  -0.820 -32.832  1.00  0.00     0.069 A 
HETATM   24  O   UNL     1      -6.625  -2.163 -34.685  1.00  0.00    -0.348 OA
HETATM   25  C   UNL     1      -7.041  -3.529 -34.632  1.00  0.00     0.178 C 
HETATM   26  C   UNL     1      -6.041  -4.458 -35.304  1.00  0.00     0.053 C 
HETATM   27  C   UNL     1      -4.773  -4.586 -34.475  1.00  0.00     0.178 C 
ENDBRANCH  15  17
ENDBRANCH   1  15
TORSDOF 2
ENDMDL
MODEL 7
REMARK VINA RESULT:      -8.3      2.389      3.036
REMARK  2 active torsions:
REMARK  status: ('A' for Active; 'I' for Inactive)
REMARK    1  A    between atoms: C_2  and  N_3 
REMARK    2  A    between atoms: N_3  and  C_4 
ROOT
HETATM    1  C   UNL     1      -8.503   2.697 -33.945  1.00  0.00     0.143 A 
HETATM    2  N   UNL     1      -8.535   4.051 -33.845  1.00  0.00    -0.223 NA
HETATM    3  C   UNL     1      -7.578   4.695 -33.170  1.00  0.00     0.236 A 
HETATM    4  N   UNL     1      -6.551   4.153 -32.530  1.00  0.00    -0.234 NA
HETATM    5  C   UNL     1      -6.506   2.818 -32.669  1.00  0.00     0.114 A 
HETATM    6  C   UNL     1      -7.384   2.013 -33.386  1.00  0.00     0.053 A 
HETATM    7  S   UNL     1      -5.286   1.948 -31.877  1.00  0.00    -0.073 SA
HETATM    8  C   UNL     1      -5.848   0.464 -32.494  1.00  0.00    -0.008 C 
HETATM    9  C   UNL     1      -6.907   0.625 -33.380  1.00  0.00    -0.028 C 
HETATM   10  C   UNL     1      -7.459  -0.524 -34.182  1.00  0.00     0.041 C 
HETATM   11  C   UNL     1      -6.398  -1.305 -34.970  1.00  0.00     0.005 C 
HETATM   12  C   UNL     1      -5.544  -2.255 -34.133  1.00  0.00     0.001 C 
HETATM   13  C   UNL     1      -4.535  -1.561 -33.220  1.00  0.00     0.005 C 
HETATM   14  C   UNL     1      -5.178  -0.809 -32.061  1.00  0.00     0.047 C 
ENDROOT
BRANCH   1  15
HETATM   15  N   UNL     1      -9.568   2.041 -34.585  1.00  0.00    -0.340 N 
HETATM   16  H   UNL     1      -9.277   1.271 -35.166  1.00  0.00     0.167 HD
BRANCH  15  17
HETATM   17  C   UNL     1     -10.929   1.920 -34.231  1.00  0.00     0.036 A 
HETATM   18  C   UNL     1     -11.588   0.698 -34.070  1.00  0.00     0.032 A 
HETATM   19  C   UNL     1     -12.943   0.646 -33.725  1.00  0.00     0.042 A 
HETATM   20  C   UNL     1     -13.647   1.820 -33.477  1.00  0.00     0.102 A 
HETATM   21  C   UNL     1     -12.999   3.049 -33.592  1.00  0.00     0.104 A 
HETATM   22  O   UNL     1     -14.986   1.695 -33.236  1.00  0.00    -0.348 OA
HETATM   23  C   UNL     1     -11.657   3.096 -33.980  1.00  0.00     0.069 A 
HETATM   24  O   UNL     1     -13.634   4.252 -33.438  1.00  0.00    -0.348 OA
HETATM   25  C   UNL     1     -14.174   4.410 -32.124  1.00  0.00     0.178 C 
HETATM   26  C   UNL     1     -15.519   3.717 -31.972  1.00  0.00     0.053 C 
HETATM   27  C   UNL     1     -15.356   2.206 -31.957  1.00  0.00     0.178 C 
ENDBRANCH  15  17
ENDBRANCH   1  15
TORSDOF 2
ENDMDL
MODEL 8
REMARK VINA RESULT:      -8.3      3.696      6.525
REMARK  2 active torsions:
REMARK  status: ('A' for Active; 'I' for Inactive)
REMARK    1  A    between atoms: C_2  and  N_3 
REMARK    2  A    between atoms: N_3  and  C_4 
ROOT
HETATM    1  C   UNL     1      -5.293   4.429 -30.139  1.00  0.00     0.143 A 
HETATM    2  N   UNL     1      -6.470   4.678 -29.510  1.00  0.00    -0.223 NA
HETATM    3  C   UNL     1      -6.922   5.932 -29.409  1.00  0.00     0.236 A 
HETATM    4  N   UNL     1      -6.328   7.032 -29.850  1.00  0.00    -0.234 NA
HETATM    5  C   UNL     1      -5.185   6.771 -30.505  1.00  0.00     0.114 A 
HETATM    6  C   UNL     1      -4.617   5.526 -30.749  1.00  0.00     0.053 A 
HETATM    7  S   UNL     1      -4.261   8.063 -31.098  1.00  0.00    -0.073 SA
HETATM    8  C   UNL     1      -3.087   7.015 -31.747  1.00  0.00    -0.008 C 
HETATM    9  C   UNL     1      -3.432   5.676 -31.602  1.00  0.00    -0.028 C 
HETATM   10  C   UNL     1      -2.635   4.572 -32.246  1.00  0.00     0.041 C 
HETATM   11  C   UNL     1      -2.405   4.761 -33.751  1.00  0.00     0.005 C 
HETATM   12  C   UNL     1      -1.337   5.790 -34.115  1.00  0.00     0.001 C 
HETATM   13  C   UNL     1      -1.746   7.242 -33.869  1.00  0.00     0.005 C 
HETATM   14  C   UNL     1      -1.863   7.599 -32.392  1.00  0.00     0.047 C 
ENDROOT
BRANCH   1  15
HETATM   15  N   UNL     1      -4.799   3.112 -30.154  1.00  0.00    -0.340 N 
HETATM   16  H   UNL     1      -4.504   2.783 -29.249  1.00  0.00     0.167 HD
BRANCH  15  17
HETATM   17  C   UNL     1      -5.064   2.033 -31.023  1.00  0.00     0.036 A 
HETATM   18  C   UNL     1      -4.866   0.691 -30.683  1.00  0.00     0.032 A 
HETATM   19  C   UNL     1      -5.141  -0.335 -31.594  1.00  0.00     0.042 A 
HETATM   20  C   UNL     1      -5.676  -0.036 -32.843  1.00  0.00     0.102 A 
HETATM   21  C   UNL     1      -5.921   1.293 -33.187  1.00  0.00     0.104 A 
HETATM   22  O   UNL     1      -5.832  -1.079 -33.712  1.00  0.00    -0.348 OA
HETATM   23  C   UNL     1      -5.602   2.316 -32.289  1.00  0.00     0.069 A 
HETATM   24  O   UNL     1      -6.376   1.680 -34.419  1.00  0.00    -0.348 OA
HETATM   25  C   UNL     1      -7.665   1.137 -34.710  1.00  0.00     0.178 C 
HETATM   26  C   UNL     1      -7.581  -0.291 -35.226  1.00  0.00     0.053 C 
HETATM   27  C   UNL     1      -7.189  -1.251 -34.114  1.00  0.00     0.178 C 
ENDBRANCH  15  17
ENDBRANCH   1  15
TORSDOF 2
ENDMDL
MODEL 9
REMARK VINA RESULT:      -8.2      3.720      6.607
REMARK  2 active torsions:
REMARK  status: ('A' for Active; 'I' for Inactive)
REMARK    1  A    between atoms: C_2  and  N_3 
REMARK    2  A    between atoms: N_3  and  C_4 
ROOT
HETATM    1  C   UNL     1      -7.370   2.923 -30.862  1.00  0.00     0.143 A 
HETATM    2  N   UNL     1      -8.344   3.643 -30.250  1.00  0.00    -0.223 NA
HETATM    3  C   UNL     1      -9.562   3.719 -30.794  1.00  0.00     0.236 A 
HETATM    4  N   UNL     1      -9.964   3.168 -31.931  1.00  0.00    -0.234 NA
HETATM    5  C   UNL     1      -9.005   2.426 -32.508  1.00  0.00     0.114 A 
HETATM    6  C   UNL     1      -7.717   2.197 -32.039  1.00  0.00     0.053 A 
HETATM    7  S   UNL     1      -9.324   1.683 -33.998  1.00  0.00    -0.073 SA
HETATM    8  C   UNL     1      -7.772   0.985 -34.060  1.00  0.00    -0.008 C 
HETATM    9  C   UNL     1      -7.034   1.231 -32.908  1.00  0.00    -0.028 C 
HETATM   10  C   UNL     1      -5.700   0.576 -32.660  1.00  0.00     0.041 C 
HETATM   11  C   UNL     1      -5.717  -0.952 -32.800  1.00  0.00     0.005 C 
HETATM   12  C   UNL     1      -5.740  -1.466 -34.238  1.00  0.00     0.001 C 
HETATM   13  C   UNL     1      -7.069  -1.260 -34.963  1.00  0.00     0.005 C 
HETATM   14  C   UNL     1      -7.371   0.200 -35.276  1.00  0.00     0.047 C 
ENDROOT
BRANCH   1  15
HETATM   15  N   UNL     1      -6.075   2.932 -30.314  1.00  0.00    -0.340 N 
HETATM   16  H   UNL     1      -5.830   2.076 -29.845  1.00  0.00     0.167 HD
BRANCH  15  17
HETATM   17  C   UNL     1      -4.921   3.658 -30.677  1.00  0.00     0.036 A 
HETATM   18  C   UNL     1      -3.829   3.102 -31.350  1.00  0.00     0.032 A 
HETATM   19  C   UNL     1      -2.709   3.875 -31.675  1.00  0.00     0.042 A 
HETATM   20  C   UNL     1      -2.689   5.235 -31.383  1.00  0.00     0.102 A 
HETATM   21  C   UNL     1      -3.785   5.819 -30.749  1.00  0.00     0.104 A 
HETATM   22  O   UNL     1      -1.527   5.904 -31.646  1.00  0.00    -0.348 OA
HETATM   23  C   UNL     1      -4.882   5.032 -30.387  1.00  0.00     0.069 A 
HETATM   24  O   UNL     1      -3.818   7.132 -30.360  1.00  0.00    -0.348 OA
HETATM   25  C   UNL     1      -3.705   8.024 -31.470  1.00  0.00     0.178 C 
HETATM   26  C   UNL     1      -2.260   8.222 -31.901  1.00  0.00     0.053 C 
HETATM   27  C   UNL     1      -1.715   6.972 -32.573  1.00  0.00     0.178 C 
ENDBRANCH  15  17
ENDBRANCH   1  15
TORSDOF 2
ENDMDL
MODEL 10
REMARK VINA RESULT:      -8.0      3.510      6.354
REMARK  2 active torsions:
REMARK  status: ('A' for Active; 'I' for Inactive)
REMARK    1  A    between atoms: C_2  and  N_3 
REMARK    2  A    between atoms: N_3  and  C_4 
ROOT
HETATM    1  C   UNL     1      -8.100   3.232 -31.281  1.00  0.00     0.143 A 
HETATM    2  N   UNL     1      -9.201   3.876 -30.813  1.00  0.00    -0.223 NA
HETATM    3  C   UNL     1     -10.387   3.682 -31.397  1.00  0.00     0.236 A 
HETATM    4  N   UNL     1     -10.644   2.916 -32.447  1.00  0.00    -0.234 NA
HETATM    5  C   UNL     1      -9.558   2.254 -32.877  1.00  0.00     0.114 A 
HETATM    6  C   UNL     1      -8.275   2.297 -32.343  1.00  0.00     0.053 A 
HETATM    7  S   UNL     1      -9.686   1.260 -34.245  1.00  0.00    -0.073 SA
HETATM    8  C   UNL     1      -8.047   0.809 -34.156  1.00  0.00    -0.008 C 
HETATM    9  C   UNL     1      -7.413   1.332 -33.035  1.00  0.00    -0.028 C 
HETATM   10  C   UNL     1      -6.011   0.934 -32.653  1.00  0.00     0.041 C 
HETATM   11  C   UNL     1      -5.794  -0.582 -32.558  1.00  0.00     0.005 C 
HETATM   12  C   UNL     1      -5.667  -1.299 -33.901  1.00  0.00     0.001 C 
HETATM   13  C   UNL     1      -6.973  -1.409 -34.686  1.00  0.00     0.005 C 
HETATM   14  C   UNL     1      -7.473  -0.074 -35.227  1.00  0.00     0.047 C 
ENDROOT
BRANCH   1  15
HETATM   15  N   UNL     1      -6.851   3.522 -30.705  1.00  0.00    -0.340 N 
HETATM   16  H   UNL     1      -6.411   2.724 -30.275  1.00  0.00     0.167 HD
BRANCH  15  17
HETATM   17  C   UNL     1      -5.902   4.522 -31.004  1.00  0.00     0.036 A 
HETATM   18  C   UNL     1      -5.245   5.289 -30.037  1.00  0.00     0.032 A 
HETATM   19  C   UNL     1      -4.319   6.273 -30.399  1.00  0.00     0.042 A 
HETATM   20  C   UNL     1      -3.989   6.464 -31.738  1.00  0.00     0.102 A 
HETATM   21  C   UNL     1      -4.601   5.681 -32.716  1.00  0.00     0.104 A 
HETATM   22  O   UNL     1      -3.147   7.502 -32.022  1.00  0.00    -0.348 OA
HETATM   23  C   UNL     1      -5.559   4.731 -32.351  1.00  0.00     0.069 A 
HETATM   24  O   UNL     1      -4.390   5.853 -34.058  1.00  0.00    -0.348 OA
HETATM   25  C   UNL     1      -3.025   5.631 -34.420  1.00  0.00     0.178 C 
HETATM   26  C   UNL     1      -2.158   6.853 -34.160  1.00  0.00     0.053 C 
HETATM   27  C   UNL     1      -1.952   7.069 -32.669  1.00  0.00     0.178 C 
ENDBRANCH  15  17
ENDBRANCH   1  15
TORSDOF 2
ENDMDL
