MODEL 1
REMARK VINA RESULT:      -8.3      0.000      0.000
REMARK  6 active torsions:
REMARK  status: ('A' for Active; 'I' for Inactive)
REMARK    1  A    between atoms: C_2  and  C_3 
REMARK       I    between atoms: C_3  and  N_4 
REMARK    2  A    between atoms: N_4  and  C_5 
REMARK    3  A    between atoms: C_7  and  N_8 
REMARK       I    between atoms: N_8  and  C_9 
REMARK    4  A    between atoms: C_9  and  C_10 
REMARK    5  A    between atoms: C_12  and  O_13 
REMARK    6  A    between atoms: O_13  and  C_14 
ROOT
HETATM    1  N   UNL     1      -4.040   2.835 -32.761  1.00  0.00    -0.323 N 
HETATM    2  C   UNL     1      -5.371   3.038 -33.076  1.00  0.00     0.256 C 
HETATM    3  O   UNL     1      -5.905   4.112 -33.329  1.00  0.00    -0.267 OA
HETATM    4  H   UNL     1      -3.768   1.917 -32.432  1.00  0.00     0.169 HD
ENDROOT
BRANCH   1   5
HETATM    5  C   UNL     1      -3.008   3.802 -32.765  1.00  0.00     0.037 A 
HETATM    6  C   UNL     1      -2.492   4.198 -31.519  1.00  0.00     0.059 A 
HETATM    7  C   UNL     1      -1.470   5.149 -31.430  1.00  0.00     0.036 A 
HETATM    8  C   UNL     1      -0.957   5.705 -32.606  1.00  0.00     0.029 A 
HETATM    9  C   UNL     1      -1.456   5.313 -33.848  1.00  0.00     0.004 A 
HETATM   10  C   UNL     1      -2.476   4.365 -33.926  1.00  0.00     0.029 A 
BRANCH   7  11
HETATM   11  N   UNL     1      -0.909   5.598 -30.216  1.00  0.00    -0.327 N 
HETATM   12  C   UNL     1       0.298   5.226 -29.652  1.00  0.00     0.221 C 
HETATM   13  O   UNL     1       1.107   4.428 -30.113  1.00  0.00    -0.273 OA
HETATM   14  H   UNL     1      -1.458   6.275 -29.703  1.00  0.00     0.169 HD
BRANCH  12  15
HETATM   15  C   UNL     1       0.564   5.920 -28.329  1.00  0.00     0.098 C 
HETATM   16  C   UNL     1       0.726   7.421 -28.495  1.00  0.00     0.014 C 
ENDBRANCH  12  15
ENDBRANCH   7  11
ENDBRANCH   1   5
BRANCH   2  17
HETATM   17  C   UNL     1      -6.237   1.826 -33.071  1.00  0.00     0.037 A 
HETATM   18  C   UNL     1      -6.061   0.775 -33.971  1.00  0.00     0.075 A 
HETATM   19  C   UNL     1      -6.968  -0.267 -33.922  1.00  0.00     0.165 A 
HETATM   20  N   UNL     1      -7.999  -0.337 -33.055  1.00  0.00    -0.237 NA
HETATM   21  C   UNL     1      -8.145   0.691 -32.196  1.00  0.00     0.120 A 
HETATM   22  C   UNL     1      -7.303   1.787 -32.169  1.00  0.00     0.036 A 
BRANCH  19  23
HETATM   23  O   UNL     1      -6.790  -1.291 -34.833  1.00  0.00    -0.329 OA
BRANCH  23  24
HETATM   24  C   UNL     1      -6.289  -2.534 -34.291  1.00  0.00     0.130 C 
HETATM   25  C   UNL     1      -6.835  -3.809 -34.986  1.00  0.00     0.032 C 
HETATM   26  C   UNL     1      -5.447  -4.440 -34.774  1.00  0.00     0.005 C 
HETATM   27  C   UNL     1      -4.882  -3.008 -34.744  1.00  0.00     0.032 C 
ENDBRANCH  23  24
ENDBRANCH  19  23
ENDBRANCH   2  17
TORSDOF 6
ENDMDL
MODEL 2
REMARK VINA RESULT:      -8.3      1.750      9.167
REMARK  6 active torsions:
REMARK  status: ('A' for Active; 'I' for Inactive)
REMARK    1  A    between atoms: C_2  and  C_3 
REMARK       I    between atoms: C_3  and  N_4 
REMARK    2  A    between atoms: N_4  and  C_5 
REMARK    3  A    between atoms: C_7  and  N_8 
REMARK       I    between atoms: N_8  and  C_9 
REMARK    4  A    between atoms: C_9  and  C_10 
REMARK    5  A    between atoms: C_12  and  O_13 
REMARK    6  A    between atoms: O_13  and  C_14 
ROOT
HETATM    1  N   UNL     1      -3.382   2.785 -32.157  1.00  0.00    -0.323 N 
HETATM    2  C   UNL     1      -3.696   3.888 -32.930  1.00  0.00     0.256 C 
HETATM    3  O   UNL     1      -4.729   4.063 -33.567  1.00  0.00    -0.267 OA
HETATM    4  H   UNL     1      -2.436   2.709 -31.806  1.00  0.00     0.169 HD
ENDROOT
BRANCH   1   5
HETATM    5  C   UNL     1      -4.223   1.686 -31.864  1.00  0.00     0.037 A 
HETATM    6  C   UNL     1      -4.178   0.589 -32.742  1.00  0.00     0.059 A 
HETATM    7  C   UNL     1      -4.975  -0.541 -32.527  1.00  0.00     0.036 A 
HETATM    8  C   UNL     1      -5.823  -0.571 -31.416  1.00  0.00     0.029 A 
HETATM    9  C   UNL     1      -5.869   0.508 -30.534  1.00  0.00     0.004 A 
HETATM   10  C   UNL     1      -5.071   1.630 -30.757  1.00  0.00     0.029 A 
BRANCH   7  11
HETATM   11  N   UNL     1      -4.986  -1.673 -33.369  1.00  0.00    -0.327 N 
HETATM   12  C   UNL     1      -5.810  -1.915 -34.452  1.00  0.00     0.221 C 
HETATM   13  O   UNL     1      -6.691  -1.178 -34.882  1.00  0.00    -0.273 OA
HETATM   14  H   UNL     1      -4.305  -2.389 -33.149  1.00  0.00     0.169 HD
BRANCH  12  15
HETATM   15  C   UNL     1      -5.529  -3.252 -35.114  1.00  0.00     0.098 C 
HETATM   16  C   UNL     1      -6.681  -4.226 -34.944  1.00  0.00     0.014 C 
ENDBRANCH  12  15
ENDBRANCH   7  11
ENDBRANCH   1   5
BRANCH   2  17
HETATM   17  C   UNL     1      -2.652   4.947 -33.013  1.00  0.00     0.037 A 
HETATM   18  C   UNL     1      -1.589   5.024 -32.114  1.00  0.00     0.075 A 
HETATM   19  C   UNL     1      -0.719   6.091 -32.242  1.00  0.00     0.165 A 
HETATM   20  N   UNL     1      -0.827   7.050 -33.185  1.00  0.00    -0.237 NA
HETATM   21  C   UNL     1      -1.864   6.951 -34.040  1.00  0.00     0.120 A 
HETATM   22  C   UNL     1      -2.797   5.933 -33.992  1.00  0.00     0.036 A 
BRANCH  19  23
HETATM   23  O   UNL     1       0.318   6.162 -31.333  1.00  0.00    -0.329 OA
BRANCH  23  24
HETATM   24  C   UNL     1      -0.068   6.229 -29.941  1.00  0.00     0.130 C 
HETATM   25  C   UNL     1       0.780   5.344 -28.990  1.00  0.00     0.032 C 
HETATM   26  C   UNL     1       0.643   6.458 -27.937  1.00  0.00     0.005 C 
HETATM   27  C   UNL     1       0.435   7.437 -29.107  1.00  0.00     0.032 C 
ENDBRANCH  23  24
ENDBRANCH  19  23
ENDBRANCH   2  17
TORSDOF 6
ENDMDL
MODEL 3
REMARK VINA RESULT:      -8.2      1.586      9.215
REMARK  6 active torsions:
REMARK  status: ('A' for Active; 'I' for Inactive)
REMARK    1  A    between atoms: C_2  and  C_3 
REMARK       I    between atoms: C_3  and  N_4 
REMARK    2  A    between atoms: N_4  and  C_5 
REMARK    3  A    between atoms: C_7  and  N_8 
REMARK       I    between atoms: N_8  and  C_9 
REMARK    4  A    between atoms: C_9  and  C_10 
REMARK    5  A    between atoms: C_12  and  O_13 
REMARK    6  A    between atoms: O_13  and  C_14 
ROOT
HETATM    1  N   UNL     1      -4.535   3.070 -32.703  1.00  0.00    -0.323 N 
HETATM    2  C   UNL     1      -3.286   3.133 -32.113  1.00  0.00     0.256 C 
HETATM    3  O   UNL     1      -2.827   2.349 -31.290  1.00  0.00    -0.267 OA
HETATM    4  H   UNL     1      -4.837   3.863 -33.254  1.00  0.00     0.169 HD
ENDROOT
BRANCH   1   5
HETATM    5  C   UNL     1      -5.494   2.040 -32.555  1.00  0.00     0.037 A 
HETATM    6  C   UNL     1      -5.376   0.925 -33.401  1.00  0.00     0.059 A 
HETATM    7  C   UNL     1      -6.280  -0.140 -33.322  1.00  0.00     0.036 A 
HETATM    8  C   UNL     1      -7.310  -0.086 -32.379  1.00  0.00     0.029 A 
HETATM    9  C   UNL     1      -7.431   1.012 -31.528  1.00  0.00     0.004 A 
HETATM   10  C   UNL     1      -6.525   2.069 -31.616  1.00  0.00     0.029 A 
BRANCH   7  11
HETATM   11  N   UNL     1      -6.227  -1.287 -34.143  1.00  0.00    -0.327 N 
HETATM   12  C   UNL     1      -5.268  -2.283 -34.144  1.00  0.00     0.221 C 
HETATM   13  O   UNL     1      -4.279  -2.349 -33.423  1.00  0.00    -0.273 OA
HETATM   14  H   UNL     1      -6.986  -1.388 -34.804  1.00  0.00     0.169 HD
BRANCH  12  15
HETATM   15  C   UNL     1      -5.546  -3.361 -35.177  1.00  0.00     0.098 C 
HETATM   16  C   UNL     1      -6.777  -4.179 -34.830  1.00  0.00     0.014 C 
ENDBRANCH  12  15
ENDBRANCH   7  11
ENDBRANCH   1   5
BRANCH   2  17
HETATM   17  C   UNL     1      -2.436   4.293 -32.503  1.00  0.00     0.037 A 
HETATM   18  C   UNL     1      -1.427   4.794 -31.683  1.00  0.00     0.075 A 
HETATM   19  C   UNL     1      -0.751   5.920 -32.115  1.00  0.00     0.165 A 
HETATM   20  N   UNL     1      -0.995   6.551 -33.282  1.00  0.00    -0.237 NA
HETATM   21  C   UNL     1      -1.975   6.045 -34.056  1.00  0.00     0.120 A 
HETATM   22  C   UNL     1      -2.721   4.934 -33.712  1.00  0.00     0.036 A 
BRANCH  19  23
HETATM   23  O   UNL     1       0.234   6.413 -31.281  1.00  0.00    -0.329 OA
BRANCH  23  24
HETATM   24  C   UNL     1      -0.119   6.516 -29.883  1.00  0.00     0.130 C 
HETATM   25  C   UNL     1       0.648   5.543 -28.949  1.00  0.00     0.032 C 
HETATM   26  C   UNL     1       0.648   6.662 -27.892  1.00  0.00     0.005 C 
HETATM   27  C   UNL     1       0.523   7.662 -29.056  1.00  0.00     0.032 C 
ENDBRANCH  23  24
ENDBRANCH  19  23
ENDBRANCH   2  17
TORSDOF 6
ENDMDL
MODEL 4
REMARK VINA RESULT:      -7.6      1.779      2.192
REMARK  6 active torsions:
REMARK  status: ('A' for Active; 'I' for Inactive)
REMARK    1  A    between atoms: C_2  and  C_3 
REMARK       I    between atoms: C_3  and  N_4 
REMARK    2  A    between atoms: N_4  and  C_5 
REMARK    3  A    between atoms: C_7  and  N_8 
REMARK       I    between atoms: N_8  and  C_9 
REMARK    4  A    between atoms: C_9  and  C_10 
REMARK    5  A    between atoms: C_12  and  O_13 
REMARK    6  A    between atoms: O_13  and  C_14 
ROOT
HETATM    1  N   UNL     1      -3.696   4.616 -31.617  1.00  0.00    -0.323 N 
HETATM    2  C   UNL     1      -3.642   3.278 -31.962  1.00  0.00     0.256 C 
HETATM    3  O   UNL     1      -2.696   2.696 -32.481  1.00  0.00    -0.267 OA
HETATM    4  H   UNL     1      -4.590   4.993 -31.330  1.00  0.00     0.169 HD
ENDROOT
BRANCH   1   5
HETATM    5  C   UNL     1      -2.644   5.558 -31.698  1.00  0.00     0.037 A 
HETATM    6  C   UNL     1      -2.006   5.916 -30.498  1.00  0.00     0.059 A 
HETATM    7  C   UNL     1      -0.954   6.839 -30.487  1.00  0.00     0.036 A 
HETATM    8  C   UNL     1      -0.537   7.405 -31.695  1.00  0.00     0.029 A 
HETATM    9  C   UNL     1      -1.157   7.051 -32.892  1.00  0.00     0.004 A 
HETATM   10  C   UNL     1      -2.205   6.130 -32.893  1.00  0.00     0.029 A 
BRANCH   7  11
HETATM   11  N   UNL     1      -0.272   7.249 -29.321  1.00  0.00    -0.327 N 
HETATM   12  C   UNL     1       0.561   6.493 -28.518  1.00  0.00     0.221 C 
HETATM   13  O   UNL     1       0.861   5.314 -28.677  1.00  0.00    -0.273 OA
HETATM   14  H   UNL     1      -0.412   8.213 -29.048  1.00  0.00     0.169 HD
BRANCH  12  15
HETATM   15  C   UNL     1       1.113   7.280 -27.343  1.00  0.00     0.098 C 
HETATM   16  C   UNL     1       1.585   8.663 -27.754  1.00  0.00     0.014 C 
ENDBRANCH  12  15
ENDBRANCH   7  11
ENDBRANCH   1   5
BRANCH   2  17
HETATM   17  C   UNL     1      -4.875   2.485 -31.700  1.00  0.00     0.037 A 
HETATM   18  C   UNL     1      -4.988   1.138 -32.040  1.00  0.00     0.075 A 
HETATM   19  C   UNL     1      -6.204   0.521 -31.816  1.00  0.00     0.165 A 
HETATM   20  N   UNL     1      -7.279   1.134 -31.279  1.00  0.00    -0.237 NA
HETATM   21  C   UNL     1      -7.143   2.435 -30.959  1.00  0.00     0.120 A 
HETATM   22  C   UNL     1      -5.976   3.150 -31.154  1.00  0.00     0.036 A 
BRANCH  19  23
HETATM   23  O   UNL     1      -6.304  -0.810 -32.175  1.00  0.00    -0.329 OA
BRANCH  23  24
HETATM   24  C   UNL     1      -6.035  -1.108 -33.563  1.00  0.00     0.130 C 
HETATM   25  C   UNL     1      -4.845  -2.076 -33.799  1.00  0.00     0.032 C 
HETATM   26  C   UNL     1      -5.644  -2.668 -34.974  1.00  0.00     0.005 C 
HETATM   27  C   UNL     1      -6.917  -2.180 -34.259  1.00  0.00     0.032 C 
ENDBRANCH  23  24
ENDBRANCH  19  23
ENDBRANCH   2  17
TORSDOF 6
ENDMDL
MODEL 5
REMARK VINA RESULT:      -7.2      2.498      9.310
REMARK  6 active torsions:
REMARK  status: ('A' for Active; 'I' for Inactive)
REMARK    1  A    between atoms: C_2  and  C_3 
REMARK       I    between atoms: C_3  and  N_4 
REMARK    2  A    between atoms: N_4  and  C_5 
REMARK    3  A    between atoms: C_7  and  N_8 
REMARK       I    between atoms: N_8  and  C_9 
REMARK    4  A    between atoms: C_9  and  C_10 
REMARK    5  A    between atoms: C_12  and  O_13 
REMARK    6  A    between atoms: O_13  and  C_14 
ROOT
HETATM    1  N   UNL     1      -4.451   3.020 -32.967  1.00  0.00    -0.323 N 
HETATM    2  C   UNL     1      -3.269   3.158 -32.261  1.00  0.00     0.256 C 
HETATM    3  O   UNL     1      -2.880   2.444 -31.344  1.00  0.00    -0.267 OA
HETATM    4  H   UNL     1      -4.712   3.766 -33.599  1.00  0.00     0.169 HD
ENDROOT
BRANCH   1   5
HETATM    5  C   UNL     1      -5.397   1.976 -32.844  1.00  0.00     0.037 A 
HETATM    6  C   UNL     1      -6.735   2.282 -33.144  1.00  0.00     0.059 A 
HETATM    7  C   UNL     1      -7.737   1.309 -33.050  1.00  0.00     0.036 A 
HETATM    8  C   UNL     1      -7.389   0.014 -32.655  1.00  0.00     0.029 A 
HETATM    9  C   UNL     1      -6.063  -0.302 -32.364  1.00  0.00     0.004 A 
HETATM   10  C   UNL     1      -5.072   0.675 -32.459  1.00  0.00     0.029 A 
BRANCH   7  11
HETATM   11  N   UNL     1      -9.100   1.546 -33.330  1.00  0.00    -0.327 N 
HETATM   12  C   UNL     1     -10.006   2.269 -32.576  1.00  0.00     0.221 C 
HETATM   13  O   UNL     1      -9.784   2.841 -31.515  1.00  0.00    -0.273 OA
HETATM   14  H   UNL     1      -9.448   1.138 -34.189  1.00  0.00     0.169 HD
BRANCH  12  15
HETATM   15  C   UNL     1     -11.390   2.301 -33.198  1.00  0.00     0.098 C 
HETATM   16  C   UNL     1     -11.792   0.951 -33.766  1.00  0.00     0.014 C 
ENDBRANCH  12  15
ENDBRANCH   7  11
ENDBRANCH   1   5
BRANCH   2  17
HETATM   17  C   UNL     1      -2.410   4.313 -32.644  1.00  0.00     0.037 A 
HETATM   18  C   UNL     1      -1.429   4.831 -31.800  1.00  0.00     0.075 A 
HETATM   19  C   UNL     1      -0.741   5.950 -32.231  1.00  0.00     0.165 A 
HETATM   20  N   UNL     1      -0.949   6.561 -33.415  1.00  0.00    -0.237 NA
HETATM   21  C   UNL     1      -1.902   6.039 -34.212  1.00  0.00     0.120 A 
HETATM   22  C   UNL     1      -2.656   4.932 -33.872  1.00  0.00     0.036 A 
BRANCH  19  23
HETATM   23  O   UNL     1       0.215   6.461 -31.374  1.00  0.00    -0.329 OA
BRANCH  23  24
HETATM   24  C   UNL     1      -0.126   6.444 -29.969  1.00  0.00     0.130 C 
HETATM   25  C   UNL     1       0.709   5.454 -29.113  1.00  0.00     0.032 C 
HETATM   26  C   UNL     1       0.656   6.494 -27.979  1.00  0.00     0.005 C 
HETATM   27  C   UNL     1       0.460   7.565 -29.067  1.00  0.00     0.032 C 
ENDBRANCH  23  24
ENDBRANCH  19  23
ENDBRANCH   2  17
TORSDOF 6
ENDMDL
MODEL 6
REMARK VINA RESULT:      -7.2      1.817      9.320
REMARK  6 active torsions:
REMARK  status: ('A' for Active; 'I' for Inactive)
REMARK    1  A    between atoms: C_2  and  C_3 
REMARK       I    between atoms: C_3  and  N_4 
REMARK    2  A    between atoms: N_4  and  C_5 
REMARK    3  A    between atoms: C_7  and  N_8 
REMARK       I    between atoms: N_8  and  C_9 
REMARK    4  A    between atoms: C_9  and  C_10 
REMARK    5  A    between atoms: C_12  and  O_13 
REMARK    6  A    between atoms: O_13  and  C_14 
ROOT
HETATM    1  N   UNL     1      -4.825   4.633 -31.630  1.00  0.00    -0.323 N 
HETATM    2  C   UNL     1      -3.484   4.296 -31.584  1.00  0.00     0.256 C 
HETATM    3  O   UNL     1      -3.017   3.200 -31.295  1.00  0.00    -0.267 OA
HETATM    4  H   UNL     1      -5.061   5.611 -31.742  1.00  0.00     0.169 HD
ENDROOT
BRANCH   1   5
HETATM    5  C   UNL     1      -5.926   3.764 -31.452  1.00  0.00     0.037 A 
HETATM    6  C   UNL     1      -6.038   2.677 -32.336  1.00  0.00     0.059 A 
HETATM    7  C   UNL     1      -7.095   1.767 -32.231  1.00  0.00     0.036 A 
HETATM    8  C   UNL     1      -8.048   1.949 -31.225  1.00  0.00     0.029 A 
HETATM    9  C   UNL     1      -7.943   3.019 -30.337  1.00  0.00     0.004 A 
HETATM   10  C   UNL     1      -6.885   3.921 -30.451  1.00  0.00     0.029 A 
BRANCH   7  11
HETATM   11  N   UNL     1      -7.274   0.658 -33.086  1.00  0.00    -0.327 N 
HETATM   12  C   UNL     1      -6.669  -0.582 -33.001  1.00  0.00     0.221 C 
HETATM   13  O   UNL     1      -5.857  -0.945 -32.156  1.00  0.00    -0.273 OA
HETATM   14  H   UNL     1      -7.927   0.792 -33.847  1.00  0.00     0.169 HD
BRANCH  12  15
HETATM   15  C   UNL     1      -7.108  -1.525 -34.106  1.00  0.00     0.098 C 
HETATM   16  C   UNL     1      -5.928  -2.187 -34.794  1.00  0.00     0.014 C 
ENDBRANCH  12  15
ENDBRANCH   7  11
ENDBRANCH   1   5
BRANCH   2  17
HETATM   17  C   UNL     1      -2.523   5.392 -31.889  1.00  0.00     0.037 A 
HETATM   18  C   UNL     1      -1.409   5.656 -31.094  1.00  0.00     0.075 A 
HETATM   19  C   UNL     1      -0.626   6.745 -31.431  1.00  0.00     0.165 A 
HETATM   20  N   UNL     1      -0.863   7.555 -32.483  1.00  0.00    -0.237 NA
HETATM   21  C   UNL     1      -1.946   7.276 -33.235  1.00  0.00     0.120 A 
HETATM   22  C   UNL     1      -2.802   6.221 -32.979  1.00  0.00     0.036 A 
BRANCH  19  23
HETATM   23  O   UNL     1       0.464   7.002 -30.622  1.00  0.00    -0.329 OA
BRANCH  23  24
HETATM   24  C   UNL     1       0.174   7.195 -29.219  1.00  0.00     0.130 C 
HETATM   25  C   UNL     1       0.679   6.058 -28.291  1.00  0.00     0.032 C 
HETATM   26  C   UNL     1       0.987   7.140 -27.241  1.00  0.00     0.005 C 
HETATM   27  C   UNL     1       1.106   8.136 -28.409  1.00  0.00     0.032 C 
ENDBRANCH  23  24
ENDBRANCH  19  23
ENDBRANCH   2  17
TORSDOF 6
ENDMDL
MODEL 7
REMARK VINA RESULT:      -7.1      2.303      8.566
REMARK  6 active torsions:
REMARK  status: ('A' for Active; 'I' for Inactive)
REMARK    1  A    between atoms: C_2  and  C_3 
REMARK       I    between atoms: C_3  and  N_4 
REMARK    2  A    between atoms: N_4  and  C_5 
REMARK    3  A    between atoms: C_7  and  N_8 
REMARK       I    between atoms: N_8  and  C_9 
REMARK    4  A    between atoms: C_9  and  C_10 
REMARK    5  A    between atoms: C_12  and  O_13 
REMARK    6  A    between atoms: O_13  and  C_14 
ROOT
HETATM    1  N   UNL     1      -5.786   2.368 -32.954  1.00  0.00    -0.323 N 
HETATM    2  C   UNL     1      -5.939   2.652 -31.609  1.00  0.00     0.256 C 
HETATM    3  O   UNL     1      -6.535   1.970 -30.782  1.00  0.00    -0.267 OA
HETATM    4  H   UNL     1      -5.397   3.089 -33.547  1.00  0.00     0.169 HD
ENDROOT
BRANCH   1   5
HETATM    5  C   UNL     1      -6.197   1.193 -33.626  1.00  0.00     0.037 A 
HETATM    6  C   UNL     1      -5.491   0.011 -33.344  1.00  0.00     0.059 A 
HETATM    7  C   UNL     1      -5.830  -1.198 -33.963  1.00  0.00     0.036 A 
HETATM    8  C   UNL     1      -6.893  -1.219 -34.870  1.00  0.00     0.029 A 
HETATM    9  C   UNL     1      -7.605  -0.054 -35.151  1.00  0.00     0.004 A 
HETATM   10  C   UNL     1      -7.259   1.146 -34.530  1.00  0.00     0.029 A 
BRANCH   7  11
HETATM   11  N   UNL     1      -5.164  -2.420 -33.733  1.00  0.00    -0.327 N 
HETATM   12  C   UNL     1      -4.867  -3.409 -34.652  1.00  0.00     0.221 C 
HETATM   13  O   UNL     1      -5.135  -3.401 -35.849  1.00  0.00    -0.273 OA
HETATM   14  H   UNL     1      -4.866  -2.585 -32.779  1.00  0.00     0.169 HD
BRANCH  12  15
HETATM   15  C   UNL     1      -4.141  -4.588 -34.030  1.00  0.00     0.098 C 
HETATM   16  C   UNL     1      -3.320  -4.178 -32.821  1.00  0.00     0.014 C 
ENDBRANCH  12  15
ENDBRANCH   7  11
ENDBRANCH   1   5
BRANCH   2  17
HETATM   17  C   UNL     1      -5.341   3.933 -31.140  1.00  0.00     0.037 A 
HETATM   18  C   UNL     1      -4.249   4.527 -31.771  1.00  0.00     0.075 A 
HETATM   19  C   UNL     1      -3.732   5.678 -31.206  1.00  0.00     0.165 A 
HETATM   20  N   UNL     1      -4.222   6.266 -30.095  1.00  0.00    -0.237 NA
HETATM   21  C   UNL     1      -5.278   5.671 -29.506  1.00  0.00     0.120 A 
HETATM   22  C   UNL     1      -5.863   4.512 -29.980  1.00  0.00     0.036 A 
BRANCH  19  23
HETATM   23  O   UNL     1      -2.639   6.244 -31.835  1.00  0.00    -0.329 OA
BRANCH  23  24
HETATM   24  C   UNL     1      -1.448   6.378 -31.026  1.00  0.00     0.130 C 
HETATM   25  C   UNL     1      -0.666   5.056 -30.803  1.00  0.00     0.032 C 
HETATM   26  C   UNL     1       0.628   5.887 -30.876  1.00  0.00     0.005 C 
HETATM   27  C   UNL     1      -0.161   6.909 -31.714  1.00  0.00     0.032 C 
ENDBRANCH  23  24
ENDBRANCH  19  23
ENDBRANCH   2  17
TORSDOF 6
ENDMDL
MODEL 8
REMARK VINA RESULT:      -7.1      2.317      2.561
REMARK  6 active torsions:
REMARK  status: ('A' for Active; 'I' for Inactive)
REMARK    1  A    between atoms: C_2  and  C_3 
REMARK       I    between atoms: C_3  and  N_4 
REMARK    2  A    between atoms: N_4  and  C_5 
REMARK    3  A    between atoms: C_7  and  N_8 
REMARK       I    between atoms: N_8  and  C_9 
REMARK    4  A    between atoms: C_9  and  C_10 
REMARK    5  A    between atoms: C_12  and  O_13 
REMARK    6  A    between atoms: O_13  and  C_14 
ROOT
HETATM    1  N   UNL     1      -4.101   4.053 -32.621  1.00  0.00    -0.323 N 
HETATM    2  C   UNL     1      -5.206   3.642 -33.343  1.00  0.00     0.256 C 
HETATM    3  O   UNL     1      -5.647   4.164 -34.362  1.00  0.00    -0.267 OA
HETATM    4  H   UNL     1      -3.938   3.619 -31.721  1.00  0.00     0.169 HD
ENDROOT
BRANCH   1   5
HETATM    5  C   UNL     1      -3.200   5.089 -32.961  1.00  0.00     0.037 A 
HETATM    6  C   UNL     1      -3.306   6.294 -32.245  1.00  0.00     0.059 A 
HETATM    7  C   UNL     1      -2.455   7.372 -32.515  1.00  0.00     0.036 A 
HETATM    8  C   UNL     1      -1.484   7.235 -33.512  1.00  0.00     0.029 A 
HETATM    9  C   UNL     1      -1.365   6.041 -34.222  1.00  0.00     0.004 A 
HETATM   10  C   UNL     1      -2.219   4.974 -33.946  1.00  0.00     0.029 A 
BRANCH   7  11
HETATM   11  N   UNL     1      -2.507   8.611 -31.842  1.00  0.00    -0.327 N 
HETATM   12  C   UNL     1      -2.149   8.879 -30.533  1.00  0.00     0.221 C 
HETATM   13  O   UNL     1      -1.717   8.076 -29.713  1.00  0.00    -0.273 OA
HETATM   14  H   UNL     1      -2.844   9.393 -32.388  1.00  0.00     0.169 HD
BRANCH  12  15
HETATM   15  C   UNL     1      -2.348  10.337 -30.160  1.00  0.00     0.098 C 
HETATM   16  C   UNL     1      -3.351  10.505 -29.032  1.00  0.00     0.014 C 
ENDBRANCH  12  15
ENDBRANCH   7  11
ENDBRANCH   1   5
BRANCH   2  17
HETATM   17  C   UNL     1      -5.943   2.467 -32.800  1.00  0.00     0.037 A 
HETATM   18  C   UNL     1      -5.470   1.162 -32.926  1.00  0.00     0.075 A 
HETATM   19  C   UNL     1      -6.272   0.142 -32.448  1.00  0.00     0.165 A 
HETATM   20  N   UNL     1      -7.470   0.331 -31.857  1.00  0.00    -0.237 NA
HETATM   21  C   UNL     1      -7.902   1.603 -31.747  1.00  0.00     0.120 A 
HETATM   22  C   UNL     1      -7.186   2.693 -32.204  1.00  0.00     0.036 A 
BRANCH  19  23
HETATM   23  O   UNL     1      -5.796  -1.147 -32.597  1.00  0.00    -0.329 OA
BRANCH  23  24
HETATM   24  C   UNL     1      -5.600  -1.591 -33.959  1.00  0.00     0.130 C 
HETATM   25  C   UNL     1      -4.643  -2.803 -34.112  1.00  0.00     0.032 C 
HETATM   26  C   UNL     1      -5.552  -3.292 -35.254  1.00  0.00     0.005 C 
HETATM   27  C   UNL     1      -6.691  -2.497 -34.590  1.00  0.00     0.032 C 
ENDBRANCH  23  24
ENDBRANCH  19  23
ENDBRANCH   2  17
TORSDOF 6
ENDMDL
MODEL 9
REMARK VINA RESULT:      -7.1      5.687      9.677
REMARK  6 active torsions:
REMARK  status: ('A' for Active; 'I' for Inactive)
REMARK    1  A    between atoms: C_2  and  C_3 
REMARK       I    between atoms: C_3  and  N_4 
REMARK    2  A    between atoms: N_4  and  C_5 
REMARK    3  A    between atoms: C_7  and  N_8 
REMARK       I    between atoms: N_8  and  C_9 
REMARK    4  A    between atoms: C_9  and  C_10 
REMARK    5  A    between atoms: C_12  and  O_13 
REMARK    6  A    between atoms: O_13  and  C_14 
ROOT
HETATM    1  N   UNL     1     -10.531   0.887 -32.621  1.00  0.00    -0.323 N 
HETATM    2  C   UNL     1     -11.170   1.563 -33.645  1.00  0.00     0.256 C 
HETATM    3  O   UNL     1     -10.633   2.159 -34.572  1.00  0.00    -0.267 OA
HETATM    4  H   UNL     1     -11.096   0.565 -31.844  1.00  0.00     0.169 HD
ENDROOT
BRANCH   1   5
HETATM    5  C   UNL     1      -9.142   0.661 -32.489  1.00  0.00     0.037 A 
HETATM    6  C   UNL     1      -8.590  -0.402 -33.224  1.00  0.00     0.059 A 
HETATM    7  C   UNL     1      -7.224  -0.696 -33.154  1.00  0.00     0.036 A 
HETATM    8  C   UNL     1      -6.402   0.089 -32.340  1.00  0.00     0.029 A 
HETATM    9  C   UNL     1      -6.938   1.152 -31.614  1.00  0.00     0.004 A 
HETATM   10  C   UNL     1      -8.301   1.436 -31.689  1.00  0.00     0.029 A 
BRANCH   7  11
HETATM   11  N   UNL     1      -6.603  -1.750 -33.858  1.00  0.00    -0.327 N 
HETATM   12  C   UNL     1      -5.260  -1.897 -34.153  1.00  0.00     0.221 C 
HETATM   13  O   UNL     1      -4.356  -1.126 -33.850  1.00  0.00    -0.273 OA
HETATM   14  H   UNL     1      -7.220  -2.485 -34.180  1.00  0.00     0.169 HD
BRANCH  12  15
HETATM   15  C   UNL     1      -4.967  -3.165 -34.934  1.00  0.00     0.098 C 
HETATM   16  C   UNL     1      -6.195  -4.049 -35.067  1.00  0.00     0.014 C 
ENDBRANCH  12  15
ENDBRANCH   7  11
ENDBRANCH   1   5
BRANCH   2  17
HETATM   17  C   UNL     1     -12.658   1.588 -33.584  1.00  0.00     0.037 A 
HETATM   18  C   UNL     1     -13.360   2.419 -32.713  1.00  0.00     0.075 A 
HETATM   19  C   UNL     1     -14.738   2.305 -32.691  1.00  0.00     0.165 A 
HETATM   20  N   UNL     1     -15.442   1.454 -33.465  1.00  0.00    -0.237 NA
HETATM   21  C   UNL     1     -14.738   0.662 -34.298  1.00  0.00     0.120 A 
HETATM   22  C   UNL     1     -13.360   0.687 -34.389  1.00  0.00     0.036 A 
BRANCH  19  23
HETATM   23  O   UNL     1     -15.417   3.125 -31.809  1.00  0.00    -0.329 OA
BRANCH  23  24
HETATM   24  C   UNL     1     -16.700   3.610 -32.264  1.00  0.00     0.130 C 
HETATM   25  C   UNL     1     -17.923   2.928 -31.596  1.00  0.00     0.032 C 
HETATM   26  C   UNL     1     -18.630   4.294 -31.645  1.00  0.00     0.005 C 
HETATM   27  C   UNL     1     -17.231   4.936 -31.654  1.00  0.00     0.032 C 
ENDBRANCH  23  24
ENDBRANCH  19  23
ENDBRANCH   2  17
TORSDOF 6
ENDMDL
MODEL 10
REMARK VINA RESULT:      -7.0      2.067      9.066
REMARK  6 active torsions:
REMARK  status: ('A' for Active; 'I' for Inactive)
REMARK    1  A    between atoms: C_2  and  C_3 
REMARK       I    between atoms: C_3  and  N_4 
REMARK    2  A    between atoms: N_4  and  C_5 
REMARK    3  A    between atoms: C_7  and  N_8 
REMARK       I    between atoms: N_8  and  C_9 
REMARK    4  A    between atoms: C_9  and  C_10 
REMARK    5  A    between atoms: C_12  and  O_13 
REMARK    6  A    between atoms: O_13  and  C_14 
ROOT
HETATM    1  N   UNL     1      -6.495   3.135 -32.624  1.00  0.00    -0.323 N 
HETATM    2  C   UNL     1      -5.410   3.343 -31.791  1.00  0.00     0.256 C 
HETATM    3  O   UNL     1      -4.978   2.564 -30.949  1.00  0.00    -0.267 OA
HETATM    4  H   UNL     1      -6.828   3.921 -33.168  1.00  0.00     0.169 HD
ENDROOT
BRANCH   1   5
HETATM    5  C   UNL     1      -7.261   1.952 -32.742  1.00  0.00     0.037 A 
HETATM    6  C   UNL     1      -6.722   0.912 -33.517  1.00  0.00     0.059 A 
HETATM    7  C   UNL     1      -7.411  -0.294 -33.687  1.00  0.00     0.036 A 
HETATM    8  C   UNL     1      -8.653  -0.457 -33.068  1.00  0.00     0.029 A 
HETATM    9  C   UNL     1      -9.194   0.565 -32.290  1.00  0.00     0.004 A 
HETATM   10  C   UNL     1      -8.499   1.764 -32.127  1.00  0.00     0.029 A 
BRANCH   7  11
HETATM   11  N   UNL     1      -6.934  -1.378 -34.455  1.00  0.00    -0.327 N 
HETATM   12  C   UNL     1      -5.778  -2.110 -34.258  1.00  0.00     0.221 C 
HETATM   13  O   UNL     1      -4.948  -1.946 -33.370  1.00  0.00    -0.273 OA
HETATM   14  H   UNL     1      -7.514  -1.649 -35.239  1.00  0.00     0.169 HD
BRANCH  12  15
HETATM   15  C   UNL     1      -5.595  -3.204 -35.295  1.00  0.00     0.098 C 
HETATM   16  C   UNL     1      -6.496  -4.397 -35.031  1.00  0.00     0.014 C 
ENDBRANCH  12  15
ENDBRANCH   7  11
ENDBRANCH   1   5
BRANCH   2  17
HETATM   17  C   UNL     1      -4.728   4.661 -31.922  1.00  0.00     0.037 A 
HETATM   18  C   UNL     1      -3.347   4.780 -32.067  1.00  0.00     0.075 A 
HETATM   19  C   UNL     1      -2.816   6.056 -32.106  1.00  0.00     0.165 A 
HETATM   20  N   UNL     1      -3.547   7.186 -32.028  1.00  0.00    -0.237 NA
HETATM   21  C   UNL     1      -4.880   7.042 -31.889  1.00  0.00     0.120 A 
HETATM   22  C   UNL     1      -5.511   5.814 -31.826  1.00  0.00     0.036 A 
BRANCH  19  23
HETATM   23  O   UNL     1      -1.443   6.155 -32.232  1.00  0.00    -0.329 OA
BRANCH  23  24
HETATM   24  C   UNL     1      -0.790   7.047 -31.300  1.00  0.00     0.130 C 
HETATM   25  C   UNL     1      -1.035   6.713 -29.805  1.00  0.00     0.032 C 
HETATM   26  C   UNL     1       0.414   7.156 -29.536  1.00  0.00     0.005 C 
HETATM   27  C   UNL     1       0.716   6.809 -31.005  1.00  0.00     0.032 C 
ENDBRANCH  23  24
ENDBRANCH  19  23
ENDBRANCH   2  17
TORSDOF 6
ENDMDL
