MODEL 1
REMARK VINA RESULT:     -10.0      0.000      0.000
REMARK  6 active torsions:
REMARK  status: ('A' for Active; 'I' for Inactive)
REMARK    1  A    between atoms: C_4  and  C_5 
REMARK    2  A    between atoms: N_7  and  C_8 
REMARK    3  A    between atoms: C_8  and  C_9 
REMARK    4  A    between atoms: C_9  and  C_10 
REMARK       I    between atoms: C_10  and  N_11 
REMARK    5  A    between atoms: N_11  and  N_12 
REMARK    6  A    between atoms: C_24  and  C_25 
ROOT
HETATM    1  C   UNL     1      -9.210   1.494 -31.260  1.00  0.00     0.161 C 
ENDROOT
BRANCH   1   2
HETATM    2  N   UNL     1      -8.684   0.927 -32.492  1.00  0.00    -0.268 N 
HETATM    3  N   UNL     1      -7.680   0.038 -32.399  1.00  0.00    -0.172 NA
HETATM    4  C   UNL     1      -7.457  -0.379 -33.654  1.00  0.00     0.089 A 
HETATM    5  C   UNL     1      -8.359   0.263 -34.542  1.00  0.00     0.066 A 
HETATM    6  C   UNL     1      -9.148   1.099 -33.774  1.00  0.00     0.065 A 
BRANCH   4   7
HETATM    7  C   UNL     1      -6.427  -1.381 -33.964  1.00  0.00    -0.006 A 
HETATM    8  C   UNL     1      -6.748  -2.520 -34.717  1.00  0.00     0.014 A 
HETATM    9  C   UNL     1      -5.777  -3.481 -35.018  1.00  0.00     0.001 A 
HETATM   10  C   UNL     1      -4.470  -3.314 -34.570  1.00  0.00     0.000 A 
HETATM   11  C   UNL     1      -4.132  -2.187 -33.824  1.00  0.00     0.001 A 
HETATM   12  C   UNL     1      -5.104  -1.227 -33.523  1.00  0.00     0.014 A 
ENDBRANCH   4   7
BRANCH   6  13
HETATM   13  C   UNL     1     -10.291   1.912 -34.177  1.00  0.00    -0.008 A 
HETATM   14  C   UNL     1     -10.136   3.243 -34.580  1.00  0.00     0.014 A 
HETATM   15  C   UNL     1     -11.247   4.003 -34.952  1.00  0.00     0.001 A 
HETATM   16  C   UNL     1     -12.520   3.435 -34.937  1.00  0.00     0.000 A 
HETATM   17  C   UNL     1     -12.683   2.105 -34.557  1.00  0.00     0.001 A 
HETATM   18  C   UNL     1     -11.573   1.346 -34.181  1.00  0.00     0.014 A 
ENDBRANCH   6  13
ENDBRANCH   1   2
BRANCH   1  19
HETATM   19  C   UNL     1      -8.834   2.953 -31.079  1.00  0.00     0.126 C 
BRANCH  19  20
HETATM   20  C   UNL     1      -7.345   3.116 -30.880  1.00  0.00     0.239 C 
HETATM   21  N   UNL     1      -6.784   4.121 -31.646  1.00  0.00    -0.246 N 
HETATM   22  H   UNL     1      -7.373   4.779 -32.164  1.00  0.00     0.192 HD
HETATM   23  O   UNL     1      -6.732   2.378 -30.110  1.00  0.00    -0.272 OA
BRANCH  21  24
HETATM   24  N   UNL     1      -5.441   4.351 -31.586  1.00  0.00    -0.166 NA
HETATM   25  C   UNL     1      -4.850   4.635 -32.701  1.00  0.00     0.157 A 
HETATM   26  C   UNL     1      -5.439   4.706 -34.114  1.00  0.00     0.277 A 
HETATM   27  C   UNL     1      -3.430   4.934 -32.848  1.00  0.00     0.027 A 
HETATM   28  O   UNL     1      -6.588   4.448 -34.407  1.00  0.00    -0.266 OA
HETATM   29  N   UNL     1      -4.391   5.060 -34.935  1.00  0.00    -0.321 N 
HETATM   30  C   UNL     1      -3.213   5.181 -34.202  1.00  0.00     0.048 A 
HETATM   31  H   UNL     1      -4.485   5.176 -35.932  1.00  0.00     0.169 HD
HETATM   32  C   UNL     1      -1.955   5.481 -34.680  1.00  0.00     0.030 A 
HETATM   33  C   UNL     1      -0.908   5.525 -33.749  1.00  0.00     0.002 A 
HETATM   34  C   UNL     1      -1.137   5.275 -32.380  1.00  0.00     0.001 A 
HETATM   35  C   UNL     1      -2.418   4.973 -31.912  1.00  0.00     0.016 A 
ENDBRANCH  21  24
ENDBRANCH  19  20
ENDBRANCH   1  19
TORSDOF 6
ENDMDL
MODEL 2
REMARK VINA RESULT:      -9.7      3.457      4.960
REMARK  6 active torsions:
REMARK  status: ('A' for Active; 'I' for Inactive)
REMARK    1  A    between atoms: C_4  and  C_5 
REMARK    2  A    between atoms: N_7  and  C_8 
REMARK    3  A    between atoms: C_8  and  C_9 
REMARK    4  A    between atoms: C_9  and  C_10 
REMARK       I    between atoms: C_10  and  N_11 
REMARK    5  A    between atoms: N_11  and  N_12 
REMARK    6  A    between atoms: C_24  and  C_25 
ROOT
HETATM    1  C   UNL     1      -3.820   1.783 -31.696  1.00  0.00     0.161 C 
ENDROOT
BRANCH   1   2
HETATM    2  N   UNL     1      -4.699   1.053 -32.595  1.00  0.00    -0.268 N 
HETATM    3  N   UNL     1      -4.439  -0.248 -32.813  1.00  0.00    -0.172 NA
HETATM    4  C   UNL     1      -5.439  -0.684 -33.594  1.00  0.00     0.089 A 
HETATM    5  C   UNL     1      -6.346   0.376 -33.850  1.00  0.00     0.066 A 
HETATM    6  C   UNL     1      -5.857   1.489 -33.193  1.00  0.00     0.065 A 
BRANCH   4   7
HETATM    7  C   UNL     1      -5.516  -2.082 -34.042  1.00  0.00    -0.006 A 
HETATM    8  C   UNL     1      -4.391  -2.917 -33.960  1.00  0.00     0.014 A 
HETATM    9  C   UNL     1      -4.451  -4.248 -34.384  1.00  0.00     0.001 A 
HETATM   10  C   UNL     1      -5.639  -4.764 -34.894  1.00  0.00     0.000 A 
HETATM   11  C   UNL     1      -6.767  -3.951 -34.980  1.00  0.00     0.001 A 
HETATM   12  C   UNL     1      -6.706  -2.618 -34.557  1.00  0.00     0.014 A 
ENDBRANCH   4   7
BRANCH   6  13
HETATM   13  C   UNL     1      -6.455   2.812 -33.053  1.00  0.00    -0.008 A 
HETATM   14  C   UNL     1      -6.192   3.835 -33.972  1.00  0.00     0.014 A 
HETATM   15  C   UNL     1      -6.770   5.096 -33.810  1.00  0.00     0.001 A 
HETATM   16  C   UNL     1      -7.627   5.341 -32.738  1.00  0.00     0.000 A 
HETATM   17  C   UNL     1      -7.911   4.325 -31.830  1.00  0.00     0.001 A 
HETATM   18  C   UNL     1      -7.330   3.065 -31.988  1.00  0.00     0.014 A 
ENDBRANCH   6  13
ENDBRANCH   1   2
BRANCH   1  19
HETATM   19  C   UNL     1      -3.127   2.952 -32.375  1.00  0.00     0.126 C 
BRANCH  19  20
HETATM   20  C   UNL     1      -3.243   4.213 -31.552  1.00  0.00     0.239 C 
HETATM   21  N   UNL     1      -2.132   5.032 -31.623  1.00  0.00    -0.246 N 
HETATM   22  H   UNL     1      -1.388   4.852 -32.302  1.00  0.00     0.192 HD
HETATM   23  O   UNL     1      -4.250   4.431 -30.879  1.00  0.00    -0.272 OA
BRANCH  21  24
HETATM   24  N   UNL     1      -2.093   6.188 -30.899  1.00  0.00    -0.166 NA
HETATM   25  C   UNL     1      -1.099   6.331 -30.085  1.00  0.00     0.157 A 
HETATM   26  C   UNL     1       0.040   5.353 -29.773  1.00  0.00     0.277 A 
HETATM   27  C   UNL     1      -0.862   7.496 -29.241  1.00  0.00     0.027 A 
HETATM   28  O   UNL     1       0.149   4.235 -30.232  1.00  0.00    -0.266 OA
HETATM   29  N   UNL     1       0.837   5.995 -28.851  1.00  0.00    -0.321 N 
HETATM   30  C   UNL     1       0.307   7.242 -28.527  1.00  0.00     0.048 A 
HETATM   31  H   UNL     1       1.668   5.582 -28.456  1.00  0.00     0.169 HD
HETATM   32  C   UNL     1       0.800   8.152 -27.618  1.00  0.00     0.030 A 
HETATM   33  C   UNL     1       0.077   9.340 -27.441  1.00  0.00     0.002 A 
HETATM   34  C   UNL     1      -1.105   9.590 -28.168  1.00  0.00     0.001 A 
HETATM   35  C   UNL     1      -1.591   8.657 -29.088  1.00  0.00     0.016 A 
ENDBRANCH  21  24
ENDBRANCH  19  20
ENDBRANCH   1  19
TORSDOF 6
ENDMDL
MODEL 3
REMARK VINA RESULT:      -9.7      1.822      5.506
REMARK  6 active torsions:
REMARK  status: ('A' for Active; 'I' for Inactive)
REMARK    1  A    between atoms: C_4  and  C_5 
REMARK    2  A    between atoms: N_7  and  C_8 
REMARK    3  A    between atoms: C_8  and  C_9 
REMARK    4  A    between atoms: C_9  and  C_10 
REMARK       I    between atoms: C_10  and  N_11 
REMARK    5  A    between atoms: N_11  and  N_12 
REMARK    6  A    between atoms: C_24  and  C_25 
ROOT
HETATM    1  C   UNL     1      -7.472   2.753 -33.849  1.00  0.00     0.161 C 
ENDROOT
BRANCH   1   2
HETATM    2  N   UNL     1      -8.547   1.807 -33.593  1.00  0.00    -0.268 N 
HETATM    3  N   UNL     1      -9.810   2.266 -33.618  1.00  0.00    -0.172 NA
HETATM    4  C   UNL     1     -10.585   1.185 -33.442  1.00  0.00     0.089 A 
HETATM    5  C   UNL     1      -9.774   0.027 -33.318  1.00  0.00     0.066 A 
HETATM    6  C   UNL     1      -8.460   0.446 -33.424  1.00  0.00     0.065 A 
BRANCH   4   7
HETATM    7  C   UNL     1     -12.051   1.280 -33.425  1.00  0.00    -0.006 A 
HETATM    8  C   UNL     1     -12.681   2.480 -33.059  1.00  0.00     0.014 A 
HETATM    9  C   UNL     1     -14.075   2.582 -33.039  1.00  0.00     0.001 A 
HETATM   10  C   UNL     1     -14.860   1.486 -33.385  1.00  0.00     0.000 A 
HETATM   11  C   UNL     1     -14.252   0.288 -33.754  1.00  0.00     0.001 A 
HETATM   12  C   UNL     1     -12.856   0.186 -33.773  1.00  0.00     0.014 A 
ENDBRANCH   4   7
BRANCH   6  13
HETATM   13  C   UNL     1      -7.240  -0.353 -33.460  1.00  0.00    -0.008 A 
HETATM   14  C   UNL     1      -6.951  -1.200 -34.536  1.00  0.00     0.014 A 
HETATM   15  C   UNL     1      -5.780  -1.962 -34.542  1.00  0.00     0.001 A 
HETATM   16  C   UNL     1      -4.882  -1.873 -33.479  1.00  0.00     0.000 A 
HETATM   17  C   UNL     1      -5.150  -1.017 -32.414  1.00  0.00     0.001 A 
HETATM   18  C   UNL     1      -6.322  -0.259 -32.405  1.00  0.00     0.014 A 
ENDBRANCH   6  13
ENDBRANCH   1   2
BRANCH   1  19
HETATM   19  C   UNL     1      -7.944   4.195 -33.831  1.00  0.00     0.126 C 
BRANCH  19  20
HETATM   20  C   UNL     1      -6.801   5.144 -33.557  1.00  0.00     0.239 C 
HETATM   21  N   UNL     1      -5.576   4.692 -34.012  1.00  0.00    -0.246 N 
HETATM   22  H   UNL     1      -5.511   3.866 -34.613  1.00  0.00     0.192 HD
HETATM   23  O   UNL     1      -6.995   6.202 -32.961  1.00  0.00    -0.272 OA
BRANCH  21  24
HETATM   24  N   UNL     1      -4.455   5.439 -33.799  1.00  0.00    -0.166 NA
HETATM   25  C   UNL     1      -3.632   5.008 -32.899  1.00  0.00     0.157 A 
HETATM   26  C   UNL     1      -3.757   3.784 -31.985  1.00  0.00     0.277 A 
HETATM   27  C   UNL     1      -2.372   5.646 -32.536  1.00  0.00     0.027 A 
HETATM   28  O   UNL     1      -4.712   3.036 -31.942  1.00  0.00    -0.266 OA
HETATM   29  N   UNL     1      -2.608   3.770 -31.225  1.00  0.00    -0.321 N 
HETATM   30  C   UNL     1      -1.802   4.863 -31.534  1.00  0.00     0.048 A 
HETATM   31  H   UNL     1      -2.417   3.071 -30.524  1.00  0.00     0.169 HD
HETATM   32  C   UNL     1      -0.599   5.208 -30.957  1.00  0.00     0.030 A 
HETATM   33  C   UNL     1       0.025   6.375 -31.419  1.00  0.00     0.002 A 
HETATM   34  C   UNL     1      -0.558   7.161 -32.436  1.00  0.00     0.001 A 
HETATM   35  C   UNL     1      -1.778   6.797 -33.011  1.00  0.00     0.016 A 
ENDBRANCH  21  24
ENDBRANCH  19  20
ENDBRANCH   1  19
TORSDOF 6
ENDMDL
MODEL 4
REMARK VINA RESULT:      -9.7      1.370      5.213
REMARK  6 active torsions:
REMARK  status: ('A' for Active; 'I' for Inactive)
REMARK    1  A    between atoms: C_4  and  C_5 
REMARK    2  A    between atoms: N_7  and  C_8 
REMARK    3  A    between atoms: C_8  and  C_9 
REMARK    4  A    between atoms: C_9  and  C_10 
REMARK       I    between atoms: C_10  and  N_11 
REMARK    5  A    between atoms: N_11  and  N_12 
REMARK    6  A    between atoms: C_24  and  C_25 
ROOT
HETATM    1  C   UNL     1      -7.347   0.166 -31.255  1.00  0.00     0.161 C 
ENDROOT
BRANCH   1   2
HETATM    2  N   UNL     1      -7.999   0.336 -32.544  1.00  0.00    -0.268 N 
HETATM    3  N   UNL     1      -8.981   1.250 -32.639  1.00  0.00    -0.172 NA
HETATM    4  C   UNL     1      -9.335   1.259 -33.933  1.00  0.00     0.089 A 
HETATM    5  C   UNL     1      -8.539   0.333 -34.655  1.00  0.00     0.066 A 
HETATM    6  C   UNL     1      -7.677  -0.249 -33.744  1.00  0.00     0.065 A 
BRANCH   4   7
HETATM    7  C   UNL     1     -10.385   2.153 -34.440  1.00  0.00    -0.006 A 
HETATM    8  C   UNL     1     -11.659   1.651 -34.747  1.00  0.00     0.014 A 
HETATM    9  C   UNL     1     -12.666   2.491 -35.231  1.00  0.00     0.001 A 
HETATM   10  C   UNL     1     -12.413   3.848 -35.414  1.00  0.00     0.000 A 
HETATM   11  C   UNL     1     -11.155   4.365 -35.111  1.00  0.00     0.001 A 
HETATM   12  C   UNL     1     -10.148   3.523 -34.628  1.00  0.00     0.014 A 
ENDBRANCH   4   7
BRANCH   6  13
HETATM   13  C   UNL     1      -6.590  -1.194 -33.980  1.00  0.00    -0.008 A 
HETATM   14  C   UNL     1      -6.826  -2.457 -34.536  1.00  0.00     0.014 A 
HETATM   15  C   UNL     1      -5.769  -3.347 -34.742  1.00  0.00     0.001 A 
HETATM   16  C   UNL     1      -4.467  -2.977 -34.409  1.00  0.00     0.000 A 
HETATM   17  C   UNL     1      -4.219  -1.715 -33.875  1.00  0.00     0.001 A 
HETATM   18  C   UNL     1      -5.276  -0.827 -33.663  1.00  0.00     0.014 A 
ENDBRANCH   6  13
ENDBRANCH   1   2
BRANCH   1  19
HETATM   19  C   UNL     1      -6.882   1.482 -30.657  1.00  0.00     0.126 C 
BRANCH  19  20
HETATM   20  C   UNL     1      -5.566   1.922 -31.253  1.00  0.00     0.239 C 
HETATM   21  N   UNL     1      -5.693   2.859 -32.262  1.00  0.00    -0.246 N 
HETATM   22  H   UNL     1      -6.592   3.309 -32.451  1.00  0.00     0.192 HD
HETATM   23  O   UNL     1      -4.506   1.441 -30.855  1.00  0.00    -0.272 OA
BRANCH  21  24
HETATM   24  N   UNL     1      -4.582   3.316 -32.908  1.00  0.00    -0.166 NA
HETATM   25  C   UNL     1      -4.230   4.537 -32.667  1.00  0.00     0.157 A 
HETATM   26  C   UNL     1      -4.919   5.581 -31.781  1.00  0.00     0.277 A 
HETATM   27  C   UNL     1      -3.067   5.206 -33.235  1.00  0.00     0.027 A 
HETATM   28  O   UNL     1      -5.967   5.417 -31.190  1.00  0.00    -0.266 OA
HETATM   29  N   UNL     1      -4.133   6.710 -31.859  1.00  0.00    -0.321 N 
HETATM   30  C   UNL     1      -3.057   6.500 -32.718  1.00  0.00     0.048 A 
HETATM   31  H   UNL     1      -4.348   7.568 -31.376  1.00  0.00     0.169 HD
HETATM   32  C   UNL     1      -2.082   7.404 -33.077  1.00  0.00     0.030 A 
HETATM   33  C   UNL     1      -1.104   6.970 -33.983  1.00  0.00     0.002 A 
HETATM   34  C   UNL     1      -1.120   5.659 -34.501  1.00  0.00     0.001 A 
HETATM   35  C   UNL     1      -2.116   4.753 -34.126  1.00  0.00     0.016 A 
ENDBRANCH  21  24
ENDBRANCH  19  20
ENDBRANCH   1  19
TORSDOF 6
ENDMDL
MODEL 5
REMARK VINA RESULT:      -9.6      1.381      2.301
REMARK  6 active torsions:
REMARK  status: ('A' for Active; 'I' for Inactive)
REMARK    1  A    between atoms: C_4  and  C_5 
REMARK    2  A    between atoms: N_7  and  C_8 
REMARK    3  A    between atoms: C_8  and  C_9 
REMARK    4  A    between atoms: C_9  and  C_10 
REMARK       I    between atoms: C_10  and  N_11 
REMARK    5  A    between atoms: N_11  and  N_12 
REMARK    6  A    between atoms: C_24  and  C_25 
ROOT
HETATM    1  C   UNL     1      -9.688   2.858 -31.656  1.00  0.00     0.161 C 
ENDROOT
BRANCH   1   2
HETATM    2  N   UNL     1      -9.101   1.772 -32.424  1.00  0.00    -0.268 N 
HETATM    3  N   UNL     1      -7.838   1.408 -32.138  1.00  0.00    -0.172 NA
HETATM    4  C   UNL     1      -7.589   0.347 -32.921  1.00  0.00     0.089 A 
HETATM    5  C   UNL     1      -8.735   0.043 -33.699  1.00  0.00     0.066 A 
HETATM    6  C   UNL     1      -9.705   0.969 -33.362  1.00  0.00     0.065 A 
BRANCH   4   7
HETATM    7  C   UNL     1      -6.297  -0.353 -32.884  1.00  0.00    -0.006 A 
HETATM    8  C   UNL     1      -5.915  -1.196 -33.939  1.00  0.00     0.014 A 
HETATM    9  C   UNL     1      -4.689  -1.867 -33.915  1.00  0.00     0.001 A 
HETATM   10  C   UNL     1      -3.824  -1.702 -32.836  1.00  0.00     0.000 A 
HETATM   11  C   UNL     1      -4.185  -0.865 -31.782  1.00  0.00     0.001 A 
HETATM   12  C   UNL     1      -5.413  -0.195 -31.806  1.00  0.00     0.014 A 
ENDBRANCH   4   7
BRANCH   6  13
HETATM   13  C   UNL     1     -11.095   1.047 -33.799  1.00  0.00    -0.008 A 
HETATM   14  C   UNL     1     -11.531   2.048 -34.674  1.00  0.00     0.014 A 
HETATM   15  C   UNL     1     -12.870   2.106 -35.070  1.00  0.00     0.001 A 
HETATM   16  C   UNL     1     -13.779   1.156 -34.606  1.00  0.00     0.000 A 
HETATM   17  C   UNL     1     -13.350   0.144 -33.751  1.00  0.00     0.001 A 
HETATM   18  C   UNL     1     -12.013   0.088 -33.351  1.00  0.00     0.014 A 
ENDBRANCH   6  13
ENDBRANCH   1   2
BRANCH   1  19
HETATM   19  C   UNL     1      -9.891   4.116 -32.482  1.00  0.00     0.126 C 
BRANCH  19  20
HETATM   20  C   UNL     1      -8.700   4.387 -33.371  1.00  0.00     0.239 C 
HETATM   21  N   UNL     1      -7.508   4.529 -32.683  1.00  0.00    -0.246 N 
HETATM   22  H   UNL     1      -7.447   4.306 -31.686  1.00  0.00     0.192 HD
HETATM   23  O   UNL     1      -8.837   4.485 -34.589  1.00  0.00    -0.272 OA
BRANCH  21  24
HETATM   24  N   UNL     1      -6.361   4.810 -33.365  1.00  0.00    -0.166 NA
HETATM   25  C   UNL     1      -5.251   4.671 -32.716  1.00  0.00     0.157 A 
HETATM   26  C   UNL     1      -5.034   4.276 -31.251  1.00  0.00     0.277 A 
HETATM   27  C   UNL     1      -3.920   4.899 -33.266  1.00  0.00     0.027 A 
HETATM   28  O   UNL     1      -5.915   4.074 -30.442  1.00  0.00    -0.266 OA
HETATM   29  N   UNL     1      -3.668   4.263 -31.069  1.00  0.00    -0.321 N 
HETATM   30  C   UNL     1      -3.014   4.639 -32.240  1.00  0.00     0.048 A 
HETATM   31  H   UNL     1      -3.229   4.040 -30.189  1.00  0.00     0.169 HD
HETATM   32  C   UNL     1      -1.657   4.779 -32.434  1.00  0.00     0.030 A 
HETATM   33  C   UNL     1      -1.228   5.194 -33.702  1.00  0.00     0.002 A 
HETATM   34  C   UNL     1      -2.152   5.454 -34.736  1.00  0.00     0.001 A 
HETATM   35  C   UNL     1      -3.525   5.306 -34.523  1.00  0.00     0.016 A 
ENDBRANCH  21  24
ENDBRANCH  19  20
ENDBRANCH   1  19
TORSDOF 6
ENDMDL
MODEL 6
REMARK VINA RESULT:      -9.6      1.853      5.677
REMARK  6 active torsions:
REMARK  status: ('A' for Active; 'I' for Inactive)
REMARK    1  A    between atoms: C_4  and  C_5 
REMARK    2  A    between atoms: N_7  and  C_8 
REMARK    3  A    between atoms: C_8  and  C_9 
REMARK    4  A    between atoms: C_9  and  C_10 
REMARK       I    between atoms: C_10  and  N_11 
REMARK    5  A    between atoms: N_11  and  N_12 
REMARK    6  A    between atoms: C_24  and  C_25 
ROOT
HETATM    1  C   UNL     1      -6.312   2.498 -33.090  1.00  0.00     0.161 C 
ENDROOT
BRANCH   1   2
HETATM    2  N   UNL     1      -7.445   1.611 -33.299  1.00  0.00    -0.268 N 
HETATM    3  N   UNL     1      -8.651   2.166 -33.508  1.00  0.00    -0.172 NA
HETATM    4  C   UNL     1      -9.477   1.138 -33.754  1.00  0.00     0.089 A 
HETATM    5  C   UNL     1      -8.755  -0.082 -33.707  1.00  0.00     0.066 A 
HETATM    6  C   UNL     1      -7.442   0.242 -33.419  1.00  0.00     0.065 A 
BRANCH   4   7
HETATM    7  C   UNL     1     -10.902   1.346 -34.048  1.00  0.00    -0.006 A 
HETATM    8  C   UNL     1     -11.317   2.452 -34.805  1.00  0.00     0.014 A 
HETATM    9  C   UNL     1     -12.670   2.661 -35.092  1.00  0.00     0.001 A 
HETATM   10  C   UNL     1     -13.627   1.764 -34.626  1.00  0.00     0.000 A 
HETATM   11  C   UNL     1     -13.233   0.658 -33.876  1.00  0.00     0.001 A 
HETATM   12  C   UNL     1     -11.880   0.450 -33.589  1.00  0.00     0.014 A 
ENDBRANCH   4   7
BRANCH   6  13
HETATM   13  C   UNL     1      -6.273  -0.629 -33.352  1.00  0.00    -0.008 A 
HETATM   14  C   UNL     1      -5.399  -0.597 -32.259  1.00  0.00     0.014 A 
HETATM   15  C   UNL     1      -4.281  -1.434 -32.224  1.00  0.00     0.001 A 
HETATM   16  C   UNL     1      -4.036  -2.319 -33.274  1.00  0.00     0.000 A 
HETATM   17  C   UNL     1      -4.910  -2.372 -34.355  1.00  0.00     0.001 A 
HETATM   18  C   UNL     1      -6.025  -1.532 -34.394  1.00  0.00     0.014 A 
ENDBRANCH   6  13
ENDBRANCH   1   2
BRANCH   1  19
HETATM   19  C   UNL     1      -6.241   3.610 -34.122  1.00  0.00     0.126 C 
BRANCH  19  20
HETATM   20  C   UNL     1      -4.939   4.370 -34.023  1.00  0.00     0.239 C 
HETATM   21  N   UNL     1      -4.085   3.892 -33.047  1.00  0.00    -0.246 N 
HETATM   22  H   UNL     1      -4.277   3.009 -32.566  1.00  0.00     0.192 HD
HETATM   23  O   UNL     1      -4.719   5.333 -34.755  1.00  0.00    -0.272 OA
BRANCH  21  24
HETATM   24  N   UNL     1      -2.888   4.510 -32.831  1.00  0.00    -0.166 NA
HETATM   25  C   UNL     1      -2.771   5.181 -31.731  1.00  0.00     0.157 A 
HETATM   26  C   UNL     1      -3.815   5.427 -30.637  1.00  0.00     0.277 A 
HETATM   27  C   UNL     1      -1.573   5.893 -31.303  1.00  0.00     0.027 A 
HETATM   28  O   UNL     1      -4.968   5.050 -30.670  1.00  0.00    -0.266 OA
HETATM   29  N   UNL     1      -3.178   6.190 -29.682  1.00  0.00    -0.321 N 
HETATM   30  C   UNL     1      -1.872   6.475 -30.073  1.00  0.00     0.048 A 
HETATM   31  H   UNL     1      -3.629   6.511 -28.839  1.00  0.00     0.169 HD
HETATM   32  C   UNL     1      -0.943   7.240 -29.401  1.00  0.00     0.030 A 
HETATM   33  C   UNL     1       0.310   7.408 -30.006  1.00  0.00     0.002 A 
HETATM   34  C   UNL     1       0.605   6.815 -31.251  1.00  0.00     0.001 A 
HETATM   35  C   UNL     1      -0.347   6.040 -31.918  1.00  0.00     0.016 A 
ENDBRANCH  21  24
ENDBRANCH  19  20
ENDBRANCH   1  19
TORSDOF 6
ENDMDL
MODEL 7
REMARK VINA RESULT:      -9.3      2.004      5.456
REMARK  6 active torsions:
REMARK  status: ('A' for Active; 'I' for Inactive)
REMARK    1  A    between atoms: C_4  and  C_5 
REMARK    2  A    between atoms: N_7  and  C_8 
REMARK    3  A    between atoms: C_8  and  C_9 
REMARK    4  A    between atoms: C_9  and  C_10 
REMARK       I    between atoms: C_10  and  N_11 
REMARK    5  A    between atoms: N_11  and  N_12 
REMARK    6  A    between atoms: C_24  and  C_25 
ROOT
HETATM    1  C   UNL     1      -7.000   2.528 -32.072  1.00  0.00     0.161 C 
ENDROOT
BRANCH   1   2
HETATM    2  N   UNL     1      -8.002   1.590 -32.552  1.00  0.00    -0.268 N 
HETATM    3  N   UNL     1      -9.253   2.046 -32.742  1.00  0.00    -0.172 NA
HETATM    4  C   UNL     1      -9.932   1.012 -33.262  1.00  0.00     0.089 A 
HETATM    5  C   UNL     1      -9.070  -0.105 -33.407  1.00  0.00     0.066 A 
HETATM    6  C   UNL     1      -7.826   0.287 -32.949  1.00  0.00     0.065 A 
BRANCH   4   7
HETATM    7  C   UNL     1     -11.351   1.126 -33.626  1.00  0.00    -0.006 A 
HETATM    8  C   UNL     1     -12.202   0.014 -33.524  1.00  0.00     0.014 A 
HETATM    9  C   UNL     1     -13.554   0.110 -33.867  1.00  0.00     0.001 A 
HETATM   10  C   UNL     1     -14.075   1.320 -34.317  1.00  0.00     0.000 A 
HETATM   11  C   UNL     1     -13.246   2.435 -34.421  1.00  0.00     0.001 A 
HETATM   12  C   UNL     1     -11.893   2.338 -34.078  1.00  0.00     0.014 A 
ENDBRANCH   4   7
BRANCH   6  13
HETATM   13  C   UNL     1      -6.566  -0.449 -32.965  1.00  0.00    -0.008 A 
HETATM   14  C   UNL     1      -5.710  -0.458 -31.858  1.00  0.00     0.014 A 
HETATM   15  C   UNL     1      -4.504  -1.162 -31.902  1.00  0.00     0.001 A 
HETATM   16  C   UNL     1      -4.152  -1.874 -33.048  1.00  0.00     0.000 A 
HETATM   17  C   UNL     1      -5.005  -1.888 -34.147  1.00  0.00     0.001 A 
HETATM   18  C   UNL     1      -6.208  -1.180 -34.106  1.00  0.00     0.014 A 
ENDBRANCH   6  13
ENDBRANCH   1   2
BRANCH   1  19
HETATM   19  C   UNL     1      -7.007   3.837 -32.841  1.00  0.00     0.126 C 
BRANCH  19  20
HETATM   20  C   UNL     1      -6.178   4.889 -32.142  1.00  0.00     0.239 C 
HETATM   21  N   UNL     1      -5.020   4.400 -31.567  1.00  0.00    -0.246 N 
HETATM   22  H   UNL     1      -4.703   3.445 -31.754  1.00  0.00     0.192 HD
HETATM   23  O   UNL     1      -6.558   6.058 -32.099  1.00  0.00    -0.272 OA
BRANCH  21  24
HETATM   24  N   UNL     1      -4.197   5.241 -30.876  1.00  0.00    -0.166 NA
HETATM   25  C   UNL     1      -2.962   5.288 -31.257  1.00  0.00     0.157 A 
HETATM   26  C   UNL     1      -2.263   4.488 -32.362  1.00  0.00     0.277 A 
HETATM   27  C   UNL     1      -1.932   6.134 -30.668  1.00  0.00     0.027 A 
HETATM   28  O   UNL     1      -2.781   3.622 -33.036  1.00  0.00    -0.266 OA
HETATM   29  N   UNL     1      -0.956   4.927 -32.366  1.00  0.00    -0.321 N 
HETATM   30  C   UNL     1      -0.755   5.879 -31.369  1.00  0.00     0.048 A 
HETATM   31  H   UNL     1      -0.254   4.567 -32.994  1.00  0.00     0.169 HD
HETATM   32  C   UNL     1       0.423   6.515 -31.042  1.00  0.00     0.030 A 
HETATM   33  C   UNL     1       0.388   7.425 -29.977  1.00  0.00     0.002 A 
HETATM   34  C   UNL     1      -0.807   7.679 -29.273  1.00  0.00     0.001 A 
HETATM   35  C   UNL     1      -1.993   7.026 -29.618  1.00  0.00     0.016 A 
ENDBRANCH  21  24
ENDBRANCH  19  20
ENDBRANCH   1  19
TORSDOF 6
ENDMDL
MODEL 8
REMARK VINA RESULT:      -9.3      3.665      9.448
REMARK  6 active torsions:
REMARK  status: ('A' for Active; 'I' for Inactive)
REMARK    1  A    between atoms: C_4  and  C_5 
REMARK    2  A    between atoms: N_7  and  C_8 
REMARK    3  A    between atoms: C_8  and  C_9 
REMARK    4  A    between atoms: C_9  and  C_10 
REMARK       I    between atoms: C_10  and  N_11 
REMARK    5  A    between atoms: N_11  and  N_12 
REMARK    6  A    between atoms: C_24  and  C_25 
ROOT
HETATM    1  C   UNL     1      -3.883   6.224 -29.945  1.00  0.00     0.161 C 
ENDROOT
BRANCH   1   2
HETATM    2  N   UNL     1      -2.517   6.721 -29.889  1.00  0.00    -0.268 N 
HETATM    3  N   UNL     1      -2.080   7.231 -28.724  1.00  0.00    -0.172 NA
HETATM    4  C   UNL     1      -0.787   7.525 -28.929  1.00  0.00     0.089 A 
HETATM    5  C   UNL     1      -0.417   7.173 -30.252  1.00  0.00     0.066 A 
HETATM    6  C   UNL     1      -1.545   6.650 -30.857  1.00  0.00     0.065 A 
BRANCH   4   7
HETATM    7  C   UNL     1       0.053   8.098 -27.866  1.00  0.00    -0.006 A 
HETATM    8  C   UNL     1      -0.158   9.413 -27.426  1.00  0.00     0.014 A 
HETATM    9  C   UNL     1       0.634   9.969 -26.416  1.00  0.00     0.001 A 
HETATM   10  C   UNL     1       1.648   9.215 -25.832  1.00  0.00     0.000 A 
HETATM   11  C   UNL     1       1.870   7.906 -26.254  1.00  0.00     0.001 A 
HETATM   12  C   UNL     1       1.077   7.351 -27.265  1.00  0.00     0.014 A 
ENDBRANCH   4   7
BRANCH   6  13
HETATM   13  C   UNL     1      -1.686   6.051 -32.180  1.00  0.00    -0.008 A 
HETATM   14  C   UNL     1      -1.433   6.783 -33.345  1.00  0.00     0.014 A 
HETATM   15  C   UNL     1      -1.585   6.189 -34.600  1.00  0.00     0.001 A 
HETATM   16  C   UNL     1      -1.976   4.855 -34.700  1.00  0.00     0.000 A 
HETATM   17  C   UNL     1      -2.210   4.112 -33.547  1.00  0.00     0.001 A 
HETATM   18  C   UNL     1      -2.064   4.706 -32.292  1.00  0.00     0.014 A 
ENDBRANCH   6  13
ENDBRANCH   1   2
BRANCH   1  19
HETATM   19  C   UNL     1      -4.752   7.008 -30.912  1.00  0.00     0.126 C 
BRANCH  19  20
HETATM   20  C   UNL     1      -5.199   6.147 -32.071  1.00  0.00     0.239 C 
HETATM   21  N   UNL     1      -5.768   4.946 -31.690  1.00  0.00    -0.246 N 
HETATM   22  H   UNL     1      -5.997   4.760 -30.710  1.00  0.00     0.192 HD
HETATM   23  O   UNL     1      -5.028   6.520 -33.230  1.00  0.00    -0.272 OA
BRANCH  21  24
HETATM   24  N   UNL     1      -6.184   4.060 -32.640  1.00  0.00    -0.166 NA
HETATM   25  C   UNL     1      -5.826   2.827 -32.481  1.00  0.00     0.157 A 
HETATM   26  C   UNL     1      -4.947   2.212 -31.387  1.00  0.00     0.277 A 
HETATM   27  C   UNL     1      -6.184   1.727 -33.368  1.00  0.00     0.027 A 
HETATM   28  O   UNL     1      -4.398   2.830 -30.499  1.00  0.00    -0.266 OA
HETATM   29  N   UNL     1      -4.889   0.865 -31.673  1.00  0.00    -0.321 N 
HETATM   30  C   UNL     1      -5.599   0.579 -32.837  1.00  0.00     0.048 A 
HETATM   31  H   UNL     1      -4.368   0.204 -31.117  1.00  0.00     0.169 HD
HETATM   32  C   UNL     1      -5.735  -0.644 -33.457  1.00  0.00     0.030 A 
HETATM   33  C   UNL     1      -6.483  -0.684 -34.641  1.00  0.00     0.002 A 
HETATM   34  C   UNL     1      -7.074   0.481 -35.172  1.00  0.00     0.001 A 
HETATM   35  C   UNL     1      -6.926   1.714 -34.530  1.00  0.00     0.016 A 
ENDBRANCH  21  24
ENDBRANCH  19  20
ENDBRANCH   1  19
TORSDOF 6
ENDMDL
MODEL 9
REMARK VINA RESULT:      -9.2      3.561      7.997
REMARK  6 active torsions:
REMARK  status: ('A' for Active; 'I' for Inactive)
REMARK    1  A    between atoms: C_4  and  C_5 
REMARK    2  A    between atoms: N_7  and  C_8 
REMARK    3  A    between atoms: C_8  and  C_9 
REMARK    4  A    between atoms: C_9  and  C_10 
REMARK       I    between atoms: C_10  and  N_11 
REMARK    5  A    between atoms: N_11  and  N_12 
REMARK    6  A    between atoms: C_24  and  C_25 
ROOT
HETATM    1  C   UNL     1      -8.933   1.508 -34.394  1.00  0.00     0.161 C 
ENDROOT
BRANCH   1   2
HETATM    2  N   UNL     1      -7.714   0.789 -34.060  1.00  0.00    -0.268 N 
HETATM    3  N   UNL     1      -7.647  -0.518 -34.370  1.00  0.00    -0.172 NA
HETATM    4  C   UNL     1      -6.404  -0.898 -34.038  1.00  0.00     0.089 A 
HETATM    5  C   UNL     1      -5.683   0.209 -33.522  1.00  0.00     0.066 A 
HETATM    6  C   UNL     1      -6.542   1.292 -33.549  1.00  0.00     0.065 A 
BRANCH   4   7
HETATM    7  C   UNL     1      -5.937  -2.277 -34.245  1.00  0.00    -0.006 A 
HETATM    8  C   UNL     1      -4.610  -2.629 -33.954  1.00  0.00     0.014 A 
HETATM    9  C   UNL     1      -4.154  -3.937 -34.147  1.00  0.00     0.001 A 
HETATM   10  C   UNL     1      -5.021  -4.912 -34.632  1.00  0.00     0.000 A 
HETATM   11  C   UNL     1      -6.343  -4.582 -34.923  1.00  0.00     0.001 A 
HETATM   12  C   UNL     1      -6.798  -3.272 -34.731  1.00  0.00     0.014 A 
ENDBRANCH   4   7
BRANCH   6  13
HETATM   13  C   UNL     1      -6.274   2.688 -33.218  1.00  0.00    -0.008 A 
HETATM   14  C   UNL     1      -6.369   3.161 -31.905  1.00  0.00     0.014 A 
HETATM   15  C   UNL     1      -6.116   4.504 -31.616  1.00  0.00     0.001 A 
HETATM   16  C   UNL     1      -5.752   5.382 -32.636  1.00  0.00     0.000 A 
HETATM   17  C   UNL     1      -5.634   4.917 -33.943  1.00  0.00     0.001 A 
HETATM   18  C   UNL     1      -5.892   3.576 -34.233  1.00  0.00     0.014 A 
ENDBRANCH   6  13
ENDBRANCH   1   2
BRANCH   1  19
HETATM   19  C   UNL     1     -10.113   1.090 -33.534  1.00  0.00     0.126 C 
BRANCH  19  20
HETATM   20  C   UNL     1     -10.816   2.290 -32.946  1.00  0.00     0.239 C 
HETATM   21  N   UNL     1     -12.189   2.149 -32.859  1.00  0.00    -0.246 N 
HETATM   22  H   UNL     1     -12.637   1.246 -33.034  1.00  0.00     0.192 HD
HETATM   23  O   UNL     1     -10.178   3.287 -32.610  1.00  0.00    -0.272 OA
BRANCH  21  24
HETATM   24  N   UNL     1     -12.948   3.175 -32.375  1.00  0.00    -0.166 NA
HETATM   25  C   UNL     1     -14.230   3.009 -32.397  1.00  0.00     0.157 A 
HETATM   26  C   UNL     1     -15.040   1.827 -32.941  1.00  0.00     0.277 A 
HETATM   27  C   UNL     1     -15.212   3.970 -31.909  1.00  0.00     0.027 A 
HETATM   28  O   UNL     1     -14.574   0.854 -33.496  1.00  0.00    -0.266 OA
HETATM   29  N   UNL     1     -16.361   2.145 -32.710  1.00  0.00    -0.321 N 
HETATM   30  C   UNL     1     -16.466   3.402 -32.119  1.00  0.00     0.048 A 
HETATM   31  H   UNL     1     -17.128   1.546 -32.972  1.00  0.00     0.169 HD
HETATM   32  C   UNL     1     -17.620   4.074 -31.777  1.00  0.00     0.030 A 
HETATM   33  C   UNL     1     -17.478   5.348 -31.212  1.00  0.00     0.002 A 
HETATM   34  C   UNL     1     -16.204   5.916 -31.001  1.00  0.00     0.001 A 
HETATM   35  C   UNL     1     -15.044   5.221 -31.353  1.00  0.00     0.016 A 
ENDBRANCH  21  24
ENDBRANCH  19  20
ENDBRANCH   1  19
TORSDOF 6
ENDMDL
MODEL 10
REMARK VINA RESULT:      -9.2      2.342      3.572
REMARK  6 active torsions:
REMARK  status: ('A' for Active; 'I' for Inactive)
REMARK    1  A    between atoms: C_4  and  C_5 
REMARK    2  A    between atoms: N_7  and  C_8 
REMARK    3  A    between atoms: C_8  and  C_9 
REMARK    4  A    between atoms: C_9  and  C_10 
REMARK       I    between atoms: C_10  and  N_11 
REMARK    5  A    between atoms: N_11  and  N_12 
REMARK    6  A    between atoms: C_24  and  C_25 
ROOT
HETATM    1  C   UNL     1      -5.317   2.275 -32.848  1.00  0.00     0.161 C 
ENDROOT
BRANCH   1   2
HETATM    2  N   UNL     1      -6.077   1.082 -33.187  1.00  0.00    -0.268 N 
HETATM    3  N   UNL     1      -5.396  -0.012 -33.570  1.00  0.00    -0.172 NA
HETATM    4  C   UNL     1      -6.322  -0.969 -33.732  1.00  0.00     0.089 A 
HETATM    5  C   UNL     1      -7.607  -0.451 -33.425  1.00  0.00     0.066 A 
HETATM    6  C   UNL     1      -7.430   0.873 -33.069  1.00  0.00     0.065 A 
BRANCH   4   7
HETATM    7  C   UNL     1      -5.960  -2.334 -34.139  1.00  0.00    -0.006 A 
HETATM    8  C   UNL     1      -6.917  -3.179 -34.721  1.00  0.00     0.014 A 
HETATM    9  C   UNL     1      -6.584  -4.480 -35.112  1.00  0.00     0.001 A 
HETATM   10  C   UNL     1      -5.288  -4.953 -34.928  1.00  0.00     0.000 A 
HETATM   11  C   UNL     1      -4.324  -4.127 -34.355  1.00  0.00     0.001 A 
HETATM   12  C   UNL     1      -4.658  -2.826 -33.963  1.00  0.00     0.014 A 
ENDBRANCH   4   7
BRANCH   6  13
HETATM   13  C   UNL     1      -8.412   1.832 -32.575  1.00  0.00    -0.008 A 
HETATM   14  C   UNL     1      -8.501   2.153 -31.216  1.00  0.00     0.014 A 
HETATM   15  C   UNL     1      -9.457   3.068 -30.767  1.00  0.00     0.001 A 
HETATM   16  C   UNL     1     -10.321   3.679 -31.674  1.00  0.00     0.000 A 
HETATM   17  C   UNL     1     -10.227   3.382 -33.031  1.00  0.00     0.001 A 
HETATM   18  C   UNL     1      -9.275   2.464 -33.480  1.00  0.00     0.014 A 
ENDBRANCH   6  13
ENDBRANCH   1   2
BRANCH   1  19
HETATM   19  C   UNL     1      -5.726   3.483 -33.671  1.00  0.00     0.126 C 
BRANCH  19  20
HETATM   20  C   UNL     1      -5.120   4.753 -33.122  1.00  0.00     0.239 C 
HETATM   21  N   UNL     1      -4.774   4.676 -31.785  1.00  0.00    -0.246 N 
HETATM   22  H   UNL     1      -4.790   3.781 -31.288  1.00  0.00     0.192 HD
HETATM   23  O   UNL     1      -4.988   5.744 -33.837  1.00  0.00    -0.272 OA
BRANCH  21  24
HETATM   24  N   UNL     1      -4.246   5.765 -31.157  1.00  0.00    -0.166 NA
HETATM   25  C   UNL     1      -2.990   5.707 -30.851  1.00  0.00     0.157 A 
HETATM   26  C   UNL     1      -2.001   4.554 -31.051  1.00  0.00     0.277 A 
HETATM   27  C   UNL     1      -2.233   6.769 -30.199  1.00  0.00     0.027 A 
HETATM   28  O   UNL     1      -2.280   3.462 -31.503  1.00  0.00    -0.266 OA
HETATM   29  N   UNL     1      -0.796   5.011 -30.565  1.00  0.00    -0.321 N 
HETATM   30  C   UNL     1      -0.929   6.300 -30.055  1.00  0.00     0.048 A 
HETATM   31  H   UNL     1       0.046   4.455 -30.563  1.00  0.00     0.169 HD
HETATM   32  C   UNL     1       0.043   7.068 -29.452  1.00  0.00     0.030 A 
HETATM   33  C   UNL     1      -0.334   8.337 -28.991  1.00  0.00     0.002 A 
HETATM   34  C   UNL     1      -1.656   8.805 -29.142  1.00  0.00     0.001 A 
HETATM   35  C   UNL     1      -2.630   8.014 -29.756  1.00  0.00     0.016 A 
ENDBRANCH  21  24
ENDBRANCH  19  20
ENDBRANCH   1  19
TORSDOF 6
ENDMDL
