MODEL 1
REMARK VINA RESULT:      -8.0      0.000      0.000
REMARK  6 active torsions:
REMARK  status: ('A' for Active; 'I' for Inactive)
REMARK    1  A    between atoms: C_4  and  C_5 
REMARK    2  A    between atoms: C_5  and  N_6 
REMARK       I    between atoms: N_6  and  C_7 
REMARK       I    between atoms: C_7  and  N_8 
REMARK    3  A    between atoms: N_8  and  C_9 
REMARK    4  A    between atoms: C_9  and  C_10 
REMARK    5  A    between atoms: C_12  and  O_13 
REMARK    6  A    between atoms: O_13  and  C_14 
ROOT
HETATM    1  N   UNL     1      -6.149   0.809 -32.829  1.00  0.00    -0.333 N 
HETATM    2  C   UNL     1      -5.469   1.182 -31.718  1.00  0.00     0.317 C 
HETATM    3  N   UNL     1      -4.764   2.336 -31.805  1.00  0.00    -0.339 N 
HETATM    4  O   UNL     1      -5.475   0.550 -30.667  1.00  0.00    -0.247 OA
HETATM    5  H   UNL     1      -5.824   1.148 -33.722  1.00  0.00     0.165 HD
HETATM    6  H   UNL     1      -4.269   2.562 -30.952  1.00  0.00     0.164 HD
ENDROOT
BRANCH   3   7
HETATM    7  C   UNL     1      -4.767   3.318 -32.866  1.00  0.00     0.163 C 
BRANCH   7   8
HETATM    8  C   UNL     1      -3.475   4.082 -33.017  1.00  0.00    -0.035 A 
HETATM    9  C   UNL     1      -2.464   4.086 -32.051  1.00  0.00     0.066 A 
HETATM   10  C   UNL     1      -1.329   4.850 -32.273  1.00  0.00     0.164 A 
HETATM   11  N   UNL     1      -1.121   5.591 -33.380  1.00  0.00    -0.237 NA
HETATM   12  C   UNL     1      -2.096   5.568 -34.308  1.00  0.00     0.120 A 
HETATM   13  C   UNL     1      -3.272   4.842 -34.175  1.00  0.00     0.028 A 
BRANCH  10  14
HETATM   14  O   UNL     1      -0.369   4.836 -31.279  1.00  0.00    -0.329 OA
BRANCH  14  15
HETATM   15  C   UNL     1      -0.506   5.844 -30.255  1.00  0.00     0.130 C 
HETATM   16  C   UNL     1       0.357   5.660 -28.977  1.00  0.00     0.032 C 
HETATM   17  C   UNL     1       0.603   7.178 -28.996  1.00  0.00     0.005 C 
HETATM   18  C   UNL     1       0.309   7.140 -30.506  1.00  0.00     0.032 C 
ENDBRANCH  14  15
ENDBRANCH  10  14
ENDBRANCH   7   8
ENDBRANCH   3   7
BRANCH   1  19
HETATM   19  C   UNL     1      -6.943  -0.405 -32.870  1.00  0.00     0.139 C 
HETATM   20  C   UNL     1      -8.287  -0.159 -33.550  1.00  0.00     0.039 C 
BRANCH  19  21
HETATM   21  C   UNL     1      -6.168  -1.461 -33.598  1.00  0.00     0.075 A 
HETATM   22  O   UNL     1      -6.875  -2.494 -34.149  1.00  0.00    -0.318 OA
HETATM   23  C   UNL     1      -5.977  -3.314 -34.762  1.00  0.00     0.049 A 
HETATM   24  C   UNL     1      -6.525  -4.506 -35.440  1.00  0.00     0.076 C 
HETATM   25  C   UNL     1      -4.701  -2.822 -34.605  1.00  0.00     0.035 A 
HETATM   26  C   UNL     1      -4.822  -1.626 -33.858  1.00  0.00     0.037 A 
ENDBRANCH  19  21
ENDBRANCH   1  19
TORSDOF 6
ENDMDL
MODEL 2
REMARK VINA RESULT:      -7.9      2.227      3.214
REMARK  6 active torsions:
REMARK  status: ('A' for Active; 'I' for Inactive)
REMARK    1  A    between atoms: C_4  and  C_5 
REMARK    2  A    between atoms: C_5  and  N_6 
REMARK       I    between atoms: N_6  and  C_7 
REMARK       I    between atoms: C_7  and  N_8 
REMARK    3  A    between atoms: N_8  and  C_9 
REMARK    4  A    between atoms: C_9  and  C_10 
REMARK    5  A    between atoms: C_12  and  O_13 
REMARK    6  A    between atoms: O_13  and  C_14 
ROOT
HETATM    1  N   UNL     1      -6.938   0.127 -32.428  1.00  0.00    -0.333 N 
HETATM    2  C   UNL     1      -7.855   0.647 -31.577  1.00  0.00     0.317 C 
HETATM    3  N   UNL     1      -7.388   1.073 -30.378  1.00  0.00    -0.339 N 
HETATM    4  O   UNL     1      -9.048   0.760 -31.841  1.00  0.00    -0.247 OA
HETATM    5  H   UNL     1      -6.093  -0.263 -32.037  1.00  0.00     0.165 HD
HETATM    6  H   UNL     1      -8.115   1.443 -29.780  1.00  0.00     0.164 HD
ENDROOT
BRANCH   3   7
HETATM    7  C   UNL     1      -6.017   1.203 -29.939  1.00  0.00     0.163 C 
BRANCH   7   8
HETATM    8  C   UNL     1      -5.351   2.496 -30.338  1.00  0.00    -0.035 A 
HETATM    9  C   UNL     1      -4.270   2.565 -31.223  1.00  0.00     0.066 A 
HETATM   10  C   UNL     1      -3.708   3.803 -31.498  1.00  0.00     0.164 A 
HETATM   11  N   UNL     1      -4.147   4.966 -30.975  1.00  0.00    -0.237 NA
HETATM   12  C   UNL     1      -5.197   4.886 -30.135  1.00  0.00     0.120 A 
HETATM   13  C   UNL     1      -5.822   3.696 -29.791  1.00  0.00     0.028 A 
BRANCH  10  14
HETATM   14  O   UNL     1      -2.630   3.815 -32.362  1.00  0.00    -0.329 OA
BRANCH  14  15
HETATM   15  C   UNL     1      -2.413   5.046 -33.084  1.00  0.00     0.130 C 
HETATM   16  C   UNL     1      -0.998   5.677 -32.974  1.00  0.00     0.032 C 
HETATM   17  C   UNL     1      -1.099   6.017 -34.470  1.00  0.00     0.005 C 
HETATM   18  C   UNL     1      -2.115   4.868 -34.596  1.00  0.00     0.032 C 
ENDBRANCH  14  15
ENDBRANCH  10  14
ENDBRANCH   7   8
ENDBRANCH   3   7
BRANCH   1  19
HETATM   19  C   UNL     1      -7.306  -0.366 -33.743  1.00  0.00     0.139 C 
HETATM   20  C   UNL     1      -7.240   0.749 -34.784  1.00  0.00     0.039 C 
BRANCH  19  21
HETATM   21  C   UNL     1      -6.383  -1.487 -34.111  1.00  0.00     0.075 A 
HETATM   22  O   UNL     1      -6.941  -2.607 -34.665  1.00  0.00    -0.318 OA
HETATM   23  C   UNL     1      -5.924  -3.475 -34.925  1.00  0.00     0.049 A 
HETATM   24  C   UNL     1      -6.298  -4.765 -35.540  1.00  0.00     0.076 C 
HETATM   25  C   UNL     1      -4.721  -2.928 -34.538  1.00  0.00     0.035 A 
HETATM   26  C   UNL     1      -5.014  -1.646 -34.017  1.00  0.00     0.037 A 
ENDBRANCH  19  21
ENDBRANCH   1  19
TORSDOF 6
ENDMDL
MODEL 3
REMARK VINA RESULT:      -7.9      1.183      1.348
REMARK  6 active torsions:
REMARK  status: ('A' for Active; 'I' for Inactive)
REMARK    1  A    between atoms: C_4  and  C_5 
REMARK    2  A    between atoms: C_5  and  N_6 
REMARK       I    between atoms: N_6  and  C_7 
REMARK       I    between atoms: C_7  and  N_8 
REMARK    3  A    between atoms: N_8  and  C_9 
REMARK    4  A    between atoms: C_9  and  C_10 
REMARK    5  A    between atoms: C_12  and  O_13 
REMARK    6  A    between atoms: O_13  and  C_14 
ROOT
HETATM    1  N   UNL     1      -6.672   1.782 -33.678  1.00  0.00    -0.333 N 
HETATM    2  C   UNL     1      -6.663   2.663 -32.649  1.00  0.00     0.317 C 
HETATM    3  N   UNL     1      -5.927   3.787 -32.827  1.00  0.00    -0.339 N 
HETATM    4  O   UNL     1      -7.284   2.501 -31.603  1.00  0.00    -0.247 OA
HETATM    5  H   UNL     1      -5.891   1.790 -34.318  1.00  0.00     0.165 HD
HETATM    6  H   UNL     1      -5.948   4.405 -32.027  1.00  0.00     0.164 HD
ENDROOT
BRANCH   3   7
HETATM    7  C   UNL     1      -5.279   4.260 -34.030  1.00  0.00     0.163 C 
BRANCH   7   8
HETATM    8  C   UNL     1      -3.821   4.606 -33.862  1.00  0.00    -0.035 A 
HETATM    9  C   UNL     1      -3.102   4.368 -32.685  1.00  0.00     0.066 A 
HETATM   10  C   UNL     1      -1.772   4.756 -32.623  1.00  0.00     0.164 A 
HETATM   11  N   UNL     1      -1.107   5.343 -33.638  1.00  0.00    -0.237 NA
HETATM   12  C   UNL     1      -1.807   5.553 -34.770  1.00  0.00     0.120 A 
HETATM   13  C   UNL     1      -3.142   5.209 -34.928  1.00  0.00     0.028 A 
BRANCH  10  14
HETATM   14  O   UNL     1      -1.113   4.517 -31.432  1.00  0.00    -0.329 OA
BRANCH  14  15
HETATM   15  C   UNL     1      -0.140   5.509 -31.039  1.00  0.00     0.130 C 
HETATM   16  C   UNL     1      -0.697   6.846 -30.478  1.00  0.00     0.032 C 
HETATM   17  C   UNL     1       0.436   6.812 -29.439  1.00  0.00     0.005 C 
HETATM   18  C   UNL     1       0.484   5.286 -29.637  1.00  0.00     0.032 C 
ENDBRANCH  14  15
ENDBRANCH  10  14
ENDBRANCH   7   8
ENDBRANCH   3   7
BRANCH   1  19
HETATM   19  C   UNL     1      -7.419   0.539 -33.616  1.00  0.00     0.139 C 
HETATM   20  C   UNL     1      -8.530   0.515 -34.663  1.00  0.00     0.039 C 
BRANCH  19  21
HETATM   21  C   UNL     1      -6.471  -0.602 -33.825  1.00  0.00     0.075 A 
HETATM   22  O   UNL     1      -6.974  -1.744 -34.388  1.00  0.00    -0.318 OA
HETATM   23  C   UNL     1      -5.943  -2.627 -34.491  1.00  0.00     0.049 A 
HETATM   24  C   UNL     1      -6.256  -3.942 -35.087  1.00  0.00     0.076 C 
HETATM   25  C   UNL     1      -4.786  -2.069 -33.995  1.00  0.00     0.035 A 
HETATM   26  C   UNL     1      -5.124  -0.763 -33.569  1.00  0.00     0.037 A 
ENDBRANCH  19  21
ENDBRANCH   1  19
TORSDOF 6
ENDMDL
MODEL 4
REMARK VINA RESULT:      -7.6      2.041      2.408
REMARK  6 active torsions:
REMARK  status: ('A' for Active; 'I' for Inactive)
REMARK    1  A    between atoms: C_4  and  C_5 
REMARK    2  A    between atoms: C_5  and  N_6 
REMARK       I    between atoms: N_6  and  C_7 
REMARK       I    between atoms: C_7  and  N_8 
REMARK    3  A    between atoms: N_8  and  C_9 
REMARK    4  A    between atoms: C_9  and  C_10 
REMARK    5  A    between atoms: C_12  and  O_13 
REMARK    6  A    between atoms: O_13  and  C_14 
ROOT
HETATM    1  N   UNL     1      -5.213   1.533 -32.078  1.00  0.00    -0.333 N 
HETATM    2  C   UNL     1      -3.863   1.577 -31.972  1.00  0.00     0.317 C 
HETATM    3  N   UNL     1      -3.267   2.726 -32.377  1.00  0.00    -0.339 N 
HETATM    4  O   UNL     1      -3.180   0.661 -31.528  1.00  0.00    -0.247 OA
HETATM    5  H   UNL     1      -5.658   2.132 -32.758  1.00  0.00     0.165 HD
HETATM    6  H   UNL     1      -2.260   2.702 -32.285  1.00  0.00     0.164 HD
ENDROOT
BRANCH   3   7
HETATM    7  C   UNL     1      -3.883   3.979 -32.752  1.00  0.00     0.163 C 
BRANCH   7   8
HETATM    8  C   UNL     1      -2.917   5.037 -33.221  1.00  0.00    -0.035 A 
HETATM    9  C   UNL     1      -2.838   6.314 -32.656  1.00  0.00     0.066 A 
HETATM   10  C   UNL     1      -1.936   7.225 -33.185  1.00  0.00     0.164 A 
HETATM   11  N   UNL     1      -1.106   6.958 -34.213  1.00  0.00    -0.237 NA
HETATM   12  C   UNL     1      -1.183   5.721 -34.739  1.00  0.00     0.120 A 
HETATM   13  C   UNL     1      -2.057   4.742 -34.286  1.00  0.00     0.028 A 
BRANCH  10  14
HETATM   14  O   UNL     1      -1.911   8.479 -32.605  1.00  0.00    -0.329 OA
BRANCH  14  15
HETATM   15  C   UNL     1      -2.448   8.566 -31.267  1.00  0.00     0.130 C 
HETATM   16  C   UNL     1      -1.487   8.191 -30.106  1.00  0.00     0.032 C 
HETATM   17  C   UNL     1      -2.078   9.370 -29.315  1.00  0.00     0.005 C 
HETATM   18  C   UNL     1      -2.466   9.996 -30.667  1.00  0.00     0.032 C 
ENDBRANCH  14  15
ENDBRANCH  10  14
ENDBRANCH   7   8
ENDBRANCH   3   7
BRANCH   1  19
HETATM   19  C   UNL     1      -5.974   0.362 -31.680  1.00  0.00     0.139 C 
HETATM   20  C   UNL     1      -7.277   0.763 -30.992  1.00  0.00     0.039 C 
BRANCH  19  21
HETATM   21  C   UNL     1      -6.253  -0.465 -32.898  1.00  0.00     0.075 A 
HETATM   22  O   UNL     1      -5.401  -1.502 -33.164  1.00  0.00    -0.318 OA
HETATM   23  C   UNL     1      -5.851  -2.111 -34.296  1.00  0.00     0.049 A 
HETATM   24  C   UNL     1      -5.079  -3.277 -34.771  1.00  0.00     0.076 C 
HETATM   25  C   UNL     1      -6.979  -1.473 -34.763  1.00  0.00     0.035 A 
HETATM   26  C   UNL     1      -7.241  -0.414 -33.861  1.00  0.00     0.037 A 
ENDBRANCH  19  21
ENDBRANCH   1  19
TORSDOF 6
ENDMDL
MODEL 5
REMARK VINA RESULT:      -7.6      1.596      9.075
REMARK  6 active torsions:
REMARK  status: ('A' for Active; 'I' for Inactive)
REMARK    1  A    between atoms: C_4  and  C_5 
REMARK    2  A    between atoms: C_5  and  N_6 
REMARK       I    between atoms: N_6  and  C_7 
REMARK       I    between atoms: C_7  and  N_8 
REMARK    3  A    between atoms: N_8  and  C_9 
REMARK    4  A    between atoms: C_9  and  C_10 
REMARK    5  A    between atoms: C_12  and  O_13 
REMARK    6  A    between atoms: O_13  and  C_14 
ROOT
HETATM    1  N   UNL     1      -3.207   4.259 -33.196  1.00  0.00    -0.333 N 
HETATM    2  C   UNL     1      -3.455   3.414 -32.166  1.00  0.00     0.317 C 
HETATM    3  N   UNL     1      -4.744   3.033 -31.999  1.00  0.00    -0.339 N 
HETATM    4  O   UNL     1      -2.589   2.981 -31.412  1.00  0.00    -0.247 OA
HETATM    5  H   UNL     1      -3.963   4.841 -33.527  1.00  0.00     0.165 HD
HETATM    6  H   UNL     1      -4.875   2.411 -31.212  1.00  0.00     0.164 HD
ENDROOT
BRANCH   3   7
HETATM    7  C   UNL     1      -5.875   3.270 -32.869  1.00  0.00     0.163 C 
BRANCH   7   8
HETATM    8  C   UNL     1      -6.576   2.021 -33.339  1.00  0.00    -0.035 A 
HETATM    9  C   UNL     1      -6.039   0.736 -33.202  1.00  0.00     0.066 A 
HETATM   10  C   UNL     1      -6.752  -0.344 -33.701  1.00  0.00     0.164 A 
HETATM   11  N   UNL     1      -7.952  -0.244 -34.306  1.00  0.00    -0.237 NA
HETATM   12  C   UNL     1      -8.464   0.997 -34.419  1.00  0.00     0.120 A 
HETATM   13  C   UNL     1      -7.825   2.141 -33.961  1.00  0.00     0.028 A 
BRANCH  10  14
HETATM   14  O   UNL     1      -6.169  -1.589 -33.558  1.00  0.00    -0.329 OA
BRANCH  14  15
HETATM   15  C   UNL     1      -6.237  -2.454 -34.712  1.00  0.00     0.130 C 
HETATM   16  C   UNL     1      -5.025  -3.395 -34.948  1.00  0.00     0.032 C 
HETATM   17  C   UNL     1      -6.029  -4.489 -35.349  1.00  0.00     0.005 C 
HETATM   18  C   UNL     1      -7.079  -3.741 -34.509  1.00  0.00     0.032 C 
ENDBRANCH  14  15
ENDBRANCH  10  14
ENDBRANCH   7   8
ENDBRANCH   3   7
BRANCH   1  19
HETATM   19  C   UNL     1      -1.870   4.744 -33.484  1.00  0.00     0.139 C 
HETATM   20  C   UNL     1      -1.711   5.065 -34.969  1.00  0.00     0.039 C 
BRANCH  19  21
HETATM   21  C   UNL     1      -1.610   5.961 -32.650  1.00  0.00     0.075 A 
HETATM   22  O   UNL     1      -0.695   5.849 -31.639  1.00  0.00    -0.318 OA
HETATM   23  C   UNL     1      -0.615   7.065 -31.033  1.00  0.00     0.049 A 
HETATM   24  C   UNL     1       0.330   7.181 -29.904  1.00  0.00     0.076 C 
HETATM   25  C   UNL     1      -1.474   7.955 -31.638  1.00  0.00     0.035 A 
HETATM   26  C   UNL     1      -2.113   7.246 -32.683  1.00  0.00     0.037 A 
ENDBRANCH  19  21
ENDBRANCH   1  19
TORSDOF 6
ENDMDL
MODEL 6
REMARK VINA RESULT:      -7.3      5.252      8.625
REMARK  6 active torsions:
REMARK  status: ('A' for Active; 'I' for Inactive)
REMARK    1  A    between atoms: C_4  and  C_5 
REMARK    2  A    between atoms: C_5  and  N_6 
REMARK       I    between atoms: N_6  and  C_7 
REMARK       I    between atoms: C_7  and  N_8 
REMARK    3  A    between atoms: N_8  and  C_9 
REMARK    4  A    between atoms: C_9  and  C_10 
REMARK    5  A    between atoms: C_12  and  O_13 
REMARK    6  A    between atoms: O_13  and  C_14 
ROOT
HETATM    1  N   UNL     1      -6.982   0.116 -33.122  1.00  0.00    -0.333 N 
HETATM    2  C   UNL     1      -7.318   1.206 -33.854  1.00  0.00     0.317 C 
HETATM    3  N   UNL     1      -8.643   1.409 -34.054  1.00  0.00    -0.339 N 
HETATM    4  O   UNL     1      -6.503   1.997 -34.317  1.00  0.00    -0.247 OA
HETATM    5  H   UNL     1      -7.632  -0.655 -33.090  1.00  0.00     0.165 HD
HETATM    6  H   UNL     1      -8.837   2.229 -34.614  1.00  0.00     0.164 HD
ENDROOT
BRANCH   3   7
HETATM    7  C   UNL     1      -9.762   0.718 -33.454  1.00  0.00     0.163 C 
BRANCH   7   8
HETATM    8  C   UNL     1     -11.111   1.128 -33.990  1.00  0.00    -0.035 A 
HETATM    9  C   UNL     1     -11.313   2.258 -34.789  1.00  0.00     0.066 A 
HETATM   10  C   UNL     1     -12.601   2.564 -35.201  1.00  0.00     0.164 A 
HETATM   11  N   UNL     1     -13.689   1.830 -34.894  1.00  0.00    -0.237 NA
HETATM   12  C   UNL     1     -13.478   0.737 -34.136  1.00  0.00     0.120 A 
HETATM   13  C   UNL     1     -12.230   0.351 -33.667  1.00  0.00     0.028 A 
BRANCH  10  14
HETATM   14  O   UNL     1     -12.750   3.702 -35.972  1.00  0.00    -0.329 OA
BRANCH  14  15
HETATM   15  C   UNL     1     -12.771   4.954 -35.252  1.00  0.00     0.130 C 
HETATM   16  C   UNL     1     -11.470   5.802 -35.294  1.00  0.00     0.032 C 
HETATM   17  C   UNL     1     -12.360   7.049 -35.434  1.00  0.00     0.005 C 
HETATM   18  C   UNL     1     -13.450   6.126 -36.007  1.00  0.00     0.032 C 
ENDBRANCH  14  15
ENDBRANCH  10  14
ENDBRANCH   7   8
ENDBRANCH   3   7
BRANCH   1  19
HETATM   19  C   UNL     1      -5.598  -0.217 -32.835  1.00  0.00     0.139 C 
HETATM   20  C   UNL     1      -5.356  -0.302 -31.330  1.00  0.00     0.039 C 
BRANCH  19  21
HETATM   21  C   UNL     1      -5.272  -1.520 -33.497  1.00  0.00     0.075 A 
HETATM   22  O   UNL     1      -6.307  -2.222 -34.052  1.00  0.00    -0.318 OA
HETATM   23  C   UNL     1      -5.778  -3.352 -34.599  1.00  0.00     0.049 A 
HETATM   24  C   UNL     1      -6.724  -4.267 -35.269  1.00  0.00     0.076 C 
HETATM   25  C   UNL     1      -4.417  -3.386 -34.396  1.00  0.00     0.035 A 
HETATM   26  C   UNL     1      -4.088  -2.205 -33.689  1.00  0.00     0.037 A 
ENDBRANCH  19  21
ENDBRANCH   1  19
TORSDOF 6
ENDMDL
MODEL 7
REMARK VINA RESULT:      -7.2      2.259      2.956
REMARK  6 active torsions:
REMARK  status: ('A' for Active; 'I' for Inactive)
REMARK    1  A    between atoms: C_4  and  C_5 
REMARK    2  A    between atoms: C_5  and  N_6 
REMARK       I    between atoms: N_6  and  C_7 
REMARK       I    between atoms: C_7  and  N_8 
REMARK    3  A    between atoms: N_8  and  C_9 
REMARK    4  A    between atoms: C_9  and  C_10 
REMARK    5  A    between atoms: C_12  and  O_13 
REMARK    6  A    between atoms: O_13  and  C_14 
ROOT
HETATM    1  N   UNL     1      -5.682  -0.010 -33.231  1.00  0.00    -0.333 N 
HETATM    2  C   UNL     1      -5.680   0.023 -31.876  1.00  0.00     0.317 C 
HETATM    3  N   UNL     1      -4.656   0.693 -31.294  1.00  0.00    -0.339 N 
HETATM    4  O   UNL     1      -6.543  -0.497 -31.177  1.00  0.00    -0.247 OA
HETATM    5  H   UNL     1      -4.802   0.104 -33.712  1.00  0.00     0.165 HD
HETATM    6  H   UNL     1      -4.698   0.679 -30.284  1.00  0.00     0.164 HD
ENDROOT
BRANCH   3   7
HETATM    7  C   UNL     1      -3.650   1.523 -31.918  1.00  0.00     0.163 C 
BRANCH   7   8
HETATM    8  C   UNL     1      -4.016   2.983 -32.020  1.00  0.00    -0.035 A 
HETATM    9  C   UNL     1      -3.734   3.772 -33.140  1.00  0.00     0.066 A 
HETATM   10  C   UNL     1      -4.084   5.114 -33.117  1.00  0.00     0.164 A 
HETATM   11  N   UNL     1      -4.700   5.718 -32.082  1.00  0.00    -0.237 NA
HETATM   12  C   UNL     1      -4.978   4.943 -31.016  1.00  0.00     0.120 A 
HETATM   13  C   UNL     1      -4.661   3.594 -30.938  1.00  0.00     0.028 A 
BRANCH  10  14
HETATM   14  O   UNL     1      -3.765   5.855 -34.240  1.00  0.00    -0.329 OA
BRANCH  14  15
HETATM   15  C   UNL     1      -2.551   6.633 -34.158  1.00  0.00     0.130 C 
HETATM   16  C   UNL     1      -2.212   7.251 -32.774  1.00  0.00     0.032 C 
HETATM   17  C   UNL     1      -0.742   6.884 -33.037  1.00  0.00     0.005 C 
HETATM   18  C   UNL     1      -1.254   5.798 -34.000  1.00  0.00     0.032 C 
ENDBRANCH  14  15
ENDBRANCH  10  14
ENDBRANCH   7   8
ENDBRANCH   3   7
BRANCH   1  19
HETATM   19  C   UNL     1      -6.721  -0.695 -33.979  1.00  0.00     0.139 C 
HETATM   20  C   UNL     1      -7.038   0.043 -35.277  1.00  0.00     0.039 C 
BRANCH  19  21
HETATM   21  C   UNL     1      -6.265  -2.093 -34.263  1.00  0.00     0.075 A 
HETATM   22  O   UNL     1      -4.992  -2.429 -33.891  1.00  0.00    -0.318 OA
HETATM   23  C   UNL     1      -4.804  -3.734 -34.233  1.00  0.00     0.049 A 
HETATM   24  C   UNL     1      -3.486  -4.319 -33.913  1.00  0.00     0.076 C 
HETATM   25  C   UNL     1      -5.940  -4.238 -34.826  1.00  0.00     0.035 A 
HETATM   26  C   UNL     1      -6.884  -3.183 -34.844  1.00  0.00     0.037 A 
ENDBRANCH  19  21
ENDBRANCH   1  19
TORSDOF 6
ENDMDL
MODEL 8
REMARK VINA RESULT:      -7.1      5.521      9.066
REMARK  6 active torsions:
REMARK  status: ('A' for Active; 'I' for Inactive)
REMARK    1  A    between atoms: C_4  and  C_5 
REMARK    2  A    between atoms: C_5  and  N_6 
REMARK       I    between atoms: N_6  and  C_7 
REMARK       I    between atoms: C_7  and  N_8 
REMARK    3  A    between atoms: N_8  and  C_9 
REMARK    4  A    between atoms: C_9  and  C_10 
REMARK    5  A    between atoms: C_12  and  O_13 
REMARK    6  A    between atoms: O_13  and  C_14 
ROOT
HETATM    1  N   UNL     1      -7.773   0.222 -32.995  1.00  0.00    -0.333 N 
HETATM    2  C   UNL     1      -8.266   1.384 -33.489  1.00  0.00     0.317 C 
HETATM    3  N   UNL     1      -9.590   1.400 -33.776  1.00  0.00    -0.339 N 
HETATM    4  O   UNL     1      -7.592   2.393 -33.667  1.00  0.00    -0.247 OA
HETATM    5  H   UNL     1      -8.263  -0.633 -33.211  1.00  0.00     0.165 HD
HETATM    6  H   UNL     1      -9.903   2.287 -34.149  1.00  0.00     0.164 HD
ENDROOT
BRANCH   3   7
HETATM    7  C   UNL     1     -10.591   0.401 -33.474  1.00  0.00     0.163 C 
BRANCH   7   8
HETATM    8  C   UNL     1     -12.009   0.916 -33.468  1.00  0.00    -0.035 A 
HETATM    9  C   UNL     1     -12.349   2.235 -33.149  1.00  0.00     0.066 A 
HETATM   10  C   UNL     1     -13.687   2.597 -33.141  1.00  0.00     0.164 A 
HETATM   11  N   UNL     1     -14.700   1.759 -33.437  1.00  0.00    -0.237 NA
HETATM   12  C   UNL     1     -14.358   0.496 -33.756  1.00  0.00     0.120 A 
HETATM   13  C   UNL     1     -13.049   0.034 -33.784  1.00  0.00     0.028 A 
BRANCH  10  14
HETATM   14  O   UNL     1     -13.972   3.906 -32.799  1.00  0.00    -0.329 OA
BRANCH  14  15
HETATM   15  C   UNL     1     -14.266   4.145 -31.406  1.00  0.00     0.130 C 
HETATM   16  C   UNL     1     -13.089   4.639 -30.521  1.00  0.00     0.032 C 
HETATM   17  C   UNL     1     -14.084   5.590 -29.834  1.00  0.00     0.005 C 
HETATM   18  C   UNL     1     -14.941   5.510 -31.110  1.00  0.00     0.032 C 
ENDBRANCH  14  15
ENDBRANCH  10  14
ENDBRANCH   7   8
ENDBRANCH   3   7
BRANCH   1  19
HETATM   19  C   UNL     1      -6.372   0.071 -32.647  1.00  0.00     0.139 C 
HETATM   20  C   UNL     1      -6.198  -0.112 -31.141  1.00  0.00     0.039 C 
BRANCH  19  21
HETATM   21  C   UNL     1      -5.817  -1.106 -33.390  1.00  0.00     0.075 A 
HETATM   22  O   UNL     1      -6.710  -2.026 -33.870  1.00  0.00    -0.318 OA
HETATM   23  C   UNL     1      -5.989  -2.987 -34.511  1.00  0.00     0.049 A 
HETATM   24  C   UNL     1      -6.757  -4.091 -35.122  1.00  0.00     0.076 C 
HETATM   25  C   UNL     1      -4.645  -2.699 -34.442  1.00  0.00     0.035 A 
HETATM   26  C   UNL     1      -4.532  -1.485 -33.723  1.00  0.00     0.037 A 
ENDBRANCH  19  21
ENDBRANCH   1  19
TORSDOF 6
ENDMDL
MODEL 9
REMARK VINA RESULT:      -7.1      2.601      9.387
REMARK  6 active torsions:
REMARK  status: ('A' for Active; 'I' for Inactive)
REMARK    1  A    between atoms: C_4  and  C_5 
REMARK    2  A    between atoms: C_5  and  N_6 
REMARK       I    between atoms: N_6  and  C_7 
REMARK       I    between atoms: C_7  and  N_8 
REMARK    3  A    between atoms: N_8  and  C_9 
REMARK    4  A    between atoms: C_9  and  C_10 
REMARK    5  A    between atoms: C_12  and  O_13 
REMARK    6  A    between atoms: O_13  and  C_14 
ROOT
HETATM    1  N   UNL     1      -1.737   7.215 -31.058  1.00  0.00    -0.333 N 
HETATM    2  C   UNL     1      -1.626   7.843 -32.253  1.00  0.00     0.317 C 
HETATM    3  N   UNL     1      -1.331   7.059 -33.318  1.00  0.00    -0.339 N 
HETATM    4  O   UNL     1      -1.791   9.048 -32.411  1.00  0.00    -0.247 OA
HETATM    5  H   UNL     1      -1.251   6.339 -30.933  1.00  0.00     0.165 HD
HETATM    6  H   UNL     1      -1.251   7.579 -34.182  1.00  0.00     0.164 HD
ENDROOT
BRANCH   3   7
HETATM    7  C   UNL     1      -1.279   5.616 -33.389  1.00  0.00     0.163 C 
BRANCH   7   8
HETATM    8  C   UNL     1      -2.628   4.941 -33.409  1.00  0.00    -0.035 A 
HETATM    9  C   UNL     1      -2.959   3.856 -32.591  1.00  0.00     0.066 A 
HETATM   10  C   UNL     1      -4.217   3.286 -32.713  1.00  0.00     0.164 A 
HETATM   11  N   UNL     1      -5.165   3.719 -33.568  1.00  0.00    -0.237 NA
HETATM   12  C   UNL     1      -4.837   4.773 -34.341  1.00  0.00     0.120 A 
HETATM   13  C   UNL     1      -3.603   5.407 -34.299  1.00  0.00     0.028 A 
BRANCH  10  14
HETATM   14  O   UNL     1      -4.488   2.204 -31.897  1.00  0.00    -0.329 OA
BRANCH  14  15
HETATM   15  C   UNL     1      -4.705   0.944 -32.569  1.00  0.00     0.130 C 
HETATM   16  C   UNL     1      -3.475   0.005 -32.701  1.00  0.00     0.032 C 
HETATM   17  C   UNL     1      -4.416  -1.172 -32.391  1.00  0.00     0.005 C 
HETATM   18  C   UNL     1      -5.339  -0.162 -31.686  1.00  0.00     0.032 C 
ENDBRANCH  14  15
ENDBRANCH  10  14
ENDBRANCH   7   8
ENDBRANCH   3   7
BRANCH   1  19
HETATM   19  C   UNL     1      -2.049   7.939 -29.838  1.00  0.00     0.139 C 
HETATM   20  C   UNL     1      -3.075   7.181 -28.999  1.00  0.00     0.039 C 
BRANCH  19  21
HETATM   21  C   UNL     1      -0.782   8.144 -29.065  1.00  0.00     0.075 A 
HETATM   22  O   UNL     1      -0.768   9.145 -28.132  1.00  0.00    -0.318 OA
HETATM   23  C   UNL     1       0.464   9.139 -27.554  1.00  0.00     0.049 A 
HETATM   24  C   UNL     1       0.705  10.143 -26.498  1.00  0.00     0.076 C 
HETATM   25  C   UNL     1       1.244   8.149 -28.109  1.00  0.00     0.035 A 
HETATM   26  C   UNL     1       0.442   7.505 -29.081  1.00  0.00     0.037 A 
ENDBRANCH  19  21
ENDBRANCH   1  19
TORSDOF 6
ENDMDL
MODEL 10
REMARK VINA RESULT:      -7.0      2.696      3.520
REMARK  6 active torsions:
REMARK  status: ('A' for Active; 'I' for Inactive)
REMARK    1  A    between atoms: C_4  and  C_5 
REMARK    2  A    between atoms: C_5  and  N_6 
REMARK       I    between atoms: N_6  and  C_7 
REMARK       I    between atoms: C_7  and  N_8 
REMARK    3  A    between atoms: N_8  and  C_9 
REMARK    4  A    between atoms: C_9  and  C_10 
REMARK    5  A    between atoms: C_12  and  O_13 
REMARK    6  A    between atoms: O_13  and  C_14 
ROOT
HETATM    1  N   UNL     1      -4.469   0.605 -31.929  1.00  0.00    -0.333 N 
HETATM    2  C   UNL     1      -5.521   0.451 -31.089  1.00  0.00     0.317 C 
HETATM    3  N   UNL     1      -5.861   1.534 -30.348  1.00  0.00    -0.339 N 
HETATM    4  O   UNL     1      -6.166  -0.587 -30.984  1.00  0.00    -0.247 OA
HETATM    5  H   UNL     1      -3.786   1.316 -31.712  1.00  0.00     0.165 HD
HETATM    6  H   UNL     1      -6.645   1.361 -29.733  1.00  0.00     0.164 HD
ENDROOT
BRANCH   3   7
HETATM    7  C   UNL     1      -5.364   2.888 -30.448  1.00  0.00     0.163 C 
BRANCH   7   8
HETATM    8  C   UNL     1      -5.635   3.560 -31.770  1.00  0.00    -0.035 A 
HETATM    9  C   UNL     1      -4.626   4.009 -32.628  1.00  0.00     0.066 A 
HETATM   10  C   UNL     1      -4.985   4.646 -33.807  1.00  0.00     0.164 A 
HETATM   11  N   UNL     1      -6.258   4.853 -34.198  1.00  0.00    -0.237 NA
HETATM   12  C   UNL     1      -7.220   4.404 -33.369  1.00  0.00     0.120 A 
HETATM   13  C   UNL     1      -6.964   3.763 -32.165  1.00  0.00     0.028 A 
BRANCH  10  14
HETATM   14  O   UNL     1      -3.951   5.089 -34.610  1.00  0.00    -0.329 OA
BRANCH  14  15
HETATM   15  C   UNL     1      -2.697   5.343 -33.941  1.00  0.00     0.130 C 
HETATM   16  C   UNL     1      -1.438   5.459 -34.844  1.00  0.00     0.032 C 
HETATM   17  C   UNL     1      -0.974   6.618 -33.944  1.00  0.00     0.005 C 
HETATM   18  C   UNL     1      -2.451   6.827 -33.565  1.00  0.00     0.032 C 
ENDBRANCH  14  15
ENDBRANCH  10  14
ENDBRANCH   7   8
ENDBRANCH   3   7
BRANCH   1  19
HETATM   19  C   UNL     1      -4.001  -0.476 -32.778  1.00  0.00     0.139 C 
HETATM   20  C   UNL     1      -3.454  -1.631 -31.943  1.00  0.00     0.039 C 
BRANCH  19  21
HETATM   21  C   UNL     1      -5.139  -0.937 -33.637  1.00  0.00     0.075 A 
HETATM   22  O   UNL     1      -5.318  -2.287 -33.774  1.00  0.00    -0.318 OA
HETATM   23  C   UNL     1      -6.402  -2.468 -34.578  1.00  0.00     0.049 A 
HETATM   24  C   UNL     1      -6.790  -3.866 -34.859  1.00  0.00     0.076 C 
HETATM   25  C   UNL     1      -6.917  -1.251 -34.964  1.00  0.00     0.035 A 
HETATM   26  C   UNL     1      -6.106  -0.263 -34.356  1.00  0.00     0.037 A 
ENDBRANCH  19  21
ENDBRANCH   1  19
TORSDOF 6
ENDMDL
