MODEL 1
REMARK VINA RESULT:      -8.5      0.000      0.000
REMARK  6 active torsions:
REMARK  status: ('A' for Active; 'I' for Inactive)
REMARK    1  A    between atoms: C_3  and  N_4 
REMARK       I    between atoms: N_4  and  C_5 
REMARK    2  A    between atoms: C_5  and  C_6 
REMARK    3  A    between atoms: C_14  and  N_15 
REMARK       I    between atoms: N_15  and  C_16 
REMARK       I    between atoms: C_16  and  N_17 
REMARK    4  A    between atoms: N_17  and  C_18 
REMARK    5  A    between atoms: C_18  and  C_19 
REMARK    6  A    between atoms: C_19  and  N_20 
ROOT
HETATM    1  N   UNL     1      -2.649   6.282 -34.444  1.00  0.00    -0.309 N 
HETATM    2  C   UNL     1      -3.740   5.508 -34.656  1.00  0.00     0.321 C 
HETATM    3  N   UNL     1      -4.747   5.566 -33.750  1.00  0.00    -0.337 N 
HETATM    4  O   UNL     1      -3.844   4.846 -35.689  1.00  0.00    -0.247 OA
HETATM    5  H   UNL     1      -2.087   6.402 -35.280  1.00  0.00     0.170 HD
HETATM    6  H   UNL     1      -4.677   6.305 -33.059  1.00  0.00     0.164 HD
ENDROOT
BRANCH   1   7
HETATM    7  C   UNL     1      -2.042   6.730 -33.253  1.00  0.00     0.036 A 
HETATM    8  C   UNL     1      -2.421   7.878 -32.564  1.00  0.00     0.032 A 
HETATM    9  C   UNL     1      -1.824   8.202 -31.339  1.00  0.00     0.032 A 
HETATM   10  C   UNL     1      -0.844   7.382 -30.769  1.00  0.00     0.041 A 
HETATM   11  C   UNL     1      -0.452   6.218 -31.459  1.00  0.00    -0.033 A 
HETATM   12  C   UNL     1       0.582   5.268 -30.914  1.00  0.00     0.050 C 
HETATM   13  C   UNL     1      -1.066   5.903 -32.688  1.00  0.00     0.038 A 
BRANCH  10  14
HETATM   14  N   UNL     1      -0.254   7.660 -29.518  1.00  0.00    -0.321 N 
HETATM   15  C   UNL     1      -0.776   7.483 -28.248  1.00  0.00     0.279 C 
HETATM   16  O   UNL     1      -1.900   7.065 -27.993  1.00  0.00    -0.265 OA
HETATM   17  H   UNL     1       0.702   7.999 -29.516  1.00  0.00     0.169 HD
BRANCH  15  18
HETATM   18  C   UNL     1       0.175   7.840 -27.208  1.00  0.00     0.142 A 
HETATM   19  O   UNL     1      -0.170   8.794 -26.283  1.00  0.00    -0.317 OA
HETATM   20  C   UNL     1       0.886   8.934 -25.441  1.00  0.00     0.143 A 
HETATM   21  C   UNL     1       1.911   8.094 -25.807  1.00  0.00     0.027 A 
HETATM   22  C   UNL     1       1.453   7.386 -26.944  1.00  0.00     0.045 A 
ENDBRANCH  15  18
ENDBRANCH  10  14
ENDBRANCH   1   7
BRANCH   3  23
HETATM   23  C   UNL     1      -5.889   4.649 -33.661  1.00  0.00     0.108 C 
HETATM   24  C   UNL     1      -7.160   5.420 -33.319  1.00  0.00     0.034 C 
BRANCH  23  25
HETATM   25  C   UNL     1      -5.667   3.362 -32.807  1.00  0.00     0.259 C 
BRANCH  25  26
HETATM   26  N   UNL     1      -5.759   2.051 -33.562  1.00  0.00    -0.069 N 
HETATM   27  H   UNL     1      -5.118   2.157 -34.379  1.00  0.00     0.280 HD
HETATM   28  C   UNL     1      -5.288   0.842 -32.798  1.00  0.00     0.239 C 
HETATM   29  C   UNL     1      -5.205  -0.356 -33.747  1.00  0.00     0.007 C 
HETATM   30  C   UNL     1      -6.570  -0.626 -34.389  1.00  0.00     0.007 C 
HETATM   31  C   UNL     1      -4.699  -1.594 -33.009  1.00  0.00     0.011 C 
HETATM   32  C   UNL     1      -7.102   0.621 -35.086  1.00  0.00     0.028 C 
HETATM   33  C   UNL     1      -7.127   1.831 -34.162  1.00  0.00     0.235 C 
ENDBRANCH  25  26
ENDBRANCH  23  25
ENDBRANCH   3  23
TORSDOF 6
ENDMDL
MODEL 2
REMARK VINA RESULT:      -8.4      3.525      9.887
REMARK  6 active torsions:
REMARK  status: ('A' for Active; 'I' for Inactive)
REMARK    1  A    between atoms: C_3  and  N_4 
REMARK       I    between atoms: N_4  and  C_5 
REMARK    2  A    between atoms: C_5  and  C_6 
REMARK    3  A    between atoms: C_14  and  N_15 
REMARK       I    between atoms: N_15  and  C_16 
REMARK       I    between atoms: C_16  and  N_17 
REMARK    4  A    between atoms: N_17  and  C_18 
REMARK    5  A    between atoms: C_18  and  C_19 
REMARK    6  A    between atoms: C_19  and  N_20 
ROOT
HETATM    1  N   UNL     1      -7.437   3.300 -29.334  1.00  0.00    -0.309 N 
HETATM    2  C   UNL     1      -6.954   4.563 -29.261  1.00  0.00     0.321 C 
HETATM    3  N   UNL     1      -6.509   5.141 -30.404  1.00  0.00    -0.337 N 
HETATM    4  O   UNL     1      -7.008   5.192 -28.204  1.00  0.00    -0.247 OA
HETATM    5  H   UNL     1      -8.000   3.050 -28.528  1.00  0.00     0.170 HD
HETATM    6  H   UNL     1      -6.716   4.640 -31.262  1.00  0.00     0.164 HD
ENDROOT
BRANCH   1   7
HETATM    7  C   UNL     1      -7.104   2.224 -30.182  1.00  0.00     0.036 A 
HETATM    8  C   UNL     1      -5.988   1.410 -30.013  1.00  0.00     0.032 A 
HETATM    9  C   UNL     1      -5.780   0.306 -30.851  1.00  0.00     0.032 A 
HETATM   10  C   UNL     1      -6.687  -0.016 -31.867  1.00  0.00     0.041 A 
HETATM   11  C   UNL     1      -7.819   0.803 -32.047  1.00  0.00    -0.033 A 
HETATM   12  C   UNL     1      -8.856   0.522 -33.103  1.00  0.00     0.050 C 
HETATM   13  C   UNL     1      -8.016   1.906 -31.193  1.00  0.00     0.038 A 
BRANCH  10  14
HETATM   14  N   UNL     1      -6.526  -1.144 -32.699  1.00  0.00    -0.321 N 
HETATM   15  C   UNL     1      -5.491  -1.447 -33.568  1.00  0.00     0.279 C 
HETATM   16  O   UNL     1      -4.515  -0.737 -33.788  1.00  0.00    -0.265 OA
HETATM   17  H   UNL     1      -7.230  -1.871 -32.645  1.00  0.00     0.169 HD
BRANCH  15  18
HETATM   18  C   UNL     1      -5.671  -2.740 -34.206  1.00  0.00     0.142 A 
HETATM   19  O   UNL     1      -4.649  -3.657 -34.162  1.00  0.00    -0.317 OA
HETATM   20  C   UNL     1      -5.074  -4.762 -34.827  1.00  0.00     0.143 A 
HETATM   21  C   UNL     1      -6.348  -4.574 -35.309  1.00  0.00     0.027 A 
HETATM   22  C   UNL     1      -6.735  -3.273 -34.907  1.00  0.00     0.045 A 
ENDBRANCH  15  18
ENDBRANCH  10  14
ENDBRANCH   1   7
BRANCH   3  23
HETATM   23  C   UNL     1      -5.738   6.385 -30.505  1.00  0.00     0.108 C 
HETATM   24  C   UNL     1      -5.827   6.948 -31.921  1.00  0.00     0.034 C 
BRANCH  23  25
HETATM   25  C   UNL     1      -4.293   6.343 -29.918  1.00  0.00     0.259 C 
BRANCH  25  26
HETATM   26  N   UNL     1      -3.184   6.114 -30.925  1.00  0.00    -0.069 N 
HETATM   27  H   UNL     1      -3.426   6.712 -31.745  1.00  0.00     0.280 HD
HETATM   28  C   UNL     1      -1.813   6.541 -30.470  1.00  0.00     0.239 C 
HETATM   29  C   UNL     1      -0.845   6.482 -31.654  1.00  0.00     0.007 C 
HETATM   30  C   UNL     1      -0.799   5.066 -32.238  1.00  0.00     0.007 C 
HETATM   31  C   UNL     1       0.549   6.941 -31.234  1.00  0.00     0.011 C 
HETATM   32  C   UNL     1      -2.196   4.584 -32.615  1.00  0.00     0.028 C 
HETATM   33  C   UNL     1      -3.177   4.701 -31.456  1.00  0.00     0.235 C 
ENDBRANCH  25  26
ENDBRANCH  23  25
ENDBRANCH   3  23
TORSDOF 6
ENDMDL
MODEL 3
REMARK VINA RESULT:      -8.4      4.401      6.802
REMARK  6 active torsions:
REMARK  status: ('A' for Active; 'I' for Inactive)
REMARK    1  A    between atoms: C_3  and  N_4 
REMARK       I    between atoms: N_4  and  C_5 
REMARK    2  A    between atoms: C_5  and  C_6 
REMARK    3  A    between atoms: C_14  and  N_15 
REMARK       I    between atoms: N_15  and  C_16 
REMARK       I    between atoms: C_16  and  N_17 
REMARK    4  A    between atoms: N_17  and  C_18 
REMARK    5  A    between atoms: C_18  and  C_19 
REMARK    6  A    between atoms: C_19  and  N_20 
ROOT
HETATM    1  N   UNL     1      -7.536   0.339 -32.156  1.00  0.00    -0.309 N 
HETATM    2  C   UNL     1      -8.743   0.784 -32.582  1.00  0.00     0.321 C 
HETATM    3  N   UNL     1      -8.768   1.839 -33.432  1.00  0.00    -0.337 N 
HETATM    4  O   UNL     1      -9.772   0.183 -32.275  1.00  0.00    -0.247 OA
HETATM    5  H   UNL     1      -7.578  -0.598 -31.771  1.00  0.00     0.170 HD
HETATM    6  H   UNL     1      -7.871   2.122 -33.812  1.00  0.00     0.164 HD
ENDROOT
BRANCH   1   7
HETATM    7  C   UNL     1      -6.321   1.018 -31.932  1.00  0.00     0.036 A 
HETATM    8  C   UNL     1      -5.106   0.663 -32.512  1.00  0.00     0.032 A 
HETATM    9  C   UNL     1      -3.964   1.447 -32.304  1.00  0.00     0.032 A 
HETATM   10  C   UNL     1      -4.010   2.607 -31.523  1.00  0.00     0.041 A 
HETATM   11  C   UNL     1      -5.234   2.974 -30.930  1.00  0.00    -0.033 A 
HETATM   12  C   UNL     1      -5.382   4.215 -30.089  1.00  0.00     0.050 C 
HETATM   13  C   UNL     1      -6.376   2.178 -31.153  1.00  0.00     0.038 A 
BRANCH  10  14
HETATM   14  N   UNL     1      -2.887   3.438 -31.330  1.00  0.00    -0.321 N 
HETATM   15  C   UNL     1      -2.297   4.328 -32.211  1.00  0.00     0.279 C 
HETATM   16  O   UNL     1      -2.655   4.527 -33.367  1.00  0.00    -0.265 OA
HETATM   17  H   UNL     1      -2.454   3.435 -30.413  1.00  0.00     0.169 HD
BRANCH  15  18
HETATM   18  C   UNL     1      -1.184   5.042 -31.609  1.00  0.00     0.142 A 
HETATM   19  O   UNL     1      -0.490   4.455 -30.578  1.00  0.00    -0.317 OA
HETATM   20  C   UNL     1       0.483   5.326 -30.205  1.00  0.00     0.143 A 
HETATM   21  C   UNL     1       0.427   6.468 -30.968  1.00  0.00     0.027 A 
HETATM   22  C   UNL     1      -0.644   6.286 -31.874  1.00  0.00     0.045 A 
ENDBRANCH  15  18
ENDBRANCH  10  14
ENDBRANCH   1   7
BRANCH   3  23
HETATM   23  C   UNL     1      -9.952   2.617 -33.816  1.00  0.00     0.108 C 
HETATM   24  C   UNL     1      -9.533   3.912 -34.505  1.00  0.00     0.034 C 
BRANCH  23  25
HETATM   25  C   UNL     1     -11.038   2.797 -32.711  1.00  0.00     0.259 C 
BRANCH  25  26
HETATM   26  N   UNL     1     -12.310   1.994 -32.905  1.00  0.00    -0.069 N 
HETATM   27  H   UNL     1     -12.249   1.211 -32.219  1.00  0.00     0.280 HD
HETATM   28  C   UNL     1     -13.584   2.736 -32.601  1.00  0.00     0.239 C 
HETATM   29  C   UNL     1     -14.756   1.752 -32.601  1.00  0.00     0.007 C 
HETATM   30  C   UNL     1     -14.859   1.042 -33.955  1.00  0.00     0.007 C 
HETATM   31  C   UNL     1     -16.062   2.468 -32.263  1.00  0.00     0.011 C 
HETATM   32  C   UNL     1     -13.542   0.365 -34.319  1.00  0.00     0.028 C 
HETATM   33  C   UNL     1     -12.364   1.329 -34.259  1.00  0.00     0.235 C 
ENDBRANCH  25  26
ENDBRANCH  23  25
ENDBRANCH   3  23
TORSDOF 6
ENDMDL
MODEL 4
REMARK VINA RESULT:      -8.4      3.169      5.401
REMARK  6 active torsions:
REMARK  status: ('A' for Active; 'I' for Inactive)
REMARK    1  A    between atoms: C_3  and  N_4 
REMARK       I    between atoms: N_4  and  C_5 
REMARK    2  A    between atoms: C_5  and  C_6 
REMARK    3  A    between atoms: C_14  and  N_15 
REMARK       I    between atoms: N_15  and  C_16 
REMARK       I    between atoms: C_16  and  N_17 
REMARK    4  A    between atoms: N_17  and  C_18 
REMARK    5  A    between atoms: C_18  and  C_19 
REMARK    6  A    between atoms: C_19  and  N_20 
ROOT
HETATM    1  N   UNL     1      -9.049   3.760 -30.940  1.00  0.00    -0.309 N 
HETATM    2  C   UNL     1      -9.706   2.959 -31.813  1.00  0.00     0.321 C 
HETATM    3  N   UNL     1      -9.075   1.842 -32.250  1.00  0.00    -0.337 N 
HETATM    4  O   UNL     1     -10.873   3.199 -32.122  1.00  0.00    -0.247 OA
HETATM    5  H   UNL     1      -9.669   4.397 -30.451  1.00  0.00     0.170 HD
HETATM    6  H   UNL     1      -8.214   1.604 -31.768  1.00  0.00     0.164 HD
ENDROOT
BRANCH   1   7
HETATM    7  C   UNL     1      -7.674   4.029 -30.777  1.00  0.00     0.036 A 
HETATM    8  C   UNL     1      -6.785   3.190 -30.113  1.00  0.00     0.032 A 
HETATM    9  C   UNL     1      -5.417   3.492 -30.075  1.00  0.00     0.032 A 
HETATM   10  C   UNL     1      -4.906   4.631 -30.706  1.00  0.00     0.041 A 
HETATM   11  C   UNL     1      -5.799   5.488 -31.379  1.00  0.00    -0.033 A 
HETATM   12  C   UNL     1      -5.337   6.727 -32.101  1.00  0.00     0.050 C 
HETATM   13  C   UNL     1      -7.171   5.168 -31.413  1.00  0.00     0.038 A 
BRANCH  10  14
HETATM   14  N   UNL     1      -3.530   4.940 -30.719  1.00  0.00    -0.321 N 
HETATM   15  C   UNL     1      -2.548   4.513 -31.598  1.00  0.00     0.279 C 
HETATM   16  O   UNL     1      -2.718   3.739 -32.533  1.00  0.00    -0.265 OA
HETATM   17  H   UNL     1      -3.190   5.595 -30.024  1.00  0.00     0.169 HD
BRANCH  15  18
HETATM   18  C   UNL     1      -1.253   5.105 -31.304  1.00  0.00     0.142 A 
HETATM   19  O   UNL     1      -0.360   4.410 -30.526  1.00  0.00    -0.317 OA
HETATM   20  C   UNL     1       0.752   5.181 -30.408  1.00  0.00     0.143 A 
HETATM   21  C   UNL     1       0.592   6.366 -31.088  1.00  0.00     0.027 A 
HETATM   22  C   UNL     1      -0.699   6.317 -31.668  1.00  0.00     0.045 A 
ENDBRANCH  15  18
ENDBRANCH  10  14
ENDBRANCH   1   7
BRANCH   3  23
HETATM   23  C   UNL     1      -9.500   0.982 -33.360  1.00  0.00     0.108 C 
HETATM   24  C   UNL     1     -10.223  -0.251 -32.826  1.00  0.00     0.034 C 
BRANCH  23  25
HETATM   25  C   UNL     1      -8.417   0.676 -34.440  1.00  0.00     0.259 C 
BRANCH  25  26
HETATM   26  N   UNL     1      -7.290  -0.237 -33.998  1.00  0.00    -0.069 N 
HETATM   27  H   UNL     1      -7.586  -0.612 -33.070  1.00  0.00     0.280 HD
HETATM   28  C   UNL     1      -7.050  -1.428 -34.887  1.00  0.00     0.239 C 
HETATM   29  C   UNL     1      -6.066  -2.381 -34.203  1.00  0.00     0.007 C 
HETATM   30  C   UNL     1      -4.747  -1.663 -33.901  1.00  0.00     0.007 C 
HETATM   31  C   UNL     1      -5.825  -3.618 -35.066  1.00  0.00     0.011 C 
HETATM   32  C   UNL     1      -4.987  -0.401 -33.080  1.00  0.00     0.028 C 
HETATM   33  C   UNL     1      -6.013   0.521 -33.727  1.00  0.00     0.235 C 
ENDBRANCH  25  26
ENDBRANCH  23  25
ENDBRANCH   3  23
TORSDOF 6
ENDMDL
MODEL 5
REMARK VINA RESULT:      -8.2      3.099      9.664
REMARK  6 active torsions:
REMARK  status: ('A' for Active; 'I' for Inactive)
REMARK    1  A    between atoms: C_3  and  N_4 
REMARK       I    between atoms: N_4  and  C_5 
REMARK    2  A    between atoms: C_5  and  C_6 
REMARK    3  A    between atoms: C_14  and  N_15 
REMARK       I    between atoms: N_15  and  C_16 
REMARK       I    between atoms: C_16  and  N_17 
REMARK    4  A    between atoms: N_17  and  C_18 
REMARK    5  A    between atoms: C_18  and  C_19 
REMARK    6  A    between atoms: C_19  and  N_20 
ROOT
HETATM    1  N   UNL     1      -6.089   3.608 -29.365  1.00  0.00    -0.309 N 
HETATM    2  C   UNL     1      -5.779   4.866 -29.762  1.00  0.00     0.321 C 
HETATM    3  N   UNL     1      -6.098   5.230 -31.028  1.00  0.00    -0.337 N 
HETATM    4  O   UNL     1      -5.307   5.674 -28.962  1.00  0.00    -0.247 OA
HETATM    5  H   UNL     1      -6.087   3.505 -28.356  1.00  0.00     0.170 HD
HETATM    6  H   UNL     1      -6.689   4.583 -31.538  1.00  0.00     0.164 HD
ENDROOT
BRANCH   1   7
HETATM    7  C   UNL     1      -6.168   2.398 -30.084  1.00  0.00     0.036 A 
HETATM    8  C   UNL     1      -7.332   1.910 -30.671  1.00  0.00     0.032 A 
HETATM    9  C   UNL     1      -7.301   0.742 -31.445  1.00  0.00     0.032 A 
HETATM   10  C   UNL     1      -6.109   0.042 -31.657  1.00  0.00     0.041 A 
HETATM   11  C   UNL     1      -4.926   0.527 -31.065  1.00  0.00    -0.033 A 
HETATM   12  C   UNL     1      -3.594  -0.151 -31.254  1.00  0.00     0.050 C 
HETATM   13  C   UNL     1      -4.972   1.706 -30.295  1.00  0.00     0.038 A 
BRANCH  10  14
HETATM   14  N   UNL     1      -6.040  -1.114 -32.464  1.00  0.00    -0.321 N 
HETATM   15  C   UNL     1      -6.043  -1.216 -33.845  1.00  0.00     0.279 C 
HETATM   16  O   UNL     1      -6.142  -0.277 -34.628  1.00  0.00    -0.265 OA
HETATM   17  H   UNL     1      -5.930  -2.006 -31.995  1.00  0.00     0.169 HD
BRANCH  15  18
HETATM   18  C   UNL     1      -5.899  -2.590 -34.294  1.00  0.00     0.142 A 
HETATM   19  O   UNL     1      -4.727  -3.260 -34.037  1.00  0.00    -0.317 OA
HETATM   20  C   UNL     1      -4.856  -4.506 -34.560  1.00  0.00     0.143 A 
HETATM   21  C   UNL     1      -6.085  -4.654 -35.158  1.00  0.00     0.027 A 
HETATM   22  C   UNL     1      -6.759  -3.421 -34.985  1.00  0.00     0.045 A 
ENDBRANCH  15  18
ENDBRANCH  10  14
ENDBRANCH   1   7
BRANCH   3  23
HETATM   23  C   UNL     1      -5.643   6.438 -31.725  1.00  0.00     0.108 C 
HETATM   24  C   UNL     1      -6.832   7.332 -32.066  1.00  0.00     0.034 C 
BRANCH  23  25
HETATM   25  C   UNL     1      -4.648   6.212 -32.906  1.00  0.00     0.259 C 
BRANCH  25  26
HETATM   26  N   UNL     1      -3.252   6.765 -32.701  1.00  0.00    -0.069 N 
HETATM   27  H   UNL     1      -3.300   7.760 -33.012  1.00  0.00     0.280 HD
HETATM   28  C   UNL     1      -2.777   6.782 -31.272  1.00  0.00     0.239 C 
HETATM   29  C   UNL     1      -1.473   7.578 -31.181  1.00  0.00     0.007 C 
HETATM   30  C   UNL     1      -0.406   6.964 -32.093  1.00  0.00     0.007 C 
HETATM   31  C   UNL     1      -0.981   7.643 -29.737  1.00  0.00     0.011 C 
HETATM   32  C   UNL     1      -0.911   6.854 -33.528  1.00  0.00     0.028 C 
HETATM   33  C   UNL     1      -2.240   6.116 -33.615  1.00  0.00     0.235 C 
ENDBRANCH  25  26
ENDBRANCH  23  25
ENDBRANCH   3  23
TORSDOF 6
ENDMDL
MODEL 6
REMARK VINA RESULT:      -8.2      2.742      9.906
REMARK  6 active torsions:
REMARK  status: ('A' for Active; 'I' for Inactive)
REMARK    1  A    between atoms: C_3  and  N_4 
REMARK       I    between atoms: N_4  and  C_5 
REMARK    2  A    between atoms: C_5  and  C_6 
REMARK    3  A    between atoms: C_14  and  N_15 
REMARK       I    between atoms: N_15  and  C_16 
REMARK       I    between atoms: C_16  and  N_17 
REMARK    4  A    between atoms: N_17  and  C_18 
REMARK    5  A    between atoms: C_18  and  C_19 
REMARK    6  A    between atoms: C_19  and  N_20 
ROOT
HETATM    1  N   UNL     1      -6.036   4.866 -31.807  1.00  0.00    -0.309 N 
HETATM    2  C   UNL     1      -4.981   5.715 -31.765  1.00  0.00     0.321 C 
HETATM    3  N   UNL     1      -4.078   5.657 -32.774  1.00  0.00    -0.337 N 
HETATM    4  O   UNL     1      -4.904   6.571 -30.884  1.00  0.00    -0.247 OA
HETATM    5  H   UNL     1      -6.794   5.154 -31.198  1.00  0.00     0.170 HD
HETATM    6  H   UNL     1      -4.342   5.087 -33.571  1.00  0.00     0.164 HD
ENDROOT
BRANCH   1   7
HETATM    7  C   UNL     1      -6.164   3.566 -32.337  1.00  0.00     0.036 A 
HETATM    8  C   UNL     1      -6.328   3.284 -33.690  1.00  0.00     0.032 A 
HETATM    9  C   UNL     1      -6.357   1.957 -34.141  1.00  0.00     0.032 A 
HETATM   10  C   UNL     1      -6.214   0.885 -33.254  1.00  0.00     0.041 A 
HETATM   11  C   UNL     1      -6.049   1.160 -31.882  1.00  0.00    -0.033 A 
HETATM   12  C   UNL     1      -5.870   0.069 -30.858  1.00  0.00     0.050 C 
HETATM   13  C   UNL     1      -6.016   2.499 -31.445  1.00  0.00     0.038 A 
BRANCH  10  14
HETATM   14  N   UNL     1      -6.198  -0.459 -33.684  1.00  0.00    -0.321 N 
HETATM   15  C   UNL     1      -5.116  -1.295 -33.896  1.00  0.00     0.279 C 
HETATM   16  O   UNL     1      -3.937  -0.980 -33.769  1.00  0.00    -0.265 OA
HETATM   17  H   UNL     1      -7.093  -0.916 -33.825  1.00  0.00     0.169 HD
BRANCH  15  18
HETATM   18  C   UNL     1      -5.524  -2.635 -34.284  1.00  0.00     0.142 A 
HETATM   19  O   UNL     1      -4.608  -3.657 -34.229  1.00  0.00    -0.317 OA
HETATM   20  C   UNL     1      -5.243  -4.785 -34.641  1.00  0.00     0.143 A 
HETATM   21  C   UNL     1      -6.549  -4.511 -34.971  1.00  0.00     0.027 A 
HETATM   22  C   UNL     1      -6.732  -3.127 -34.738  1.00  0.00     0.045 A 
ENDBRANCH  15  18
ENDBRANCH  10  14
ENDBRANCH   1   7
BRANCH   3  23
HETATM   23  C   UNL     1      -2.762   6.305 -32.800  1.00  0.00     0.108 C 
HETATM   24  C   UNL     1      -2.243   6.390 -34.232  1.00  0.00     0.034 C 
BRANCH  23  25
HETATM   25  C   UNL     1      -1.719   5.774 -31.768  1.00  0.00     0.259 C 
BRANCH  25  26
HETATM   26  N   UNL     1      -1.575   6.595 -30.502  1.00  0.00    -0.069 N 
HETATM   27  H   UNL     1      -2.356   6.288 -29.882  1.00  0.00     0.280 HD
HETATM   28  C   UNL     1      -0.300   6.363 -29.735  1.00  0.00     0.239 C 
HETATM   29  C   UNL     1      -0.393   7.060 -28.375  1.00  0.00     0.007 C 
HETATM   30  C   UNL     1      -0.643   8.561 -28.559  1.00  0.00     0.007 C 
HETATM   31  C   UNL     1       0.874   6.817 -27.557  1.00  0.00     0.011 C 
HETATM   32  C   UNL     1      -1.880   8.808 -29.415  1.00  0.00     0.028 C 
HETATM   33  C   UNL     1      -1.818   8.065 -30.743  1.00  0.00     0.235 C 
ENDBRANCH  25  26
ENDBRANCH  23  25
ENDBRANCH   3  23
TORSDOF 6
ENDMDL
MODEL 7
REMARK VINA RESULT:      -8.1      2.114      2.885
REMARK  6 active torsions:
REMARK  status: ('A' for Active; 'I' for Inactive)
REMARK    1  A    between atoms: C_3  and  N_4 
REMARK       I    between atoms: N_4  and  C_5 
REMARK    2  A    between atoms: C_5  and  C_6 
REMARK    3  A    between atoms: C_14  and  N_15 
REMARK       I    between atoms: N_15  and  C_16 
REMARK       I    between atoms: C_16  and  N_17 
REMARK    4  A    between atoms: N_17  and  C_18 
REMARK    5  A    between atoms: C_18  and  C_19 
REMARK    6  A    between atoms: C_19  and  N_20 
ROOT
HETATM    1  N   UNL     1      -4.971   4.071 -33.659  1.00  0.00    -0.309 N 
HETATM    2  C   UNL     1      -6.087   3.304 -33.610  1.00  0.00     0.321 C 
HETATM    3  N   UNL     1      -6.813   3.310 -32.466  1.00  0.00    -0.337 N 
HETATM    4  O   UNL     1      -6.472   2.698 -34.611  1.00  0.00    -0.247 OA
HETATM    5  H   UNL     1      -4.652   4.237 -34.608  1.00  0.00     0.170 HD
HETATM    6  H   UNL     1      -6.552   4.012 -31.781  1.00  0.00     0.164 HD
ENDROOT
BRANCH   1   7
HETATM    7  C   UNL     1      -4.062   4.457 -32.652  1.00  0.00     0.036 A 
HETATM    8  C   UNL     1      -2.888   3.773 -32.353  1.00  0.00     0.032 A 
HETATM    9  C   UNL     1      -1.997   4.277 -31.396  1.00  0.00     0.032 A 
HETATM   10  C   UNL     1      -2.253   5.478 -30.725  1.00  0.00     0.041 A 
HETATM   11  C   UNL     1      -3.441   6.176 -31.019  1.00  0.00    -0.033 A 
HETATM   12  C   UNL     1      -3.791   7.484 -30.360  1.00  0.00     0.050 C 
HETATM   13  C   UNL     1      -4.324   5.659 -31.988  1.00  0.00     0.038 A 
BRANCH  10  14
HETATM   14  N   UNL     1      -1.356   6.031 -29.787  1.00  0.00    -0.321 N 
HETATM   15  C   UNL     1      -0.127   6.630 -30.002  1.00  0.00     0.279 C 
HETATM   16  O   UNL     1       0.421   6.757 -31.092  1.00  0.00    -0.265 OA
HETATM   17  H   UNL     1      -1.644   6.042 -28.814  1.00  0.00     0.169 HD
BRANCH  15  18
HETATM   18  C   UNL     1       0.466   7.125 -28.772  1.00  0.00     0.142 A 
HETATM   19  O   UNL     1       0.316   6.399 -27.615  1.00  0.00    -0.317 OA
HETATM   20  C   UNL     1       0.956   7.080 -26.630  1.00  0.00     0.143 A 
HETATM   21  C   UNL     1       1.511   8.236 -27.124  1.00  0.00     0.027 A 
HETATM   22  C   UNL     1       1.198   8.266 -28.504  1.00  0.00     0.045 A 
ENDBRANCH  15  18
ENDBRANCH  10  14
ENDBRANCH   1   7
BRANCH   3  23
HETATM   23  C   UNL     1      -7.899   2.385 -32.121  1.00  0.00     0.108 C 
HETATM   24  C   UNL     1      -8.898   3.067 -31.191  1.00  0.00     0.034 C 
BRANCH  23  25
HETATM   25  C   UNL     1      -7.462   0.959 -31.664  1.00  0.00     0.259 C 
BRANCH  25  26
HETATM   26  N   UNL     1      -6.701   0.146 -32.693  1.00  0.00    -0.069 N 
HETATM   27  H   UNL     1      -6.183   0.844 -33.269  1.00  0.00     0.280 HD
HETATM   28  C   UNL     1      -5.671  -0.795 -32.126  1.00  0.00     0.239 C 
HETATM   29  C   UNL     1      -4.822  -1.363 -33.265  1.00  0.00     0.007 C 
HETATM   30  C   UNL     1      -5.708  -2.088 -34.283  1.00  0.00     0.007 C 
HETATM   31  C   UNL     1      -3.744  -2.297 -32.720  1.00  0.00     0.011 C 
HETATM   32  C   UNL     1      -6.815  -1.174 -34.795  1.00  0.00     0.028 C 
HETATM   33  C   UNL     1      -7.623  -0.558 -33.660  1.00  0.00     0.235 C 
ENDBRANCH  25  26
ENDBRANCH  23  25
ENDBRANCH   3  23
TORSDOF 6
ENDMDL
MODEL 8
REMARK VINA RESULT:      -8.0      6.930      9.973
REMARK  6 active torsions:
REMARK  status: ('A' for Active; 'I' for Inactive)
REMARK    1  A    between atoms: C_3  and  N_4 
REMARK       I    between atoms: N_4  and  C_5 
REMARK    2  A    between atoms: C_5  and  C_6 
REMARK    3  A    between atoms: C_14  and  N_15 
REMARK       I    between atoms: N_15  and  C_16 
REMARK       I    between atoms: C_16  and  N_17 
REMARK    4  A    between atoms: N_17  and  C_18 
REMARK    5  A    between atoms: C_18  and  C_19 
REMARK    6  A    between atoms: C_19  and  N_20 
ROOT
HETATM    1  N   UNL     1      -8.533   3.907 -30.131  1.00  0.00    -0.309 N 
HETATM    2  C   UNL     1      -9.624   4.701 -30.246  1.00  0.00     0.321 C 
HETATM    3  N   UNL     1     -10.820   4.108 -30.485  1.00  0.00    -0.337 N 
HETATM    4  O   UNL     1      -9.538   5.912 -30.046  1.00  0.00    -0.247 OA
HETATM    5  H   UNL     1      -7.754   4.375 -29.680  1.00  0.00     0.170 HD
HETATM    6  H   UNL     1     -10.835   3.097 -30.404  1.00  0.00     0.164 HD
ENDROOT
BRANCH   1   7
HETATM    7  C   UNL     1      -8.214   2.670 -30.730  1.00  0.00     0.036 A 
HETATM    8  C   UNL     1      -9.114   1.899 -31.460  1.00  0.00     0.032 A 
HETATM    9  C   UNL     1      -8.689   0.725 -32.096  1.00  0.00     0.032 A 
HETATM   10  C   UNL     1      -7.357   0.301 -32.027  1.00  0.00     0.041 A 
HETATM   11  C   UNL     1      -6.440   1.074 -31.288  1.00  0.00    -0.033 A 
HETATM   12  C   UNL     1      -4.984   0.705 -31.173  1.00  0.00     0.050 C 
HETATM   13  C   UNL     1      -6.881   2.255 -30.659  1.00  0.00     0.038 A 
BRANCH  10  14
HETATM   14  N   UNL     1      -6.892  -0.854 -32.690  1.00  0.00    -0.321 N 
HETATM   15  C   UNL     1      -6.621  -1.038 -34.036  1.00  0.00     0.279 C 
HETATM   16  O   UNL     1      -6.777  -0.198 -34.915  1.00  0.00    -0.265 OA
HETATM   17  H   UNL     1      -6.678  -1.666 -32.122  1.00  0.00     0.169 HD
BRANCH  15  18
HETATM   18  C   UNL     1      -6.101  -2.366 -34.314  1.00  0.00     0.142 A 
HETATM   19  O   UNL     1      -4.781  -2.639 -34.047  1.00  0.00    -0.317 OA
HETATM   20  C   UNL     1      -4.561  -3.932 -34.398  1.00  0.00     0.143 A 
HETATM   21  C   UNL     1      -5.711  -4.499 -34.895  1.00  0.00     0.027 A 
HETATM   22  C   UNL     1      -6.704  -3.493 -34.839  1.00  0.00     0.045 A 
ENDBRANCH  15  18
ENDBRANCH  10  14
ENDBRANCH   1   7
BRANCH   3  23
HETATM   23  C   UNL     1     -12.061   4.785 -30.877  1.00  0.00     0.108 C 
HETATM   24  C   UNL     1     -13.202   4.373 -29.951  1.00  0.00     0.034 C 
BRANCH  23  25
HETATM   25  C   UNL     1     -12.415   4.737 -32.396  1.00  0.00     0.259 C 
BRANCH  25  26
HETATM   26  N   UNL     1     -12.400   3.359 -33.029  1.00  0.00    -0.069 N 
HETATM   27  H   UNL     1     -12.037   2.719 -32.289  1.00  0.00     0.280 HD
HETATM   28  C   UNL     1     -13.750   2.830 -33.433  1.00  0.00     0.239 C 
HETATM   29  C   UNL     1     -13.620   1.356 -33.826  1.00  0.00     0.007 C 
HETATM   30  C   UNL     1     -12.615   1.194 -34.971  1.00  0.00     0.007 C 
HETATM   31  C   UNL     1     -14.979   0.779 -34.211  1.00  0.00     0.011 C 
HETATM   32  C   UNL     1     -11.268   1.812 -34.609  1.00  0.00     0.028 C 
HETATM   33  C   UNL     1     -11.403   3.261 -34.158  1.00  0.00     0.235 C 
ENDBRANCH  25  26
ENDBRANCH  23  25
ENDBRANCH   3  23
TORSDOF 6
ENDMDL
MODEL 9
REMARK VINA RESULT:      -7.8      4.224     10.508
REMARK  6 active torsions:
REMARK  status: ('A' for Active; 'I' for Inactive)
REMARK    1  A    between atoms: C_3  and  N_4 
REMARK       I    between atoms: N_4  and  C_5 
REMARK    2  A    between atoms: C_5  and  C_6 
REMARK    3  A    between atoms: C_14  and  N_15 
REMARK       I    between atoms: N_15  and  C_16 
REMARK       I    between atoms: C_16  and  N_17 
REMARK    4  A    between atoms: N_17  and  C_18 
REMARK    5  A    between atoms: C_18  and  C_19 
REMARK    6  A    between atoms: C_19  and  N_20 
ROOT
HETATM    1  N   UNL     1      -4.913   1.990 -31.449  1.00  0.00    -0.309 N 
HETATM    2  C   UNL     1      -4.276   3.141 -31.123  1.00  0.00     0.321 C 
HETATM    3  N   UNL     1      -4.951   4.055 -30.384  1.00  0.00    -0.337 N 
HETATM    4  O   UNL     1      -3.091   3.302 -31.416  1.00  0.00    -0.247 OA
HETATM    5  H   UNL     1      -4.274   1.259 -31.742  1.00  0.00     0.170 HD
HETATM    6  H   UNL     1      -5.834   3.741 -29.994  1.00  0.00     0.164 HD
ENDROOT
BRANCH   1   7
HETATM    7  C   UNL     1      -6.276   1.716 -31.684  1.00  0.00     0.036 A 
HETATM    8  C   UNL     1      -7.304   2.041 -30.805  1.00  0.00     0.032 A 
HETATM    9  C   UNL     1      -8.640   1.811 -31.158  1.00  0.00     0.032 A 
HETATM   10  C   UNL     1      -8.980   1.262 -32.399  1.00  0.00     0.041 A 
HETATM   11  C   UNL     1      -7.946   0.927 -33.295  1.00  0.00    -0.033 A 
HETATM   12  C   UNL     1      -8.219   0.348 -34.659  1.00  0.00     0.050 C 
HETATM   13  C   UNL     1      -6.608   1.169 -32.928  1.00  0.00     0.038 A 
BRANCH  10  14
HETATM   14  N   UNL     1     -10.318   1.057 -32.798  1.00  0.00    -0.321 N 
HETATM   15  C   UNL     1     -11.175   1.923 -33.456  1.00  0.00     0.279 C 
HETATM   16  O   UNL     1     -10.908   3.074 -33.787  1.00  0.00    -0.265 OA
HETATM   17  H   UNL     1     -10.722   0.143 -32.630  1.00  0.00     0.169 HD
BRANCH  15  18
HETATM   18  C   UNL     1     -12.462   1.312 -33.740  1.00  0.00     0.142 A 
HETATM   19  O   UNL     1     -12.660  -0.011 -33.426  1.00  0.00    -0.317 OA
HETATM   20  C   UNL     1     -13.929  -0.323 -33.794  1.00  0.00     0.143 A 
HETATM   21  C   UNL     1     -14.554   0.769 -34.348  1.00  0.00     0.027 A 
HETATM   22  C   UNL     1     -13.611   1.824 -34.311  1.00  0.00     0.045 A 
ENDBRANCH  15  18
ENDBRANCH  10  14
ENDBRANCH   1   7
BRANCH   3  23
HETATM   23  C   UNL     1      -4.543   5.441 -30.132  1.00  0.00     0.108 C 
HETATM   24  C   UNL     1      -5.160   5.946 -28.831  1.00  0.00     0.034 C 
BRANCH  23  25
HETATM   25  C   UNL     1      -4.685   6.424 -31.335  1.00  0.00     0.259 C 
BRANCH  25  26
HETATM   26  N   UNL     1      -3.390   6.806 -32.024  1.00  0.00    -0.069 N 
HETATM   27  H   UNL     1      -3.436   7.841 -32.146  1.00  0.00     0.280 HD
HETATM   28  C   UNL     1      -2.140   6.520 -31.235  1.00  0.00     0.239 C 
HETATM   29  C   UNL     1      -0.941   7.169 -31.931  1.00  0.00     0.007 C 
HETATM   30  C   UNL     1      -0.803   6.642 -33.362  1.00  0.00     0.007 C 
HETATM   31  C   UNL     1       0.340   6.925 -31.137  1.00  0.00     0.011 C 
HETATM   32  C   UNL     1      -2.096   6.840 -34.145  1.00  0.00     0.028 C 
HETATM   33  C   UNL     1      -3.301   6.249 -33.425  1.00  0.00     0.235 C 
ENDBRANCH  25  26
ENDBRANCH  23  25
ENDBRANCH   3  23
TORSDOF 6
ENDMDL
MODEL 10
REMARK VINA RESULT:      -7.7     19.365     23.274
REMARK  6 active torsions:
REMARK  status: ('A' for Active; 'I' for Inactive)
REMARK    1  A    between atoms: C_3  and  N_4 
REMARK       I    between atoms: N_4  and  C_5 
REMARK    2  A    between atoms: C_5  and  C_6 
REMARK    3  A    between atoms: C_14  and  N_15 
REMARK       I    between atoms: N_15  and  C_16 
REMARK       I    between atoms: C_16  and  N_17 
REMARK    4  A    between atoms: N_17  and  C_18 
REMARK    5  A    between atoms: C_18  and  C_19 
REMARK    6  A    between atoms: C_19  and  N_20 
ROOT
HETATM    1  N   UNL     1      -5.884 -12.977 -36.760  1.00  0.00    -0.309 N 
HETATM    2  C   UNL     1      -4.537 -13.120 -36.802  1.00  0.00     0.321 C 
HETATM    3  N   UNL     1      -3.933 -13.104 -38.015  1.00  0.00    -0.337 N 
HETATM    4  O   UNL     1      -3.882 -13.170 -35.761  1.00  0.00    -0.247 OA
HETATM    5  H   UNL     1      -6.220 -12.716 -35.839  1.00  0.00     0.170 HD
HETATM    6  H   UNL     1      -4.518 -12.827 -38.796  1.00  0.00     0.164 HD
ENDROOT
BRANCH   1   7
HETATM    7  C   UNL     1      -6.888 -13.356 -37.674  1.00  0.00     0.036 A 
HETATM    8  C   UNL     1      -7.317 -12.568 -38.738  1.00  0.00     0.032 A 
HETATM    9  C   UNL     1      -8.259 -13.060 -39.651  1.00  0.00     0.032 A 
HETATM   10  C   UNL     1      -8.786 -14.350 -39.528  1.00  0.00     0.041 A 
HETATM   11  C   UNL     1      -8.361 -15.154 -38.452  1.00  0.00    -0.033 A 
HETATM   12  C   UNL     1      -8.861 -16.561 -38.251  1.00  0.00     0.050 C 
HETATM   13  C   UNL     1      -7.408 -14.647 -37.546  1.00  0.00     0.038 A 
BRANCH  10  14
HETATM   14  N   UNL     1      -9.705 -14.887 -40.454  1.00  0.00    -0.321 N 
HETATM   15  C   UNL     1     -10.982 -14.453 -40.768  1.00  0.00     0.279 C 
HETATM   16  O   UNL     1     -11.560 -13.506 -40.247  1.00  0.00    -0.265 OA
HETATM   17  H   UNL     1      -9.401 -15.677 -41.012  1.00  0.00     0.169 HD
BRANCH  15  18
HETATM   18  C   UNL     1     -11.588 -15.247 -41.823  1.00  0.00     0.142 A 
HETATM   19  O   UNL     1     -12.956 -15.256 -41.955  1.00  0.00    -0.317 OA
HETATM   20  C   UNL     1     -13.251 -16.068 -43.002  1.00  0.00     0.143 A 
HETATM   21  C   UNL     1     -12.103 -16.593 -43.546  1.00  0.00     0.027 A 
HETATM   22  C   UNL     1     -11.030 -16.062 -42.789  1.00  0.00     0.045 A 
ENDBRANCH  15  18
ENDBRANCH  10  14
ENDBRANCH   1   7
BRANCH   3  23
HETATM   23  C   UNL     1      -2.543 -13.478 -38.299  1.00  0.00     0.108 C 
HETATM   24  C   UNL     1      -1.654 -12.238 -38.310  1.00  0.00     0.034 C 
BRANCH  23  25
HETATM   25  C   UNL     1      -2.327 -14.436 -39.511  1.00  0.00     0.259 C 
BRANCH  25  26
HETATM   26  N   UNL     1      -3.536 -14.650 -40.400  1.00  0.00    -0.069 N 
HETATM   27  H   UNL     1      -4.151 -13.825 -40.234  1.00  0.00     0.280 HD
HETATM   28  C   UNL     1      -3.243 -14.680 -41.877  1.00  0.00     0.239 C 
HETATM   29  C   UNL     1      -4.561 -14.657 -42.655  1.00  0.00     0.007 C 
HETATM   30  C   UNL     1      -5.438 -15.849 -42.258  1.00  0.00     0.007 C 
HETATM   31  C   UNL     1      -4.298 -14.653 -44.159  1.00  0.00     0.011 C 
HETATM   32  C   UNL     1      -5.663 -15.884 -40.751  1.00  0.00     0.028 C 
HETATM   33  C   UNL     1      -4.355 -15.844 -39.972  1.00  0.00     0.235 C 
ENDBRANCH  25  26
ENDBRANCH  23  25
ENDBRANCH   3  23
TORSDOF 6
ENDMDL
