MODEL 1
REMARK VINA RESULT:      -9.1      0.000      0.000
REMARK  9 active torsions:
REMARK  status: ('A' for Active; 'I' for Inactive)
REMARK    1  A    between atoms: C_2  and  O_3 
REMARK    2  A    between atoms: O_3  and  C_4 
REMARK    3  A    between atoms: C_5  and  C_6 
REMARK    4  A    between atoms: N_7  and  C_9 
REMARK    5  A    between atoms: C_9  and  C_10 
REMARK       I    between atoms: C_10  and  N_11 
REMARK    6  A    between atoms: N_11  and  C_12 
REMARK    7  A    between atoms: C_20  and  C_21 
REMARK    8  A    between atoms: C_21  and  O_22 
REMARK    9  A    between atoms: C_28  and  O_29 
ROOT
HETATM    1  C   UNL     1      -4.315   4.992 -31.162  1.00  0.00     0.231 C 
HETATM    2  N   UNL     1      -5.289   3.812 -31.141  1.00  0.00    -0.054 N 
HETATM    3  H   UNL     1      -4.725   2.971 -31.334  1.00  0.00     0.281 HD
HETATM    4  C   UNL     1      -5.851   3.588 -29.756  1.00  0.00     0.239 C 
HETATM    5  C   UNL     1      -6.565   4.836 -29.255  1.00  0.00     0.066 C 
HETATM    6  C   UNL     1      -5.624   6.042 -29.249  1.00  0.00     0.065 C 
HETATM    7  C   UNL     1      -5.026   6.279 -30.660  1.00  0.00     0.055 C 
HETATM    8  C   UNL     1      -6.345   7.304 -28.748  1.00  0.00     0.038 C 
HETATM    9  C   UNL     1      -5.419   8.520 -28.735  1.00  0.00     0.003 C 
HETATM   10  C   UNL     1      -4.774   8.747 -30.098  1.00  0.00     0.001 C 
HETATM   11  C   UNL     1      -4.073   7.495 -30.624  1.00  0.00     0.010 C 
ENDROOT
BRANCH   2  12
HETATM   12  C   UNL     1      -6.343   3.774 -32.252  1.00  0.00     0.338 C 
BRANCH  12  13
HETATM   13  C   UNL     1      -6.187   2.539 -33.146  1.00  0.00     0.248 C 
HETATM   14  N   UNL     1      -6.182   1.353 -32.443  1.00  0.00    -0.319 N 
HETATM   15  H   UNL     1      -6.427   1.353 -31.451  1.00  0.00     0.169 HD
HETATM   16  O   UNL     1      -6.029   2.715 -34.352  1.00  0.00    -0.271 OA
BRANCH  14  17
HETATM   17  C   UNL     1      -5.881   0.086 -32.935  1.00  0.00     0.094 A 
HETATM   18  S   UNL     1      -4.425  -0.688 -32.547  1.00  0.00    -0.075 SA
HETATM   19  C   UNL     1      -4.841  -2.069 -33.435  1.00  0.00    -0.008 A 
HETATM   20  C   UNL     1      -6.093  -1.976 -34.014  1.00  0.00    -0.026 A 
HETATM   21  C   UNL     1      -3.926  -3.254 -33.514  1.00  0.00     0.047 C 
HETATM   22  C   UNL     1      -6.653  -3.110 -34.834  1.00  0.00     0.041 C 
HETATM   23  C   UNL     1      -6.708  -0.690 -33.746  1.00  0.00     0.080 A 
HETATM   24  C   UNL     1      -5.877  -4.421 -34.627  1.00  0.00     0.005 C 
HETATM   25  C   UNL     1      -4.361  -4.194 -34.644  1.00  0.00     0.005 C 
BRANCH  23  26
HETATM   26  C   UNL     1      -8.009  -0.190 -34.205  1.00  0.00     0.296 C 
HETATM   27  O   UNL     1      -8.218   0.085 -35.385  1.00  0.00    -0.259 OA
BRANCH  26  28
HETATM   28  O   UNL     1      -8.933  -0.076 -33.214  1.00  0.00    -0.322 OA
HETATM   29  C   UNL     1      -9.767   1.081 -33.299  1.00  0.00     0.213 C 
ENDBRANCH  26  28
ENDBRANCH  23  26
ENDBRANCH  14  17
ENDBRANCH  12  13
ENDBRANCH   2  12
BRANCH   1  30
HETATM   30  C   UNL     1      -3.487   5.088 -32.439  1.00  0.00     0.006 A 
HETATM   31  C   UNL     1      -2.117   4.766 -32.528  1.00  0.00     0.077 A 
HETATM   32  C   UNL     1      -1.474   4.802 -33.773  1.00  0.00     0.037 A 
HETATM   33  C   UNL     1      -2.164   5.186 -34.923  1.00  0.00     0.003 A 
HETATM   34  C   UNL     1      -3.503   5.541 -34.844  1.00  0.00     0.001 A 
HETATM   35  C   UNL     1      -4.158   5.493 -33.615  1.00  0.00     0.012 A 
BRANCH  31  36
HETATM   36  O   UNL     1      -1.484   4.430 -31.359  1.00  0.00    -0.351 OA
BRANCH  36  37
HETATM   37  C   UNL     1      -0.788   5.474 -30.667  1.00  0.00     0.171 C 
HETATM   38  C   UNL     1       0.698   5.180 -30.749  1.00  0.00     0.034 C 
ENDBRANCH  36  37
ENDBRANCH  31  36
ENDBRANCH   1  30
BRANCH   6  39
HETATM   39  O   UNL     1      -4.553   5.723 -28.351  1.00  0.00    -0.389 OA
HETATM   40  H   UNL     1      -4.585   4.770 -28.135  1.00  0.00     0.210 HD
ENDBRANCH   6  39
TORSDOF 9
ENDMDL
MODEL 2
REMARK VINA RESULT:      -8.9      1.428      2.338
REMARK  9 active torsions:
REMARK  status: ('A' for Active; 'I' for Inactive)
REMARK    1  A    between atoms: C_2  and  O_3 
REMARK    2  A    between atoms: O_3  and  C_4 
REMARK    3  A    between atoms: C_5  and  C_6 
REMARK    4  A    between atoms: N_7  and  C_9 
REMARK    5  A    between atoms: C_9  and  C_10 
REMARK       I    between atoms: C_10  and  N_11 
REMARK    6  A    between atoms: N_11  and  C_12 
REMARK    7  A    between atoms: C_20  and  C_21 
REMARK    8  A    between atoms: C_21  and  O_22 
REMARK    9  A    between atoms: C_28  and  O_29 
ROOT
HETATM    1  C   UNL     1      -4.494   4.782 -31.205  1.00  0.00     0.231 C 
HETATM    2  N   UNL     1      -5.493   3.626 -31.294  1.00  0.00    -0.054 N 
HETATM    3  H   UNL     1      -4.941   2.788 -31.529  1.00  0.00     0.281 HD
HETATM    4  C   UNL     1      -6.100   3.320 -29.944  1.00  0.00     0.239 C 
HETATM    5  C   UNL     1      -6.802   4.546 -29.376  1.00  0.00     0.066 C 
HETATM    6  C   UNL     1      -5.837   5.726 -29.260  1.00  0.00     0.065 C 
HETATM    7  C   UNL     1      -5.193   6.047 -30.633  1.00  0.00     0.055 C 
HETATM    8  C   UNL     1      -6.545   6.966 -28.691  1.00  0.00     0.038 C 
HETATM    9  C   UNL     1      -5.594   8.157 -28.568  1.00  0.00     0.003 C 
HETATM   10  C   UNL     1      -4.905   8.463 -29.893  1.00  0.00     0.001 C 
HETATM   11  C   UNL     1      -4.216   7.235 -30.486  1.00  0.00     0.010 C 
ENDROOT
BRANCH   2  12
HETATM   12  C   UNL     1      -6.515   3.690 -32.433  1.00  0.00     0.338 C 
BRANCH  12  13
HETATM   13  C   UNL     1      -6.480   2.429 -33.303  1.00  0.00     0.248 C 
HETATM   14  N   UNL     1      -6.450   1.260 -32.571  1.00  0.00    -0.319 N 
HETATM   15  H   UNL     1      -6.605   1.294 -31.562  1.00  0.00     0.169 HD
HETATM   16  O   UNL     1      -6.425   2.570 -34.523  1.00  0.00    -0.271 OA
BRANCH  14  17
HETATM   17  C   UNL     1      -6.236  -0.028 -33.053  1.00  0.00     0.094 A 
HETATM   18  S   UNL     1      -7.463  -0.888 -33.844  1.00  0.00    -0.075 SA
HETATM   19  C   UNL     1      -6.451  -2.218 -34.116  1.00  0.00    -0.008 A 
HETATM   20  C   UNL     1      -5.168  -2.022 -33.638  1.00  0.00    -0.026 A 
HETATM   21  C   UNL     1      -6.937  -3.437 -34.842  1.00  0.00     0.047 C 
HETATM   22  C   UNL     1      -4.111  -3.084 -33.798  1.00  0.00     0.041 C 
HETATM   23  C   UNL     1      -5.038  -0.736 -32.982  1.00  0.00     0.080 A 
HETATM   24  C   UNL     1      -4.511  -4.159 -34.821  1.00  0.00     0.005 C 
HETATM   25  C   UNL     1      -5.967  -4.606 -34.640  1.00  0.00     0.005 C 
BRANCH  23  26
HETATM   26  C   UNL     1      -3.857  -0.166 -32.320  1.00  0.00     0.296 C 
HETATM   27  O   UNL     1      -3.436   0.955 -32.599  1.00  0.00    -0.259 OA
BRANCH  26  28
HETATM   28  O   UNL     1      -3.305  -0.985 -31.386  1.00  0.00    -0.322 OA
HETATM   29  C   UNL     1      -1.892  -1.161 -31.501  1.00  0.00     0.213 C 
ENDBRANCH  26  28
ENDBRANCH  23  26
ENDBRANCH  14  17
ENDBRANCH  12  13
ENDBRANCH   2  12
BRANCH   1  30
HETATM   30  C   UNL     1      -3.628   4.948 -32.448  1.00  0.00     0.006 A 
HETATM   31  C   UNL     1      -2.233   4.739 -32.483  1.00  0.00     0.077 A 
HETATM   32  C   UNL     1      -1.547   4.830 -33.702  1.00  0.00     0.037 A 
HETATM   33  C   UNL     1      -2.221   5.158 -34.879  1.00  0.00     0.003 A 
HETATM   34  C   UNL     1      -3.586   5.401 -34.853  1.00  0.00     0.001 A 
HETATM   35  C   UNL     1      -4.283   5.297 -33.651  1.00  0.00     0.012 A 
BRANCH  31  36
HETATM   36  O   UNL     1      -1.621   4.455 -31.289  1.00  0.00    -0.351 OA
BRANCH  36  37
HETATM   37  C   UNL     1      -0.864   5.505 -30.675  1.00  0.00     0.171 C 
HETATM   38  C   UNL     1       0.592   5.079 -30.652  1.00  0.00     0.034 C 
ENDBRANCH  36  37
ENDBRANCH  31  36
ENDBRANCH   1  30
BRANCH   6  39
HETATM   39  O   UNL     1      -4.799   5.321 -28.357  1.00  0.00    -0.389 OA
HETATM   40  H   UNL     1      -3.985   5.134 -28.864  1.00  0.00     0.210 HD
ENDBRANCH   6  39
TORSDOF 9
ENDMDL
MODEL 3
REMARK VINA RESULT:      -8.8      2.267      3.223
REMARK  9 active torsions:
REMARK  status: ('A' for Active; 'I' for Inactive)
REMARK    1  A    between atoms: C_2  and  O_3 
REMARK    2  A    between atoms: O_3  and  C_4 
REMARK    3  A    between atoms: C_5  and  C_6 
REMARK    4  A    between atoms: N_7  and  C_9 
REMARK    5  A    between atoms: C_9  and  C_10 
REMARK       I    between atoms: C_10  and  N_11 
REMARK    6  A    between atoms: N_11  and  C_12 
REMARK    7  A    between atoms: C_20  and  C_21 
REMARK    8  A    between atoms: C_21  and  O_22 
REMARK    9  A    between atoms: C_28  and  O_29 
ROOT
HETATM    1  C   UNL     1      -3.220   6.673 -30.274  1.00  0.00     0.231 C 
HETATM    2  N   UNL     1      -4.416   5.845 -29.799  1.00  0.00    -0.054 N 
HETATM    3  H   UNL     1      -4.098   4.864 -29.787  1.00  0.00     0.281 HD
HETATM    4  C   UNL     1      -4.760   6.154 -28.360  1.00  0.00     0.239 C 
HETATM    5  C   UNL     1      -5.075   7.633 -28.186  1.00  0.00     0.066 C 
HETATM    6  C   UNL     1      -3.901   8.502 -28.640  1.00  0.00     0.065 C 
HETATM    7  C   UNL     1      -3.523   8.189 -30.111  1.00  0.00     0.055 C 
HETATM    8  C   UNL     1      -4.220   9.996 -28.469  1.00  0.00     0.038 C 
HETATM    9  C   UNL     1      -3.056  10.879 -28.919  1.00  0.00     0.003 C 
HETATM   10  C   UNL     1      -2.627  10.558 -30.346  1.00  0.00     0.001 C 
HETATM   11  C   UNL     1      -2.330   9.072 -30.541  1.00  0.00     0.010 C 
ENDROOT
BRANCH   2  12
HETATM   12  C   UNL     1      -5.630   5.797 -30.731  1.00  0.00     0.338 C 
BRANCH  12  13
HETATM   13  C   UNL     1      -6.065   4.358 -31.028  1.00  0.00     0.248 C 
HETATM   14  N   UNL     1      -5.349   3.770 -32.049  1.00  0.00    -0.319 N 
HETATM   15  H   UNL     1      -4.519   4.238 -32.418  1.00  0.00     0.169 HD
HETATM   16  O   UNL     1      -7.011   3.897 -30.393  1.00  0.00    -0.271 OA
BRANCH  14  17
HETATM   17  C   UNL     1      -5.616   2.553 -32.671  1.00  0.00     0.094 A 
HETATM   18  S   UNL     1      -6.695   2.446 -33.972  1.00  0.00    -0.075 SA
HETATM   19  C   UNL     1      -6.432   0.782 -34.144  1.00  0.00    -0.008 A 
HETATM   20  C   UNL     1      -5.508   0.289 -33.240  1.00  0.00    -0.026 A 
HETATM   21  C   UNL     1      -7.124  -0.014 -35.209  1.00  0.00     0.047 C 
HETATM   22  C   UNL     1      -5.124  -1.168 -33.242  1.00  0.00     0.041 C 
HETATM   23  C   UNL     1      -5.037   1.328 -32.344  1.00  0.00     0.080 A 
HETATM   24  C   UNL     1      -5.566  -1.888 -34.526  1.00  0.00     0.005 C 
HETATM   25  C   UNL     1      -6.998  -1.516 -34.926  1.00  0.00     0.005 C 
BRANCH  23  26
HETATM   26  C   UNL     1      -4.085   1.209 -31.234  1.00  0.00     0.296 C 
HETATM   27  O   UNL     1      -3.039   1.855 -31.205  1.00  0.00    -0.259 OA
BRANCH  26  28
HETATM   28  O   UNL     1      -4.480   0.342 -30.264  1.00  0.00    -0.322 OA
HETATM   29  C   UNL     1      -5.712   0.676 -29.623  1.00  0.00     0.213 C 
ENDBRANCH  26  28
ENDBRANCH  23  26
ENDBRANCH  14  17
ENDBRANCH  12  13
ENDBRANCH   2  12
BRANCH   1  30
HETATM   30  C   UNL     1      -2.630   6.204 -31.600  1.00  0.00     0.006 A 
HETATM   31  C   UNL     1      -1.527   5.333 -31.719  1.00  0.00     0.077 A 
HETATM   32  C   UNL     1      -1.123   4.892 -32.986  1.00  0.00     0.037 A 
HETATM   33  C   UNL     1      -1.778   5.331 -34.137  1.00  0.00     0.003 A 
HETATM   34  C   UNL     1      -2.841   6.216 -34.037  1.00  0.00     0.001 A 
HETATM   35  C   UNL     1      -3.263   6.648 -32.782  1.00  0.00     0.012 A 
BRANCH  31  36
HETATM   36  O   UNL     1      -0.902   4.965 -30.554  1.00  0.00    -0.351 OA
BRANCH  36  37
HETATM   37  C   UNL     1       0.458   5.381 -30.381  1.00  0.00     0.171 C 
HETATM   38  C   UNL     1       0.447   6.754 -29.734  1.00  0.00     0.034 C 
ENDBRANCH  36  37
ENDBRANCH  31  36
ENDBRANCH   1  30
BRANCH   6  39
HETATM   39  O   UNL     1      -2.788   8.158 -27.804  1.00  0.00    -0.389 OA
HETATM   40  H   UNL     1      -2.593   7.206 -27.901  1.00  0.00     0.210 HD
ENDBRANCH   6  39
TORSDOF 9
ENDMDL
MODEL 4
REMARK VINA RESULT:      -8.7      1.942      4.285
REMARK  9 active torsions:
REMARK  status: ('A' for Active; 'I' for Inactive)
REMARK    1  A    between atoms: C_2  and  O_3 
REMARK    2  A    between atoms: O_3  and  C_4 
REMARK    3  A    between atoms: C_5  and  C_6 
REMARK    4  A    between atoms: N_7  and  C_9 
REMARK    5  A    between atoms: C_9  and  C_10 
REMARK       I    between atoms: C_10  and  N_11 
REMARK    6  A    between atoms: N_11  and  C_12 
REMARK    7  A    between atoms: C_20  and  C_21 
REMARK    8  A    between atoms: C_21  and  O_22 
REMARK    9  A    between atoms: C_28  and  O_29 
ROOT
HETATM    1  C   UNL     1      -4.533   4.968 -32.101  1.00  0.00     0.231 C 
HETATM    2  N   UNL     1      -3.806   3.671 -32.465  1.00  0.00    -0.054 N 
HETATM    3  H   UNL     1      -4.498   3.083 -32.954  1.00  0.00     0.281 HD
HETATM    4  C   UNL     1      -2.722   3.918 -33.489  1.00  0.00     0.239 C 
HETATM    5  C   UNL     1      -1.709   4.929 -32.968  1.00  0.00     0.066 C 
HETATM    6  C   UNL     1      -2.390   6.248 -32.599  1.00  0.00     0.065 C 
HETATM    7  C   UNL     1      -3.517   6.013 -31.560  1.00  0.00     0.055 C 
HETATM    8  C   UNL     1      -1.370   7.268 -32.069  1.00  0.00     0.038 C 
HETATM    9  C   UNL     1      -2.034   8.594 -31.695  1.00  0.00     0.003 C 
HETATM   10  C   UNL     1      -3.183   8.388 -30.714  1.00  0.00     0.001 C 
HETATM   11  C   UNL     1      -4.194   7.358 -31.213  1.00  0.00     0.010 C 
ENDROOT
BRANCH   2  12
HETATM   12  C   UNL     1      -3.368   2.779 -31.299  1.00  0.00     0.338 C 
BRANCH  12  13
HETATM   13  C   UNL     1      -3.371   1.296 -31.683  1.00  0.00     0.248 C 
HETATM   14  N   UNL     1      -4.202   1.007 -32.744  1.00  0.00    -0.319 N 
HETATM   15  H   UNL     1      -4.618   1.770 -33.281  1.00  0.00     0.169 HD
HETATM   16  O   UNL     1      -2.704   0.521 -31.001  1.00  0.00    -0.271 OA
BRANCH  14  17
HETATM   17  C   UNL     1      -4.561  -0.254 -33.213  1.00  0.00     0.094 A 
HETATM   18  S   UNL     1      -3.519  -1.581 -33.057  1.00  0.00    -0.075 SA
HETATM   19  C   UNL     1      -4.636  -2.631 -33.776  1.00  0.00    -0.008 A 
HETATM   20  C   UNL     1      -5.818  -2.002 -34.119  1.00  0.00    -0.026 A 
HETATM   21  C   UNL     1      -4.336  -4.089 -33.957  1.00  0.00     0.047 C 
HETATM   22  C   UNL     1      -6.947  -2.770 -34.758  1.00  0.00     0.041 C 
HETATM   23  C   UNL     1      -5.774  -0.586 -33.813  1.00  0.00     0.080 A 
HETATM   24  C   UNL     1      -6.769  -4.291 -34.626  1.00  0.00     0.005 C 
HETATM   25  C   UNL     1      -5.331  -4.726 -34.934  1.00  0.00     0.005 C 
BRANCH  23  26
HETATM   26  C   UNL     1      -6.806   0.430 -34.052  1.00  0.00     0.296 C 
HETATM   27  O   UNL     1      -7.238   0.664 -35.180  1.00  0.00    -0.259 OA
BRANCH  26  28
HETATM   28  O   UNL     1      -7.229   1.058 -32.922  1.00  0.00    -0.322 OA
HETATM   29  C   UNL     1      -8.450   0.557 -32.376  1.00  0.00     0.213 C 
ENDBRANCH  26  28
ENDBRANCH  23  26
ENDBRANCH  14  17
ENDBRANCH  12  13
ENDBRANCH   2  12
BRANCH   1  30
HETATM   30  C   UNL     1      -5.821   4.755 -31.314  1.00  0.00     0.006 A 
HETATM   31  C   UNL     1      -7.059   4.399 -31.891  1.00  0.00     0.077 A 
HETATM   32  C   UNL     1      -8.161   4.138 -31.065  1.00  0.00     0.037 A 
HETATM   33  C   UNL     1      -8.060   4.258 -29.679  1.00  0.00     0.003 A 
HETATM   34  C   UNL     1      -6.858   4.642 -29.101  1.00  0.00     0.001 A 
HETATM   35  C   UNL     1      -5.751   4.888 -29.909  1.00  0.00     0.012 A 
BRANCH  31  36
HETATM   36  O   UNL     1      -7.105   4.331 -33.259  1.00  0.00    -0.351 OA
BRANCH  36  37
HETATM   37  C   UNL     1      -8.267   4.870 -33.903  1.00  0.00     0.171 C 
HETATM   38  C   UNL     1      -9.178   3.714 -34.270  1.00  0.00     0.034 C 
ENDBRANCH  36  37
ENDBRANCH  31  36
ENDBRANCH   1  30
BRANCH   6  39
HETATM   39  O   UNL     1      -2.983   6.755 -33.802  1.00  0.00    -0.389 OA
HETATM   40  H   UNL     1      -3.107   7.721 -33.719  1.00  0.00     0.210 HD
ENDBRANCH   6  39
TORSDOF 9
ENDMDL
MODEL 5
REMARK VINA RESULT:      -8.5      2.328      8.759
REMARK  9 active torsions:
REMARK  status: ('A' for Active; 'I' for Inactive)
REMARK    1  A    between atoms: C_2  and  O_3 
REMARK    2  A    between atoms: O_3  and  C_4 
REMARK    3  A    between atoms: C_5  and  C_6 
REMARK    4  A    between atoms: N_7  and  C_9 
REMARK    5  A    between atoms: C_9  and  C_10 
REMARK       I    between atoms: C_10  and  N_11 
REMARK    6  A    between atoms: N_11  and  C_12 
REMARK    7  A    between atoms: C_20  and  C_21 
REMARK    8  A    between atoms: C_21  and  O_22 
REMARK    9  A    between atoms: C_28  and  O_29 
ROOT
HETATM    1  C   UNL     1      -6.988   0.852 -32.847  1.00  0.00     0.231 C 
HETATM    2  N   UNL     1      -6.006   2.025 -32.853  1.00  0.00    -0.054 N 
HETATM    3  H   UNL     1      -6.334   2.677 -32.125  1.00  0.00     0.281 HD
HETATM    4  C   UNL     1      -4.633   1.594 -32.391  1.00  0.00     0.239 C 
HETATM    5  C   UNL     1      -4.089   0.482 -33.278  1.00  0.00     0.066 C 
HETATM    6  C   UNL     1      -5.036  -0.719 -33.294  1.00  0.00     0.065 C 
HETATM    7  C   UNL     1      -6.455  -0.293 -33.753  1.00  0.00     0.055 C 
HETATM    8  C   UNL     1      -4.491  -1.841 -34.193  1.00  0.00     0.038 C 
HETATM    9  C   UNL     1      -5.426  -3.050 -34.221  1.00  0.00     0.003 C 
HETATM   10  C   UNL     1      -6.844  -2.654 -34.618  1.00  0.00     0.001 C 
HETATM   11  C   UNL     1      -7.393  -1.522 -33.751  1.00  0.00     0.010 C 
ENDROOT
BRANCH   2  12
HETATM   12  C   UNL     1      -5.991   2.901 -34.110  1.00  0.00     0.338 C 
BRANCH  12  13
HETATM   13  C   UNL     1      -5.185   4.187 -33.901  1.00  0.00     0.248 C 
HETATM   14  N   UNL     1      -4.968   4.486 -32.572  1.00  0.00    -0.319 N 
HETATM   15  H   UNL     1      -5.203   3.797 -31.856  1.00  0.00     0.169 HD
HETATM   16  O   UNL     1      -4.867   4.838 -34.893  1.00  0.00    -0.271 OA
BRANCH  14  17
HETATM   17  C   UNL     1      -4.434   5.662 -32.052  1.00  0.00     0.094 A 
HETATM   18  S   UNL     1      -5.421   6.987 -31.675  1.00  0.00    -0.075 SA
HETATM   19  C   UNL     1      -4.106   7.893 -31.111  1.00  0.00    -0.008 A 
HETATM   20  C   UNL     1      -2.911   7.201 -31.175  1.00  0.00    -0.026 A 
HETATM   21  C   UNL     1      -4.286   9.280 -30.571  1.00  0.00     0.047 C 
HETATM   22  C   UNL     1      -1.625   7.830 -30.704  1.00  0.00     0.041 C 
HETATM   23  C   UNL     1      -3.091   5.885 -31.756  1.00  0.00     0.080 A 
HETATM   24  C   UNL     1      -1.866   9.088 -29.853  1.00  0.00     0.005 C 
HETATM   25  C   UNL     1      -2.935   9.998 -30.470  1.00  0.00     0.005 C 
BRANCH  23  26
HETATM   26  C   UNL     1      -2.073   4.862 -32.026  1.00  0.00     0.296 C 
HETATM   27  O   UNL     1      -2.117   3.750 -31.501  1.00  0.00    -0.259 OA
BRANCH  26  28
HETATM   28  O   UNL     1      -1.113   5.261 -32.900  1.00  0.00    -0.322 OA
HETATM   29  C   UNL     1      -1.491   5.205 -34.277  1.00  0.00     0.213 C 
ENDBRANCH  26  28
ENDBRANCH  23  26
ENDBRANCH  14  17
ENDBRANCH  12  13
ENDBRANCH   2  12
BRANCH   1  30
HETATM   30  C   UNL     1      -8.447   1.266 -33.008  1.00  0.00     0.006 A 
HETATM   31  C   UNL     1      -9.181   1.991 -32.046  1.00  0.00     0.077 A 
HETATM   32  C   UNL     1     -10.491   2.400 -32.334  1.00  0.00     0.037 A 
HETATM   33  C   UNL     1     -11.091   2.069 -33.549  1.00  0.00     0.003 A 
HETATM   34  C   UNL     1     -10.393   1.326 -34.490  1.00  0.00     0.001 A 
HETATM   35  C   UNL     1      -9.085   0.928 -34.222  1.00  0.00     0.012 A 
BRANCH  31  36
HETATM   36  O   UNL     1      -8.550   2.255 -30.858  1.00  0.00    -0.351 OA
BRANCH  36  37
HETATM   37  C   UNL     1      -8.411   3.631 -30.482  1.00  0.00     0.171 C 
HETATM   38  C   UNL     1      -7.107   3.779 -29.722  1.00  0.00     0.034 C 
ENDBRANCH  36  37
ENDBRANCH  31  36
ENDBRANCH   1  30
BRANCH   6  39
HETATM   39  O   UNL     1      -5.120  -1.195 -31.945  1.00  0.00    -0.389 OA
HETATM   40  H   UNL     1      -4.831  -2.128 -31.913  1.00  0.00     0.210 HD
ENDBRANCH   6  39
TORSDOF 9
ENDMDL
MODEL 6
REMARK VINA RESULT:      -8.4      1.377      1.715
REMARK  9 active torsions:
REMARK  status: ('A' for Active; 'I' for Inactive)
REMARK    1  A    between atoms: C_2  and  O_3 
REMARK    2  A    between atoms: O_3  and  C_4 
REMARK    3  A    between atoms: C_5  and  C_6 
REMARK    4  A    between atoms: N_7  and  C_9 
REMARK    5  A    between atoms: C_9  and  C_10 
REMARK       I    between atoms: C_10  and  N_11 
REMARK    6  A    between atoms: N_11  and  C_12 
REMARK    7  A    between atoms: C_20  and  C_21 
REMARK    8  A    between atoms: C_21  and  O_22 
REMARK    9  A    between atoms: C_28  and  O_29 
ROOT
HETATM    1  C   UNL     1      -4.014   6.111 -30.437  1.00  0.00     0.231 C 
HETATM    2  N   UNL     1      -4.868   5.021 -29.785  1.00  0.00    -0.054 N 
HETATM    3  H   UNL     1      -4.275   4.179 -29.744  1.00  0.00     0.281 HD
HETATM    4  C   UNL     1      -5.169   5.350 -28.341  1.00  0.00     0.239 C 
HETATM    5  C   UNL     1      -5.892   6.686 -28.231  1.00  0.00     0.066 C 
HETATM    6  C   UNL     1      -5.069   7.809 -28.862  1.00  0.00     0.065 C 
HETATM    7  C   UNL     1      -4.737   7.483 -30.342  1.00  0.00     0.055 C 
HETATM    8  C   UNL     1      -5.799   9.158 -28.756  1.00  0.00     0.038 C 
HETATM    9  C   UNL     1      -4.990  10.293 -29.382  1.00  0.00     0.003 C 
HETATM   10  C   UNL     1      -4.603   9.977 -30.823  1.00  0.00     0.001 C 
HETATM   11  C   UNL     1      -3.897   8.628 -30.952  1.00  0.00     0.010 C 
ENDROOT
BRANCH   2  12
HETATM   12  C   UNL     1      -6.086   4.539 -30.579  1.00  0.00     0.338 C 
BRANCH  12  13
HETATM   13  C   UNL     1      -6.042   3.028 -30.829  1.00  0.00     0.248 C 
HETATM   14  N   UNL     1      -5.503   2.691 -32.053  1.00  0.00    -0.319 N 
HETATM   15  H   UNL     1      -5.048   3.410 -32.618  1.00  0.00     0.169 HD
HETATM   16  O   UNL     1      -6.524   2.287 -29.975  1.00  0.00    -0.271 OA
BRANCH  14  17
HETATM   17  C   UNL     1      -5.488   1.432 -32.647  1.00  0.00     0.094 A 
HETATM   18  S   UNL     1      -4.153   0.401 -32.493  1.00  0.00    -0.075 SA
HETATM   19  C   UNL     1      -4.905  -0.821 -33.392  1.00  0.00    -0.008 A 
HETATM   20  C   UNL     1      -6.181  -0.479 -33.799  1.00  0.00    -0.026 A 
HETATM   21  C   UNL     1      -4.225  -2.132 -33.653  1.00  0.00     0.047 C 
HETATM   22  C   UNL     1      -7.023  -1.440 -34.598  1.00  0.00     0.041 C 
HETATM   23  C   UNL     1      -6.527   0.867 -33.384  1.00  0.00     0.080 A 
HETATM   24  C   UNL     1      -6.467  -2.873 -34.565  1.00  0.00     0.005 C 
HETATM   25  C   UNL     1      -4.948  -2.900 -34.766  1.00  0.00     0.005 C 
BRANCH  23  26
HETATM   26  C   UNL     1      -7.767   1.609 -33.643  1.00  0.00     0.296 C 
HETATM   27  O   UNL     1      -7.757   2.735 -34.139  1.00  0.00    -0.259 OA
BRANCH  26  28
HETATM   28  O   UNL     1      -8.893   0.932 -33.295  1.00  0.00    -0.322 OA
HETATM   29  C   UNL     1      -9.116   0.816 -31.889  1.00  0.00     0.213 C 
ENDBRANCH  26  28
ENDBRANCH  23  26
ENDBRANCH  14  17
ENDBRANCH  12  13
ENDBRANCH   2  12
BRANCH   1  30
HETATM   30  C   UNL     1      -3.422   5.710 -31.784  1.00  0.00     0.006 A 
HETATM   31  C   UNL     1      -2.154   5.117 -31.955  1.00  0.00     0.077 A 
HETATM   32  C   UNL     1      -1.745   4.704 -33.230  1.00  0.00     0.037 A 
HETATM   33  C   UNL     1      -2.564   4.902 -34.342  1.00  0.00     0.003 A 
HETATM   34  C   UNL     1      -3.799   5.517 -34.194  1.00  0.00     0.001 A 
HETATM   35  C   UNL     1      -4.224   5.917 -32.930  1.00  0.00     0.012 A 
BRANCH  31  36
HETATM   36  O   UNL     1      -1.380   4.981 -30.831  1.00  0.00    -0.351 OA
BRANCH  36  37
HETATM   37  C   UNL     1      -0.030   5.455 -30.903  1.00  0.00     0.171 C 
HETATM   38  C   UNL     1       0.729   4.888 -29.717  1.00  0.00     0.034 C 
ENDBRANCH  36  37
ENDBRANCH  31  36
ENDBRANCH   1  30
BRANCH   6  39
HETATM   39  O   UNL     1      -3.839   7.880 -28.128  1.00  0.00    -0.389 OA
HETATM   40  H   UNL     1      -3.849   8.675 -27.559  1.00  0.00     0.210 HD
ENDBRANCH   6  39
TORSDOF 9
ENDMDL
MODEL 7
REMARK VINA RESULT:      -8.4      2.314      3.741
REMARK  9 active torsions:
REMARK  status: ('A' for Active; 'I' for Inactive)
REMARK    1  A    between atoms: C_2  and  O_3 
REMARK    2  A    between atoms: O_3  and  C_4 
REMARK    3  A    between atoms: C_5  and  C_6 
REMARK    4  A    between atoms: N_7  and  C_9 
REMARK    5  A    between atoms: C_9  and  C_10 
REMARK       I    between atoms: C_10  and  N_11 
REMARK    6  A    between atoms: N_11  and  C_12 
REMARK    7  A    between atoms: C_20  and  C_21 
REMARK    8  A    between atoms: C_21  and  O_22 
REMARK    9  A    between atoms: C_28  and  O_29 
ROOT
HETATM    1  C   UNL     1      -2.755   7.076 -29.493  1.00  0.00     0.231 C 
HETATM    2  N   UNL     1      -4.037   6.251 -29.367  1.00  0.00    -0.054 N 
HETATM    3  H   UNL     1      -3.773   5.277 -29.581  1.00  0.00     0.281 HD
HETATM    4  C   UNL     1      -4.526   6.211 -27.938  1.00  0.00     0.239 C 
HETATM    5  C   UNL     1      -4.783   7.618 -27.416  1.00  0.00     0.066 C 
HETATM    6  C   UNL     1      -3.522   8.478 -27.513  1.00  0.00     0.065 C 
HETATM    7  C   UNL     1      -2.997   8.519 -28.971  1.00  0.00     0.055 C 
HETATM    8  C   UNL     1      -3.781   9.900 -26.990  1.00  0.00     0.038 C 
HETATM    9  C   UNL     1      -2.530  10.775 -27.080  1.00  0.00     0.003 C 
HETATM   10  C   UNL     1      -1.959  10.793 -28.494  1.00  0.00     0.001 C 
HETATM   11  C   UNL     1      -1.719   9.386 -29.040  1.00  0.00     0.010 C 
ENDROOT
BRANCH   2  12
HETATM   12  C   UNL     1      -5.139   6.536 -30.393  1.00  0.00     0.338 C 
BRANCH  12  13
HETATM   13  C   UNL     1      -5.874   5.258 -30.811  1.00  0.00     0.248 C 
HETATM   14  N   UNL     1      -5.048   4.315 -31.385  1.00  0.00    -0.319 N 
HETATM   15  H   UNL     1      -4.035   4.447 -31.355  1.00  0.00     0.169 HD
HETATM   16  O   UNL     1      -7.092   5.215 -30.655  1.00  0.00    -0.271 OA
BRANCH  14  17
HETATM   17  C   UNL     1      -5.431   3.139 -32.024  1.00  0.00     0.094 A 
HETATM   18  S   UNL     1      -5.347   1.641 -31.238  1.00  0.00    -0.075 SA
HETATM   19  C   UNL     1      -5.978   0.823 -32.581  1.00  0.00    -0.008 A 
HETATM   20  C   UNL     1      -6.284   1.671 -33.629  1.00  0.00    -0.026 A 
HETATM   21  C   UNL     1      -6.198  -0.660 -32.561  1.00  0.00     0.047 C 
HETATM   22  C   UNL     1      -6.872   1.137 -34.910  1.00  0.00     0.041 C 
HETATM   23  C   UNL     1      -5.939   3.044 -33.319  1.00  0.00     0.080 A 
HETATM   24  C   UNL     1      -7.403  -0.297 -34.758  1.00  0.00     0.005 C 
HETATM   25  C   UNL     1      -6.425  -1.188 -33.982  1.00  0.00     0.005 C 
BRANCH  23  26
HETATM   26  C   UNL     1      -6.076   4.232 -34.170  1.00  0.00     0.296 C 
HETATM   27  O   UNL     1      -7.001   5.030 -34.026  1.00  0.00    -0.259 OA
BRANCH  26  28
HETATM   28  O   UNL     1      -5.092   4.356 -35.100  1.00  0.00    -0.322 OA
HETATM   29  C   UNL     1      -4.017   5.220 -34.727  1.00  0.00     0.213 C 
ENDBRANCH  26  28
ENDBRANCH  23  26
ENDBRANCH  14  17
ENDBRANCH  12  13
ENDBRANCH   2  12
BRANCH   1  30
HETATM   30  C   UNL     1      -2.044   6.913 -30.832  1.00  0.00     0.006 A 
HETATM   31  C   UNL     1      -1.110   5.896 -31.122  1.00  0.00     0.077 A 
HETATM   32  C   UNL     1      -0.584   5.783 -32.417  1.00  0.00     0.037 A 
HETATM   33  C   UNL     1      -0.946   6.687 -33.416  1.00  0.00     0.003 A 
HETATM   34  C   UNL     1      -1.835   7.714 -33.135  1.00  0.00     0.001 A 
HETATM   35  C   UNL     1      -2.378   7.827 -31.857  1.00  0.00     0.012 A 
BRANCH  31  36
HETATM   36  O   UNL     1      -0.768   5.060 -30.090  1.00  0.00    -0.351 OA
BRANCH  36  37
HETATM   37  C   UNL     1       0.584   5.123 -29.618  1.00  0.00     0.171 C 
HETATM   38  C   UNL     1       0.616   6.046 -28.414  1.00  0.00     0.034 C 
ENDBRANCH  36  37
ENDBRANCH  31  36
ENDBRANCH   1  30
BRANCH   6  39
HETATM   39  O   UNL     1      -2.530   7.848 -26.692  1.00  0.00    -0.389 OA
HETATM   40  H   UNL     1      -1.641   8.121 -26.993  1.00  0.00     0.210 HD
ENDBRANCH   6  39
TORSDOF 9
ENDMDL
MODEL 8
REMARK VINA RESULT:      -8.3      1.773      3.644
REMARK  9 active torsions:
REMARK  status: ('A' for Active; 'I' for Inactive)
REMARK    1  A    between atoms: C_2  and  O_3 
REMARK    2  A    between atoms: O_3  and  C_4 
REMARK    3  A    between atoms: C_5  and  C_6 
REMARK    4  A    between atoms: N_7  and  C_9 
REMARK    5  A    between atoms: C_9  and  C_10 
REMARK       I    between atoms: C_10  and  N_11 
REMARK    6  A    between atoms: N_11  and  C_12 
REMARK    7  A    between atoms: C_20  and  C_21 
REMARK    8  A    between atoms: C_21  and  O_22 
REMARK    9  A    between atoms: C_28  and  O_29 
ROOT
HETATM    1  C   UNL     1      -4.533   5.047 -32.522  1.00  0.00     0.231 C 
HETATM    2  N   UNL     1      -3.662   3.789 -32.553  1.00  0.00    -0.054 N 
HETATM    3  H   UNL     1      -4.072   3.174 -33.272  1.00  0.00     0.281 HD
HETATM    4  C   UNL     1      -2.272   4.097 -33.061  1.00  0.00     0.239 C 
HETATM    5  C   UNL     1      -1.600   5.150 -32.189  1.00  0.00     0.066 C 
HETATM    6  C   UNL     1      -2.433   6.431 -32.137  1.00  0.00     0.065 C 
HETATM    7  C   UNL     1      -3.868   6.133 -31.631  1.00  0.00     0.055 C 
HETATM    8  C   UNL     1      -1.758   7.494 -31.254  1.00  0.00     0.038 C 
HETATM    9  C   UNL     1      -2.578   8.783 -31.190  1.00  0.00     0.003 C 
HETATM   10  C   UNL     1      -4.011   8.514 -30.746  1.00  0.00     0.001 C 
HETATM   11  C   UNL     1      -4.690   7.442 -31.597  1.00  0.00     0.010 C 
ENDROOT
BRANCH   2  12
HETATM   12  C   UNL     1      -3.684   2.908 -31.300  1.00  0.00     0.338 C 
BRANCH  12  13
HETATM   13  C   UNL     1      -3.668   1.417 -31.651  1.00  0.00     0.248 C 
HETATM   14  N   UNL     1      -4.385   1.114 -32.789  1.00  0.00    -0.319 N 
HETATM   15  H   UNL     1      -4.730   1.871 -33.383  1.00  0.00     0.169 HD
HETATM   16  O   UNL     1      -3.088   0.650 -30.885  1.00  0.00    -0.271 OA
BRANCH  14  17
HETATM   17  C   UNL     1      -4.709  -0.152 -33.266  1.00  0.00     0.094 A 
HETATM   18  S   UNL     1      -3.578  -1.413 -33.260  1.00  0.00    -0.075 SA
HETATM   19  C   UNL     1      -4.694  -2.511 -33.906  1.00  0.00    -0.008 A 
HETATM   20  C   UNL     1      -5.940  -1.949 -34.112  1.00  0.00    -0.026 A 
HETATM   21  C   UNL     1      -4.324  -3.940 -34.168  1.00  0.00     0.047 C 
HETATM   22  C   UNL     1      -7.077  -2.768 -34.667  1.00  0.00     0.041 C 
HETATM   23  C   UNL     1      -5.953  -0.543 -33.760  1.00  0.00     0.080 A 
HETATM   24  C   UNL     1      -6.794  -4.278 -34.608  1.00  0.00     0.005 C 
HETATM   25  C   UNL     1      -5.369  -4.610 -35.068  1.00  0.00     0.005 C 
BRANCH  23  26
HETATM   26  C   UNL     1      -7.064   0.411 -33.861  1.00  0.00     0.296 C 
HETATM   27  O   UNL     1      -7.058   1.328 -34.681  1.00  0.00    -0.259 OA
BRANCH  26  28
HETATM   28  O   UNL     1      -8.074   0.172 -32.984  1.00  0.00    -0.322 OA
HETATM   29  C   UNL     1      -7.945   0.830 -31.723  1.00  0.00     0.213 C 
ENDBRANCH  26  28
ENDBRANCH  23  26
ENDBRANCH  14  17
ENDBRANCH  12  13
ENDBRANCH   2  12
BRANCH   1  30
HETATM   30  C   UNL     1      -6.017   4.766 -32.313  1.00  0.00     0.006 A 
HETATM   31  C   UNL     1      -6.640   4.665 -31.051  1.00  0.00     0.077 A 
HETATM   32  C   UNL     1      -8.029   4.495 -30.973  1.00  0.00     0.037 A 
HETATM   33  C   UNL     1      -8.802   4.390 -32.130  1.00  0.00     0.003 A 
HETATM   34  C   UNL     1      -8.198   4.452 -33.377  1.00  0.00     0.001 A 
HETATM   35  C   UNL     1      -6.820   4.637 -33.468  1.00  0.00     0.012 A 
BRANCH  31  36
HETATM   36  O   UNL     1      -5.824   4.740 -29.951  1.00  0.00    -0.351 OA
BRANCH  36  37
HETATM   37  C   UNL     1      -6.356   5.379 -28.784  1.00  0.00     0.171 C 
HETATM   38  C   UNL     1      -5.211   6.070 -28.067  1.00  0.00     0.034 C 
ENDBRANCH  36  37
ENDBRANCH  31  36
ENDBRANCH   1  30
BRANCH   6  39
HETATM   39  O   UNL     1      -2.519   6.922 -33.481  1.00  0.00    -0.389 OA
HETATM   40  H   UNL     1      -2.613   6.167 -34.095  1.00  0.00     0.210 HD
ENDBRANCH   6  39
TORSDOF 9
ENDMDL
MODEL 9
REMARK VINA RESULT:      -8.2      3.375      7.925
REMARK  9 active torsions:
REMARK  status: ('A' for Active; 'I' for Inactive)
REMARK    1  A    between atoms: C_2  and  O_3 
REMARK    2  A    between atoms: O_3  and  C_4 
REMARK    3  A    between atoms: C_5  and  C_6 
REMARK    4  A    between atoms: N_7  and  C_9 
REMARK    5  A    between atoms: C_9  and  C_10 
REMARK       I    between atoms: C_10  and  N_11 
REMARK    6  A    between atoms: N_11  and  C_12 
REMARK    7  A    between atoms: C_20  and  C_21 
REMARK    8  A    between atoms: C_21  and  O_22 
REMARK    9  A    between atoms: C_28  and  O_29 
ROOT
HETATM    1  C   UNL     1      -5.554  -0.268 -33.128  1.00  0.00     0.231 C 
HETATM    2  N   UNL     1      -6.855  -0.256 -33.935  1.00  0.00    -0.054 N 
HETATM    3  H   UNL     1      -7.009   0.725 -34.215  1.00  0.00     0.281 HD
HETATM    4  C   UNL     1      -6.701  -1.008 -35.236  1.00  0.00     0.239 C 
HETATM    5  C   UNL     1      -6.284  -2.450 -34.980  1.00  0.00     0.066 C 
HETATM    6  C   UNL     1      -4.980  -2.511 -34.184  1.00  0.00     0.065 C 
HETATM    7  C   UNL     1      -5.114  -1.732 -32.850  1.00  0.00     0.055 C 
HETATM    8  C   UNL     1      -4.560  -3.966 -33.921  1.00  0.00     0.038 C 
HETATM    9  C   UNL     1      -3.257  -4.046 -33.125  1.00  0.00     0.003 C 
HETATM   10  C   UNL     1      -3.341  -3.245 -31.831  1.00  0.00     0.001 C 
HETATM   11  C   UNL     1      -3.781  -1.801 -32.070  1.00  0.00     0.010 C 
ENDROOT
BRANCH   2  12
HETATM   12  C   UNL     1      -8.139  -0.594 -33.170  1.00  0.00     0.338 C 
BRANCH  12  13
HETATM   13  C   UNL     1      -9.000   0.648 -32.923  1.00  0.00     0.248 C 
HETATM   14  N   UNL     1      -9.316   1.334 -34.077  1.00  0.00    -0.319 N 
HETATM   15  H   UNL     1      -9.106   0.915 -34.985  1.00  0.00     0.169 HD
HETATM   16  O   UNL     1      -9.273   0.940 -31.761  1.00  0.00    -0.271 OA
BRANCH  14  17
HETATM   17  C   UNL     1      -9.923   2.582 -34.174  1.00  0.00     0.094 A 
HETATM   18  S   UNL     1      -9.039   4.012 -33.963  1.00  0.00    -0.075 SA
HETATM   19  C   UNL     1     -10.397   4.978 -34.260  1.00  0.00    -0.008 A 
HETATM   20  C   UNL     1     -11.529   4.238 -34.547  1.00  0.00    -0.026 A 
HETATM   21  C   UNL     1     -10.312   6.475 -34.241  1.00  0.00     0.047 C 
HETATM   22  C   UNL     1     -12.839   4.915 -34.857  1.00  0.00     0.041 C 
HETATM   23  C   UNL     1     -11.264   2.815 -34.473  1.00  0.00     0.080 A 
HETATM   24  C   UNL     1     -12.666   6.411 -35.168  1.00  0.00     0.005 C 
HETATM   25  C   UNL     1     -11.713   7.093 -34.179  1.00  0.00     0.005 C 
BRANCH  23  26
HETATM   26  C   UNL     1     -12.201   1.703 -34.677  1.00  0.00     0.296 C 
HETATM   27  O   UNL     1     -12.720   1.484 -35.770  1.00  0.00    -0.259 OA
BRANCH  26  28
HETATM   28  O   UNL     1     -12.417   0.957 -33.561  1.00  0.00    -0.322 OA
HETATM   29  C   UNL     1     -13.289  -0.160 -33.743  1.00  0.00     0.213 C 
ENDBRANCH  26  28
ENDBRANCH  23  26
ENDBRANCH  14  17
ENDBRANCH  12  13
ENDBRANCH   2  12
BRANCH   1  30
HETATM   30  C   UNL     1      -5.541   0.714 -31.961  1.00  0.00     0.006 A 
HETATM   31  C   UNL     1      -5.447   2.114 -32.097  1.00  0.00     0.077 A 
HETATM   32  C   UNL     1      -5.537   2.931 -30.961  1.00  0.00     0.037 A 
HETATM   33  C   UNL     1      -5.683   2.374 -29.691  1.00  0.00     0.003 A 
HETATM   34  C   UNL     1      -5.740   0.996 -29.539  1.00  0.00     0.001 A 
HETATM   35  C   UNL     1      -5.670   0.175 -30.661  1.00  0.00     0.012 A 
BRANCH  31  36
HETATM   36  O   UNL     1      -5.269   2.601 -33.367  1.00  0.00    -0.351 OA
BRANCH  36  37
HETATM   37  C   UNL     1      -4.489   3.795 -33.507  1.00  0.00     0.171 C 
HETATM   38  C   UNL     1      -5.353   4.839 -34.190  1.00  0.00     0.034 C 
ENDBRANCH  36  37
ENDBRANCH  31  36
ENDBRANCH   1  30
BRANCH   6  39
HETATM   39  O   UNL     1      -3.979  -1.869 -34.984  1.00  0.00    -0.389 OA
HETATM   40  H   UNL     1      -4.005  -0.906 -34.823  1.00  0.00     0.210 HD
ENDBRANCH   6  39
TORSDOF 9
ENDMDL
MODEL 10
REMARK VINA RESULT:      -8.2      1.855      4.363
REMARK  9 active torsions:
REMARK  status: ('A' for Active; 'I' for Inactive)
REMARK    1  A    between atoms: C_2  and  O_3 
REMARK    2  A    between atoms: O_3  and  C_4 
REMARK    3  A    between atoms: C_5  and  C_6 
REMARK    4  A    between atoms: N_7  and  C_9 
REMARK    5  A    between atoms: C_9  and  C_10 
REMARK       I    between atoms: C_10  and  N_11 
REMARK    6  A    between atoms: N_11  and  C_12 
REMARK    7  A    between atoms: C_20  and  C_21 
REMARK    8  A    between atoms: C_21  and  O_22 
REMARK    9  A    between atoms: C_28  and  O_29 
ROOT
HETATM    1  C   UNL     1      -3.524   6.356 -30.902  1.00  0.00     0.231 C 
HETATM    2  N   UNL     1      -3.629   5.190 -31.886  1.00  0.00    -0.054 N 
HETATM    3  H   UNL     1      -4.513   5.326 -32.398  1.00  0.00     0.281 HD
HETATM    4  C   UNL     1      -2.556   5.269 -32.948  1.00  0.00     0.239 C 
HETATM    5  C   UNL     1      -1.170   5.267 -32.316  1.00  0.00     0.066 C 
HETATM    6  C   UNL     1      -1.016   6.425 -31.329  1.00  0.00     0.065 C 
HETATM    7  C   UNL     1      -2.118   6.369 -30.240  1.00  0.00     0.055 C 
HETATM    8  C   UNL     1       0.381   6.422 -30.687  1.00  0.00     0.038 C 
HETATM    9  C   UNL     1       0.553   7.574 -29.697  1.00  0.00     0.003 C 
HETATM   10  C   UNL     1      -0.548   7.577 -28.642  1.00  0.00     0.001 C 
HETATM   11  C   UNL     1      -1.944   7.554 -29.263  1.00  0.00     0.010 C 
ENDROOT
BRANCH   2  12
HETATM   12  C   UNL     1      -3.800   3.793 -31.279  1.00  0.00     0.338 C 
BRANCH  12  13
HETATM   13  C   UNL     1      -4.444   2.816 -32.268  1.00  0.00     0.248 C 
HETATM   14  N   UNL     1      -4.440   1.510 -31.827  1.00  0.00    -0.319 N 
HETATM   15  H   UNL     1      -4.171   1.304 -30.863  1.00  0.00     0.169 HD
HETATM   16  O   UNL     1      -4.838   3.259 -33.345  1.00  0.00    -0.271 OA
BRANCH  14  17
HETATM   17  C   UNL     1      -4.783   0.375 -32.557  1.00  0.00     0.094 A 
HETATM   18  S   UNL     1      -3.609  -0.743 -33.051  1.00  0.00    -0.075 SA
HETATM   19  C   UNL     1      -4.767  -1.743 -33.775  1.00  0.00    -0.008 A 
HETATM   20  C   UNL     1      -6.056  -1.262 -33.634  1.00  0.00    -0.026 A 
HETATM   21  C   UNL     1      -4.382  -3.026 -34.450  1.00  0.00     0.047 C 
HETATM   22  C   UNL     1      -7.231  -2.018 -34.196  1.00  0.00     0.041 C 
HETATM   23  C   UNL     1      -6.073   0.008 -32.935  1.00  0.00     0.080 A 
HETATM   24  C   UNL     1      -6.872  -3.465 -34.572  1.00  0.00     0.005 C 
HETATM   25  C   UNL     1      -5.534  -3.545 -35.317  1.00  0.00     0.005 C 
BRANCH  23  26
HETATM   26  C   UNL     1      -7.228   0.855 -32.614  1.00  0.00     0.296 C 
HETATM   27  O   UNL     1      -7.931   1.354 -33.492  1.00  0.00    -0.259 OA
BRANCH  26  28
HETATM   28  O   UNL     1      -7.437   1.014 -31.280  1.00  0.00    -0.322 OA
HETATM   29  C   UNL     1      -7.843   2.327 -30.887  1.00  0.00     0.213 C 
ENDBRANCH  26  28
ENDBRANCH  23  26
ENDBRANCH  14  17
ENDBRANCH  12  13
ENDBRANCH   2  12
BRANCH   1  30
HETATM   30  C   UNL     1      -4.739   6.511 -29.994  1.00  0.00     0.006 A 
HETATM   31  C   UNL     1      -6.056   6.722 -30.453  1.00  0.00     0.077 A 
HETATM   32  C   UNL     1      -7.115   6.758 -29.535  1.00  0.00     0.037 A 
HETATM   33  C   UNL     1      -6.879   6.623 -28.167  1.00  0.00     0.003 A 
HETATM   34  C   UNL     1      -5.584   6.451 -27.699  1.00  0.00     0.001 A 
HETATM   35  C   UNL     1      -4.526   6.396 -28.602  1.00  0.00     0.012 A 
BRANCH  31  36
HETATM   36  O   UNL     1      -6.221   6.882 -31.805  1.00  0.00    -0.351 OA
BRANCH  36  37
HETATM   37  C   UNL     1      -7.034   5.918 -32.485  1.00  0.00     0.171 C 
HETATM   38  C   UNL     1      -8.367   6.571 -32.800  1.00  0.00     0.034 C 
ENDBRANCH  36  37
ENDBRANCH  31  36
ENDBRANCH   1  30
BRANCH   6  39
HETATM   39  O   UNL     1      -1.185   7.633 -32.083  1.00  0.00    -0.389 OA
HETATM   40  H   UNL     1      -2.055   7.617 -32.528  1.00  0.00     0.210 HD
ENDBRANCH   6  39
TORSDOF 9
ENDMDL
