MODEL 1
REMARK VINA RESULT:      -8.8      0.000      0.000
REMARK  6 active torsions:
REMARK  status: ('A' for Active; 'I' for Inactive)
REMARK    1  A    between atoms: O_2  and  C_3 
REMARK    2  A    between atoms: C_6  and  C_7 
REMARK    3  A    between atoms: C_7  and  N_8 
REMARK       I    between atoms: N_8  and  C_9 
REMARK    4  A    between atoms: C_9  and  C_10 
REMARK    5  A    between atoms: C_10  and  O_11 
REMARK    6  A    between atoms: N_12  and  C_13 
ROOT
HETATM    1  C   UNL     1      -8.848   1.906 -31.956  1.00  0.00     0.256 C 
HETATM    2  N   UNL     1      -7.802   2.569 -31.169  1.00  0.00    -0.248 N 
HETATM    3  C   UNL     1      -8.147   3.384 -30.103  1.00  0.00     0.330 C 
HETATM    4  O   UNL     1      -7.394   3.676 -29.174  1.00  0.00    -0.246 OA
HETATM    5  N   UNL     1      -9.410   3.897 -30.095  1.00  0.00    -0.308 N 
HETATM    6  C   UNL     1     -10.348   3.712 -31.102  1.00  0.00     0.048 A 
HETATM    7  C   UNL     1     -10.097   2.766 -32.093  1.00  0.00     0.034 A 
HETATM    8  C   UNL     1     -11.516   4.477 -31.098  1.00  0.00     0.030 A 
HETATM    9  C   UNL     1     -12.449   4.316 -32.118  1.00  0.00     0.002 A 
HETATM   10  C   UNL     1     -12.220   3.381 -33.123  1.00  0.00     0.001 A 
HETATM   11  C   UNL     1     -11.060   2.600 -33.106  1.00  0.00     0.015 A 
HETATM   12  H   UNL     1      -9.593   4.544 -29.341  1.00  0.00     0.170 HD
ENDROOT
BRANCH   1  13
HETATM   13  C   UNL     1      -8.347   1.467 -33.404  1.00  0.00     0.279 C 
HETATM   14  N   UNL     1      -8.277   0.089 -33.560  1.00  0.00    -0.352 N 
HETATM   15  H   UNL     1      -8.626  -0.480 -32.794  1.00  0.00     0.162 HD
HETATM   16  O   UNL     1      -8.052   2.251 -34.304  1.00  0.00    -0.268 OA
BRANCH  14  17
HETATM   17  C   UNL     1      -7.853  -0.548 -34.779  1.00  0.00     0.161 C 
BRANCH  17  18
HETATM   18  C   UNL     1      -6.659  -1.434 -34.548  1.00  0.00    -0.040 A 
HETATM   19  C   UNL     1      -5.477  -0.903 -34.013  1.00  0.00     0.011 A 
HETATM   20  C   UNL     1      -4.371  -1.723 -33.770  1.00  0.00     0.037 A 
HETATM   21  C   UNL     1      -4.429  -3.085 -34.063  1.00  0.00     0.068 A 
HETATM   22  C   UNL     1      -5.590  -3.610 -34.634  1.00  0.00     0.037 A 
HETATM   23  C   UNL     1      -6.698  -2.795 -34.876  1.00  0.00     0.011 A 
BRANCH  21  24
HETATM   24  O   UNL     1      -3.428  -3.993 -33.855  1.00  0.00    -0.356 OA
HETATM   25  C   UNL     1      -3.832  -5.312 -33.504  1.00  0.00     0.210 C 
ENDBRANCH  21  24
ENDBRANCH  17  18
ENDBRANCH  14  17
ENDBRANCH   1  13
BRANCH   1  26
HETATM   26  O   UNL     1      -9.262   0.744 -31.222  1.00  0.00    -0.359 OA
HETATM   27  H   UNL     1     -10.194   0.625 -31.473  1.00  0.00     0.213 HD
ENDBRANCH   1  26
BRANCH   2  28
HETATM   28  C   UNL     1      -6.410   2.261 -31.352  1.00  0.00     0.120 A 
HETATM   29  C   UNL     1      -5.810   1.115 -30.820  1.00  0.00     0.146 A 
HETATM   30  F   UNL     1      -6.517   0.282 -30.040  1.00  0.00    -0.204 F 
HETATM   31  C   UNL     1      -4.458   0.828 -31.023  1.00  0.00     0.045 A 
HETATM   32  C   UNL     1      -3.669   1.698 -31.772  1.00  0.00     0.006 A 
HETATM   33  C   UNL     1      -4.238   2.848 -32.312  1.00  0.00     0.045 A 
HETATM   34  C   UNL     1      -5.591   3.120 -32.102  1.00  0.00     0.146 A 
HETATM   35  F   UNL     1      -6.110   4.199 -32.710  1.00  0.00    -0.204 F 
ENDBRANCH   2  28
TORSDOF 6
ENDMDL
MODEL 2
REMARK VINA RESULT:      -8.8      0.075      1.461
REMARK  6 active torsions:
REMARK  status: ('A' for Active; 'I' for Inactive)
REMARK    1  A    between atoms: O_2  and  C_3 
REMARK    2  A    between atoms: C_6  and  C_7 
REMARK    3  A    between atoms: C_7  and  N_8 
REMARK       I    between atoms: N_8  and  C_9 
REMARK    4  A    between atoms: C_9  and  C_10 
REMARK    5  A    between atoms: C_10  and  O_11 
REMARK    6  A    between atoms: N_12  and  C_13 
ROOT
HETATM    1  C   UNL     1      -8.827   1.893 -31.953  1.00  0.00     0.256 C 
HETATM    2  N   UNL     1      -7.765   2.549 -31.181  1.00  0.00    -0.248 N 
HETATM    3  C   UNL     1      -8.091   3.373 -30.116  1.00  0.00     0.330 C 
HETATM    4  O   UNL     1      -7.325   3.663 -29.197  1.00  0.00    -0.246 OA
HETATM    5  N   UNL     1      -9.349   3.898 -30.096  1.00  0.00    -0.308 N 
HETATM    6  C   UNL     1     -10.299   3.717 -31.092  1.00  0.00     0.048 A 
HETATM    7  C   UNL     1     -10.069   2.764 -32.081  1.00  0.00     0.034 A 
HETATM    8  C   UNL     1     -11.460   4.494 -31.078  1.00  0.00     0.030 A 
HETATM    9  C   UNL     1     -12.406   4.337 -32.088  1.00  0.00     0.002 A 
HETATM   10  C   UNL     1     -12.197   3.394 -33.090  1.00  0.00     0.001 A 
HETATM   11  C   UNL     1     -11.044   2.603 -33.082  1.00  0.00     0.015 A 
HETATM   12  H   UNL     1      -9.517   4.551 -29.343  1.00  0.00     0.170 HD
ENDROOT
BRANCH   1  13
HETATM   13  C   UNL     1      -8.346   1.442 -33.405  1.00  0.00     0.279 C 
HETATM   14  N   UNL     1      -8.261   0.063 -33.545  1.00  0.00    -0.352 N 
HETATM   15  H   UNL     1      -8.589  -0.501 -32.765  1.00  0.00     0.162 HD
HETATM   16  O   UNL     1      -8.077   2.218 -34.319  1.00  0.00    -0.268 OA
BRANCH  14  17
HETATM   17  C   UNL     1      -7.851  -0.584 -34.763  1.00  0.00     0.161 C 
BRANCH  17  18
HETATM   18  C   UNL     1      -6.654  -1.468 -34.538  1.00  0.00    -0.040 A 
HETATM   19  C   UNL     1      -5.470  -0.935 -34.012  1.00  0.00     0.011 A 
HETATM   20  C   UNL     1      -4.361  -1.754 -33.774  1.00  0.00     0.037 A 
HETATM   21  C   UNL     1      -4.420  -3.116 -34.065  1.00  0.00     0.068 A 
HETATM   22  C   UNL     1      -5.584  -3.643 -34.628  1.00  0.00     0.037 A 
HETATM   23  C   UNL     1      -6.695  -2.830 -34.863  1.00  0.00     0.011 A 
BRANCH  21  24
HETATM   24  O   UNL     1      -3.417  -4.024 -33.862  1.00  0.00    -0.356 OA
HETATM   25  C   UNL     1      -3.817  -5.339 -33.494  1.00  0.00     0.210 C 
ENDBRANCH  21  24
ENDBRANCH  17  18
ENDBRANCH  14  17
ENDBRANCH   1  13
BRANCH   1  26
HETATM   26  O   UNL     1      -9.243   0.739 -31.209  1.00  0.00    -0.359 OA
HETATM   27  H   UNL     1     -10.057   1.028 -30.760  1.00  0.00     0.213 HD
ENDBRANCH   1  26
BRANCH   2  28
HETATM   28  C   UNL     1      -6.378   2.227 -31.378  1.00  0.00     0.120 A 
HETATM   29  C   UNL     1      -5.518   3.019 -32.146  1.00  0.00     0.146 A 
HETATM   30  F   UNL     1      -5.990   4.091 -32.801  1.00  0.00    -0.204 F 
HETATM   31  C   UNL     1      -4.170   2.694 -32.311  1.00  0.00     0.045 A 
HETATM   32  C   UNL     1      -3.649   1.554 -31.703  1.00  0.00     0.006 A 
HETATM   33  C   UNL     1      -4.483   0.746 -30.935  1.00  0.00     0.045 A 
HETATM   34  C   UNL     1      -5.828   1.084 -30.777  1.00  0.00     0.146 A 
HETATM   35  F   UNL     1      -6.571   0.318 -29.962  1.00  0.00    -0.204 F 
ENDBRANCH   2  28
TORSDOF 6
ENDMDL
MODEL 3
REMARK VINA RESULT:      -8.7      2.450      7.147
REMARK  6 active torsions:
REMARK  status: ('A' for Active; 'I' for Inactive)
REMARK    1  A    between atoms: O_2  and  C_3 
REMARK    2  A    between atoms: C_6  and  C_7 
REMARK    3  A    between atoms: C_7  and  N_8 
REMARK       I    between atoms: N_8  and  C_9 
REMARK    4  A    between atoms: C_9  and  C_10 
REMARK    5  A    between atoms: C_10  and  O_11 
REMARK    6  A    between atoms: N_12  and  C_13 
ROOT
HETATM    1  C   UNL     1      -6.779   0.127 -33.949  1.00  0.00     0.256 C 
HETATM    2  N   UNL     1      -5.938   0.841 -32.981  1.00  0.00    -0.248 N 
HETATM    3  C   UNL     1      -4.584   0.562 -32.900  1.00  0.00     0.330 C 
HETATM    4  O   UNL     1      -3.741   1.322 -32.424  1.00  0.00    -0.246 OA
HETATM    5  N   UNL     1      -4.167  -0.644 -33.379  1.00  0.00    -0.308 N 
HETATM    6  C   UNL     1      -5.004  -1.630 -33.883  1.00  0.00     0.048 A 
HETATM    7  C   UNL     1      -6.338  -1.318 -34.138  1.00  0.00     0.034 A 
HETATM    8  C   UNL     1      -4.492  -2.908 -34.121  1.00  0.00     0.030 A 
HETATM    9  C   UNL     1      -5.332  -3.908 -34.601  1.00  0.00     0.002 A 
HETATM   10  C   UNL     1      -6.669  -3.623 -34.860  1.00  0.00     0.001 A 
HETATM   11  C   UNL     1      -7.168  -2.335 -34.644  1.00  0.00     0.015 A 
HETATM   12  H   UNL     1      -3.186  -0.835 -33.231  1.00  0.00     0.170 HD
ENDROOT
BRANCH   1  13
HETATM   13  C   UNL     1      -8.326   0.161 -33.567  1.00  0.00     0.279 C 
HETATM   14  N   UNL     1      -9.085   0.925 -34.443  1.00  0.00    -0.352 N 
HETATM   15  H   UNL     1      -8.610   1.297 -35.262  1.00  0.00     0.162 HD
HETATM   16  O   UNL     1      -8.816  -0.423 -32.603  1.00  0.00    -0.268 OA
BRANCH  14  17
HETATM   17  C   UNL     1     -10.507   1.106 -34.308  1.00  0.00     0.161 C 
BRANCH  17  18
HETATM   18  C   UNL     1     -10.913   2.518 -34.632  1.00  0.00    -0.040 A 
HETATM   19  C   UNL     1     -10.003   3.572 -34.467  1.00  0.00     0.011 A 
HETATM   20  C   UNL     1     -10.362   4.884 -34.792  1.00  0.00     0.037 A 
HETATM   21  C   UNL     1     -11.638   5.161 -35.280  1.00  0.00     0.068 A 
HETATM   22  C   UNL     1     -12.561   4.121 -35.407  1.00  0.00     0.037 A 
HETATM   23  C   UNL     1     -12.205   2.808 -35.087  1.00  0.00     0.011 A 
BRANCH  21  24
HETATM   24  O   UNL     1     -12.105   6.393 -35.650  1.00  0.00    -0.356 OA
HETATM   25  C   UNL     1     -13.454   6.450 -36.099  1.00  0.00     0.210 C 
ENDBRANCH  21  24
ENDBRANCH  17  18
ENDBRANCH  14  17
ENDBRANCH   1  13
BRANCH   1  26
HETATM   26  O   UNL     1      -6.588   0.755 -35.225  1.00  0.00    -0.359 OA
HETATM   27  H   UNL     1      -6.275   0.035 -35.799  1.00  0.00     0.213 HD
ENDBRANCH   1  26
BRANCH   2  28
HETATM   28  C   UNL     1      -6.437   1.960 -32.228  1.00  0.00     0.120 A 
HETATM   29  C   UNL     1      -6.634   3.225 -32.791  1.00  0.00     0.146 A 
HETATM   30  F   UNL     1      -6.284   3.460 -34.065  1.00  0.00    -0.204 F 
HETATM   31  C   UNL     1      -7.133   4.294 -32.043  1.00  0.00     0.045 A 
HETATM   32  C   UNL     1      -7.448   4.114 -30.698  1.00  0.00     0.006 A 
HETATM   33  C   UNL     1      -7.261   2.866 -30.111  1.00  0.00     0.045 A 
HETATM   34  C   UNL     1      -6.762   1.807 -30.872  1.00  0.00     0.146 A 
HETATM   35  F   UNL     1      -6.675   0.604 -30.281  1.00  0.00    -0.204 F 
ENDBRANCH   2  28
TORSDOF 6
ENDMDL
MODEL 4
REMARK VINA RESULT:      -8.4      3.026      6.656
REMARK  6 active torsions:
REMARK  status: ('A' for Active; 'I' for Inactive)
REMARK    1  A    between atoms: O_2  and  C_3 
REMARK    2  A    between atoms: C_6  and  C_7 
REMARK    3  A    between atoms: C_7  and  N_8 
REMARK       I    between atoms: N_8  and  C_9 
REMARK    4  A    between atoms: C_9  and  C_10 
REMARK    5  A    between atoms: C_10  and  O_11 
REMARK    6  A    between atoms: N_12  and  C_13 
ROOT
HETATM    1  C   UNL     1      -6.809   1.881 -32.119  1.00  0.00     0.256 C 
HETATM    2  N   UNL     1      -7.423   3.063 -32.734  1.00  0.00    -0.248 N 
HETATM    3  C   UNL     1      -8.451   2.913 -33.651  1.00  0.00     0.330 C 
HETATM    4  O   UNL     1      -9.267   3.790 -33.935  1.00  0.00    -0.246 OA
HETATM    5  N   UNL     1      -8.555   1.708 -34.279  1.00  0.00    -0.308 N 
HETATM    6  C   UNL     1      -7.673   0.649 -34.112  1.00  0.00     0.048 A 
HETATM    7  C   UNL     1      -6.739   0.702 -33.080  1.00  0.00     0.034 A 
HETATM    8  C   UNL     1      -7.743  -0.442 -34.982  1.00  0.00     0.030 A 
HETATM    9  C   UNL     1      -6.845  -1.497 -34.838  1.00  0.00     0.002 A 
HETATM   10  C   UNL     1      -5.899  -1.465 -33.817  1.00  0.00     0.001 A 
HETATM   11  C   UNL     1      -5.853  -0.381 -32.935  1.00  0.00     0.015 A 
HETATM   12  H   UNL     1      -9.270   1.669 -34.991  1.00  0.00     0.170 HD
ENDROOT
BRANCH   1  13
HETATM   13  C   UNL     1      -5.355   2.173 -31.535  1.00  0.00     0.279 C 
HETATM   14  N   UNL     1      -4.411   2.415 -32.523  1.00  0.00    -0.352 N 
HETATM   15  H   UNL     1      -4.749   2.468 -33.480  1.00  0.00     0.162 HD
HETATM   16  O   UNL     1      -5.079   2.191 -30.337  1.00  0.00    -0.268 OA
BRANCH  14  17
HETATM   17  C   UNL     1      -3.029   2.705 -32.244  1.00  0.00     0.161 C 
BRANCH  17  18
HETATM   18  C   UNL     1      -2.732   4.170 -32.410  1.00  0.00    -0.040 A 
HETATM   19  C   UNL     1      -2.424   4.690 -33.675  1.00  0.00     0.011 A 
HETATM   20  C   UNL     1      -2.173   6.056 -33.844  1.00  0.00     0.037 A 
HETATM   21  C   UNL     1      -2.220   6.918 -32.750  1.00  0.00     0.068 A 
HETATM   22  C   UNL     1      -2.486   6.398 -31.482  1.00  0.00     0.037 A 
HETATM   23  C   UNL     1      -2.741   5.035 -31.309  1.00  0.00     0.011 A 
BRANCH  21  24
HETATM   24  O   UNL     1      -2.014   8.271 -32.785  1.00  0.00    -0.356 OA
HETATM   25  C   UNL     1      -2.197   8.971 -31.561  1.00  0.00     0.210 C 
ENDBRANCH  21  24
ENDBRANCH  17  18
ENDBRANCH  14  17
ENDBRANCH   1  13
BRANCH   1  26
HETATM   26  O   UNL     1      -7.674   1.457 -31.055  1.00  0.00    -0.359 OA
HETATM   27  H   UNL     1      -7.872   0.528 -31.267  1.00  0.00     0.213 HD
ENDBRANCH   1  26
BRANCH   2  28
HETATM   28  C   UNL     1      -7.116   4.394 -32.286  1.00  0.00     0.120 A 
HETATM   29  C   UNL     1      -7.584   4.913 -31.074  1.00  0.00     0.146 A 
HETATM   30  F   UNL     1      -8.416   4.192 -30.307  1.00  0.00    -0.204 F 
HETATM   31  C   UNL     1      -7.260   6.204 -30.651  1.00  0.00     0.045 A 
HETATM   32  C   UNL     1      -6.451   7.013 -31.446  1.00  0.00     0.006 A 
HETATM   33  C   UNL     1      -5.973   6.524 -32.658  1.00  0.00     0.045 A 
HETATM   34  C   UNL     1      -6.303   5.231 -33.067  1.00  0.00     0.146 A 
HETATM   35  F   UNL     1      -5.752   4.778 -34.204  1.00  0.00    -0.204 F 
ENDBRANCH   2  28
TORSDOF 6
ENDMDL
MODEL 5
REMARK VINA RESULT:      -8.2      2.110      3.133
REMARK  6 active torsions:
REMARK  status: ('A' for Active; 'I' for Inactive)
REMARK    1  A    between atoms: O_2  and  C_3 
REMARK    2  A    between atoms: C_6  and  C_7 
REMARK    3  A    between atoms: C_7  and  N_8 
REMARK       I    between atoms: N_8  and  C_9 
REMARK    4  A    between atoms: C_9  and  C_10 
REMARK    5  A    between atoms: C_10  and  O_11 
REMARK    6  A    between atoms: N_12  and  C_13 
ROOT
HETATM    1  C   UNL     1      -7.801   2.777 -31.315  1.00  0.00     0.256 C 
HETATM    2  N   UNL     1      -7.675   4.134 -31.860  1.00  0.00    -0.248 N 
HETATM    3  C   UNL     1      -8.794   4.795 -32.339  1.00  0.00     0.330 C 
HETATM    4  O   UNL     1      -8.885   6.017 -32.462  1.00  0.00    -0.246 OA
HETATM    5  N   UNL     1      -9.862   4.031 -32.702  1.00  0.00    -0.308 N 
HETATM    6  C   UNL     1      -9.886   2.643 -32.684  1.00  0.00     0.048 A 
HETATM    7  C   UNL     1      -8.852   1.957 -32.050  1.00  0.00     0.034 A 
HETATM    8  C   UNL     1     -10.943   1.968 -33.299  1.00  0.00     0.030 A 
HETATM    9  C   UNL     1     -10.961   0.576 -33.308  1.00  0.00     0.002 A 
HETATM   10  C   UNL     1      -9.937  -0.132 -32.686  1.00  0.00     0.001 A 
HETATM   11  C   UNL     1      -8.896   0.551 -32.049  1.00  0.00     0.015 A 
HETATM   12  H   UNL     1     -10.625   4.548 -33.115  1.00  0.00     0.170 HD
ENDROOT
BRANCH   1  13
HETATM   13  C   UNL     1      -6.419   1.983 -31.311  1.00  0.00     0.279 C 
HETATM   14  N   UNL     1      -5.968   1.670 -32.586  1.00  0.00    -0.352 N 
HETATM   15  H   UNL     1      -6.499   2.044 -33.367  1.00  0.00     0.162 HD
HETATM   16  O   UNL     1      -5.799   1.673 -30.294  1.00  0.00    -0.268 OA
BRANCH  14  17
HETATM   17  C   UNL     1      -4.743   0.957 -32.839  1.00  0.00     0.161 C 
BRANCH  17  18
HETATM   18  C   UNL     1      -5.012  -0.407 -33.413  1.00  0.00    -0.040 A 
HETATM   19  C   UNL     1      -6.244  -0.690 -34.019  1.00  0.00     0.011 A 
HETATM   20  C   UNL     1      -6.493  -1.947 -34.580  1.00  0.00     0.037 A 
HETATM   21  C   UNL     1      -5.516  -2.941 -34.535  1.00  0.00     0.068 A 
HETATM   22  C   UNL     1      -4.304  -2.677 -33.896  1.00  0.00     0.037 A 
HETATM   23  C   UNL     1      -4.049  -1.422 -33.338  1.00  0.00     0.011 A 
BRANCH  21  24
HETATM   24  O   UNL     1      -5.628  -4.199 -35.061  1.00  0.00    -0.356 OA
HETATM   25  C   UNL     1      -4.813  -5.206 -34.472  1.00  0.00     0.210 C 
ENDBRANCH  21  24
ENDBRANCH  17  18
ENDBRANCH  14  17
ENDBRANCH   1  13
BRANCH   1  26
HETATM   26  O   UNL     1      -8.284   2.902 -29.970  1.00  0.00    -0.359 OA
HETATM   27  H   UNL     1      -9.251   2.854 -30.060  1.00  0.00     0.213 HD
ENDBRANCH   1  26
BRANCH   2  28
HETATM   28  C   UNL     1      -6.451   4.881 -31.752  1.00  0.00     0.120 A 
HETATM   29  C   UNL     1      -5.991   5.412 -30.543  1.00  0.00     0.146 A 
HETATM   30  F   UNL     1      -6.733   5.300 -29.430  1.00  0.00    -0.204 F 
HETATM   31  C   UNL     1      -4.792   6.122 -30.459  1.00  0.00     0.045 A 
HETATM   32  C   UNL     1      -4.019   6.319 -31.601  1.00  0.00     0.006 A 
HETATM   33  C   UNL     1      -4.453   5.804 -32.820  1.00  0.00     0.045 A 
HETATM   34  C   UNL     1      -5.654   5.095 -32.887  1.00  0.00     0.146 A 
HETATM   35  F   UNL     1      -5.989   4.551 -34.069  1.00  0.00    -0.204 F 
ENDBRANCH   2  28
TORSDOF 6
ENDMDL
MODEL 6
REMARK VINA RESULT:      -8.2      2.528      4.913
REMARK  6 active torsions:
REMARK  status: ('A' for Active; 'I' for Inactive)
REMARK    1  A    between atoms: O_2  and  C_3 
REMARK    2  A    between atoms: C_6  and  C_7 
REMARK    3  A    between atoms: C_7  and  N_8 
REMARK       I    between atoms: N_8  and  C_9 
REMARK    4  A    between atoms: C_9  and  C_10 
REMARK    5  A    between atoms: C_10  and  O_11 
REMARK    6  A    between atoms: N_12  and  C_13 
ROOT
HETATM    1  C   UNL     1      -5.152   3.441 -32.622  1.00  0.00     0.256 C 
HETATM    2  N   UNL     1      -6.572   3.485 -32.990  1.00  0.00    -0.248 N 
HETATM    3  C   UNL     1      -7.129   4.661 -33.465  1.00  0.00     0.330 C 
HETATM    4  O   UNL     1      -8.160   4.726 -34.135  1.00  0.00    -0.246 OA
HETATM    5  N   UNL     1      -6.485   5.823 -33.160  1.00  0.00    -0.308 N 
HETATM    6  C   UNL     1      -5.354   5.916 -32.361  1.00  0.00     0.048 A 
HETATM    7  C   UNL     1      -4.674   4.752 -32.014  1.00  0.00     0.034 A 
HETATM    8  C   UNL     1      -4.925   7.173 -31.925  1.00  0.00     0.030 A 
HETATM    9  C   UNL     1      -3.807   7.272 -31.102  1.00  0.00     0.002 A 
HETATM   10  C   UNL     1      -3.113   6.122 -30.737  1.00  0.00     0.001 A 
HETATM   11  C   UNL     1      -3.533   4.871 -31.199  1.00  0.00     0.015 A 
HETATM   12  H   UNL     1      -6.966   6.659 -33.463  1.00  0.00     0.170 HD
ENDROOT
BRANCH   1  13
HETATM   13  C   UNL     1      -4.808   2.240 -31.631  1.00  0.00     0.279 C 
HETATM   14  N   UNL     1      -3.967   1.292 -32.197  1.00  0.00    -0.352 N 
HETATM   15  H   UNL     1      -3.596   1.497 -33.121  1.00  0.00     0.162 HD
HETATM   16  O   UNL     1      -5.231   2.148 -30.480  1.00  0.00    -0.268 OA
BRANCH  14  17
HETATM   17  C   UNL     1      -3.514   0.118 -31.498  1.00  0.00     0.161 C 
BRANCH  17  18
HETATM   18  C   UNL     1      -3.772  -1.130 -32.298  1.00  0.00    -0.040 A 
HETATM   19  C   UNL     1      -3.116  -2.325 -31.974  1.00  0.00     0.011 A 
HETATM   20  C   UNL     1      -3.369  -3.497 -32.695  1.00  0.00     0.037 A 
HETATM   21  C   UNL     1      -4.277  -3.487 -33.753  1.00  0.00     0.068 A 
HETATM   22  C   UNL     1      -4.902  -2.289 -34.104  1.00  0.00     0.037 A 
HETATM   23  C   UNL     1      -4.655  -1.118 -33.385  1.00  0.00     0.011 A 
BRANCH  21  24
HETATM   24  O   UNL     1      -4.626  -4.565 -34.520  1.00  0.00    -0.356 OA
HETATM   25  C   UNL     1      -5.932  -4.545 -35.084  1.00  0.00     0.210 C 
ENDBRANCH  21  24
ENDBRANCH  17  18
ENDBRANCH  14  17
ENDBRANCH   1  13
BRANCH   1  26
HETATM   26  O   UNL     1      -4.403   3.286 -33.836  1.00  0.00    -0.359 OA
HETATM   27  H   UNL     1      -5.006   3.606 -34.529  1.00  0.00     0.213 HD
ENDBRANCH   1  26
BRANCH   2  28
HETATM   28  C   UNL     1      -7.376   2.295 -33.044  1.00  0.00     0.120 A 
HETATM   29  C   UNL     1      -7.287   1.366 -34.087  1.00  0.00     0.146 A 
HETATM   30  F   UNL     1      -6.481   1.601 -35.133  1.00  0.00    -0.204 F 
HETATM   31  C   UNL     1      -8.068   0.209 -34.111  1.00  0.00     0.045 A 
HETATM   32  C   UNL     1      -8.968  -0.045 -33.078  1.00  0.00     0.006 A 
HETATM   33  C   UNL     1      -9.079   0.862 -32.028  1.00  0.00     0.045 A 
HETATM   34  C   UNL     1      -8.291   2.014 -32.017  1.00  0.00     0.146 A 
HETATM   35  F   UNL     1      -8.378   2.817 -30.943  1.00  0.00    -0.204 F 
ENDBRANCH   2  28
TORSDOF 6
ENDMDL
MODEL 7
REMARK VINA RESULT:      -8.1      2.985      6.763
REMARK  6 active torsions:
REMARK  status: ('A' for Active; 'I' for Inactive)
REMARK    1  A    between atoms: O_2  and  C_3 
REMARK    2  A    between atoms: C_6  and  C_7 
REMARK    3  A    between atoms: C_7  and  N_8 
REMARK       I    between atoms: N_8  and  C_9 
REMARK    4  A    between atoms: C_9  and  C_10 
REMARK    5  A    between atoms: C_10  and  O_11 
REMARK    6  A    between atoms: N_12  and  C_13 
ROOT
HETATM    1  C   UNL     1      -5.986   3.826 -32.326  1.00  0.00     0.256 C 
HETATM    2  N   UNL     1      -6.001   2.376 -32.556  1.00  0.00    -0.248 N 
HETATM    3  C   UNL     1      -4.860   1.626 -32.324  1.00  0.00     0.330 C 
HETATM    4  O   UNL     1      -4.852   0.411 -32.121  1.00  0.00    -0.246 OA
HETATM    5  N   UNL     1      -3.668   2.286 -32.328  1.00  0.00    -0.308 N 
HETATM    6  C   UNL     1      -3.511   3.637 -32.607  1.00  0.00     0.048 A 
HETATM    7  C   UNL     1      -4.641   4.449 -32.672  1.00  0.00     0.034 A 
HETATM    8  C   UNL     1      -2.228   4.148 -32.815  1.00  0.00     0.030 A 
HETATM    9  C   UNL     1      -2.064   5.496 -33.120  1.00  0.00     0.002 A 
HETATM   10  C   UNL     1      -3.178   6.328 -33.196  1.00  0.00     0.001 A 
HETATM   11  C   UNL     1      -4.457   5.814 -32.960  1.00  0.00     0.015 A 
HETATM   12  H   UNL     1      -2.860   1.688 -32.230  1.00  0.00     0.170 HD
ENDROOT
BRANCH   1  13
HETATM   13  C   UNL     1      -7.141   4.589 -33.116  1.00  0.00     0.279 C 
HETATM   14  N   UNL     1      -8.287   4.776 -32.355  1.00  0.00    -0.352 N 
HETATM   15  H   UNL     1      -8.243   4.499 -31.378  1.00  0.00     0.162 HD
HETATM   16  O   UNL     1      -7.046   4.981 -34.277  1.00  0.00    -0.268 OA
BRANCH  14  17
HETATM   17  C   UNL     1      -9.465   5.441 -32.849  1.00  0.00     0.161 C 
BRANCH  17  18
HETATM   18  C   UNL     1     -10.462   4.455 -33.395  1.00  0.00    -0.040 A 
HETATM   19  C   UNL     1     -11.423   3.881 -32.552  1.00  0.00     0.011 A 
HETATM   20  C   UNL     1     -12.371   2.984 -33.056  1.00  0.00     0.037 A 
HETATM   21  C   UNL     1     -12.367   2.646 -34.408  1.00  0.00     0.068 A 
HETATM   22  C   UNL     1     -11.387   3.184 -35.243  1.00  0.00     0.037 A 
HETATM   23  C   UNL     1     -10.440   4.082 -34.745  1.00  0.00     0.011 A 
BRANCH  21  24
HETATM   24  O   UNL     1     -13.248   1.800 -35.025  1.00  0.00    -0.356 OA
HETATM   25  C   UNL     1     -13.528   0.577 -34.355  1.00  0.00     0.210 C 
ENDBRANCH  21  24
ENDBRANCH  17  18
ENDBRANCH  14  17
ENDBRANCH   1  13
BRANCH   1  26
HETATM   26  O   UNL     1      -6.154   4.035 -30.916  1.00  0.00    -0.359 OA
HETATM   27  H   UNL     1      -5.263   3.898 -30.549  1.00  0.00     0.213 HD
ENDBRANCH   1  26
BRANCH   2  28
HETATM   28  C   UNL     1      -7.219   1.670 -32.847  1.00  0.00     0.120 A 
HETATM   29  C   UNL     1      -8.169   1.362 -31.867  1.00  0.00     0.146 A 
HETATM   30  F   UNL     1      -7.932   1.658 -30.580  1.00  0.00    -0.204 F 
HETATM   31  C   UNL     1      -9.352   0.687 -32.175  1.00  0.00     0.045 A 
HETATM   32  C   UNL     1      -9.611   0.302 -33.488  1.00  0.00     0.006 A 
HETATM   33  C   UNL     1      -8.683   0.594 -34.484  1.00  0.00     0.045 A 
HETATM   34  C   UNL     1      -7.505   1.270 -34.161  1.00  0.00     0.146 A 
HETATM   35  F   UNL     1      -6.680   1.598 -35.169  1.00  0.00    -0.204 F 
ENDBRANCH   2  28
TORSDOF 6
ENDMDL
MODEL 8
REMARK VINA RESULT:      -8.0      5.887      9.239
REMARK  6 active torsions:
REMARK  status: ('A' for Active; 'I' for Inactive)
REMARK    1  A    between atoms: O_2  and  C_3 
REMARK    2  A    between atoms: C_6  and  C_7 
REMARK    3  A    between atoms: C_7  and  N_8 
REMARK       I    between atoms: N_8  and  C_9 
REMARK    4  A    between atoms: C_9  and  C_10 
REMARK    5  A    between atoms: C_10  and  O_11 
REMARK    6  A    between atoms: N_12  and  C_13 
ROOT
HETATM    1  C   UNL     1      -1.926   7.119 -30.021  1.00  0.00     0.256 C 
HETATM    2  N   UNL     1      -1.041   6.279 -30.837  1.00  0.00    -0.248 N 
HETATM    3  C   UNL     1       0.164   5.834 -30.317  1.00  0.00     0.330 C 
HETATM    4  O   UNL     1       0.788   4.859 -30.737  1.00  0.00    -0.246 OA
HETATM    5  N   UNL     1       0.689   6.534 -29.273  1.00  0.00    -0.308 N 
HETATM    6  C   UNL     1       0.138   7.689 -28.735  1.00  0.00     0.048 A 
HETATM    7  C   UNL     1      -1.150   8.063 -29.114  1.00  0.00     0.034 A 
HETATM    8  C   UNL     1       0.885   8.447 -27.830  1.00  0.00     0.030 A 
HETATM    9  C   UNL     1       0.349   9.621 -27.307  1.00  0.00     0.002 A 
HETATM   10  C   UNL     1      -0.934  10.018 -27.674  1.00  0.00     0.001 A 
HETATM   11  C   UNL     1      -1.685   9.240 -28.559  1.00  0.00     0.015 A 
HETATM   12  H   UNL     1       1.602   6.219 -28.976  1.00  0.00     0.170 HD
ENDROOT
BRANCH   1  13
HETATM   13  C   UNL     1      -2.960   7.959 -30.897  1.00  0.00     0.279 C 
HETATM   14  N   UNL     1      -4.275   7.550 -30.726  1.00  0.00    -0.352 N 
HETATM   15  H   UNL     1      -4.450   6.843 -30.016  1.00  0.00     0.162 HD
HETATM   16  O   UNL     1      -2.645   8.879 -31.650  1.00  0.00    -0.268 OA
BRANCH  14  17
HETATM   17  C   UNL     1      -5.388   8.157 -31.408  1.00  0.00     0.161 C 
BRANCH  17  18
HETATM   18  C   UNL     1      -6.196   7.133 -32.157  1.00  0.00    -0.040 A 
HETATM   19  C   UNL     1      -5.556   6.148 -32.922  1.00  0.00     0.011 A 
HETATM   20  C   UNL     1      -6.298   5.176 -33.601  1.00  0.00     0.037 A 
HETATM   21  C   UNL     1      -7.690   5.179 -33.529  1.00  0.00     0.068 A 
HETATM   22  C   UNL     1      -8.333   6.182 -32.802  1.00  0.00     0.037 A 
HETATM   23  C   UNL     1      -7.596   7.153 -32.120  1.00  0.00     0.011 A 
BRANCH  21  24
HETATM   24  O   UNL     1      -8.525   4.276 -34.127  1.00  0.00    -0.356 OA
HETATM   25  C   UNL     1      -9.901   4.356 -33.776  1.00  0.00     0.210 C 
ENDBRANCH  21  24
ENDBRANCH  17  18
ENDBRANCH  14  17
ENDBRANCH   1  13
BRANCH   1  26
HETATM   26  O   UNL     1      -2.647   6.246 -29.139  1.00  0.00    -0.359 OA
HETATM   27  H   UNL     1      -2.752   5.426 -29.652  1.00  0.00     0.213 HD
ENDBRANCH   1  26
BRANCH   2  28
HETATM   28  C   UNL     1      -1.460   5.748 -32.105  1.00  0.00     0.120 A 
HETATM   29  C   UNL     1      -2.244   4.596 -32.222  1.00  0.00     0.146 A 
HETATM   30  F   UNL     1      -2.576   3.890 -31.130  1.00  0.00    -0.204 F 
HETATM   31  C   UNL     1      -2.652   4.106 -33.465  1.00  0.00     0.045 A 
HETATM   32  C   UNL     1      -2.276   4.769 -34.631  1.00  0.00     0.006 A 
HETATM   33  C   UNL     1      -1.493   5.917 -34.545  1.00  0.00     0.045 A 
HETATM   34  C   UNL     1      -1.095   6.396 -33.296  1.00  0.00     0.146 A 
HETATM   35  F   UNL     1      -0.409   7.550 -33.262  1.00  0.00    -0.204 F 
ENDBRANCH   2  28
TORSDOF 6
ENDMDL
MODEL 9
REMARK VINA RESULT:      -8.0      2.528      6.350
REMARK  6 active torsions:
REMARK  status: ('A' for Active; 'I' for Inactive)
REMARK    1  A    between atoms: O_2  and  C_3 
REMARK    2  A    between atoms: C_6  and  C_7 
REMARK    3  A    between atoms: C_7  and  N_8 
REMARK       I    between atoms: N_8  and  C_9 
REMARK    4  A    between atoms: C_9  and  C_10 
REMARK    5  A    between atoms: C_10  and  O_11 
REMARK    6  A    between atoms: N_12  and  C_13 
ROOT
HETATM    1  C   UNL     1      -6.108   2.846 -33.382  1.00  0.00     0.256 C 
HETATM    2  N   UNL     1      -5.210   2.860 -32.220  1.00  0.00    -0.248 N 
HETATM    3  C   UNL     1      -4.215   1.902 -32.102  1.00  0.00     0.330 C 
HETATM    4  O   UNL     1      -3.205   2.027 -31.408  1.00  0.00    -0.246 OA
HETATM    5  N   UNL     1      -4.378   0.744 -32.801  1.00  0.00    -0.308 N 
HETATM    6  C   UNL     1      -5.491   0.433 -33.571  1.00  0.00     0.048 A 
HETATM    7  C   UNL     1      -6.421   1.431 -33.850  1.00  0.00     0.034 A 
HETATM    8  C   UNL     1      -5.651  -0.872 -34.044  1.00  0.00     0.030 A 
HETATM    9  C   UNL     1      -6.778  -1.199 -34.794  1.00  0.00     0.002 A 
HETATM   10  C   UNL     1      -7.724  -0.220 -35.083  1.00  0.00     0.001 A 
HETATM   11  C   UNL     1      -7.543   1.090 -34.627  1.00  0.00     0.015 A 
HETATM   12  H   UNL     1      -3.668   0.048 -32.626  1.00  0.00     0.170 HD
ENDROOT
BRANCH   1  13
HETATM   13  C   UNL     1      -7.471   3.629 -33.118  1.00  0.00     0.279 C 
HETATM   14  N   UNL     1      -8.329   2.953 -32.261  1.00  0.00    -0.352 N 
HETATM   15  H   UNL     1      -7.976   2.102 -31.833  1.00  0.00     0.162 HD
HETATM   16  O   UNL     1      -7.750   4.721 -33.610  1.00  0.00    -0.268 OA
BRANCH  14  17
HETATM   17  C   UNL     1      -9.618   3.460 -31.871  1.00  0.00     0.161 C 
BRANCH  17  18
HETATM   18  C   UNL     1     -10.715   2.880 -32.721  1.00  0.00    -0.040 A 
HETATM   19  C   UNL     1     -10.662   1.538 -33.126  1.00  0.00     0.011 A 
HETATM   20  C   UNL     1     -11.691   0.982 -33.894  1.00  0.00     0.037 A 
HETATM   21  C   UNL     1     -12.783   1.762 -34.273  1.00  0.00     0.068 A 
HETATM   22  C   UNL     1     -12.820   3.108 -33.906  1.00  0.00     0.037 A 
HETATM   23  C   UNL     1     -11.797   3.667 -33.137  1.00  0.00     0.011 A 
BRANCH  21  24
HETATM   24  O   UNL     1     -13.858   1.334 -35.003  1.00  0.00    -0.356 OA
HETATM   25  C   UNL     1     -14.918   0.728 -34.274  1.00  0.00     0.210 C 
ENDBRANCH  21  24
ENDBRANCH  17  18
ENDBRANCH  14  17
ENDBRANCH   1  13
BRANCH   1  26
HETATM   26  O   UNL     1      -5.405   3.463 -34.470  1.00  0.00    -0.359 OA
HETATM   27  H   UNL     1      -4.688   3.959 -34.038  1.00  0.00     0.213 HD
ENDBRANCH   1  26
BRANCH   2  28
HETATM   28  C   UNL     1      -5.209   3.946 -31.279  1.00  0.00     0.120 A 
HETATM   29  C   UNL     1      -4.627   5.188 -31.556  1.00  0.00     0.146 A 
HETATM   30  F   UNL     1      -3.971   5.385 -32.710  1.00  0.00    -0.204 F 
HETATM   31  C   UNL     1      -4.651   6.235 -30.631  1.00  0.00     0.045 A 
HETATM   32  C   UNL     1      -5.264   6.055 -29.394  1.00  0.00     0.006 A 
HETATM   33  C   UNL     1      -5.850   4.829 -29.090  1.00  0.00     0.045 A 
HETATM   34  C   UNL     1      -5.820   3.793 -30.025  1.00  0.00     0.146 A 
HETATM   35  F   UNL     1      -6.467   2.657 -29.716  1.00  0.00    -0.204 F 
ENDBRANCH   2  28
TORSDOF 6
ENDMDL
MODEL 10
REMARK VINA RESULT:      -8.0      3.364      6.189
REMARK  6 active torsions:
REMARK  status: ('A' for Active; 'I' for Inactive)
REMARK    1  A    between atoms: O_2  and  C_3 
REMARK    2  A    between atoms: C_6  and  C_7 
REMARK    3  A    between atoms: C_7  and  N_8 
REMARK       I    between atoms: N_8  and  C_9 
REMARK    4  A    between atoms: C_9  and  C_10 
REMARK    5  A    between atoms: C_10  and  O_11 
REMARK    6  A    between atoms: N_12  and  C_13 
ROOT
HETATM    1  C   UNL     1      -6.719   2.953 -32.025  1.00  0.00     0.256 C 
HETATM    2  N   UNL     1      -6.102   1.802 -31.356  1.00  0.00    -0.248 N 
HETATM    3  C   UNL     1      -6.407   1.525 -30.033  1.00  0.00     0.330 C 
HETATM    4  O   UNL     1      -6.262   0.426 -29.498  1.00  0.00    -0.246 OA
HETATM    5  N   UNL     1      -6.895   2.549 -29.278  1.00  0.00    -0.308 N 
HETATM    6  C   UNL     1      -7.051   3.856 -29.720  1.00  0.00     0.048 A 
HETATM    7  C   UNL     1      -6.921   4.129 -31.080  1.00  0.00     0.034 A 
HETATM    8  C   UNL     1      -7.333   4.863 -28.794  1.00  0.00     0.030 A 
HETATM    9  C   UNL     1      -7.465   6.180 -29.227  1.00  0.00     0.002 A 
HETATM   10  C   UNL     1      -7.334   6.479 -30.579  1.00  0.00     0.001 A 
HETATM   11  C   UNL     1      -7.078   5.462 -31.504  1.00  0.00     0.015 A 
HETATM   12  H   UNL     1      -7.032   2.321 -28.303  1.00  0.00     0.170 HD
ENDROOT
BRANCH   1  13
HETATM   13  C   UNL     1      -5.897   3.437 -33.303  1.00  0.00     0.279 C 
HETATM   14  N   UNL     1      -4.730   4.111 -32.975  1.00  0.00    -0.352 N 
HETATM   15  H   UNL     1      -4.479   4.148 -31.990  1.00  0.00     0.162 HD
HETATM   16  O   UNL     1      -6.244   3.240 -34.467  1.00  0.00    -0.268 OA
BRANCH  14  17
HETATM   17  C   UNL     1      -3.820   4.642 -33.956  1.00  0.00     0.161 C 
BRANCH  17  18
HETATM   18  C   UNL     1      -2.624   5.282 -33.305  1.00  0.00    -0.040 A 
HETATM   19  C   UNL     1      -2.067   6.451 -33.841  1.00  0.00     0.011 A 
HETATM   20  C   UNL     1      -0.972   7.068 -33.227  1.00  0.00     0.037 A 
HETATM   21  C   UNL     1      -0.415   6.520 -32.073  1.00  0.00     0.068 A 
HETATM   22  C   UNL     1      -0.940   5.333 -31.560  1.00  0.00     0.037 A 
HETATM   23  C   UNL     1      -2.036   4.716 -32.167  1.00  0.00     0.011 A 
BRANCH  21  24
HETATM   24  O   UNL     1       0.640   7.034 -31.370  1.00  0.00    -0.356 OA
HETATM   25  C   UNL     1       0.546   6.974 -29.952  1.00  0.00     0.210 C 
ENDBRANCH  21  24
ENDBRANCH  17  18
ENDBRANCH  14  17
ENDBRANCH   1  13
BRANCH   1  26
HETATM   26  O   UNL     1      -8.037   2.555 -32.429  1.00  0.00    -0.359 OA
HETATM   27  H   UNL     1      -8.571   2.652 -31.621  1.00  0.00     0.213 HD
ENDBRANCH   1  26
BRANCH   2  28
HETATM   28  C   UNL     1      -5.322   0.835 -32.079  1.00  0.00     0.120 A 
HETATM   29  C   UNL     1      -3.924   0.802 -32.034  1.00  0.00     0.146 A 
HETATM   30  F   UNL     1      -3.248   1.742 -31.355  1.00  0.00    -0.204 F 
HETATM   31  C   UNL     1      -3.187  -0.155 -32.733  1.00  0.00     0.045 A 
HETATM   32  C   UNL     1      -3.844  -1.112 -33.504  1.00  0.00     0.006 A 
HETATM   33  C   UNL     1      -5.235  -1.102 -33.569  1.00  0.00     0.045 A 
HETATM   34  C   UNL     1      -5.958  -0.139 -32.863  1.00  0.00     0.146 A 
HETATM   35  F   UNL     1      -7.298  -0.221 -32.895  1.00  0.00    -0.204 F 
ENDBRANCH   2  28
TORSDOF 6
ENDMDL
