MODEL 1
REMARK VINA RESULT:      -8.7      0.000      0.000
REMARK  3 active torsions:
REMARK  status: ('A' for Active; 'I' for Inactive)
REMARK    1  A    between atoms: C_2  and  N_3 
REMARK    2  A    between atoms: C_2  and  C_10 
REMARK    3  A    between atoms: C_13  and  C_14 
ROOT
HETATM    1  C   UNL     1      -8.021   1.364 -34.067  1.00  0.00    -0.028 A 
HETATM    2  C   UNL     1      -7.647   0.579 -35.169  1.00  0.00     0.010 A 
HETATM    3  C   UNL     1      -6.762  -0.495 -35.014  1.00  0.00     0.014 A 
HETATM    4  C   UNL     1      -6.223  -0.819 -33.759  1.00  0.00    -0.006 A 
HETATM    5  C   UNL     1      -6.585  -0.014 -32.668  1.00  0.00     0.014 A 
HETATM    6  C   UNL     1      -7.474   1.058 -32.812  1.00  0.00     0.010 A 
ENDROOT
BRANCH   4   7
HETATM    7  C   UNL     1      -5.292  -1.934 -33.578  1.00  0.00     0.082 A 
HETATM    8  N   UNL     1      -4.252  -1.748 -32.724  1.00  0.00    -0.240 NA
HETATM    9  C   UNL     1      -3.383  -2.764 -32.550  1.00  0.00     0.236 A 
HETATM   10  N   UNL     1      -3.418  -3.984 -33.108  1.00  0.00    -0.224 NA
HETATM   11  C   UNL     1      -4.474  -4.127 -33.920  1.00  0.00     0.141 A 
HETATM   12  C   UNL     1      -5.444  -3.178 -34.209  1.00  0.00     0.041 A 
HETATM   13  N   UNL     1      -4.772  -5.271 -34.608  1.00  0.00    -0.350 N 
HETATM   14  C   UNL     1      -6.368  -3.804 -35.095  1.00  0.00     0.034 A 
HETATM   15  C   UNL     1      -5.927  -5.091 -35.326  1.00  0.00     0.091 A 
HETATM   16  H   UNL     1      -4.213  -6.113 -34.567  1.00  0.00     0.166 HD
ENDBRANCH   4   7
BRANCH   1  17
HETATM   17  C   UNL     1      -9.018   2.497 -34.248  1.00  0.00     0.217 C 
HETATM   18  C   UNL     1      -9.071   3.360 -32.982  1.00  0.00     0.045 C 
BRANCH  17  19
HETATM   19  N   UNL     1     -10.421   1.975 -34.618  1.00  0.00    -0.063 N 
HETATM   20  H   UNL     1     -10.289   1.361 -35.431  1.00  0.00     0.280 HD
HETATM   21  C   UNL     1     -11.069   1.159 -33.518  1.00  0.00     0.235 C 
HETATM   22  C   UNL     1     -12.410   0.611 -33.986  1.00  0.00     0.028 C 
HETATM   23  C   UNL     1     -13.342   1.716 -34.459  1.00  0.00     0.003 C 
HETATM   24  C   UNL     1     -12.670   2.554 -35.536  1.00  0.00     0.028 C 
HETATM   25  C   UNL     1     -11.334   3.109 -35.065  1.00  0.00     0.235 C 
ENDBRANCH  17  19
ENDBRANCH   1  17
TORSDOF 3
ENDMDL
MODEL 2
REMARK VINA RESULT:      -8.5      1.655      2.996
REMARK  3 active torsions:
REMARK  status: ('A' for Active; 'I' for Inactive)
REMARK    1  A    between atoms: C_2  and  N_3 
REMARK    2  A    between atoms: C_2  and  C_10 
REMARK    3  A    between atoms: C_13  and  C_14 
ROOT
HETATM    1  C   UNL     1      -9.749   1.564 -33.386  1.00  0.00    -0.028 A 
HETATM    2  C   UNL     1      -9.381   0.750 -32.303  1.00  0.00     0.010 A 
HETATM    3  C   UNL     1      -8.307  -0.141 -32.413  1.00  0.00     0.014 A 
HETATM    4  C   UNL     1      -7.568  -0.250 -33.601  1.00  0.00    -0.006 A 
HETATM    5  C   UNL     1      -7.960   0.551 -34.686  1.00  0.00     0.014 A 
HETATM    6  C   UNL     1      -9.027   1.449 -34.584  1.00  0.00     0.010 A 
ENDROOT
BRANCH   4   7
HETATM    7  C   UNL     1      -6.446  -1.181 -33.737  1.00  0.00     0.082 A 
HETATM    8  N   UNL     1      -6.527  -2.120 -34.715  1.00  0.00    -0.240 NA
HETATM    9  C   UNL     1      -5.504  -2.987 -34.850  1.00  0.00     0.236 A 
HETATM   10  N   UNL     1      -4.367  -3.038 -34.138  1.00  0.00    -0.224 NA
HETATM   11  C   UNL     1      -4.324  -2.078 -33.204  1.00  0.00     0.141 A 
HETATM   12  C   UNL     1      -5.295  -1.124 -32.937  1.00  0.00     0.041 A 
HETATM   13  N   UNL     1      -3.277  -1.880 -32.345  1.00  0.00    -0.350 N 
HETATM   14  C   UNL     1      -4.783  -0.314 -31.882  1.00  0.00     0.034 A 
HETATM   15  C   UNL     1      -3.541  -0.805 -31.536  1.00  0.00     0.091 A 
HETATM   16  H   UNL     1      -2.442  -2.449 -32.337  1.00  0.00     0.166 HD
ENDBRANCH   4   7
BRANCH   1  17
HETATM   17  C   UNL     1     -10.889   2.557 -33.233  1.00  0.00     0.217 C 
HETATM   18  C   UNL     1     -10.612   3.499 -32.056  1.00  0.00     0.045 C 
BRANCH  17  19
HETATM   19  N   UNL     1     -12.249   1.851 -33.065  1.00  0.00    -0.063 N 
HETATM   20  H   UNL     1     -12.159   1.257 -32.232  1.00  0.00     0.280 HD
HETATM   21  C   UNL     1     -13.399   2.810 -32.830  1.00  0.00     0.235 C 
HETATM   22  C   UNL     1     -14.690   2.038 -32.591  1.00  0.00     0.028 C 
HETATM   23  C   UNL     1     -15.004   1.088 -33.735  1.00  0.00     0.003 C 
HETATM   24  C   UNL     1     -13.831   0.155 -33.990  1.00  0.00     0.028 C 
HETATM   25  C   UNL     1     -12.543   0.926 -34.238  1.00  0.00     0.235 C 
ENDBRANCH  17  19
ENDBRANCH   1  17
TORSDOF 3
ENDMDL
MODEL 3
REMARK VINA RESULT:      -8.5      1.485      2.306
REMARK  3 active torsions:
REMARK  status: ('A' for Active; 'I' for Inactive)
REMARK    1  A    between atoms: C_2  and  N_3 
REMARK    2  A    between atoms: C_2  and  C_10 
REMARK    3  A    between atoms: C_13  and  C_14 
ROOT
HETATM    1  C   UNL     1      -9.661   1.866 -33.124  1.00  0.00    -0.028 A 
HETATM    2  C   UNL     1      -9.336   1.133 -31.971  1.00  0.00     0.010 A 
HETATM    3  C   UNL     1      -8.172   0.358 -31.922  1.00  0.00     0.014 A 
HETATM    4  C   UNL     1      -7.296   0.289 -33.017  1.00  0.00    -0.006 A 
HETATM    5  C   UNL     1      -7.642   1.006 -34.173  1.00  0.00     0.014 A 
HETATM    6  C   UNL     1      -8.800   1.788 -34.229  1.00  0.00     0.010 A 
ENDROOT
BRANCH   4   7
HETATM    7  C   UNL     1      -6.076  -0.521 -32.986  1.00  0.00     0.082 A 
HETATM    8  N   UNL     1      -5.090  -0.135 -32.135  1.00  0.00    -0.240 NA
HETATM    9  C   UNL     1      -3.959  -0.867 -32.098  1.00  0.00     0.236 A 
HETATM   10  N   UNL     1      -3.671  -1.975 -32.798  1.00  0.00    -0.224 NA
HETATM   11  C   UNL     1      -4.683  -2.329 -33.603  1.00  0.00     0.141 A 
HETATM   12  C   UNL     1      -5.897  -1.677 -33.759  1.00  0.00     0.041 A 
HETATM   13  N   UNL     1      -4.675  -3.428 -34.418  1.00  0.00    -0.350 N 
HETATM   14  C   UNL     1      -6.648  -2.445 -34.697  1.00  0.00     0.034 A 
HETATM   15  C   UNL     1      -5.869  -3.514 -35.088  1.00  0.00     0.091 A 
HETATM   16  H   UNL     1      -3.898  -4.071 -34.488  1.00  0.00     0.166 HD
ENDBRANCH   4   7
BRANCH   1  17
HETATM   17  C   UNL     1     -10.906   2.737 -33.141  1.00  0.00     0.217 C 
HETATM   18  C   UNL     1     -10.825   3.795 -32.035  1.00  0.00     0.045 C 
BRANCH  17  19
HETATM   19  N   UNL     1     -12.195   1.901 -33.009  1.00  0.00    -0.063 N 
HETATM   20  H   UNL     1     -12.126   1.414 -32.106  1.00  0.00     0.280 HD
HETATM   21  C   UNL     1     -13.457   2.740 -32.990  1.00  0.00     0.235 C 
HETATM   22  C   UNL     1     -14.677   1.855 -32.774  1.00  0.00     0.028 C 
HETATM   23  C   UNL     1     -14.775   0.756 -33.820  1.00  0.00     0.003 C 
HETATM   24  C   UNL     1     -13.491  -0.057 -33.860  1.00  0.00     0.028 C 
HETATM   25  C   UNL     1     -12.272   0.826 -34.085  1.00  0.00     0.235 C 
ENDBRANCH  17  19
ENDBRANCH   1  17
TORSDOF 3
ENDMDL
MODEL 4
REMARK VINA RESULT:      -8.4      1.967      8.024
REMARK  3 active torsions:
REMARK  status: ('A' for Active; 'I' for Inactive)
REMARK    1  A    between atoms: C_2  and  N_3 
REMARK    2  A    between atoms: C_2  and  C_10 
REMARK    3  A    between atoms: C_13  and  C_14 
ROOT
HETATM    1  C   UNL     1      -7.670  -0.407 -34.027  1.00  0.00    -0.028 A 
HETATM    2  C   UNL     1      -7.990   0.674 -34.864  1.00  0.00     0.010 A 
HETATM    3  C   UNL     1      -9.129   1.451 -34.622  1.00  0.00     0.014 A 
HETATM    4  C   UNL     1      -9.983   1.176 -33.543  1.00  0.00    -0.006 A 
HETATM    5  C   UNL     1      -9.668   0.078 -32.727  1.00  0.00     0.014 A 
HETATM    6  C   UNL     1      -8.528  -0.701 -32.957  1.00  0.00     0.010 A 
ENDROOT
BRANCH   4   7
HETATM    7  C   UNL     1     -11.182   1.973 -33.278  1.00  0.00     0.082 A 
HETATM    8  N   UNL     1     -11.007   3.199 -32.719  1.00  0.00    -0.240 NA
HETATM    9  C   UNL     1     -12.101   3.944 -32.465  1.00  0.00     0.236 A 
HETATM   10  N   UNL     1     -13.384   3.637 -32.715  1.00  0.00    -0.224 NA
HETATM   11  C   UNL     1     -13.502   2.432 -33.288  1.00  0.00     0.141 A 
HETATM   12  C   UNL     1     -12.479   1.549 -33.601  1.00  0.00     0.041 A 
HETATM   13  N   UNL     1     -14.690   1.869 -33.669  1.00  0.00    -0.350 N 
HETATM   14  C   UNL     1     -13.096   0.421 -34.217  1.00  0.00     0.034 A 
HETATM   15  C   UNL     1     -14.458   0.645 -34.242  1.00  0.00     0.091 A 
HETATM   16  H   UNL     1     -15.588   2.316 -33.547  1.00  0.00     0.166 HD
ENDBRANCH   4   7
BRANCH   1  17
HETATM   17  C   UNL     1      -6.405  -1.210 -34.280  1.00  0.00     0.217 C 
HETATM   18  C   UNL     1      -6.760  -2.666 -34.605  1.00  0.00     0.045 C 
BRANCH  17  19
HETATM   19  N   UNL     1      -5.428  -1.135 -33.089  1.00  0.00    -0.063 N 
HETATM   20  H   UNL     1      -5.950  -1.475 -32.272  1.00  0.00     0.280 HD
HETATM   21  C   UNL     1      -4.205  -2.014 -33.258  1.00  0.00     0.235 C 
HETATM   22  C   UNL     1      -3.332  -1.950 -32.011  1.00  0.00     0.028 C 
HETATM   23  C   UNL     1      -2.930  -0.524 -31.671  1.00  0.00     0.003 C 
HETATM   24  C   UNL     1      -4.161   0.359 -31.541  1.00  0.00     0.028 C 
HETATM   25  C   UNL     1      -5.028   0.304 -32.790  1.00  0.00     0.235 C 
ENDBRANCH  17  19
ENDBRANCH   1  17
TORSDOF 3
ENDMDL
MODEL 5
REMARK VINA RESULT:      -8.3      1.504      7.771
REMARK  3 active torsions:
REMARK  status: ('A' for Active; 'I' for Inactive)
REMARK    1  A    between atoms: C_2  and  N_3 
REMARK    2  A    between atoms: C_2  and  C_10 
REMARK    3  A    between atoms: C_13  and  C_14 
ROOT
HETATM    1  C   UNL     1      -7.046  -0.199 -33.346  1.00  0.00    -0.028 A 
HETATM    2  C   UNL     1      -7.962   0.116 -32.330  1.00  0.00     0.010 A 
HETATM    3  C   UNL     1      -9.167   0.762 -32.629  1.00  0.00     0.014 A 
HETATM    4  C   UNL     1      -9.497   1.114 -33.947  1.00  0.00    -0.006 A 
HETATM    5  C   UNL     1      -8.564   0.816 -34.953  1.00  0.00     0.014 A 
HETATM    6  C   UNL     1      -7.359   0.165 -34.664  1.00  0.00     0.010 A 
ENDROOT
BRANCH   4   7
HETATM    7  C   UNL     1     -10.750   1.795 -34.280  1.00  0.00     0.082 A 
HETATM    8  N   UNL     1     -10.662   3.035 -34.827  1.00  0.00    -0.240 NA
HETATM    9  C   UNL     1     -11.806   3.678 -35.134  1.00  0.00     0.236 A 
HETATM   10  N   UNL     1     -13.065   3.235 -34.987  1.00  0.00    -0.224 NA
HETATM   11  C   UNL     1     -13.098   2.001 -34.469  1.00  0.00     0.141 A 
HETATM   12  C   UNL     1     -12.015   1.219 -34.094  1.00  0.00     0.041 A 
HETATM   13  N   UNL     1     -14.244   1.293 -34.227  1.00  0.00    -0.350 N 
HETATM   14  C   UNL     1     -12.552  -0.016 -33.627  1.00  0.00     0.034 A 
HETATM   15  C   UNL     1     -13.927   0.060 -33.718  1.00  0.00     0.091 A 
HETATM   16  H   UNL     1     -15.173   1.647 -34.415  1.00  0.00     0.166 HD
ENDBRANCH   4   7
BRANCH   1  17
HETATM   17  C   UNL     1      -5.764  -0.940 -33.006  1.00  0.00     0.217 C 
HETATM   18  C   UNL     1      -4.574   0.025 -33.031  1.00  0.00     0.045 C 
BRANCH  17  19
HETATM   19  N   UNL     1      -5.523  -2.136 -33.949  1.00  0.00    -0.063 N 
HETATM   20  H   UNL     1      -5.315  -1.732 -34.871  1.00  0.00     0.280 HD
HETATM   21  C   UNL     1      -4.343  -2.996 -33.541  1.00  0.00     0.235 C 
HETATM   22  C   UNL     1      -4.118  -4.103 -34.562  1.00  0.00     0.028 C 
HETATM   23  C   UNL     1      -5.362  -4.953 -34.763  1.00  0.00     0.003 C 
HETATM   24  C   UNL     1      -6.550  -4.079 -35.135  1.00  0.00     0.028 C 
HETATM   25  C   UNL     1      -6.781  -2.978 -34.110  1.00  0.00     0.235 C 
ENDBRANCH  17  19
ENDBRANCH   1  17
TORSDOF 3
ENDMDL
MODEL 6
REMARK VINA RESULT:      -8.3      3.698      5.813
REMARK  3 active torsions:
REMARK  status: ('A' for Active; 'I' for Inactive)
REMARK    1  A    between atoms: C_2  and  N_3 
REMARK    2  A    between atoms: C_2  and  C_10 
REMARK    3  A    between atoms: C_13  and  C_14 
ROOT
HETATM    1  C   UNL     1      -4.857   1.621 -32.731  1.00  0.00    -0.028 A 
HETATM    2  C   UNL     1      -6.121   1.252 -33.221  1.00  0.00     0.010 A 
HETATM    3  C   UNL     1      -6.356  -0.048 -33.683  1.00  0.00     0.014 A 
HETATM    4  C   UNL     1      -5.343  -1.020 -33.671  1.00  0.00    -0.006 A 
HETATM    5  C   UNL     1      -4.077  -0.635 -33.202  1.00  0.00     0.014 A 
HETATM    6  C   UNL     1      -3.834   0.661 -32.732  1.00  0.00     0.010 A 
ENDROOT
BRANCH   4   7
HETATM    7  C   UNL     1      -5.568  -2.383 -34.156  1.00  0.00     0.082 A 
HETATM    8  N   UNL     1      -6.655  -2.596 -34.943  1.00  0.00    -0.240 NA
HETATM    9  C   UNL     1      -6.879  -3.846 -35.393  1.00  0.00     0.236 A 
HETATM   10  N   UNL     1      -6.138  -4.945 -35.179  1.00  0.00    -0.224 NA
HETATM   11  C   UNL     1      -5.066  -4.679 -34.420  1.00  0.00     0.141 A 
HETATM   12  C   UNL     1      -4.707  -3.454 -33.876  1.00  0.00     0.041 A 
HETATM   13  N   UNL     1      -4.126  -5.604 -34.057  1.00  0.00    -0.350 N 
HETATM   14  C   UNL     1      -3.484  -3.668 -33.176  1.00  0.00     0.034 A 
HETATM   15  C   UNL     1      -3.152  -5.002 -33.302  1.00  0.00     0.091 A 
HETATM   16  H   UNL     1      -4.161  -6.577 -34.328  1.00  0.00     0.166 HD
ENDBRANCH   4   7
BRANCH   1  17
HETATM   17  C   UNL     1      -4.635   3.024 -32.192  1.00  0.00     0.217 C 
HETATM   18  C   UNL     1      -5.904   3.865 -32.372  1.00  0.00     0.045 C 
BRANCH  17  19
HETATM   19  N   UNL     1      -3.422   3.709 -32.853  1.00  0.00    -0.063 N 
HETATM   20  H   UNL     1      -2.861   2.954 -33.266  1.00  0.00     0.280 HD
HETATM   21  C   UNL     1      -3.804   4.667 -33.964  1.00  0.00     0.235 C 
HETATM   22  C   UNL     1      -2.556   5.239 -34.622  1.00  0.00     0.028 C 
HETATM   23  C   UNL     1      -1.643   5.918 -33.613  1.00  0.00     0.003 C 
HETATM   24  C   UNL     1      -1.295   4.963 -32.482  1.00  0.00     0.028 C 
HETATM   25  C   UNL     1      -2.542   4.398 -31.819  1.00  0.00     0.235 C 
ENDBRANCH  17  19
ENDBRANCH   1  17
TORSDOF 3
ENDMDL
MODEL 7
REMARK VINA RESULT:      -8.2      1.989      3.359
REMARK  3 active torsions:
REMARK  status: ('A' for Active; 'I' for Inactive)
REMARK    1  A    between atoms: C_2  and  N_3 
REMARK    2  A    between atoms: C_2  and  C_10 
REMARK    3  A    between atoms: C_13  and  C_14 
ROOT
HETATM    1  C   UNL     1     -10.953   1.100 -33.934  1.00  0.00    -0.028 A 
HETATM    2  C   UNL     1     -10.769   0.064 -33.003  1.00  0.00     0.010 A 
HETATM    3  C   UNL     1      -9.483  -0.313 -32.600  1.00  0.00     0.014 A 
HETATM    4  C   UNL     1      -8.342   0.327 -33.109  1.00  0.00    -0.006 A 
HETATM    5  C   UNL     1      -8.536   1.345 -34.057  1.00  0.00     0.014 A 
HETATM    6  C   UNL     1      -9.818   1.734 -34.461  1.00  0.00     0.010 A 
ENDROOT
BRANCH   4   7
HETATM    7  C   UNL     1      -6.989  -0.057 -32.704  1.00  0.00     0.082 A 
HETATM    8  N   UNL     1      -6.471   0.545 -31.602  1.00  0.00    -0.240 NA
HETATM    9  C   UNL     1      -5.224   0.206 -31.218  1.00  0.00     0.236 A 
HETATM   10  N   UNL     1      -4.403  -0.693 -31.785  1.00  0.00    -0.224 NA
HETATM   11  C   UNL     1      -4.968  -1.277 -32.850  1.00  0.00     0.141 A 
HETATM   12  C   UNL     1      -6.230  -1.029 -33.372  1.00  0.00     0.041 A 
HETATM   13  N   UNL     1      -4.370  -2.244 -33.610  1.00  0.00    -0.350 N 
HETATM   14  C   UNL     1      -6.386  -1.911 -34.481  1.00  0.00     0.034 A 
HETATM   15  C   UNL     1      -5.224  -2.644 -34.606  1.00  0.00     0.091 A 
HETATM   16  H   UNL     1      -3.440  -2.601 -33.435  1.00  0.00     0.166 HD
ENDBRANCH   4   7
BRANCH   1  17
HETATM   17  C   UNL     1     -12.359   1.525 -34.324  1.00  0.00     0.217 C 
HETATM   18  C   UNL     1     -12.300   2.601 -35.415  1.00  0.00     0.045 C 
BRANCH  17  19
HETATM   19  N   UNL     1     -13.170   2.016 -33.109  1.00  0.00    -0.063 N 
HETATM   20  H   UNL     1     -12.854   1.453 -32.310  1.00  0.00     0.280 HD
HETATM   21  C   UNL     1     -12.930   3.475 -32.775  1.00  0.00     0.235 C 
HETATM   22  C   UNL     1     -13.698   3.864 -31.519  1.00  0.00     0.028 C 
HETATM   23  C   UNL     1     -15.186   3.578 -31.652  1.00  0.00     0.003 C 
HETATM   24  C   UNL     1     -15.417   2.122 -32.024  1.00  0.00     0.028 C 
HETATM   25  C   UNL     1     -14.657   1.736 -33.284  1.00  0.00     0.235 C 
ENDBRANCH  17  19
ENDBRANCH   1  17
TORSDOF 3
ENDMDL
MODEL 8
REMARK VINA RESULT:      -8.1      5.421      8.259
REMARK  3 active torsions:
REMARK  status: ('A' for Active; 'I' for Inactive)
REMARK    1  A    between atoms: C_2  and  N_3 
REMARK    2  A    between atoms: C_2  and  C_10 
REMARK    3  A    between atoms: C_13  and  C_14 
ROOT
HETATM    1  C   UNL     1      -5.334   1.744 -31.919  1.00  0.00    -0.028 A 
HETATM    2  C   UNL     1      -4.064   1.905 -31.342  1.00  0.00     0.010 A 
HETATM    3  C   UNL     1      -3.222   2.946 -31.749  1.00  0.00     0.014 A 
HETATM    4  C   UNL     1      -3.616   3.857 -32.741  1.00  0.00    -0.006 A 
HETATM    5  C   UNL     1      -4.878   3.673 -33.329  1.00  0.00     0.014 A 
HETATM    6  C   UNL     1      -5.730   2.640 -32.924  1.00  0.00     0.010 A 
ENDROOT
BRANCH   4   7
HETATM    7  C   UNL     1      -2.746   4.948 -33.184  1.00  0.00     0.082 A 
HETATM    8  N   UNL     1      -1.974   4.727 -34.281  1.00  0.00    -0.240 NA
HETATM    9  C   UNL     1      -1.164   5.720 -34.699  1.00  0.00     0.236 A 
HETATM   10  N   UNL     1      -1.026   6.948 -34.173  1.00  0.00    -0.224 NA
HETATM   11  C   UNL     1      -1.825   7.125 -33.113  1.00  0.00     0.141 A 
HETATM   12  C   UNL     1      -2.701   6.202 -32.559  1.00  0.00     0.041 A 
HETATM   13  N   UNL     1      -1.908   8.285 -32.391  1.00  0.00    -0.350 N 
HETATM   14  C   UNL     1      -3.344   6.861 -31.470  1.00  0.00     0.034 A 
HETATM   15  C   UNL     1      -2.833   8.140 -31.388  1.00  0.00     0.091 A 
HETATM   16  H   UNL     1      -1.365   9.113 -32.594  1.00  0.00     0.166 HD
ENDBRANCH   4   7
BRANCH   1  17
HETATM   17  C   UNL     1      -6.252   0.635 -31.432  1.00  0.00     0.217 C 
HETATM   18  C   UNL     1      -5.969   0.327 -29.957  1.00  0.00     0.045 C 
BRANCH  17  19
HETATM   19  N   UNL     1      -6.127  -0.637 -32.294  1.00  0.00    -0.063 N 
HETATM   20  H   UNL     1      -6.302  -1.426 -31.661  1.00  0.00     0.280 HD
HETATM   21  C   UNL     1      -7.144  -0.705 -33.416  1.00  0.00     0.235 C 
HETATM   22  C   UNL     1      -7.012  -2.023 -34.168  1.00  0.00     0.028 C 
HETATM   23  C   UNL     1      -5.604  -2.234 -34.702  1.00  0.00     0.003 C 
HETATM   24  C   UNL     1      -4.587  -2.126 -33.577  1.00  0.00     0.028 C 
HETATM   25  C   UNL     1      -4.712  -0.806 -32.830  1.00  0.00     0.235 C 
ENDBRANCH  17  19
ENDBRANCH   1  17
TORSDOF 3
ENDMDL
MODEL 9
REMARK VINA RESULT:      -8.0      5.676      8.247
REMARK  3 active torsions:
REMARK  status: ('A' for Active; 'I' for Inactive)
REMARK    1  A    between atoms: C_2  and  N_3 
REMARK    2  A    between atoms: C_2  and  C_10 
REMARK    3  A    between atoms: C_13  and  C_14 
ROOT
HETATM    1  C   UNL     1      -5.138   1.802 -32.378  1.00  0.00    -0.028 A 
HETATM    2  C   UNL     1      -5.529   2.856 -33.219  1.00  0.00     0.010 A 
HETATM    3  C   UNL     1      -4.699   3.967 -33.405  1.00  0.00     0.014 A 
HETATM    4  C   UNL     1      -3.456   4.064 -32.761  1.00  0.00    -0.006 A 
HETATM    5  C   UNL     1      -3.084   3.015 -31.904  1.00  0.00     0.014 A 
HETATM    6  C   UNL     1      -3.904   1.898 -31.717  1.00  0.00     0.010 A 
ENDROOT
BRANCH   4   7
HETATM    7  C   UNL     1      -2.576   5.221 -32.938  1.00  0.00     0.082 A 
HETATM    8  N   UNL     1      -2.842   6.056 -33.976  1.00  0.00    -0.240 NA
HETATM    9  C   UNL     1      -2.039   7.123 -34.155  1.00  0.00     0.236 A 
HETATM   10  N   UNL     1      -0.987   7.498 -33.411  1.00  0.00    -0.224 NA
HETATM   11  C   UNL     1      -0.781   6.659 -32.387  1.00  0.00     0.141 A 
HETATM   12  C   UNL     1      -1.510   5.519 -32.078  1.00  0.00     0.041 A 
HETATM   13  N   UNL     1       0.209   6.803 -31.454  1.00  0.00    -0.350 N 
HETATM   14  C   UNL     1      -0.929   4.980 -30.892  1.00  0.00     0.034 A 
HETATM   15  C   UNL     1       0.129   5.790 -30.534  1.00  0.00     0.091 A 
HETATM   16  H   UNL     1       0.880   7.560 -31.460  1.00  0.00     0.166 HD
ENDBRANCH   4   7
BRANCH   1  17
HETATM   17  C   UNL     1      -6.033   0.583 -32.226  1.00  0.00     0.217 C 
HETATM   18  C   UNL     1      -5.835  -0.046 -30.842  1.00  0.00     0.045 C 
BRANCH  17  19
HETATM   19  N   UNL     1      -5.791  -0.453 -33.341  1.00  0.00    -0.063 N 
HETATM   20  H   UNL     1      -5.520   0.085 -34.174  1.00  0.00     0.280 HD
HETATM   21  C   UNL     1      -4.669  -1.423 -33.029  1.00  0.00     0.235 C 
HETATM   22  C   UNL     1      -4.435  -2.359 -34.207  1.00  0.00     0.028 C 
HETATM   23  C   UNL     1      -5.701  -3.104 -34.600  1.00  0.00     0.003 C 
HETATM   24  C   UNL     1      -6.832  -2.126 -34.875  1.00  0.00     0.028 C 
HETATM   25  C   UNL     1      -7.072  -1.197 -33.695  1.00  0.00     0.235 C 
ENDBRANCH  17  19
ENDBRANCH   1  17
TORSDOF 3
ENDMDL
MODEL 10
REMARK VINA RESULT:      -8.0      1.657      2.619
REMARK  3 active torsions:
REMARK  status: ('A' for Active; 'I' for Inactive)
REMARK    1  A    between atoms: C_2  and  N_3 
REMARK    2  A    between atoms: C_2  and  C_10 
REMARK    3  A    between atoms: C_13  and  C_14 
ROOT
HETATM    1  C   UNL     1      -6.883   1.428 -33.396  1.00  0.00    -0.028 A 
HETATM    2  C   UNL     1      -7.006   0.971 -34.718  1.00  0.00     0.010 A 
HETATM    3  C   UNL     1      -6.728  -0.362 -35.041  1.00  0.00     0.014 A 
HETATM    4  C   UNL     1      -6.319  -1.280 -34.061  1.00  0.00    -0.006 A 
HETATM    5  C   UNL     1      -6.176  -0.807 -32.747  1.00  0.00     0.014 A 
HETATM    6  C   UNL     1      -6.457   0.523 -32.413  1.00  0.00     0.010 A 
ENDROOT
BRANCH   4   7
HETATM    7  C   UNL     1      -6.018  -2.676 -34.381  1.00  0.00     0.082 A 
HETATM    8  N   UNL     1      -6.849  -3.313 -35.247  1.00  0.00    -0.240 NA
HETATM    9  C   UNL     1      -6.589  -4.600 -35.548  1.00  0.00     0.236 A 
HETATM   10  N   UNL     1      -5.573  -5.360 -35.109  1.00  0.00    -0.224 NA
HETATM   11  C   UNL     1      -4.769  -4.682 -34.280  1.00  0.00     0.141 A 
HETATM   12  C   UNL     1      -4.909  -3.364 -33.868  1.00  0.00     0.041 A 
HETATM   13  N   UNL     1      -3.645  -5.199 -33.695  1.00  0.00    -0.350 N 
HETATM   14  C   UNL     1      -3.800  -3.089 -33.015  1.00  0.00     0.034 A 
HETATM   15  C   UNL     1      -3.041  -4.239 -32.925  1.00  0.00     0.091 A 
HETATM   16  H   UNL     1      -3.325  -6.148 -33.836  1.00  0.00     0.166 HD
ENDBRANCH   4   7
BRANCH   1  17
HETATM   17  C   UNL     1      -7.233   2.868 -33.058  1.00  0.00     0.217 C 
HETATM   18  C   UNL     1      -7.347   3.040 -31.539  1.00  0.00     0.045 C 
BRANCH  17  19
HETATM   19  N   UNL     1      -8.525   3.327 -33.762  1.00  0.00    -0.063 N 
HETATM   20  H   UNL     1      -8.502   2.906 -34.699  1.00  0.00     0.280 HD
HETATM   21  C   UNL     1      -9.788   2.854 -33.071  1.00  0.00     0.235 C 
HETATM   22  C   UNL     1     -11.016   3.274 -33.867  1.00  0.00     0.028 C 
HETATM   23  C   UNL     1     -11.057   4.776 -34.098  1.00  0.00     0.003 C 
HETATM   24  C   UNL     1      -9.771   5.249 -34.758  1.00  0.00     0.028 C 
HETATM   25  C   UNL     1      -8.544   4.837 -33.957  1.00  0.00     0.235 C 
ENDBRANCH  17  19
ENDBRANCH   1  17
TORSDOF 3
ENDMDL
