MODEL 1
REMARK VINA RESULT:      -7.9      0.000      0.000
REMARK  8 active torsions:
REMARK  status: ('A' for Active; 'I' for Inactive)
REMARK    1  A    between atoms: C_2  and  C_3 
REMARK    2  A    between atoms: C_7  and  C_8 
REMARK       I    between atoms: C_8  and  N_9 
REMARK    3  A    between atoms: N_9  and  C_10 
REMARK    4  A    between atoms: C_10  and  C_11 
REMARK    5  A    between atoms: C_11  and  O_12 
REMARK    6  A    between atoms: C_11  and  C_13 
REMARK    7  A    between atoms: C_13  and  O_14 
REMARK    8  A    between atoms: O_14  and  C_15 
ROOT
HETATM    1  C   UNL     1      -7.083   3.027 -34.003  1.00  0.00     0.269 C 
HETATM    2  N   UNL     1      -5.840   3.602 -34.016  1.00  0.00    -0.353 N 
HETATM    3  O   UNL     1      -8.111   3.681 -33.854  1.00  0.00    -0.266 OA
HETATM    4  H   UNL     1      -5.014   3.023 -33.963  1.00  0.00     0.162 HD
ENDROOT
BRANCH   1   5
HETATM    5  C   UNL     1      -7.097   1.605 -34.222  1.00  0.00     0.120 A 
HETATM    6  N   UNL     1      -8.037   1.003 -35.011  1.00  0.00    -0.272 N 
HETATM    7  N   UNL     1      -7.836  -0.310 -35.205  1.00  0.00    -0.174 NA
HETATM    8  H   UNL     1      -8.817   1.454 -35.477  1.00  0.00     0.189 HD
HETATM    9  C   UNL     1      -6.730  -0.591 -34.500  1.00  0.00     0.089 A 
HETATM   10  C   UNL     1      -6.254   0.577 -33.841  1.00  0.00     0.071 A 
BRANCH   9  11
HETATM   11  C   UNL     1      -6.127  -1.928 -34.505  1.00  0.00    -0.005 A 
HETATM   12  C   UNL     1      -4.800  -2.107 -34.077  1.00  0.00     0.017 A 
HETATM   13  C   UNL     1      -4.230  -3.382 -34.033  1.00  0.00     0.043 A 
HETATM   14  C   UNL     1      -4.984  -4.481 -34.425  1.00  0.00     0.116 A 
HETATM   15  C   UNL     1      -6.294  -4.330 -34.863  1.00  0.00     0.043 A 
HETATM   16  F   UNL     1      -4.443  -5.706 -34.377  1.00  0.00    -0.206 F 
HETATM   17  C   UNL     1      -6.866  -3.054 -34.903  1.00  0.00     0.017 A 
ENDBRANCH   9  11
ENDBRANCH   1   5
BRANCH   2  18
HETATM   18  C   UNL     1      -5.622   5.033 -34.085  1.00  0.00     0.156 C 
BRANCH  18  19
HETATM   19  C   UNL     1      -4.343   5.503 -33.390  1.00  0.00     0.159 C 
BRANCH  19  20
HETATM   20  O   UNL     1      -3.420   6.030 -34.355  1.00  0.00    -0.392 OA
HETATM   21  H   UNL     1      -2.550   5.669 -34.086  1.00  0.00     0.210 HD
ENDBRANCH  19  20
BRANCH  19  22
HETATM   22  C   UNL     1      -3.665   4.417 -32.548  1.00  0.00     0.201 C 
BRANCH  22  23
HETATM   23  O   UNL     1      -4.559   4.142 -31.456  1.00  0.00    -0.383 OA
BRANCH  23  24
HETATM   24  C   UNL     1      -4.340   2.875 -30.829  1.00  0.00     0.121 C 
HETATM   25  C   UNL     1      -3.465   2.051 -31.780  1.00  0.00     0.032 C 
HETATM   26  C   UNL     1      -3.223   0.642 -31.252  1.00  0.00     0.002 C 
HETATM   27  C   UNL     1      -4.537  -0.075 -30.958  1.00  0.00     0.000 C 
HETATM   28  C   UNL     1      -5.426   0.738 -30.021  1.00  0.00     0.002 C 
HETATM   29  C   UNL     1      -5.660   2.154 -30.546  1.00  0.00     0.032 C 
ENDBRANCH  23  24
ENDBRANCH  22  23
ENDBRANCH  19  22
ENDBRANCH  18  19
ENDBRANCH   2  18
TORSDOF 8
ENDMDL
MODEL 2
REMARK VINA RESULT:      -7.8      4.453      6.592
REMARK  8 active torsions:
REMARK  status: ('A' for Active; 'I' for Inactive)
REMARK    1  A    between atoms: C_2  and  C_3 
REMARK    2  A    between atoms: C_7  and  C_8 
REMARK       I    between atoms: C_8  and  N_9 
REMARK    3  A    between atoms: N_9  and  C_10 
REMARK    4  A    between atoms: C_10  and  C_11 
REMARK    5  A    between atoms: C_11  and  O_12 
REMARK    6  A    between atoms: C_11  and  C_13 
REMARK    7  A    between atoms: C_13  and  O_14 
REMARK    8  A    between atoms: O_14  and  C_15 
ROOT
HETATM    1  C   UNL     1      -6.841   0.467 -31.553  1.00  0.00     0.269 C 
HETATM    2  N   UNL     1      -5.656   0.968 -32.024  1.00  0.00    -0.353 N 
HETATM    3  O   UNL     1      -6.917  -0.183 -30.515  1.00  0.00    -0.266 OA
HETATM    4  H   UNL     1      -5.602   1.341 -32.962  1.00  0.00     0.162 HD
ENDROOT
BRANCH   1   5
HETATM    5  C   UNL     1      -7.997   0.799 -32.344  1.00  0.00     0.120 A 
HETATM    6  N   UNL     1      -7.888   1.336 -33.596  1.00  0.00    -0.272 N 
HETATM    7  N   UNL     1      -9.057   1.475 -34.241  1.00  0.00    -0.174 NA
HETATM    8  H   UNL     1      -7.030   1.590 -34.075  1.00  0.00     0.189 HD
HETATM    9  C   UNL     1      -9.978   1.030 -33.372  1.00  0.00     0.089 A 
HETATM   10  C   UNL     1      -9.356   0.627 -32.157  1.00  0.00     0.071 A 
BRANCH   9  11
HETATM   11  C   UNL     1     -11.399   0.948 -33.724  1.00  0.00    -0.005 A 
HETATM   12  C   UNL     1     -12.150  -0.189 -33.378  1.00  0.00     0.017 A 
HETATM   13  C   UNL     1     -13.515  -0.257 -33.666  1.00  0.00     0.043 A 
HETATM   14  C   UNL     1     -14.132   0.808 -34.309  1.00  0.00     0.116 A 
HETATM   15  C   UNL     1     -13.410   1.938 -34.672  1.00  0.00     0.043 A 
HETATM   16  F   UNL     1     -15.442   0.748 -34.580  1.00  0.00    -0.206 F 
HETATM   17  C   UNL     1     -12.044   2.010 -34.380  1.00  0.00     0.017 A 
ENDBRANCH   9  11
ENDBRANCH   1   5
BRANCH   2  18
HETATM   18  C   UNL     1      -4.430   0.983 -31.251  1.00  0.00     0.156 C 
BRANCH  18  19
HETATM   19  C   UNL     1      -3.556  -0.256 -31.446  1.00  0.00     0.159 C 
BRANCH  19  20
HETATM   20  O   UNL     1      -2.244  -0.026 -30.906  1.00  0.00    -0.392 OA
HETATM   21  H   UNL     1      -1.691   0.184 -31.686  1.00  0.00     0.210 HD
ENDBRANCH  19  20
BRANCH  19  22
HETATM   22  C   UNL     1      -3.453  -0.716 -32.904  1.00  0.00     0.201 C 
BRANCH  22  23
HETATM   23  O   UNL     1      -3.560  -2.150 -32.878  1.00  0.00    -0.383 OA
BRANCH  23  24
HETATM   24  C   UNL     1      -4.338  -2.695 -33.948  1.00  0.00     0.121 C 
HETATM   25  C   UNL     1      -5.746  -2.102 -33.824  1.00  0.00     0.032 C 
HETATM   26  C   UNL     1      -6.695  -2.670 -34.873  1.00  0.00     0.002 C 
HETATM   27  C   UNL     1      -6.736  -4.194 -34.820  1.00  0.00     0.000 C 
HETATM   28  C   UNL     1      -5.340  -4.800 -34.928  1.00  0.00     0.002 C 
HETATM   29  C   UNL     1      -4.386  -4.224 -33.884  1.00  0.00     0.032 C 
ENDBRANCH  23  24
ENDBRANCH  22  23
ENDBRANCH  19  22
ENDBRANCH  18  19
ENDBRANCH   2  18
TORSDOF 8
ENDMDL
MODEL 3
REMARK VINA RESULT:      -7.8      2.483      4.071
REMARK  8 active torsions:
REMARK  status: ('A' for Active; 'I' for Inactive)
REMARK    1  A    between atoms: C_2  and  C_3 
REMARK    2  A    between atoms: C_7  and  C_8 
REMARK       I    between atoms: C_8  and  N_9 
REMARK    3  A    between atoms: N_9  and  C_10 
REMARK    4  A    between atoms: C_10  and  C_11 
REMARK    5  A    between atoms: C_11  and  O_12 
REMARK    6  A    between atoms: C_11  and  C_13 
REMARK    7  A    between atoms: C_13  and  O_14 
REMARK    8  A    between atoms: O_14  and  C_15 
ROOT
HETATM    1  C   UNL     1      -3.589   2.471 -31.682  1.00  0.00     0.269 C 
HETATM    2  N   UNL     1      -4.740   3.207 -31.791  1.00  0.00    -0.353 N 
HETATM    3  O   UNL     1      -2.553   2.932 -31.213  1.00  0.00    -0.266 OA
HETATM    4  H   UNL     1      -5.514   2.857 -32.339  1.00  0.00     0.162 HD
ENDROOT
BRANCH   1   5
HETATM    5  C   UNL     1      -3.700   1.103 -32.117  1.00  0.00     0.120 A 
HETATM    6  N   UNL     1      -2.988   0.097 -31.528  1.00  0.00    -0.272 N 
HETATM    7  N   UNL     1      -3.296  -1.131 -31.973  1.00  0.00    -0.174 NA
HETATM    8  H   UNL     1      -2.304   0.192 -30.784  1.00  0.00     0.189 HD
HETATM    9  C   UNL     1      -4.235  -0.926 -32.908  1.00  0.00     0.089 A 
HETATM   10  C   UNL     1      -4.493   0.465 -33.052  1.00  0.00     0.071 A 
BRANCH   9  11
HETATM   11  C   UNL     1      -4.895  -2.038 -33.599  1.00  0.00    -0.005 A 
HETATM   12  C   UNL     1      -6.215  -1.900 -34.064  1.00  0.00     0.017 A 
HETATM   13  C   UNL     1      -6.838  -2.936 -34.765  1.00  0.00     0.043 A 
HETATM   14  C   UNL     1      -6.145  -4.117 -34.997  1.00  0.00     0.116 A 
HETATM   15  C   UNL     1      -4.844  -4.283 -34.538  1.00  0.00     0.043 A 
HETATM   16  F   UNL     1      -6.736  -5.109 -35.675  1.00  0.00    -0.206 F 
HETATM   17  C   UNL     1      -4.218  -3.246 -33.840  1.00  0.00     0.017 A 
ENDBRANCH   9  11
ENDBRANCH   1   5
BRANCH   2  18
HETATM   18  C   UNL     1      -4.922   4.504 -31.170  1.00  0.00     0.156 C 
BRANCH  18  19
HETATM   19  C   UNL     1      -5.912   4.504 -30.005  1.00  0.00     0.159 C 
BRANCH  19  20
HETATM   20  O   UNL     1      -5.424   3.672 -28.941  1.00  0.00    -0.392 OA
HETATM   21  H   UNL     1      -5.794   4.071 -28.127  1.00  0.00     0.210 HD
ENDBRANCH  19  20
BRANCH  19  22
HETATM   22  C   UNL     1      -7.330   4.076 -30.400  1.00  0.00     0.201 C 
BRANCH  22  23
HETATM   23  O   UNL     1      -7.266   2.659 -30.641  1.00  0.00    -0.383 OA
BRANCH  23  24
HETATM   24  C   UNL     1      -8.236   2.185 -31.579  1.00  0.00     0.121 C 
HETATM   25  C   UNL     1      -8.031   0.672 -31.708  1.00  0.00     0.032 C 
HETATM   26  C   UNL     1      -8.965   0.059 -32.745  1.00  0.00     0.002 C 
HETATM   27  C   UNL     1      -8.823   0.748 -34.098  1.00  0.00     0.000 C 
HETATM   28  C   UNL     1      -9.012   2.258 -33.985  1.00  0.00     0.002 C 
HETATM   29  C   UNL     1      -8.083   2.871 -32.939  1.00  0.00     0.032 C 
ENDBRANCH  23  24
ENDBRANCH  22  23
ENDBRANCH  19  22
ENDBRANCH  18  19
ENDBRANCH   2  18
TORSDOF 8
ENDMDL
MODEL 4
REMARK VINA RESULT:      -7.8      2.223      2.773
REMARK  8 active torsions:
REMARK  status: ('A' for Active; 'I' for Inactive)
REMARK    1  A    between atoms: C_2  and  C_3 
REMARK    2  A    between atoms: C_7  and  C_8 
REMARK       I    between atoms: C_8  and  N_9 
REMARK    3  A    between atoms: N_9  and  C_10 
REMARK    4  A    between atoms: C_10  and  C_11 
REMARK    5  A    between atoms: C_11  and  O_12 
REMARK    6  A    between atoms: C_11  and  C_13 
REMARK    7  A    between atoms: C_13  and  O_14 
REMARK    8  A    between atoms: O_14  and  C_15 
ROOT
HETATM    1  C   UNL     1      -9.558   1.763 -32.648  1.00  0.00     0.269 C 
HETATM    2  N   UNL     1      -9.250   1.866 -31.318  1.00  0.00    -0.353 N 
HETATM    3  O   UNL     1     -10.373   2.499 -33.196  1.00  0.00    -0.266 OA
HETATM    4  H   UNL     1      -8.715   1.139 -30.864  1.00  0.00     0.162 HD
ENDROOT
BRANCH   1   5
HETATM    5  C   UNL     1      -8.819   0.758 -33.366  1.00  0.00     0.120 A 
HETATM    6  N   UNL     1      -8.699   0.782 -34.727  1.00  0.00    -0.272 N 
HETATM    7  N   UNL     1      -7.881  -0.159 -35.226  1.00  0.00    -0.174 NA
HETATM    8  H   UNL     1      -9.125   1.448 -35.363  1.00  0.00     0.189 HD
HETATM    9  C   UNL     1      -7.459  -0.844 -34.152  1.00  0.00     0.089 A 
HETATM   10  C   UNL     1      -8.051  -0.321 -32.969  1.00  0.00     0.071 A 
BRANCH   9  11
HETATM   11  C   UNL     1      -6.480  -1.930 -34.263  1.00  0.00    -0.005 A 
HETATM   12  C   UNL     1      -5.154  -1.733 -33.840  1.00  0.00     0.017 A 
HETATM   13  C   UNL     1      -4.225  -2.775 -33.896  1.00  0.00     0.043 A 
HETATM   14  C   UNL     1      -4.617  -4.015 -34.383  1.00  0.00     0.116 A 
HETATM   15  C   UNL     1      -5.918  -4.232 -34.819  1.00  0.00     0.043 A 
HETATM   16  F   UNL     1      -3.730  -5.018 -34.432  1.00  0.00    -0.206 F 
HETATM   17  C   UNL     1      -6.851  -3.192 -34.759  1.00  0.00     0.017 A 
ENDBRANCH   9  11
ENDBRANCH   1   5
BRANCH   2  18
HETATM   18  C   UNL     1      -9.671   2.974 -30.483  1.00  0.00     0.156 C 
BRANCH  18  19
HETATM   19  C   UNL     1      -8.779   4.211 -30.592  1.00  0.00     0.159 C 
BRANCH  19  20
HETATM   20  O   UNL     1      -9.243   5.064 -31.651  1.00  0.00    -0.392 OA
HETATM   21  H   UNL     1      -9.669   5.815 -31.192  1.00  0.00     0.210 HD
ENDBRANCH  19  20
BRANCH  19  22
HETATM   22  C   UNL     1      -7.294   3.885 -30.789  1.00  0.00     0.201 C 
BRANCH  22  23
HETATM   23  O   UNL     1      -6.972   2.887 -29.805  1.00  0.00    -0.383 OA
BRANCH  23  24
HETATM   24  C   UNL     1      -5.683   2.292 -29.981  1.00  0.00     0.121 C 
HETATM   25  C   UNL     1      -4.940   3.135 -31.023  1.00  0.00     0.032 C 
HETATM   26  C   UNL     1      -3.570   2.552 -31.354  1.00  0.00     0.002 C 
HETATM   27  C   UNL     1      -3.678   1.099 -31.802  1.00  0.00     0.000 C 
HETATM   28  C   UNL     1      -4.428   0.247 -30.781  1.00  0.00     0.002 C 
HETATM   29  C   UNL     1      -5.795   0.837 -30.442  1.00  0.00     0.032 C 
ENDBRANCH  23  24
ENDBRANCH  22  23
ENDBRANCH  19  22
ENDBRANCH  18  19
ENDBRANCH   2  18
TORSDOF 8
ENDMDL
MODEL 5
REMARK VINA RESULT:      -7.7      1.899      3.360
REMARK  8 active torsions:
REMARK  status: ('A' for Active; 'I' for Inactive)
REMARK    1  A    between atoms: C_2  and  C_3 
REMARK    2  A    between atoms: C_7  and  C_8 
REMARK       I    between atoms: C_8  and  N_9 
REMARK    3  A    between atoms: N_9  and  C_10 
REMARK    4  A    between atoms: C_10  and  C_11 
REMARK    5  A    between atoms: C_11  and  O_12 
REMARK    6  A    between atoms: C_11  and  C_13 
REMARK    7  A    between atoms: C_13  and  O_14 
REMARK    8  A    between atoms: O_14  and  C_15 
ROOT
HETATM    1  C   UNL     1      -7.966   2.534 -33.188  1.00  0.00     0.269 C 
HETATM    2  N   UNL     1      -6.904   3.101 -32.534  1.00  0.00    -0.353 N 
HETATM    3  O   UNL     1      -9.035   3.118 -33.340  1.00  0.00    -0.266 OA
HETATM    4  H   UNL     1      -6.110   2.534 -32.273  1.00  0.00     0.162 HD
ENDROOT
BRANCH   1   5
HETATM    5  C   UNL     1      -7.719   1.221 -33.722  1.00  0.00     0.120 A 
HETATM    6  N   UNL     1      -8.137   0.858 -34.971  1.00  0.00    -0.272 N 
HETATM    7  N   UNL     1      -7.723  -0.359 -35.360  1.00  0.00    -0.174 NA
HETATM    8  H   UNL     1      -8.675   1.423 -35.620  1.00  0.00     0.189 HD
HETATM    9  C   UNL     1      -7.021  -0.827 -34.316  1.00  0.00     0.089 A 
HETATM   10  C   UNL     1      -7.023   0.122 -33.255  1.00  0.00     0.071 A 
BRANCH   9  11
HETATM   11  C   UNL     1      -6.331  -2.119 -34.364  1.00  0.00    -0.005 A 
HETATM   12  C   UNL     1      -7.034  -3.284 -34.719  1.00  0.00     0.017 A 
HETATM   13  C   UNL     1      -6.377  -4.514 -34.815  1.00  0.00     0.043 A 
HETATM   14  C   UNL     1      -5.016  -4.584 -34.547  1.00  0.00     0.116 A 
HETATM   15  C   UNL     1      -4.300  -3.449 -34.182  1.00  0.00     0.043 A 
HETATM   16  F   UNL     1      -4.382  -5.759 -34.644  1.00  0.00    -0.206 F 
HETATM   17  C   UNL     1      -4.956  -2.217 -34.091  1.00  0.00     0.017 A 
ENDBRANCH   9  11
ENDBRANCH   1   5
BRANCH   2  18
HETATM   18  C   UNL     1      -6.849   4.501 -32.162  1.00  0.00     0.156 C 
BRANCH  18  19
HETATM   19  C   UNL     1      -6.459   5.435 -33.308  1.00  0.00     0.159 C 
BRANCH  19  20
HETATM   20  O   UNL     1      -7.593   5.677 -34.157  1.00  0.00    -0.392 OA
HETATM   21  H   UNL     1      -8.272   6.051 -33.559  1.00  0.00     0.210 HD
ENDBRANCH  19  20
BRANCH  19  22
HETATM   22  C   UNL     1      -5.275   4.931 -34.140  1.00  0.00     0.201 C 
BRANCH  22  23
HETATM   23  O   UNL     1      -4.424   4.214 -33.228  1.00  0.00    -0.383 OA
BRANCH  23  24
HETATM   24  C   UNL     1      -3.049   4.602 -33.290  1.00  0.00     0.121 C 
HETATM   25  C   UNL     1      -2.845   5.695 -32.235  1.00  0.00     0.032 C 
HETATM   26  C   UNL     1      -1.424   6.247 -32.256  1.00  0.00     0.002 C 
HETATM   27  C   UNL     1      -1.043   6.749 -33.645  1.00  0.00     0.000 C 
HETATM   28  C   UNL     1      -1.252   5.676 -34.710  1.00  0.00     0.002 C 
HETATM   29  C   UNL     1      -2.673   5.116 -34.682  1.00  0.00     0.032 C 
ENDBRANCH  23  24
ENDBRANCH  22  23
ENDBRANCH  19  22
ENDBRANCH  18  19
ENDBRANCH   2  18
TORSDOF 8
ENDMDL
MODEL 6
REMARK VINA RESULT:      -7.7      2.133      3.257
REMARK  8 active torsions:
REMARK  status: ('A' for Active; 'I' for Inactive)
REMARK    1  A    between atoms: C_2  and  C_3 
REMARK    2  A    between atoms: C_7  and  C_8 
REMARK       I    between atoms: C_8  and  N_9 
REMARK    3  A    between atoms: N_9  and  C_10 
REMARK    4  A    between atoms: C_10  and  C_11 
REMARK    5  A    between atoms: C_11  and  O_12 
REMARK    6  A    between atoms: C_11  and  C_13 
REMARK    7  A    between atoms: C_13  and  O_14 
REMARK    8  A    between atoms: O_14  and  C_15 
ROOT
HETATM    1  C   UNL     1      -6.232   3.261 -33.211  1.00  0.00     0.269 C 
HETATM    2  N   UNL     1      -5.040   3.848 -33.542  1.00  0.00    -0.353 N 
HETATM    3  O   UNL     1      -7.114   3.858 -32.600  1.00  0.00    -0.266 OA
HETATM    4  H   UNL     1      -4.275   3.282 -33.883  1.00  0.00     0.162 HD
ENDROOT
BRANCH   1   5
HETATM    5  C   UNL     1      -6.392   1.908 -33.673  1.00  0.00     0.120 A 
HETATM    6  N   UNL     1      -7.200   1.594 -34.729  1.00  0.00    -0.272 N 
HETATM    7  N   UNL     1      -7.144   0.306 -35.104  1.00  0.00    -0.174 NA
HETATM    8  H   UNL     1      -7.783   2.234 -35.259  1.00  0.00     0.189 HD
HETATM    9  C   UNL     1      -6.278  -0.258 -34.248  1.00  0.00     0.089 A 
HETATM   10  C   UNL     1      -5.810   0.707 -33.313  1.00  0.00     0.071 A 
BRANCH   9  11
HETATM   11  C   UNL     1      -5.881  -1.665 -34.363  1.00  0.00    -0.005 A 
HETATM   12  C   UNL     1      -4.584  -2.066 -33.998  1.00  0.00     0.017 A 
HETATM   13  C   UNL     1      -4.209  -3.411 -34.058  1.00  0.00     0.043 A 
HETATM   14  C   UNL     1      -5.128  -4.358 -34.492  1.00  0.00     0.116 A 
HETATM   15  C   UNL     1      -6.413  -3.985 -34.870  1.00  0.00     0.043 A 
HETATM   16  F   UNL     1      -4.775  -5.648 -34.545  1.00  0.00    -0.206 F 
HETATM   17  C   UNL     1      -6.791  -2.640 -34.805  1.00  0.00     0.017 A 
ENDBRANCH   9  11
ENDBRANCH   1   5
BRANCH   2  18
HETATM   18  C   UNL     1      -4.784   5.269 -33.414  1.00  0.00     0.156 C 
BRANCH  18  19
HETATM   19  C   UNL     1      -3.519   5.742 -34.130  1.00  0.00     0.159 C 
BRANCH  19  20
HETATM   20  O   UNL     1      -3.655   5.561 -35.548  1.00  0.00    -0.392 OA
HETATM   21  H   UNL     1      -3.932   4.628 -35.652  1.00  0.00     0.210 HD
ENDBRANCH  19  20
BRANCH  19  22
HETATM   22  C   UNL     1      -2.238   5.063 -33.632  1.00  0.00     0.201 C 
BRANCH  22  23
HETATM   23  O   UNL     1      -2.550   4.529 -32.333  1.00  0.00    -0.383 OA
BRANCH  23  24
HETATM   24  C   UNL     1      -1.673   4.976 -31.295  1.00  0.00     0.121 C 
HETATM   25  C   UNL     1      -2.306   6.232 -30.685  1.00  0.00     0.032 C 
HETATM   26  C   UNL     1      -1.419   6.849 -29.610  1.00  0.00     0.002 C 
HETATM   27  C   UNL     1      -0.021   7.145 -30.143  1.00  0.00     0.000 C 
HETATM   28  C   UNL     1       0.618   5.907 -30.766  1.00  0.00     0.002 C 
HETATM   29  C   UNL     1      -0.274   5.282 -31.837  1.00  0.00     0.032 C 
ENDBRANCH  23  24
ENDBRANCH  22  23
ENDBRANCH  19  22
ENDBRANCH  18  19
ENDBRANCH   2  18
TORSDOF 8
ENDMDL
MODEL 7
REMARK VINA RESULT:      -7.6      4.406      5.453
REMARK  8 active torsions:
REMARK  status: ('A' for Active; 'I' for Inactive)
REMARK    1  A    between atoms: C_2  and  C_3 
REMARK    2  A    between atoms: C_7  and  C_8 
REMARK       I    between atoms: C_8  and  N_9 
REMARK    3  A    between atoms: N_9  and  C_10 
REMARK    4  A    between atoms: C_10  and  C_11 
REMARK    5  A    between atoms: C_11  and  O_12 
REMARK    6  A    between atoms: C_11  and  C_13 
REMARK    7  A    between atoms: C_13  and  O_14 
REMARK    8  A    between atoms: O_14  and  C_15 
ROOT
HETATM    1  C   UNL     1      -3.729   2.959 -31.488  1.00  0.00     0.269 C 
HETATM    2  N   UNL     1      -2.632   3.607 -31.990  1.00  0.00    -0.353 N 
HETATM    3  O   UNL     1      -4.559   3.519 -30.778  1.00  0.00    -0.266 OA
HETATM    4  H   UNL     1      -1.884   3.079 -32.417  1.00  0.00     0.162 HD
ENDROOT
BRANCH   1   5
HETATM    5  C   UNL     1      -3.859   1.583 -31.891  1.00  0.00     0.120 A 
HETATM    6  N   UNL     1      -3.260   0.567 -31.201  1.00  0.00    -0.272 N 
HETATM    7  N   UNL     1      -3.578  -0.661 -31.640  1.00  0.00    -0.174 NA
HETATM    8  H   UNL     1      -2.653   0.657 -30.392  1.00  0.00     0.189 HD
HETATM    9  C   UNL     1      -4.405  -0.447 -32.675  1.00  0.00     0.089 A 
HETATM   10  C   UNL     1      -4.580   0.950 -32.885  1.00  0.00     0.071 A 
BRANCH   9  11
HETATM   11  C   UNL     1      -5.042  -1.551 -33.398  1.00  0.00    -0.005 A 
HETATM   12  C   UNL     1      -6.409  -1.491 -33.721  1.00  0.00     0.017 A 
HETATM   13  C   UNL     1      -7.016  -2.516 -34.452  1.00  0.00     0.043 A 
HETATM   14  C   UNL     1      -6.260  -3.609 -34.855  1.00  0.00     0.116 A 
HETATM   15  C   UNL     1      -4.909  -3.698 -34.538  1.00  0.00     0.043 A 
HETATM   16  F   UNL     1      -6.837  -4.589 -35.561  1.00  0.00    -0.206 F 
HETATM   17  C   UNL     1      -4.300  -2.671 -33.811  1.00  0.00     0.017 A 
ENDBRANCH   9  11
ENDBRANCH   1   5
BRANCH   2  18
HETATM   18  C   UNL     1      -2.457   5.045 -31.932  1.00  0.00     0.156 C 
BRANCH  18  19
HETATM   19  C   UNL     1      -1.192   5.489 -31.196  1.00  0.00     0.159 C 
BRANCH  19  20
HETATM   20  O   UNL     1      -0.609   4.377 -30.498  1.00  0.00    -0.392 OA
HETATM   21  H   UNL     1      -1.258   3.652 -30.605  1.00  0.00     0.210 HD
ENDBRANCH  19  20
BRANCH  19  22
HETATM   22  C   UNL     1      -1.418   6.657 -30.231  1.00  0.00     0.201 C 
BRANCH  22  23
HETATM   23  O   UNL     1      -1.047   6.175 -28.927  1.00  0.00    -0.383 OA
BRANCH  23  24
HETATM   24  C   UNL     1      -0.459   7.170 -28.084  1.00  0.00     0.121 C 
HETATM   25  C   UNL     1       0.797   7.678 -28.800  1.00  0.00     0.032 C 
HETATM   26  C   UNL     1       1.557   8.696 -27.959  1.00  0.00     0.002 C 
HETATM   27  C   UNL     1       1.901   8.136 -26.583  1.00  0.00     0.000 C 
HETATM   28  C   UNL     1       0.662   7.613 -25.861  1.00  0.00     0.002 C 
HETATM   29  C   UNL     1      -0.106   6.600 -26.708  1.00  0.00     0.032 C 
ENDBRANCH  23  24
ENDBRANCH  22  23
ENDBRANCH  19  22
ENDBRANCH  18  19
ENDBRANCH   2  18
TORSDOF 8
ENDMDL
MODEL 8
REMARK VINA RESULT:      -7.4      2.467      4.324
REMARK  8 active torsions:
REMARK  status: ('A' for Active; 'I' for Inactive)
REMARK    1  A    between atoms: C_2  and  C_3 
REMARK    2  A    between atoms: C_7  and  C_8 
REMARK       I    between atoms: C_8  and  N_9 
REMARK    3  A    between atoms: N_9  and  C_10 
REMARK    4  A    between atoms: C_10  and  C_11 
REMARK    5  A    between atoms: C_11  and  O_12 
REMARK    6  A    between atoms: C_11  and  C_13 
REMARK    7  A    between atoms: C_13  and  O_14 
REMARK    8  A    between atoms: O_14  and  C_15 
ROOT
HETATM    1  C   UNL     1      -3.633   2.296 -31.474  1.00  0.00     0.269 C 
HETATM    2  N   UNL     1      -4.844   2.906 -31.287  1.00  0.00    -0.353 N 
HETATM    3  O   UNL     1      -2.569   2.839 -31.190  1.00  0.00    -0.266 OA
HETATM    4  H   UNL     1      -5.680   2.507 -31.691  1.00  0.00     0.162 HD
ENDROOT
BRANCH   1   5
HETATM    5  C   UNL     1      -3.702   0.952 -31.985  1.00  0.00     0.120 A 
HETATM    6  N   UNL     1      -2.952  -0.062 -31.459  1.00  0.00    -0.272 N 
HETATM    7  N   UNL     1      -3.223  -1.273 -31.970  1.00  0.00    -0.174 NA
HETATM    8  H   UNL     1      -2.265   0.013 -30.716  1.00  0.00     0.189 HD
HETATM    9  C   UNL     1      -4.178  -1.047 -32.886  1.00  0.00     0.089 A 
HETATM   10  C   UNL     1      -4.483   0.342 -32.949  1.00  0.00     0.071 A 
BRANCH   9  11
HETATM   11  C   UNL     1      -4.808  -2.139 -33.634  1.00  0.00    -0.005 A 
HETATM   12  C   UNL     1      -4.146  -3.371 -33.779  1.00  0.00     0.017 A 
HETATM   13  C   UNL     1      -4.756  -4.435 -34.449  1.00  0.00     0.043 A 
HETATM   14  C   UNL     1      -6.027  -4.267 -34.984  1.00  0.00     0.116 A 
HETATM   15  C   UNL     1      -6.697  -3.056 -34.864  1.00  0.00     0.043 A 
HETATM   16  F   UNL     1      -6.617  -5.286 -35.620  1.00  0.00    -0.206 F 
HETATM   17  C   UNL     1      -6.090  -1.992 -34.190  1.00  0.00     0.017 A 
ENDBRANCH   9  11
ENDBRANCH   1   5
BRANCH   2  18
HETATM   18  C   UNL     1      -5.013   4.137 -30.540  1.00  0.00     0.156 C 
BRANCH  18  19
HETATM   19  C   UNL     1      -6.111   5.051 -31.085  1.00  0.00     0.159 C 
BRANCH  19  20
HETATM   20  O   UNL     1      -7.235   4.270 -31.520  1.00  0.00    -0.392 OA
HETATM   21  H   UNL     1      -7.241   3.495 -30.923  1.00  0.00     0.210 HD
ENDBRANCH  19  20
BRANCH  19  22
HETATM   22  C   UNL     1      -5.641   5.974 -32.215  1.00  0.00     0.201 C 
BRANCH  22  23
HETATM   23  O   UNL     1      -4.728   5.198 -33.010  1.00  0.00    -0.383 OA
BRANCH  23  24
HETATM   24  C   UNL     1      -3.652   5.958 -33.567  1.00  0.00     0.121 C 
HETATM   25  C   UNL     1      -2.582   4.956 -34.015  1.00  0.00     0.032 C 
HETATM   26  C   UNL     1      -1.342   5.655 -34.561  1.00  0.00     0.002 C 
HETATM   27  C   UNL     1      -0.774   6.649 -33.553  1.00  0.00     0.000 C 
HETATM   28  C   UNL     1      -1.831   7.646 -33.087  1.00  0.00     0.002 C 
HETATM   29  C   UNL     1      -3.077   6.945 -32.549  1.00  0.00     0.032 C 
ENDBRANCH  23  24
ENDBRANCH  22  23
ENDBRANCH  19  22
ENDBRANCH  18  19
ENDBRANCH   2  18
TORSDOF 8
ENDMDL
MODEL 9
REMARK VINA RESULT:      -7.4      2.797      3.964
REMARK  8 active torsions:
REMARK  status: ('A' for Active; 'I' for Inactive)
REMARK    1  A    between atoms: C_2  and  C_3 
REMARK    2  A    between atoms: C_7  and  C_8 
REMARK       I    between atoms: C_8  and  N_9 
REMARK    3  A    between atoms: N_9  and  C_10 
REMARK    4  A    between atoms: C_10  and  C_11 
REMARK    5  A    between atoms: C_11  and  O_12 
REMARK    6  A    between atoms: C_11  and  C_13 
REMARK    7  A    between atoms: C_13  and  O_14 
REMARK    8  A    between atoms: O_14  and  C_15 
ROOT
HETATM    1  C   UNL     1      -4.586   3.624 -32.447  1.00  0.00     0.269 C 
HETATM    2  N   UNL     1      -4.106   4.431 -33.444  1.00  0.00    -0.353 N 
HETATM    3  O   UNL     1      -4.555   3.947 -31.264  1.00  0.00    -0.266 OA
HETATM    4  H   UNL     1      -3.985   4.064 -34.378  1.00  0.00     0.162 HD
ENDROOT
BRANCH   1   5
HETATM    5  C   UNL     1      -5.169   2.387 -32.895  1.00  0.00     0.120 A 
HETATM    6  N   UNL     1      -6.352   2.351 -33.578  1.00  0.00    -0.272 N 
HETATM    7  N   UNL     1      -6.695   1.132 -34.026  1.00  0.00    -0.174 NA
HETATM    8  H   UNL     1      -6.948   3.141 -33.803  1.00  0.00     0.189 HD
HETATM    9  C   UNL     1      -5.708   0.327 -33.603  1.00  0.00     0.089 A 
HETATM   10  C   UNL     1      -4.748   1.071 -32.861  1.00  0.00     0.071 A 
BRANCH   9  11
HETATM   11  C   UNL     1      -5.669  -1.097 -33.948  1.00  0.00    -0.005 A 
HETATM   12  C   UNL     1      -6.844  -1.762 -34.342  1.00  0.00     0.017 A 
HETATM   13  C   UNL     1      -6.811  -3.107 -34.719  1.00  0.00     0.043 A 
HETATM   14  C   UNL     1      -5.604  -3.794 -34.695  1.00  0.00     0.116 A 
HETATM   15  C   UNL     1      -4.431  -3.163 -34.299  1.00  0.00     0.043 A 
HETATM   16  F   UNL     1      -5.568  -5.081 -35.063  1.00  0.00    -0.206 F 
HETATM   17  C   UNL     1      -4.462  -1.816 -33.926  1.00  0.00     0.017 A 
ENDBRANCH   9  11
ENDBRANCH   1   5
BRANCH   2  18
HETATM   18  C   UNL     1      -3.731   5.816 -33.241  1.00  0.00     0.156 C 
BRANCH  18  19
HETATM   19  C   UNL     1      -2.612   6.301 -34.164  1.00  0.00     0.159 C 
BRANCH  19  20
HETATM   20  O   UNL     1      -2.020   5.187 -34.850  1.00  0.00    -0.392 OA
HETATM   21  H   UNL     1      -1.157   5.523 -35.165  1.00  0.00     0.210 HD
ENDBRANCH  19  20
BRANCH  19  22
HETATM   22  C   UNL     1      -1.530   7.115 -33.447  1.00  0.00     0.201 C 
BRANCH  22  23
HETATM   23  O   UNL     1      -1.795   6.978 -32.040  1.00  0.00    -0.383 OA
BRANCH  23  24
HETATM   24  C   UNL     1      -0.622   6.786 -31.244  1.00  0.00     0.121 C 
HETATM   25  C   UNL     1      -0.511   5.284 -30.965  1.00  0.00     0.032 C 
HETATM   26  C   UNL     1       0.669   4.960 -30.055  1.00  0.00     0.002 C 
HETATM   27  C   UNL     1       0.602   5.754 -28.755  1.00  0.00     0.000 C 
HETATM   28  C   UNL     1       0.478   7.253 -29.014  1.00  0.00     0.002 C 
HETATM   29  C   UNL     1      -0.698   7.576 -29.935  1.00  0.00     0.032 C 
ENDBRANCH  23  24
ENDBRANCH  22  23
ENDBRANCH  19  22
ENDBRANCH  18  19
ENDBRANCH   2  18
TORSDOF 8
ENDMDL
MODEL 10
REMARK VINA RESULT:      -7.2      3.011      4.467
REMARK  8 active torsions:
REMARK  status: ('A' for Active; 'I' for Inactive)
REMARK    1  A    between atoms: C_2  and  C_3 
REMARK    2  A    between atoms: C_7  and  C_8 
REMARK       I    between atoms: C_8  and  N_9 
REMARK    3  A    between atoms: N_9  and  C_10 
REMARK    4  A    between atoms: C_10  and  C_11 
REMARK    5  A    between atoms: C_11  and  O_12 
REMARK    6  A    between atoms: C_11  and  C_13 
REMARK    7  A    between atoms: C_13  and  O_14 
REMARK    8  A    between atoms: O_14  and  C_15 
ROOT
HETATM    1  C   UNL     1      -3.565   2.622 -31.573  1.00  0.00     0.269 C 
HETATM    2  N   UNL     1      -4.725   3.350 -31.553  1.00  0.00    -0.353 N 
HETATM    3  O   UNL     1      -2.483   3.096 -31.243  1.00  0.00    -0.266 OA
HETATM    4  H   UNL     1      -5.558   2.987 -31.996  1.00  0.00     0.162 HD
ENDROOT
BRANCH   1   5
HETATM    5  C   UNL     1      -3.719   1.246 -31.967  1.00  0.00     0.120 A 
HETATM    6  N   UNL     1      -3.167   0.222 -31.249  1.00  0.00    -0.272 N 
HETATM    7  N   UNL     1      -3.504  -1.002 -31.685  1.00  0.00    -0.174 NA
HETATM    8  H   UNL     1      -2.581   0.305 -30.424  1.00  0.00     0.189 HD
HETATM    9  C   UNL     1      -4.295  -0.778 -32.745  1.00  0.00     0.089 A 
HETATM   10  C   UNL     1      -4.428   0.620 -32.975  1.00  0.00     0.071 A 
BRANCH   9  11
HETATM   11  C   UNL     1      -4.939  -1.873 -33.476  1.00  0.00    -0.005 A 
HETATM   12  C   UNL     1      -6.274  -1.752 -33.901  1.00  0.00     0.017 A 
HETATM   13  C   UNL     1      -6.884  -2.770 -34.639  1.00  0.00     0.043 A 
HETATM   14  C   UNL     1      -6.162  -3.916 -34.947  1.00  0.00     0.116 A 
HETATM   15  C   UNL     1      -4.846  -4.066 -34.529  1.00  0.00     0.043 A 
HETATM   16  F   UNL     1      -6.741  -4.891 -35.660  1.00  0.00    -0.206 F 
HETATM   17  C   UNL     1      -4.233  -3.046 -33.794  1.00  0.00     0.017 A 
ENDBRANCH   9  11
ENDBRANCH   1   5
BRANCH   2  18
HETATM   18  C   UNL     1      -4.838   4.658 -30.938  1.00  0.00     0.156 C 
BRANCH  18  19
HETATM   19  C   UNL     1      -5.202   5.777 -31.914  1.00  0.00     0.159 C 
BRANCH  19  20
HETATM   20  O   UNL     1      -5.226   5.272 -33.259  1.00  0.00    -0.392 OA
HETATM   21  H   UNL     1      -6.087   5.570 -33.618  1.00  0.00     0.210 HD
ENDBRANCH  19  20
BRANCH  19  22
HETATM   22  C   UNL     1      -4.279   6.997 -31.825  1.00  0.00     0.201 C 
BRANCH  22  23
HETATM   23  O   UNL     1      -2.989   6.555 -32.282  1.00  0.00    -0.383 OA
BRANCH  23  24
HETATM   24  C   UNL     1      -1.890   7.163 -31.598  1.00  0.00     0.121 C 
HETATM   25  C   UNL     1      -0.638   6.354 -31.953  1.00  0.00     0.032 C 
HETATM   26  C   UNL     1       0.596   6.865 -31.218  1.00  0.00     0.002 C 
HETATM   27  C   UNL     1       0.373   6.893 -29.710  1.00  0.00     0.000 C 
HETATM   28  C   UNL     1      -0.878   7.684 -29.339  1.00  0.00     0.002 C 
HETATM   29  C   UNL     1      -2.113   7.179 -30.083  1.00  0.00     0.032 C 
ENDBRANCH  23  24
ENDBRANCH  22  23
ENDBRANCH  19  22
ENDBRANCH  18  19
ENDBRANCH   2  18
TORSDOF 8
ENDMDL
