MODEL 1
REMARK VINA RESULT:      -9.7      0.000      0.000
REMARK  7 active torsions:
REMARK  status: ('A' for Active; 'I' for Inactive)
REMARK    1  A    between atoms: C_2  and  C_3 
REMARK    2  A    between atoms: C_6  and  C_7 
REMARK    3  A    between atoms: N_8  and  C_9 
REMARK    4  A    between atoms: C_14  and  S_15 
REMARK    5  A    between atoms: S_15  and  C_16 
REMARK    6  A    between atoms: C_16  and  C_17 
REMARK       I    between atoms: C_17  and  N_18 
REMARK    7  A    between atoms: N_18  and  C_19 
ROOT
HETATM    1  C   UNL     1      -1.276   5.887 -30.446  1.00  0.00     0.164 C 
HETATM    2  N   UNL     1      -2.381   6.042 -31.271  1.00  0.00    -0.302 N 
HETATM    3  C   UNL     1      -2.567   4.805 -31.831  1.00  0.00     0.192 C 
HETATM    4  N   UNL     1      -1.508   4.062 -31.613  1.00  0.00    -0.122 NA
HETATM    5  N   UNL     1      -0.705   4.730 -30.738  1.00  0.00    -0.128 NA
ENDROOT
BRANCH   3   6
HETATM    6  S   UNL     1      -4.009   4.249 -32.601  1.00  0.00    -0.081 SA
BRANCH   6   7
HETATM    7  C   UNL     1      -4.907   3.502 -31.208  1.00  0.00     0.185 C 
BRANCH   7   8
HETATM    8  C   UNL     1      -5.252   2.033 -31.442  1.00  0.00     0.231 C 
HETATM    9  N   UNL     1      -4.979   1.603 -32.728  1.00  0.00    -0.326 N 
HETATM   10  H   UNL     1      -4.373   2.208 -33.284  1.00  0.00     0.169 HD
HETATM   11  O   UNL     1      -5.759   1.353 -30.552  1.00  0.00    -0.272 OA
BRANCH   9  12
HETATM   12  C   UNL     1      -5.337   0.386 -33.339  1.00  0.00     0.037 A 
HETATM   13  C   UNL     1      -4.539  -0.763 -33.300  1.00  0.00     0.061 A 
HETATM   14  C   UNL     1      -5.055  -1.898 -33.886  1.00  0.00     0.065 A 
HETATM   15  C   UNL     1      -6.304  -1.921 -34.504  1.00  0.00     0.063 A 
HETATM   16  N   UNL     1      -4.518  -3.179 -33.969  1.00  0.00    -0.306 N 
HETATM   17  N   UNL     1      -6.531  -3.211 -34.971  1.00  0.00    -0.307 N 
HETATM   18  C   UNL     1      -7.105  -0.810 -34.575  1.00  0.00     0.034 A 
HETATM   19  C   UNL     1      -5.427  -4.010 -34.638  1.00  0.00     0.325 A 
HETATM   20  H   UNL     1      -7.345  -3.552 -35.453  1.00  0.00     0.170 HD
HETATM   21  O   UNL     1      -5.291  -5.196 -34.880  1.00  0.00    -0.247 OA
HETATM   22  C   UNL     1      -6.607   0.353 -33.974  1.00  0.00     0.032 A 
HETATM   23  H   UNL     1      -3.632  -3.490 -33.604  1.00  0.00     0.170 HD
ENDBRANCH   9  12
ENDBRANCH   7   8
ENDBRANCH   6   7
ENDBRANCH   3   6
BRANCH   2  24
HETATM   24  C   UNL     1      -3.035   7.293 -31.586  1.00  0.00     0.094 C 
HETATM   25  C   UNL     1      -4.158   7.699 -30.617  1.00  0.00     0.026 C 
HETATM   26  C   UNL     1      -4.273   9.199 -30.822  1.00  0.00     0.002 C 
HETATM   27  C   UNL     1      -2.824   9.644 -30.943  1.00  0.00     0.002 C 
HETATM   28  C   UNL     1      -2.125   8.526 -31.717  1.00  0.00     0.026 C 
ENDBRANCH   2  24
BRANCH   1  29
HETATM   29  C   UNL     1      -0.800   6.800 -29.407  1.00  0.00     0.012 A 
HETATM   30  C   UNL     1      -1.575   7.111 -28.287  1.00  0.00     0.016 A 
HETATM   31  C   UNL     1      -1.061   7.906 -27.254  1.00  0.00     0.009 A 
HETATM   32  C   UNL     1       0.252   8.402 -27.297  1.00  0.00    -0.051 A 
HETATM   33  C   UNL     1       1.016   8.093 -28.437  1.00  0.00     0.009 A 
HETATM   34  C   UNL     1       0.504   7.298 -29.470  1.00  0.00     0.016 A 
BRANCH  32  35
HETATM   35  C   UNL     1       0.862   9.238 -26.158  1.00  0.00    -0.024 C 
HETATM   36  C   UNL     1      -0.058   9.370 -24.923  1.00  0.00     0.019 C 
HETATM   37  C   UNL     1       1.155  10.660 -26.678  1.00  0.00     0.019 C 
HETATM   38  C   UNL     1       2.179   8.596 -25.665  1.00  0.00     0.019 C 
ENDBRANCH  32  35
ENDBRANCH   1  29
TORSDOF 7
ENDMDL
MODEL 2
REMARK VINA RESULT:      -9.7      4.585      6.390
REMARK  7 active torsions:
REMARK  status: ('A' for Active; 'I' for Inactive)
REMARK    1  A    between atoms: C_2  and  C_3 
REMARK    2  A    between atoms: C_6  and  C_7 
REMARK    3  A    between atoms: N_8  and  C_9 
REMARK    4  A    between atoms: C_14  and  S_15 
REMARK    5  A    between atoms: S_15  and  C_16 
REMARK    6  A    between atoms: C_16  and  C_17 
REMARK       I    between atoms: C_17  and  N_18 
REMARK    7  A    between atoms: N_18  and  C_19 
ROOT
HETATM    1  C   UNL     1      -7.984   4.840 -33.657  1.00  0.00     0.164 C 
HETATM    2  N   UNL     1      -8.822   4.092 -32.843  1.00  0.00    -0.302 N 
HETATM    3  C   UNL     1      -9.996   4.006 -33.544  1.00  0.00     0.192 C 
HETATM    4  N   UNL     1      -9.979   4.867 -34.533  1.00  0.00    -0.122 NA
HETATM    5  N   UNL     1      -8.720   5.381 -34.615  1.00  0.00    -0.128 NA
ENDROOT
BRANCH   3   6
HETATM    6  S   UNL     1     -11.262   2.866 -33.262  1.00  0.00    -0.081 SA
BRANCH   6   7
HETATM    7  C   UNL     1     -10.685   1.430 -34.217  1.00  0.00     0.185 C 
BRANCH   7   8
HETATM    8  C   UNL     1      -9.537   0.687 -33.538  1.00  0.00     0.231 C 
HETATM    9  N   UNL     1      -8.435   0.513 -34.355  1.00  0.00    -0.326 N 
HETATM   10  H   UNL     1      -8.407   1.088 -35.199  1.00  0.00     0.169 HD
HETATM   11  O   UNL     1      -9.647   0.271 -32.386  1.00  0.00    -0.272 OA
BRANCH   9  12
HETATM   12  C   UNL     1      -7.290  -0.275 -34.127  1.00  0.00     0.037 A 
HETATM   13  C   UNL     1      -7.189  -1.618 -34.502  1.00  0.00     0.061 A 
HETATM   14  C   UNL     1      -5.980  -2.238 -34.275  1.00  0.00     0.065 A 
HETATM   15  C   UNL     1      -4.900  -1.582 -33.688  1.00  0.00     0.063 A 
HETATM   16  N   UNL     1      -5.576  -3.536 -34.571  1.00  0.00    -0.306 N 
HETATM   17  N   UNL     1      -3.837  -2.475 -33.620  1.00  0.00    -0.307 N 
HETATM   18  C   UNL     1      -4.969  -0.269 -33.294  1.00  0.00     0.034 A 
HETATM   19  C   UNL     1      -4.241  -3.698 -34.174  1.00  0.00     0.325 A 
HETATM   20  H   UNL     1      -2.914  -2.301 -33.258  1.00  0.00     0.170 HD
HETATM   21  O   UNL     1      -3.561  -4.702 -34.292  1.00  0.00    -0.247 OA
HETATM   22  C   UNL     1      -6.184   0.385 -33.527  1.00  0.00     0.032 A 
HETATM   23  H   UNL     1      -6.124  -4.256 -35.013  1.00  0.00     0.170 HD
ENDBRANCH   9  12
ENDBRANCH   7   8
ENDBRANCH   6   7
ENDBRANCH   3   6
BRANCH   2  24
HETATM   24  C   UNL     1      -8.539   3.684 -31.484  1.00  0.00     0.094 C 
HETATM   25  C   UNL     1      -7.305   2.781 -31.322  1.00  0.00     0.026 C 
HETATM   26  C   UNL     1      -6.928   2.962 -29.861  1.00  0.00     0.002 C 
HETATM   27  C   UNL     1      -7.137   4.450 -29.631  1.00  0.00     0.002 C 
HETATM   28  C   UNL     1      -8.375   4.812 -30.452  1.00  0.00     0.026 C 
ENDBRANCH   2  24
BRANCH   1  29
HETATM   29  C   UNL     1      -6.537   5.012 -33.536  1.00  0.00     0.012 A 
HETATM   30  C   UNL     1      -5.637   4.172 -34.198  1.00  0.00     0.016 A 
HETATM   31  C   UNL     1      -4.257   4.416 -34.150  1.00  0.00     0.009 A 
HETATM   32  C   UNL     1      -3.733   5.518 -33.457  1.00  0.00    -0.051 A 
HETATM   33  C   UNL     1      -4.649   6.346 -32.784  1.00  0.00     0.009 A 
HETATM   34  C   UNL     1      -6.027   6.104 -32.830  1.00  0.00     0.016 A 
BRANCH  32  35
HETATM   35  C   UNL     1      -2.228   5.840 -33.425  1.00  0.00    -0.024 C 
HETATM   36  C   UNL     1      -1.918   7.351 -33.329  1.00  0.00     0.019 C 
HETATM   37  C   UNL     1      -1.572   5.308 -34.715  1.00  0.00     0.019 C 
HETATM   38  C   UNL     1      -1.560   5.170 -32.202  1.00  0.00     0.019 C 
ENDBRANCH  32  35
ENDBRANCH   1  29
TORSDOF 7
ENDMDL
MODEL 3
REMARK VINA RESULT:      -9.0      2.772      3.448
REMARK  7 active torsions:
REMARK  status: ('A' for Active; 'I' for Inactive)
REMARK    1  A    between atoms: C_2  and  C_3 
REMARK    2  A    between atoms: C_6  and  C_7 
REMARK    3  A    between atoms: N_8  and  C_9 
REMARK    4  A    between atoms: C_14  and  S_15 
REMARK    5  A    between atoms: S_15  and  C_16 
REMARK    6  A    between atoms: C_16  and  C_17 
REMARK       I    between atoms: C_17  and  N_18 
REMARK    7  A    between atoms: N_18  and  C_19 
ROOT
HETATM    1  C   UNL     1      -1.100   6.035 -30.329  1.00  0.00     0.164 C 
HETATM    2  N   UNL     1      -2.194   6.191 -31.167  1.00  0.00    -0.302 N 
HETATM    3  C   UNL     1      -2.359   4.961 -31.748  1.00  0.00     0.192 C 
HETATM    4  N   UNL     1      -1.296   4.225 -31.526  1.00  0.00    -0.122 NA
HETATM    5  N   UNL     1      -0.513   4.888 -30.629  1.00  0.00    -0.128 NA
ENDROOT
BRANCH   3   6
HETATM    6  S   UNL     1      -3.784   4.403 -32.549  1.00  0.00    -0.081 SA
BRANCH   6   7
HETATM    7  C   UNL     1      -4.131   2.860 -31.650  1.00  0.00     0.185 C 
BRANCH   7   8
HETATM    8  C   UNL     1      -5.625   2.607 -31.459  1.00  0.00     0.231 C 
HETATM    9  N   UNL     1      -6.195   1.882 -32.489  1.00  0.00    -0.326 N 
HETATM   10  H   UNL     1      -5.545   1.400 -33.112  1.00  0.00     0.169 HD
HETATM   11  O   UNL     1      -6.222   3.059 -30.484  1.00  0.00    -0.272 OA
BRANCH   9  12
HETATM   12  C   UNL     1      -7.559   1.629 -32.732  1.00  0.00     0.037 A 
HETATM   13  C   UNL     1      -8.282   2.224 -33.771  1.00  0.00     0.061 A 
HETATM   14  C   UNL     1      -9.592   1.825 -33.925  1.00  0.00     0.065 A 
HETATM   15  C   UNL     1     -10.192   0.885 -33.089  1.00  0.00     0.063 A 
HETATM   16  N   UNL     1     -10.532   2.207 -34.876  1.00  0.00    -0.306 N 
HETATM   17  N   UNL     1     -11.499   0.693 -33.523  1.00  0.00    -0.307 N 
HETATM   18  C   UNL     1      -9.517   0.293 -32.052  1.00  0.00     0.034 A 
HETATM   19  C   UNL     1     -11.724   1.507 -34.643  1.00  0.00     0.325 A 
HETATM   20  H   UNL     1     -12.187   0.071 -33.135  1.00  0.00     0.170 HD
HETATM   21  O   UNL     1     -12.755   1.584 -35.288  1.00  0.00    -0.247 OA
HETATM   22  C   UNL     1      -8.181   0.673 -31.883  1.00  0.00     0.032 A 
HETATM   23  H   UNL     1     -10.401   2.863 -35.629  1.00  0.00     0.170 HD
ENDBRANCH   9  12
ENDBRANCH   7   8
ENDBRANCH   6   7
ENDBRANCH   3   6
BRANCH   2  24
HETATM   24  C   UNL     1      -2.856   7.440 -31.474  1.00  0.00     0.094 C 
HETATM   25  C   UNL     1      -3.949   7.855 -30.475  1.00  0.00     0.026 C 
HETATM   26  C   UNL     1      -4.069   9.354 -30.689  1.00  0.00     0.002 C 
HETATM   27  C   UNL     1      -2.624   9.797 -30.858  1.00  0.00     0.002 C 
HETATM   28  C   UNL     1      -1.950   8.671 -31.642  1.00  0.00     0.026 C 
ENDBRANCH   2  24
BRANCH   1  29
HETATM   29  C   UNL     1      -0.649   6.937 -29.269  1.00  0.00     0.012 A 
HETATM   30  C   UNL     1      -1.420   7.179 -28.129  1.00  0.00     0.016 A 
HETATM   31  C   UNL     1      -0.926   7.966 -27.080  1.00  0.00     0.009 A 
HETATM   32  C   UNL     1       0.364   8.520 -27.126  1.00  0.00    -0.051 A 
HETATM   33  C   UNL     1       1.123   8.279 -28.286  1.00  0.00     0.009 A 
HETATM   34  C   UNL     1       0.630   7.494 -29.335  1.00  0.00     0.016 A 
BRANCH  32  35
HETATM   35  C   UNL     1       0.953   9.348 -25.971  1.00  0.00    -0.024 C 
HETATM   36  C   UNL     1       2.274   8.776 -25.407  1.00  0.00     0.019 C 
HETATM   37  C   UNL     1      -0.067   9.399 -24.815  1.00  0.00     0.019 C 
HETATM   38  C   UNL     1       1.259  10.789 -26.442  1.00  0.00     0.019 C 
ENDBRANCH  32  35
ENDBRANCH   1  29
TORSDOF 7
ENDMDL
MODEL 4
REMARK VINA RESULT:      -9.0      2.728      4.238
REMARK  7 active torsions:
REMARK  status: ('A' for Active; 'I' for Inactive)
REMARK    1  A    between atoms: C_2  and  C_3 
REMARK    2  A    between atoms: C_6  and  C_7 
REMARK    3  A    between atoms: N_8  and  C_9 
REMARK    4  A    between atoms: C_14  and  S_15 
REMARK    5  A    between atoms: S_15  and  C_16 
REMARK    6  A    between atoms: C_16  and  C_17 
REMARK       I    between atoms: C_17  and  N_18 
REMARK    7  A    between atoms: N_18  and  C_19 
ROOT
HETATM    1  C   UNL     1      -5.390   5.339 -32.620  1.00  0.00     0.164 C 
HETATM    2  N   UNL     1      -6.633   5.271 -32.008  1.00  0.00    -0.302 N 
HETATM    3  C   UNL     1      -7.480   4.843 -32.996  1.00  0.00     0.192 C 
HETATM    4  N   UNL     1      -6.881   4.939 -34.159  1.00  0.00    -0.122 NA
HETATM    5  N   UNL     1      -5.571   5.237 -33.927  1.00  0.00    -0.128 NA
ENDROOT
BRANCH   3   6
HETATM    6  S   UNL     1      -9.051   4.166 -32.759  1.00  0.00    -0.081 SA
BRANCH   6   7
HETATM    7  C   UNL     1      -9.058   2.817 -33.979  1.00  0.00     0.185 C 
BRANCH   7   8
HETATM    8  C   UNL     1      -8.399   1.542 -33.459  1.00  0.00     0.231 C 
HETATM    9  N   UNL     1      -7.323   1.129 -34.222  1.00  0.00    -0.326 N 
HETATM   10  H   UNL     1      -6.943   1.819 -34.872  1.00  0.00     0.169 HD
HETATM   11  O   UNL     1      -8.846   0.956 -32.474  1.00  0.00    -0.272 OA
BRANCH   9  12
HETATM   12  C   UNL     1      -6.609  -0.083 -34.147  1.00  0.00     0.037 A 
HETATM   13  C   UNL     1      -7.120  -1.310 -34.581  1.00  0.00     0.061 A 
HETATM   14  C   UNL     1      -6.276  -2.396 -34.507  1.00  0.00     0.065 A 
HETATM   15  C   UNL     1      -4.976  -2.303 -34.014  1.00  0.00     0.063 A 
HETATM   16  N   UNL     1      -6.489  -3.716 -34.894  1.00  0.00    -0.306 N 
HETATM   17  N   UNL     1      -4.393  -3.563 -34.093  1.00  0.00    -0.307 N 
HETATM   18  C   UNL     1      -4.448  -1.120 -33.565  1.00  0.00     0.034 A 
HETATM   19  C   UNL     1      -5.323  -4.455 -34.647  1.00  0.00     0.325 A 
HETATM   20  H   UNL     1      -3.459  -3.823 -33.825  1.00  0.00     0.170 HD
HETATM   21  O   UNL     1      -5.147  -5.639 -34.874  1.00  0.00    -0.247 OA
HETATM   22  C   UNL     1      -5.282   0.002 -33.643  1.00  0.00     0.032 A 
HETATM   23  H   UNL     1      -7.325  -4.101 -35.301  1.00  0.00     0.170 HD
ENDBRANCH   9  12
ENDBRANCH   7   8
ENDBRANCH   6   7
ENDBRANCH   3   6
BRANCH   2  24
HETATM   24  C   UNL     1      -6.949   5.743 -30.677  1.00  0.00     0.094 C 
HETATM   25  C   UNL     1      -6.193   5.033 -29.542  1.00  0.00     0.026 C 
HETATM   26  C   UNL     1      -6.267   6.028 -28.396  1.00  0.00     0.002 C 
HETATM   27  C   UNL     1      -6.047   7.366 -29.083  1.00  0.00     0.002 C 
HETATM   28  C   UNL     1      -6.769   7.250 -30.426  1.00  0.00     0.026 C 
ENDBRANCH   2  24
BRANCH   1  29
HETATM   29  C   UNL     1      -4.083   5.474 -31.980  1.00  0.00     0.012 A 
HETATM   30  C   UNL     1      -3.260   4.369 -31.743  1.00  0.00     0.016 A 
HETATM   31  C   UNL     1      -1.969   4.531 -31.221  1.00  0.00     0.009 A 
HETATM   32  C   UNL     1      -1.450   5.805 -30.937  1.00  0.00    -0.051 A 
HETATM   33  C   UNL     1      -2.295   6.906 -31.167  1.00  0.00     0.009 A 
HETATM   34  C   UNL     1      -3.584   6.746 -31.688  1.00  0.00     0.016 A 
BRANCH  32  35
HETATM   35  C   UNL     1      -0.021   6.020 -30.409  1.00  0.00    -0.024 C 
HETATM   36  C   UNL     1       0.778   4.710 -30.227  1.00  0.00     0.019 C 
HETATM   37  C   UNL     1      -0.092   6.720 -29.036  1.00  0.00     0.019 C 
HETATM   38  C   UNL     1       0.788   6.902 -31.388  1.00  0.00     0.019 C 
ENDBRANCH  32  35
ENDBRANCH   1  29
TORSDOF 7
ENDMDL
MODEL 5
REMARK VINA RESULT:      -9.0      5.950      9.102
REMARK  7 active torsions:
REMARK  status: ('A' for Active; 'I' for Inactive)
REMARK    1  A    between atoms: C_2  and  C_3 
REMARK    2  A    between atoms: C_6  and  C_7 
REMARK    3  A    between atoms: N_8  and  C_9 
REMARK    4  A    between atoms: C_14  and  S_15 
REMARK    5  A    between atoms: S_15  and  C_16 
REMARK    6  A    between atoms: C_16  and  C_17 
REMARK       I    between atoms: C_17  and  N_18 
REMARK    7  A    between atoms: N_18  and  C_19 
ROOT
HETATM    1  C   UNL     1      -6.336   2.728 -31.997  1.00  0.00     0.164 C 
HETATM    2  N   UNL     1      -6.808   1.528 -32.508  1.00  0.00    -0.302 N 
HETATM    3  C   UNL     1      -8.094   1.439 -32.042  1.00  0.00     0.192 C 
HETATM    4  N   UNL     1      -8.281   2.330 -31.098  1.00  0.00    -0.122 NA
HETATM    5  N   UNL     1      -7.189   3.145 -31.076  1.00  0.00    -0.128 NA
ENDROOT
BRANCH   3   6
HETATM    6  S   UNL     1      -9.328   0.405 -32.668  1.00  0.00    -0.081 SA
BRANCH   6   7
HETATM    7  C   UNL     1      -9.725   1.218 -34.245  1.00  0.00     0.185 C 
BRANCH   7   8
HETATM    8  C   UNL     1     -11.051   1.975 -34.207  1.00  0.00     0.231 C 
HETATM    9  N   UNL     1     -11.913   1.524 -33.224  1.00  0.00    -0.326 N 
HETATM   10  H   UNL     1     -11.499   0.933 -32.501  1.00  0.00     0.169 HD
HETATM   11  O   UNL     1     -11.293   2.866 -35.019  1.00  0.00    -0.272 OA
BRANCH   9  12
HETATM   12  C   UNL     1     -13.266   1.858 -33.025  1.00  0.00     0.037 A 
HETATM   13  C   UNL     1     -13.688   2.993 -32.326  1.00  0.00     0.061 A 
HETATM   14  C   UNL     1     -15.045   3.223 -32.274  1.00  0.00     0.065 A 
HETATM   15  C   UNL     1     -15.973   2.372 -32.871  1.00  0.00     0.063 A 
HETATM   16  N   UNL     1     -15.747   4.274 -31.692  1.00  0.00    -0.306 N 
HETATM   17  N   UNL     1     -17.242   2.895 -32.652  1.00  0.00    -0.307 N 
HETATM   18  C   UNL     1     -15.596   1.242 -33.551  1.00  0.00     0.034 A 
HETATM   19  C   UNL     1     -17.118   4.087 -31.923  1.00  0.00     0.325 A 
HETATM   20  H   UNL     1     -18.121   2.519 -32.965  1.00  0.00     0.170 HD
HETATM   21  O   UNL     1     -18.025   4.818 -31.567  1.00  0.00    -0.247 OA
HETATM   22  C   UNL     1     -14.220   0.994 -33.628  1.00  0.00     0.032 A 
HETATM   23  H   UNL     1     -15.362   5.060 -31.196  1.00  0.00     0.170 HD
ENDBRANCH   9  12
ENDBRANCH   7   8
ENDBRANCH   6   7
ENDBRANCH   3   6
BRANCH   2  24
HETATM   24  C   UNL     1      -6.021   0.535 -33.206  1.00  0.00     0.094 C 
HETATM   25  C   UNL     1      -5.876  -0.809 -32.473  1.00  0.00     0.026 C 
HETATM   26  C   UNL     1      -5.527  -1.780 -33.588  1.00  0.00     0.002 C 
HETATM   27  C   UNL     1      -6.428  -1.336 -34.730  1.00  0.00     0.002 C 
HETATM   28  C   UNL     1      -6.469   0.190 -34.636  1.00  0.00     0.026 C 
ENDBRANCH   2  24
BRANCH   1  29
HETATM   29  C   UNL     1      -5.130   3.455 -32.390  1.00  0.00     0.012 A 
HETATM   30  C   UNL     1      -5.076   4.215 -33.562  1.00  0.00     0.016 A 
HETATM   31  C   UNL     1      -3.946   4.985 -33.869  1.00  0.00     0.009 A 
HETATM   32  C   UNL     1      -2.840   5.037 -33.005  1.00  0.00    -0.051 A 
HETATM   33  C   UNL     1      -2.902   4.256 -31.837  1.00  0.00     0.009 A 
HETATM   34  C   UNL     1      -4.031   3.487 -31.529  1.00  0.00     0.016 A 
BRANCH  32  35
HETATM   35  C   UNL     1      -1.605   5.910 -33.289  1.00  0.00    -0.024 C 
HETATM   36  C   UNL     1      -1.869   7.426 -33.150  1.00  0.00     0.019 C 
HETATM   37  C   UNL     1      -1.125   5.648 -34.732  1.00  0.00     0.019 C 
HETATM   38  C   UNL     1      -0.464   5.566 -32.304  1.00  0.00     0.019 C 
ENDBRANCH  32  35
ENDBRANCH   1  29
TORSDOF 7
ENDMDL
MODEL 6
REMARK VINA RESULT:      -9.0      4.753      9.111
REMARK  7 active torsions:
REMARK  status: ('A' for Active; 'I' for Inactive)
REMARK    1  A    between atoms: C_2  and  C_3 
REMARK    2  A    between atoms: C_6  and  C_7 
REMARK    3  A    between atoms: N_8  and  C_9 
REMARK    4  A    between atoms: C_14  and  S_15 
REMARK    5  A    between atoms: S_15  and  C_16 
REMARK    6  A    between atoms: C_16  and  C_17 
REMARK       I    between atoms: C_17  and  N_18 
REMARK    7  A    between atoms: N_18  and  C_19 
ROOT
HETATM    1  C   UNL     1      -7.469   2.833 -30.775  1.00  0.00     0.164 C 
HETATM    2  N   UNL     1      -8.600   3.294 -31.434  1.00  0.00    -0.302 N 
HETATM    3  C   UNL     1      -8.933   4.449 -30.777  1.00  0.00     0.192 C 
HETATM    4  N   UNL     1      -8.267   4.520 -29.649  1.00  0.00    -0.122 NA
HETATM    5  N   UNL     1      -7.342   3.518 -29.651  1.00  0.00    -0.128 NA
ENDROOT
BRANCH   3   6
HETATM    6  S   UNL     1      -9.974   5.690 -31.376  1.00  0.00    -0.081 SA
BRANCH   6   7
HETATM    7  C   UNL     1      -9.048   6.278 -32.827  1.00  0.00     0.185 C 
BRANCH   7   8
HETATM    8  C   UNL     1      -7.573   6.537 -32.526  1.00  0.00     0.231 C 
HETATM    9  N   UNL     1      -6.716   5.718 -33.236  1.00  0.00    -0.326 N 
HETATM   10  H   UNL     1      -7.123   5.223 -34.032  1.00  0.00     0.169 HD
HETATM   11  O   UNL     1      -7.237   7.379 -31.695  1.00  0.00    -0.272 OA
BRANCH   9  12
HETATM   12  C   UNL     1      -5.326   5.554 -33.074  1.00  0.00     0.037 A 
HETATM   13  C   UNL     1      -4.686   5.560 -31.831  1.00  0.00     0.061 A 
HETATM   14  C   UNL     1      -3.330   5.318 -31.828  1.00  0.00     0.065 A 
HETATM   15  C   UNL     1      -2.608   5.089 -32.998  1.00  0.00     0.063 A 
HETATM   16  N   UNL     1      -2.445   5.227 -30.759  1.00  0.00    -0.306 N 
HETATM   17  N   UNL     1      -1.281   4.862 -32.648  1.00  0.00    -0.307 N 
HETATM   18  C   UNL     1      -3.200   5.091 -34.235  1.00  0.00     0.034 A 
HETATM   19  C   UNL     1      -1.164   4.937 -31.253  1.00  0.00     0.325 A 
HETATM   20  H   UNL     1      -0.513   4.657 -33.264  1.00  0.00     0.170 HD
HETATM   21  O   UNL     1      -0.149   4.777 -30.600  1.00  0.00    -0.247 OA
HETATM   22  C   UNL     1      -4.581   5.321 -34.261  1.00  0.00     0.032 A 
HETATM   23  H   UNL     1      -2.662   5.330 -29.781  1.00  0.00     0.170 HD
ENDBRANCH   9  12
ENDBRANCH   7   8
ENDBRANCH   6   7
ENDBRANCH   3   6
BRANCH   2  24
HETATM   24  C   UNL     1      -9.338   2.579 -32.453  1.00  0.00     0.094 C 
HETATM   25  C   UNL     1      -8.656   2.530 -33.831  1.00  0.00     0.026 C 
HETATM   26  C   UNL     1      -9.305   1.330 -34.500  1.00  0.00     0.002 C 
HETATM   27  C   UNL     1      -9.398   0.313 -33.374  1.00  0.00     0.002 C 
HETATM   28  C   UNL     1      -9.729   1.129 -32.124  1.00  0.00     0.026 C 
ENDBRANCH   2  24
BRANCH   1  29
HETATM   29  C   UNL     1      -6.538   1.795 -31.215  1.00  0.00     0.012 A 
HETATM   30  C   UNL     1      -6.679   0.462 -30.818  1.00  0.00     0.016 A 
HETATM   31  C   UNL     1      -5.837  -0.535 -31.331  1.00  0.00     0.009 A 
HETATM   32  C   UNL     1      -4.840  -0.236 -32.273  1.00  0.00    -0.051 A 
HETATM   33  C   UNL     1      -4.701   1.111 -32.652  1.00  0.00     0.009 A 
HETATM   34  C   UNL     1      -5.541   2.108 -32.141  1.00  0.00     0.016 A 
BRANCH  32  35
HETATM   35  C   UNL     1      -3.931  -1.313 -32.890  1.00  0.00    -0.024 C 
HETATM   36  C   UNL     1      -3.334  -2.291 -31.854  1.00  0.00     0.019 C 
HETATM   37  C   UNL     1      -2.758  -0.626 -33.618  1.00  0.00     0.019 C 
HETATM   38  C   UNL     1      -4.725  -2.170 -33.904  1.00  0.00     0.019 C 
ENDBRANCH  32  35
ENDBRANCH   1  29
TORSDOF 7
ENDMDL
MODEL 7
REMARK VINA RESULT:      -8.9     19.348     21.159
REMARK  7 active torsions:
REMARK  status: ('A' for Active; 'I' for Inactive)
REMARK    1  A    between atoms: C_2  and  C_3 
REMARK    2  A    between atoms: C_6  and  C_7 
REMARK    3  A    between atoms: N_8  and  C_9 
REMARK    4  A    between atoms: C_14  and  S_15 
REMARK    5  A    between atoms: S_15  and  C_16 
REMARK    6  A    between atoms: C_16  and  C_17 
REMARK       I    between atoms: C_17  and  N_18 
REMARK    7  A    between atoms: N_18  and  C_19 
ROOT
HETATM    1  C   UNL     1      -3.666 -12.616 -38.977  1.00  0.00     0.164 C 
HETATM    2  N   UNL     1      -2.761 -13.585 -39.383  1.00  0.00    -0.302 N 
HETATM    3  C   UNL     1      -1.606 -13.280 -38.711  1.00  0.00     0.192 C 
HETATM    4  N   UNL     1      -1.704 -12.078 -38.195  1.00  0.00    -0.122 NA
HETATM    5  N   UNL     1      -2.994 -11.665 -38.348  1.00  0.00    -0.128 NA
ENDROOT
BRANCH   3   6
HETATM    6  S   UNL     1      -0.266 -14.342 -38.466  1.00  0.00    -0.081 SA
BRANCH   6   7
HETATM    7  C   UNL     1      -1.066 -15.765 -37.664  1.00  0.00     0.185 C 
BRANCH   7   8
HETATM    8  C   UNL     1      -1.511 -15.468 -36.234  1.00  0.00     0.231 C 
HETATM    9  N   UNL     1      -2.768 -15.961 -35.937  1.00  0.00    -0.326 N 
HETATM   10  H   UNL     1      -3.145 -16.653 -36.587  1.00  0.00     0.169 HD
HETATM   11  O   UNL     1      -0.799 -14.815 -35.474  1.00  0.00    -0.272 OA
BRANCH   9  12
HETATM   12  C   UNL     1      -3.559 -15.717 -34.797  1.00  0.00     0.037 A 
HETATM   13  C   UNL     1      -3.373 -16.369 -33.574  1.00  0.00     0.061 A 
HETATM   14  C   UNL     1      -4.180 -15.974 -32.530  1.00  0.00     0.065 A 
HETATM   15  C   UNL     1      -5.150 -14.983 -32.666  1.00  0.00     0.063 A 
HETATM   16  N   UNL     1      -4.200 -16.408 -31.208  1.00  0.00    -0.306 N 
HETATM   17  N   UNL     1      -5.769 -14.812 -31.433  1.00  0.00    -0.307 N 
HETATM   18  C   UNL     1      -5.370 -14.334 -33.854  1.00  0.00     0.034 A 
HETATM   19  C   UNL     1      -5.182 -15.690 -30.509  1.00  0.00     0.325 A 
HETATM   20  H   UNL     1      -6.503 -14.165 -31.201  1.00  0.00     0.170 HD
HETATM   21  O   UNL     1      -5.467 -15.800 -29.330  1.00  0.00    -0.247 OA
HETATM   22  C   UNL     1      -4.552 -14.710 -34.927  1.00  0.00     0.032 A 
HETATM   23  H   UNL     1      -3.609 -17.108 -30.789  1.00  0.00     0.170 HD
ENDBRANCH   9  12
ENDBRANCH   7   8
ENDBRANCH   6   7
ENDBRANCH   3   6
BRANCH   2  24
HETATM   24  C   UNL     1      -2.975 -14.560 -40.430  1.00  0.00     0.094 C 
HETATM   25  C   UNL     1      -4.121 -15.551 -40.167  1.00  0.00     0.026 C 
HETATM   26  C   UNL     1      -4.480 -16.049 -41.557  1.00  0.00     0.002 C 
HETATM   27  C   UNL     1      -4.398 -14.792 -42.408  1.00  0.00     0.002 C 
HETATM   28  C   UNL     1      -3.215 -14.004 -41.843  1.00  0.00     0.026 C 
ENDBRANCH   2  24
BRANCH   1  29
HETATM   29  C   UNL     1      -5.116 -12.611 -39.165  1.00  0.00     0.012 A 
HETATM   30  C   UNL     1      -5.708 -12.110 -40.328  1.00  0.00     0.016 A 
HETATM   31  C   UNL     1      -7.091 -12.207 -40.531  1.00  0.00     0.009 A 
HETATM   32  C   UNL     1      -7.927 -12.826 -39.588  1.00  0.00    -0.051 A 
HETATM   33  C   UNL     1      -7.320 -13.312 -38.416  1.00  0.00     0.009 A 
HETATM   34  C   UNL     1      -5.939 -13.216 -38.211  1.00  0.00     0.016 A 
BRANCH  32  35
HETATM   35  C   UNL     1      -9.442 -12.991 -39.803  1.00  0.00    -0.024 C 
HETATM   36  C   UNL     1     -10.120 -11.749 -40.425  1.00  0.00     0.019 C 
HETATM   37  C   UNL     1     -10.117 -13.261 -38.443  1.00  0.00     0.019 C 
HETATM   38  C   UNL     1      -9.725 -14.176 -40.755  1.00  0.00     0.019 C 
ENDBRANCH  32  35
ENDBRANCH   1  29
TORSDOF 7
ENDMDL
MODEL 8
REMARK VINA RESULT:      -8.8      2.951      4.356
REMARK  7 active torsions:
REMARK  status: ('A' for Active; 'I' for Inactive)
REMARK    1  A    between atoms: C_2  and  C_3 
REMARK    2  A    between atoms: C_6  and  C_7 
REMARK    3  A    between atoms: N_8  and  C_9 
REMARK    4  A    between atoms: C_14  and  S_15 
REMARK    5  A    between atoms: S_15  and  C_16 
REMARK    6  A    between atoms: C_16  and  C_17 
REMARK       I    between atoms: C_17  and  N_18 
REMARK    7  A    between atoms: N_18  and  C_19 
ROOT
HETATM    1  C   UNL     1      -5.472   5.368 -32.815  1.00  0.00     0.164 C 
HETATM    2  N   UNL     1      -6.649   5.303 -32.083  1.00  0.00    -0.302 N 
HETATM    3  C   UNL     1      -7.579   4.827 -32.970  1.00  0.00     0.192 C 
HETATM    4  N   UNL     1      -7.095   4.891 -34.188  1.00  0.00    -0.122 NA
HETATM    5  N   UNL     1      -5.775   5.217 -34.094  1.00  0.00    -0.128 NA
ENDROOT
BRANCH   3   6
HETATM    6  S   UNL     1      -9.107   4.134 -32.560  1.00  0.00    -0.081 SA
BRANCH   6   7
HETATM    7  C   UNL     1      -9.243   2.794 -33.783  1.00  0.00     0.185 C 
BRANCH   7   8
HETATM    8  C   UNL     1      -8.561   1.505 -33.330  1.00  0.00     0.231 C 
HETATM    9  N   UNL     1      -7.265   1.378 -33.794  1.00  0.00    -0.326 N 
HETATM   10  H   UNL     1      -6.833   2.228 -34.161  1.00  0.00     0.169 HD
HETATM   11  O   UNL     1      -9.164   0.676 -32.652  1.00  0.00    -0.272 OA
BRANCH   9  12
HETATM   12  C   UNL     1      -6.417   0.254 -33.730  1.00  0.00     0.037 A 
HETATM   13  C   UNL     1      -5.462   0.063 -32.726  1.00  0.00     0.061 A 
HETATM   14  C   UNL     1      -4.756  -1.119 -32.758  1.00  0.00     0.065 A 
HETATM   15  C   UNL     1      -4.957  -2.086 -33.740  1.00  0.00     0.063 A 
HETATM   16  N   UNL     1      -3.783  -1.598 -31.885  1.00  0.00    -0.306 N 
HETATM   17  N   UNL     1      -4.107  -3.154 -33.475  1.00  0.00    -0.307 N 
HETATM   18  C   UNL     1      -5.873  -1.925 -34.748  1.00  0.00     0.034 A 
HETATM   19  C   UNL     1      -3.373  -2.868 -32.315  1.00  0.00     0.325 A 
HETATM   20  H   UNL     1      -4.021  -4.011 -33.996  1.00  0.00     0.170 HD
HETATM   21  O   UNL     1      -2.545  -3.586 -31.785  1.00  0.00    -0.247 OA
HETATM   22  C   UNL     1      -6.613  -0.736 -34.729  1.00  0.00     0.032 A 
HETATM   23  H   UNL     1      -3.427  -1.139 -31.063  1.00  0.00     0.170 HD
ENDBRANCH   9  12
ENDBRANCH   7   8
ENDBRANCH   6   7
ENDBRANCH   3   6
BRANCH   2  24
HETATM   24  C   UNL     1      -6.845   5.818 -30.745  1.00  0.00     0.094 C 
HETATM   25  C   UNL     1      -6.151   5.012 -29.634  1.00  0.00     0.026 C 
HETATM   26  C   UNL     1      -6.042   6.010 -28.494  1.00  0.00     0.002 C 
HETATM   27  C   UNL     1      -5.666   7.303 -29.199  1.00  0.00     0.002 C 
HETATM   28  C   UNL     1      -6.449   7.285 -30.513  1.00  0.00     0.026 C 
ENDBRANCH   2  24
BRANCH   1  29
HETATM   29  C   UNL     1      -4.112   5.547 -32.308  1.00  0.00     0.012 A 
HETATM   30  C   UNL     1      -3.530   6.812 -32.186  1.00  0.00     0.016 A 
HETATM   31  C   UNL     1      -2.265   6.970 -31.605  1.00  0.00     0.009 A 
HETATM   32  C   UNL     1      -1.547   5.871 -31.107  1.00  0.00    -0.051 A 
HETATM   33  C   UNL     1      -2.138   4.602 -31.249  1.00  0.00     0.009 A 
HETATM   34  C   UNL     1      -3.402   4.443 -31.830  1.00  0.00     0.016 A 
BRANCH  32  35
HETATM   35  C   UNL     1      -0.178   6.016 -30.420  1.00  0.00    -0.024 C 
HETATM   36  C   UNL     1       0.557   4.672 -30.209  1.00  0.00     0.019 C 
HETATM   37  C   UNL     1      -0.375   6.664 -29.034  1.00  0.00     0.019 C 
HETATM   38  C   UNL     1       0.759   6.906 -31.268  1.00  0.00     0.019 C 
ENDBRANCH  32  35
ENDBRANCH   1  29
TORSDOF 7
ENDMDL
MODEL 9
REMARK VINA RESULT:      -8.8      7.711     11.262
REMARK  7 active torsions:
REMARK  status: ('A' for Active; 'I' for Inactive)
REMARK    1  A    between atoms: C_2  and  C_3 
REMARK    2  A    between atoms: C_6  and  C_7 
REMARK    3  A    between atoms: N_8  and  C_9 
REMARK    4  A    between atoms: C_14  and  S_15 
REMARK    5  A    between atoms: S_15  and  C_16 
REMARK    6  A    between atoms: C_16  and  C_17 
REMARK       I    between atoms: C_17  and  N_18 
REMARK    7  A    between atoms: N_18  and  C_19 
ROOT
HETATM    1  C   UNL     1      -6.985   2.600 -33.980  1.00  0.00     0.164 C 
HETATM    2  N   UNL     1      -8.254   3.077 -33.689  1.00  0.00    -0.302 N 
HETATM    3  C   UNL     1      -8.171   4.428 -33.905  1.00  0.00     0.192 C 
HETATM    4  N   UNL     1      -6.911   4.777 -34.011  1.00  0.00    -0.122 NA
HETATM    5  N   UNL     1      -6.168   3.637 -34.071  1.00  0.00    -0.128 NA
ENDROOT
BRANCH   3   6
HETATM    6  S   UNL     1      -9.505   5.502 -34.125  1.00  0.00    -0.081 SA
BRANCH   6   7
HETATM    7  C   UNL     1      -9.959   5.883 -32.405  1.00  0.00     0.185 C 
BRANCH   7   8
HETATM    8  C   UNL     1     -11.073   4.985 -31.872  1.00  0.00     0.231 C 
HETATM    9  N   UNL     1     -12.141   4.859 -32.741  1.00  0.00    -0.326 N 
HETATM   10  H   UNL     1     -11.974   5.158 -33.703  1.00  0.00     0.169 HD
HETATM   11  O   UNL     1     -10.995   4.478 -30.754  1.00  0.00    -0.272 OA
BRANCH   9  12
HETATM   12  C   UNL     1     -13.399   4.272 -32.504  1.00  0.00     0.037 A 
HETATM   13  C   UNL     1     -14.556   5.008 -32.230  1.00  0.00     0.061 A 
HETATM   14  C   UNL     1     -15.727   4.296 -32.090  1.00  0.00     0.065 A 
HETATM   15  C   UNL     1     -15.778   2.908 -32.198  1.00  0.00     0.063 A 
HETATM   16  N   UNL     1     -17.022   4.750 -31.855  1.00  0.00    -0.306 N 
HETATM   17  N   UNL     1     -17.098   2.509 -32.025  1.00  0.00    -0.307 N 
HETATM   18  C   UNL     1     -14.660   2.153 -32.450  1.00  0.00     0.034 A 
HETATM   19  C   UNL     1     -17.889   3.648 -31.817  1.00  0.00     0.325 A 
HETATM   20  H   UNL     1     -17.463   1.572 -32.056  1.00  0.00     0.170 HD
HETATM   21  O   UNL     1     -19.094   3.673 -31.643  1.00  0.00    -0.247 OA
HETATM   22  C   UNL     1     -13.460   2.856 -32.610  1.00  0.00     0.032 A 
HETATM   23  H   UNL     1     -17.319   5.705 -31.744  1.00  0.00     0.170 HD
ENDBRANCH   9  12
ENDBRANCH   7   8
ENDBRANCH   6   7
ENDBRANCH   3   6
BRANCH   2  24
HETATM   24  C   UNL     1      -9.335   2.312 -33.107  1.00  0.00     0.094 C 
HETATM   25  C   UNL     1     -10.217   1.563 -34.120  1.00  0.00     0.026 C 
HETATM   26  C   UNL     1     -10.859   0.468 -33.284  1.00  0.00     0.002 C 
HETATM   27  C   UNL     1      -9.721   0.005 -32.388  1.00  0.00     0.002 C 
HETATM   28  C   UNL     1      -8.941   1.274 -32.043  1.00  0.00     0.026 C 
ENDBRANCH   2  24
BRANCH   1  29
HETATM   29  C   UNL     1      -6.575   1.210 -34.182  1.00  0.00     0.012 A 
HETATM   30  C   UNL     1      -5.701   0.564 -33.303  1.00  0.00     0.016 A 
HETATM   31  C   UNL     1      -5.401  -0.796 -33.457  1.00  0.00     0.009 A 
HETATM   32  C   UNL     1      -5.980  -1.561 -34.482  1.00  0.00    -0.051 A 
HETATM   33  C   UNL     1      -6.846  -0.894 -35.367  1.00  0.00     0.009 A 
HETATM   34  C   UNL     1      -7.147   0.465 -35.215  1.00  0.00     0.016 A 
BRANCH  32  35
HETATM   35  C   UNL     1      -5.708  -3.066 -34.650  1.00  0.00    -0.024 C 
HETATM   36  C   UNL     1      -4.521  -3.582 -33.804  1.00  0.00     0.019 C 
HETATM   37  C   UNL     1      -5.391  -3.359 -36.130  1.00  0.00     0.019 C 
HETATM   38  C   UNL     1      -6.947  -3.888 -34.224  1.00  0.00     0.019 C 
ENDBRANCH  32  35
ENDBRANCH   1  29
TORSDOF 7
ENDMDL
MODEL 10
REMARK VINA RESULT:      -8.8      5.794      9.348
REMARK  7 active torsions:
REMARK  status: ('A' for Active; 'I' for Inactive)
REMARK    1  A    between atoms: C_2  and  C_3 
REMARK    2  A    between atoms: C_6  and  C_7 
REMARK    3  A    between atoms: N_8  and  C_9 
REMARK    4  A    between atoms: C_14  and  S_15 
REMARK    5  A    between atoms: S_15  and  C_16 
REMARK    6  A    between atoms: C_16  and  C_17 
REMARK       I    between atoms: C_17  and  N_18 
REMARK    7  A    between atoms: N_18  and  C_19 
ROOT
HETATM    1  C   UNL     1      -7.138   3.140 -32.504  1.00  0.00     0.164 C 
HETATM    2  N   UNL     1      -7.532   1.917 -33.028  1.00  0.00    -0.302 N 
HETATM    3  C   UNL     1      -8.880   1.859 -32.788  1.00  0.00     0.192 C 
HETATM    4  N   UNL     1      -9.214   2.799 -31.937  1.00  0.00    -0.122 NA
HETATM    5  N   UNL     1      -8.131   3.609 -31.767  1.00  0.00    -0.128 NA
ENDROOT
BRANCH   3   6
HETATM    6  S   UNL     1     -10.002   0.800 -33.565  1.00  0.00    -0.081 SA
BRANCH   6   7
HETATM    7  C   UNL     1     -11.545   1.756 -33.456  1.00  0.00     0.185 C 
BRANCH   7   8
HETATM    8  C   UNL     1     -11.662   2.822 -34.542  1.00  0.00     0.231 C 
HETATM    9  N   UNL     1     -11.282   4.082 -34.119  1.00  0.00    -0.326 N 
HETATM   10  H   UNL     1     -10.752   4.122 -33.246  1.00  0.00     0.169 HD
HETATM   11  O   UNL     1     -12.096   2.542 -35.658  1.00  0.00    -0.272 OA
BRANCH   9  12
HETATM   12  C   UNL     1     -11.435   5.314 -34.785  1.00  0.00     0.037 A 
HETATM   13  C   UNL     1     -10.374   6.014 -35.368  1.00  0.00     0.061 A 
HETATM   14  C   UNL     1     -10.690   7.171 -36.045  1.00  0.00     0.065 A 
HETATM   15  C   UNL     1     -11.996   7.648 -36.145  1.00  0.00     0.063 A 
HETATM   16  N   UNL     1      -9.865   8.045 -36.747  1.00  0.00    -0.306 N 
HETATM   17  N   UNL     1     -11.973   8.814 -36.902  1.00  0.00    -0.307 N 
HETATM   18  C   UNL     1     -13.058   6.996 -35.572  1.00  0.00     0.034 A 
HETATM   19  C   UNL     1     -10.650   9.071 -37.292  1.00  0.00     0.325 A 
HETATM   20  H   UNL     1     -12.755   9.390 -37.161  1.00  0.00     0.170 HD
HETATM   21  O   UNL     1     -10.263  10.003 -37.974  1.00  0.00    -0.247 OA
HETATM   22  C   UNL     1     -12.762   5.809 -34.890  1.00  0.00     0.032 A 
HETATM   23  H   UNL     1      -8.869   7.969 -36.874  1.00  0.00     0.170 HD
ENDBRANCH   9  12
ENDBRANCH   7   8
ENDBRANCH   6   7
ENDBRANCH   3   6
BRANCH   2  24
HETATM   24  C   UNL     1      -6.650   0.885 -33.528  1.00  0.00     0.094 C 
HETATM   25  C   UNL     1      -6.625  -0.406 -32.694  1.00  0.00     0.026 C 
HETATM   26  C   UNL     1      -6.111  -1.447 -33.674  1.00  0.00     0.002 C 
HETATM   27  C   UNL     1      -6.823  -1.086 -34.968  1.00  0.00     0.002 C 
HETATM   28  C   UNL     1      -6.873   0.443 -34.984  1.00  0.00     0.026 C 
ENDBRANCH   2  24
BRANCH   1  29
HETATM   29  C   UNL     1      -5.872   3.839 -32.718  1.00  0.00     0.012 A 
HETATM   30  C   UNL     1      -4.835   3.792 -31.781  1.00  0.00     0.016 A 
HETATM   31  C   UNL     1      -3.594   4.384 -32.051  1.00  0.00     0.009 A 
HETATM   32  C   UNL     1      -3.340   5.026 -33.273  1.00  0.00    -0.051 A 
HETATM   33  C   UNL     1      -4.396   5.079 -34.200  1.00  0.00     0.009 A 
HETATM   34  C   UNL     1      -5.637   4.488 -33.933  1.00  0.00     0.016 A 
BRANCH  32  35
HETATM   35  C   UNL     1      -1.974   5.644 -33.618  1.00  0.00    -0.024 C 
HETATM   36  C   UNL     1      -1.995   7.187 -33.713  1.00  0.00     0.019 C 
HETATM   37  C   UNL     1      -1.504   5.098 -34.982  1.00  0.00     0.019 C 
HETATM   38  C   UNL     1      -0.929   5.280 -32.538  1.00  0.00     0.019 C 
ENDBRANCH  32  35
ENDBRANCH   1  29
TORSDOF 7
ENDMDL
