MODEL 1
REMARK VINA RESULT:      -8.7      0.000      0.000
REMARK  8 active torsions:
REMARK  status: ('A' for Active; 'I' for Inactive)
REMARK    1  A    between atoms: C_4  and  N_5 
REMARK       I    between atoms: N_5  and  C_6 
REMARK    2  A    between atoms: C_6  and  C_7 
REMARK    3  A    between atoms: C_7  and  N_8 
REMARK    4  A    between atoms: N_8  and  C_10 
REMARK    5  A    between atoms: N_8  and  C_13 
REMARK    6  A    between atoms: C_13  and  C_14 
REMARK    7  A    between atoms: C_16  and  C_17 
REMARK    8  A    between atoms: C_27  and  O_28 
ROOT
HETATM    1  N   UNL     1     -10.599   1.348 -32.675  1.00  0.00    -0.055 N 
HETATM    2  H   UNL     1     -11.273   1.388 -31.895  1.00  0.00     0.281 HD
ENDROOT
BRANCH   1   3
HETATM    3  C   UNL     1      -9.821   2.676 -32.536  1.00  0.00     0.338 C 
BRANCH   3   4
HETATM    4  C   UNL     1      -9.459   2.985 -31.081  1.00  0.00     0.248 C 
HETATM    5  N   UNL     1      -8.148   3.075 -30.722  1.00  0.00    -0.323 N 
HETATM    6  H   UNL     1      -7.968   3.622 -29.881  1.00  0.00     0.169 HD
HETATM    7  O   UNL     1     -10.353   3.263 -30.276  1.00  0.00    -0.271 OA
BRANCH   5   8
HETATM    8  C   UNL     1      -6.992   2.572 -31.351  1.00  0.00     0.069 A 
HETATM    9  C   UNL     1      -6.481   1.298 -31.078  1.00  0.00     0.039 A 
HETATM   10  C   UNL     1      -5.295   0.865 -31.683  1.00  0.00    -0.060 A 
HETATM   11  C   UNL     1      -4.691  -0.464 -31.326  1.00  0.00     0.048 C 
HETATM   12  C   UNL     1      -4.618   1.727 -32.551  1.00  0.00     0.009 A 
HETATM   13  C   UNL     1      -5.112   3.008 -32.815  1.00  0.00     0.039 A 
HETATM   14  C   UNL     1      -6.292   3.442 -32.212  1.00  0.00     0.095 A 
BRANCH  14  15
HETATM   15  O   UNL     1      -6.868   4.676 -32.399  1.00  0.00    -0.354 OA
HETATM   16  C   UNL     1      -7.196   5.038 -33.737  1.00  0.00     0.210 C 
ENDBRANCH  14  15
ENDBRANCH   5   8
ENDBRANCH   3   4
ENDBRANCH   1   3
BRANCH   1  17
HETATM   17  C   UNL     1     -11.470   1.320 -33.905  1.00  0.00     0.189 A 
HETATM   18  C   UNL     1     -12.832   0.692 -33.791  1.00  0.00     0.035 A 
HETATM   19  C   UNL     1     -12.704   2.168 -34.027  1.00  0.00     0.035 A 
ENDBRANCH   1  17
BRANCH   1  20
HETATM   20  C   UNL     1      -9.747   0.130 -32.444  1.00  0.00     0.274 C 
BRANCH  20  21
HETATM   21  C   UNL     1      -8.626  -0.045 -33.434  1.00  0.00    -0.032 A 
HETATM   22  C   UNL     1      -7.880  -1.237 -33.466  1.00  0.00     0.021 A 
HETATM   23  C   UNL     1      -6.830  -1.423 -34.384  1.00  0.00    -0.024 A 
HETATM   24  C   UNL     1      -6.538  -0.375 -35.270  1.00  0.00     0.012 A 
HETATM   25  C   UNL     1      -7.269   0.814 -35.249  1.00  0.00     0.001 A 
HETATM   26  C   UNL     1      -8.310   0.979 -34.338  1.00  0.00     0.009 A 
BRANCH  23  27
HETATM   27  C   UNL     1      -6.069  -2.681 -34.418  1.00  0.00    -0.008 A 
HETATM   28  C   UNL     1      -6.644  -3.881 -34.843  1.00  0.00     0.128 A 
HETATM   29  N   UNL     1      -6.010  -5.076 -34.876  1.00  0.00    -0.272 NA
HETATM   30  C   UNL     1      -4.719  -5.089 -34.488  1.00  0.00     0.116 A 
HETATM   31  C   UNL     1      -4.039  -3.962 -34.061  1.00  0.00     0.020 A 
HETATM   32  C   UNL     1      -4.725  -2.748 -34.025  1.00  0.00     0.015 A 
ENDBRANCH  23  27
ENDBRANCH  20  21
ENDBRANCH   1  20
TORSDOF 8
ENDMDL
MODEL 2
REMARK VINA RESULT:      -8.3      3.681      5.350
REMARK  8 active torsions:
REMARK  status: ('A' for Active; 'I' for Inactive)
REMARK    1  A    between atoms: C_4  and  N_5 
REMARK       I    between atoms: N_5  and  C_6 
REMARK    2  A    between atoms: C_6  and  C_7 
REMARK    3  A    between atoms: C_7  and  N_8 
REMARK    4  A    between atoms: N_8  and  C_10 
REMARK    5  A    between atoms: N_8  and  C_13 
REMARK    6  A    between atoms: C_13  and  C_14 
REMARK    7  A    between atoms: C_16  and  C_17 
REMARK    8  A    between atoms: C_27  and  O_28 
ROOT
HETATM    1  N   UNL     1      -5.468   2.838 -32.128  1.00  0.00    -0.055 N 
HETATM    2  H   UNL     1      -4.920   1.983 -31.948  1.00  0.00     0.281 HD
ENDROOT
BRANCH   1   3
HETATM    3  C   UNL     1      -4.437   3.969 -31.909  1.00  0.00     0.338 C 
BRANCH   3   4
HETATM    4  C   UNL     1      -3.067   3.429 -31.492  1.00  0.00     0.248 C 
HETATM    5  N   UNL     1      -2.091   4.301 -31.115  1.00  0.00    -0.323 N 
HETATM    6  H   UNL     1      -1.364   3.905 -30.520  1.00  0.00     0.169 HD
HETATM    7  O   UNL     1      -2.896   2.210 -31.389  1.00  0.00    -0.271 OA
BRANCH   5   8
HETATM    8  C   UNL     1      -1.944   5.678 -31.377  1.00  0.00     0.069 A 
HETATM    9  C   UNL     1      -2.255   6.660 -30.430  1.00  0.00     0.039 A 
HETATM   10  C   UNL     1      -2.150   8.018 -30.756  1.00  0.00    -0.060 A 
HETATM   11  C   UNL     1      -2.568   9.077 -29.776  1.00  0.00     0.048 C 
HETATM   12  C   UNL     1      -1.748   8.381 -32.045  1.00  0.00     0.009 A 
HETATM   13  C   UNL     1      -1.454   7.405 -33.003  1.00  0.00     0.039 A 
HETATM   14  C   UNL     1      -1.559   6.052 -32.680  1.00  0.00     0.095 A 
BRANCH  14  15
HETATM   15  O   UNL     1      -1.295   5.012 -33.539  1.00  0.00    -0.354 OA
HETATM   16  C   UNL     1      -1.719   5.169 -34.890  1.00  0.00     0.210 C 
ENDBRANCH  14  15
ENDBRANCH   5   8
ENDBRANCH   3   4
ENDBRANCH   1   3
BRANCH   1  17
HETATM   17  C   UNL     1      -6.531   2.818 -31.059  1.00  0.00     0.189 A 
HETATM   18  C   UNL     1      -6.443   1.759 -29.995  1.00  0.00     0.035 A 
HETATM   19  C   UNL     1      -6.239   3.201 -29.636  1.00  0.00     0.035 A 
ENDBRANCH   1  17
BRANCH   1  20
HETATM   20  C   UNL     1      -5.958   2.743 -33.547  1.00  0.00     0.274 C 
BRANCH  20  21
HETATM   21  C   UNL     1      -6.271   1.344 -34.008  1.00  0.00    -0.032 A 
HETATM   22  C   UNL     1      -5.442   0.269 -33.641  1.00  0.00     0.021 A 
HETATM   23  C   UNL     1      -5.717  -1.046 -34.058  1.00  0.00    -0.024 A 
HETATM   24  C   UNL     1      -6.845  -1.258 -34.864  1.00  0.00     0.012 A 
HETATM   25  C   UNL     1      -7.677  -0.200 -35.236  1.00  0.00     0.001 A 
HETATM   26  C   UNL     1      -7.393   1.095 -34.809  1.00  0.00     0.009 A 
BRANCH  23  27
HETATM   27  C   UNL     1      -4.851  -2.165 -33.653  1.00  0.00    -0.008 A 
HETATM   28  C   UNL     1      -4.015  -2.085 -32.537  1.00  0.00     0.128 A 
HETATM   29  N   UNL     1      -3.178  -3.065 -32.124  1.00  0.00    -0.272 NA
HETATM   30  C   UNL     1      -3.179  -4.206 -32.841  1.00  0.00     0.116 A 
HETATM   31  C   UNL     1      -3.974  -4.406 -33.956  1.00  0.00     0.020 A 
HETATM   32  C   UNL     1      -4.815  -3.372 -34.364  1.00  0.00     0.015 A 
ENDBRANCH  23  27
ENDBRANCH  20  21
ENDBRANCH   1  20
TORSDOF 8
ENDMDL
MODEL 3
REMARK VINA RESULT:      -8.2      3.057      4.721
REMARK  8 active torsions:
REMARK  status: ('A' for Active; 'I' for Inactive)
REMARK    1  A    between atoms: C_4  and  N_5 
REMARK       I    between atoms: N_5  and  C_6 
REMARK    2  A    between atoms: C_6  and  C_7 
REMARK    3  A    between atoms: C_7  and  N_8 
REMARK    4  A    between atoms: N_8  and  C_10 
REMARK    5  A    between atoms: N_8  and  C_13 
REMARK    6  A    between atoms: C_13  and  C_14 
REMARK    7  A    between atoms: C_16  and  C_17 
REMARK    8  A    between atoms: C_27  and  O_28 
ROOT
HETATM    1  N   UNL     1      -5.013   2.117 -31.657  1.00  0.00    -0.055 N 
HETATM    2  H   UNL     1      -4.342   1.335 -31.702  1.00  0.00     0.281 HD
ENDROOT
BRANCH   1   3
HETATM    3  C   UNL     1      -4.199   3.240 -30.973  1.00  0.00     0.338 C 
BRANCH   3   4
HETATM    4  C   UNL     1      -4.987   4.549 -30.877  1.00  0.00     0.248 C 
HETATM    5  N   UNL     1      -4.518   5.660 -31.510  1.00  0.00    -0.323 N 
HETATM    6  H   UNL     1      -5.223   6.365 -31.722  1.00  0.00     0.169 HD
HETATM    7  O   UNL     1      -6.092   4.557 -30.327  1.00  0.00    -0.271 OA
BRANCH   5   8
HETATM    8  C   UNL     1      -3.221   5.975 -31.963  1.00  0.00     0.069 A 
HETATM    9  C   UNL     1      -2.156   6.212 -31.087  1.00  0.00     0.039 A 
HETATM   10  C   UNL     1      -0.899   6.580 -31.583  1.00  0.00    -0.060 A 
HETATM   11  C   UNL     1       0.224   6.926 -30.647  1.00  0.00     0.048 C 
HETATM   12  C   UNL     1      -0.726   6.725 -32.963  1.00  0.00     0.009 A 
HETATM   13  C   UNL     1      -1.790   6.508 -33.843  1.00  0.00     0.039 A 
HETATM   14  C   UNL     1      -3.043   6.142 -33.351  1.00  0.00     0.095 A 
BRANCH  14  15
HETATM   15  O   UNL     1      -4.156   5.904 -34.122  1.00  0.00    -0.354 OA
HETATM   16  C   UNL     1      -3.973   5.107 -35.289  1.00  0.00     0.210 C 
ENDBRANCH  14  15
ENDBRANCH   5   8
ENDBRANCH   3   4
ENDBRANCH   1   3
BRANCH   1  17
HETATM   17  C   UNL     1      -6.119   1.593 -30.775  1.00  0.00     0.189 A 
HETATM   18  C   UNL     1      -6.154   0.117 -30.490  1.00  0.00     0.035 A 
HETATM   19  C   UNL     1      -5.857   1.087 -29.385  1.00  0.00     0.035 A 
ENDBRANCH   1  17
BRANCH   1  20
HETATM   20  C   UNL     1      -5.398   2.438 -33.075  1.00  0.00     0.274 C 
BRANCH  20  21
HETATM   21  C   UNL     1      -6.184   1.356 -33.768  1.00  0.00    -0.032 A 
HETATM   22  C   UNL     1      -5.697   0.037 -33.815  1.00  0.00     0.021 A 
HETATM   23  C   UNL     1      -6.415  -0.989 -34.456  1.00  0.00    -0.024 A 
HETATM   24  C   UNL     1      -7.638  -0.658 -35.060  1.00  0.00     0.012 A 
HETATM   25  C   UNL     1      -8.133   0.647 -35.022  1.00  0.00     0.001 A 
HETATM   26  C   UNL     1      -7.411   1.649 -34.378  1.00  0.00     0.009 A 
BRANCH  23  27
HETATM   27  C   UNL     1      -5.903  -2.368 -34.482  1.00  0.00    -0.008 A 
HETATM   28  C   UNL     1      -4.585  -2.673 -34.135  1.00  0.00     0.128 A 
HETATM   29  N   UNL     1      -4.044  -3.913 -34.161  1.00  0.00    -0.272 NA
HETATM   30  C   UNL     1      -4.858  -4.923 -34.530  1.00  0.00     0.116 A 
HETATM   31  C   UNL     1      -6.184  -4.744 -34.882  1.00  0.00     0.020 A 
HETATM   32  C   UNL     1      -6.707  -3.452 -34.859  1.00  0.00     0.015 A 
ENDBRANCH  23  27
ENDBRANCH  20  21
ENDBRANCH   1  20
TORSDOF 8
ENDMDL
MODEL 4
REMARK VINA RESULT:      -8.1      2.179      3.602
REMARK  8 active torsions:
REMARK  status: ('A' for Active; 'I' for Inactive)
REMARK    1  A    between atoms: C_4  and  N_5 
REMARK       I    between atoms: N_5  and  C_6 
REMARK    2  A    between atoms: C_6  and  C_7 
REMARK    3  A    between atoms: C_7  and  N_8 
REMARK    4  A    between atoms: N_8  and  C_10 
REMARK    5  A    between atoms: N_8  and  C_13 
REMARK    6  A    between atoms: C_13  and  C_14 
REMARK    7  A    between atoms: C_16  and  C_17 
REMARK    8  A    between atoms: C_27  and  O_28 
ROOT
HETATM    1  N   UNL     1      -6.171   4.027 -33.365  1.00  0.00    -0.055 N 
HETATM    2  H   UNL     1      -6.641   3.615 -32.544  1.00  0.00     0.281 HD
ENDROOT
BRANCH   1   3
HETATM    3  C   UNL     1      -4.814   4.497 -32.794  1.00  0.00     0.338 C 
BRANCH   3   4
HETATM    4  C   UNL     1      -4.909   4.874 -31.314  1.00  0.00     0.248 C 
HETATM    5  N   UNL     1      -4.779   3.904 -30.367  1.00  0.00    -0.323 N 
HETATM    6  H   UNL     1      -4.488   4.235 -29.447  1.00  0.00     0.169 HD
HETATM    7  O   UNL     1      -4.985   6.063 -30.990  1.00  0.00    -0.271 OA
BRANCH   5   8
HETATM    8  C   UNL     1      -4.938   2.507 -30.462  1.00  0.00     0.069 A 
HETATM    9  C   UNL     1      -3.945   1.672 -30.985  1.00  0.00     0.039 A 
HETATM   10  C   UNL     1      -4.171   0.295 -31.114  1.00  0.00    -0.060 A 
HETATM   11  C   UNL     1      -3.146  -0.594 -31.759  1.00  0.00     0.048 C 
HETATM   12  C   UNL     1      -5.408  -0.231 -30.730  1.00  0.00     0.009 A 
HETATM   13  C   UNL     1      -6.412   0.600 -30.224  1.00  0.00     0.039 A 
HETATM   14  C   UNL     1      -6.189   1.971 -30.096  1.00  0.00     0.095 A 
BRANCH  14  15
HETATM   15  O   UNL     1      -7.101   2.878 -29.611  1.00  0.00    -0.354 OA
HETATM   16  C   UNL     1      -8.323   3.011 -30.332  1.00  0.00     0.210 C 
ENDBRANCH  14  15
ENDBRANCH   5   8
ENDBRANCH   3   4
ENDBRANCH   1   3
BRANCH   1  17
HETATM   17  C   UNL     1      -7.061   5.181 -33.750  1.00  0.00     0.189 A 
HETATM   18  C   UNL     1      -8.546   4.948 -33.779  1.00  0.00     0.035 A 
HETATM   19  C   UNL     1      -7.952   5.868 -32.754  1.00  0.00     0.035 A 
ENDBRANCH   1  17
BRANCH   1  20
HETATM   20  C   UNL     1      -6.041   2.928 -34.383  1.00  0.00     0.274 C 
BRANCH  20  21
HETATM   21  C   UNL     1      -6.782   1.664 -34.035  1.00  0.00    -0.032 A 
HETATM   22  C   UNL     1      -6.208   0.405 -34.291  1.00  0.00     0.021 A 
HETATM   23  C   UNL     1      -6.881  -0.789 -33.972  1.00  0.00    -0.024 A 
HETATM   24  C   UNL     1      -8.156  -0.690 -33.394  1.00  0.00     0.012 A 
HETATM   25  C   UNL     1      -8.738   0.552 -33.135  1.00  0.00     0.001 A 
HETATM   26  C   UNL     1      -8.055   1.724 -33.452  1.00  0.00     0.009 A 
BRANCH  23  27
HETATM   27  C   UNL     1      -6.262  -2.098 -34.229  1.00  0.00    -0.008 A 
HETATM   28  C   UNL     1      -4.890  -2.309 -34.075  1.00  0.00     0.128 A 
HETATM   29  N   UNL     1      -4.254  -3.479 -34.318  1.00  0.00    -0.272 NA
HETATM   30  C   UNL     1      -5.019  -4.515 -34.716  1.00  0.00     0.116 A 
HETATM   31  C   UNL     1      -6.389  -4.429 -34.889  1.00  0.00     0.020 A 
HETATM   32  C   UNL     1      -7.012  -3.206 -34.645  1.00  0.00     0.015 A 
ENDBRANCH  23  27
ENDBRANCH  20  21
ENDBRANCH   1  20
TORSDOF 8
ENDMDL
MODEL 5
REMARK VINA RESULT:      -7.9      1.737      4.028
REMARK  8 active torsions:
REMARK  status: ('A' for Active; 'I' for Inactive)
REMARK    1  A    between atoms: C_4  and  N_5 
REMARK       I    between atoms: N_5  and  C_6 
REMARK    2  A    between atoms: C_6  and  C_7 
REMARK    3  A    between atoms: C_7  and  N_8 
REMARK    4  A    between atoms: N_8  and  C_10 
REMARK    5  A    between atoms: N_8  and  C_13 
REMARK    6  A    between atoms: C_13  and  C_14 
REMARK    7  A    between atoms: C_16  and  C_17 
REMARK    8  A    between atoms: C_27  and  O_28 
ROOT
HETATM    1  N   UNL     1      -5.881   3.273 -31.640  1.00  0.00    -0.055 N 
HETATM    2  H   UNL     1      -6.715   3.321 -32.245  1.00  0.00     0.281 HD
ENDROOT
BRANCH   1   3
HETATM    3  C   UNL     1      -6.476   3.003 -30.240  1.00  0.00     0.338 C 
BRANCH   3   4
HETATM    4  C   UNL     1      -7.507   4.060 -29.836  1.00  0.00     0.248 C 
HETATM    5  N   UNL     1      -8.780   3.969 -30.310  1.00  0.00    -0.323 N 
HETATM    6  H   UNL     1      -9.485   4.447 -29.749  1.00  0.00     0.169 HD
HETATM    7  O   UNL     1      -7.207   4.915 -28.997  1.00  0.00    -0.271 OA
BRANCH   5   8
HETATM    8  C   UNL     1      -9.292   3.281 -31.428  1.00  0.00     0.069 A 
HETATM    9  C   UNL     1      -9.364   1.884 -31.483  1.00  0.00     0.039 A 
HETATM   10  C   UNL     1      -9.825   1.243 -32.639  1.00  0.00    -0.060 A 
HETATM   11  C   UNL     1      -9.819  -0.256 -32.740  1.00  0.00     0.048 C 
HETATM   12  C   UNL     1     -10.197   2.014 -33.745  1.00  0.00     0.009 A 
HETATM   13  C   UNL     1     -10.111   3.409 -33.704  1.00  0.00     0.039 A 
HETATM   14  C   UNL     1      -9.651   4.050 -32.554  1.00  0.00     0.095 A 
BRANCH  14  15
HETATM   15  O   UNL     1      -9.526   5.410 -32.403  1.00  0.00    -0.354 OA
HETATM   16  C   UNL     1      -9.486   6.189 -33.595  1.00  0.00     0.210 C 
ENDBRANCH  14  15
ENDBRANCH   5   8
ENDBRANCH   3   4
ENDBRANCH   1   3
BRANCH   1  17
HETATM   17  C   UNL     1      -5.276   4.650 -31.750  1.00  0.00     0.189 A 
HETATM   18  C   UNL     1      -4.774   5.096 -33.095  1.00  0.00     0.035 A 
HETATM   19  C   UNL     1      -5.965   5.768 -32.480  1.00  0.00     0.035 A 
ENDBRANCH   1  17
BRANCH   1  20
HETATM   20  C   UNL     1      -5.037   2.141 -32.159  1.00  0.00     0.274 C 
BRANCH  20  21
HETATM   21  C   UNL     1      -5.696   1.310 -33.227  1.00  0.00    -0.032 A 
HETATM   22  C   UNL     1      -5.427  -0.067 -33.329  1.00  0.00     0.021 A 
HETATM   23  C   UNL     1      -6.033  -0.864 -34.318  1.00  0.00    -0.024 A 
HETATM   24  C   UNL     1      -6.916  -0.242 -35.213  1.00  0.00     0.012 A 
HETATM   25  C   UNL     1      -7.193   1.124 -35.124  1.00  0.00     0.001 A 
HETATM   26  C   UNL     1      -6.588   1.896 -34.135  1.00  0.00     0.009 A 
BRANCH  23  27
HETATM   27  C   UNL     1      -5.756  -2.306 -34.402  1.00  0.00    -0.008 A 
HETATM   28  C   UNL     1      -4.506  -2.838 -34.078  1.00  0.00     0.128 A 
HETATM   29  N   UNL     1      -4.177  -4.149 -34.157  1.00  0.00    -0.272 NA
HETATM   30  C   UNL     1      -5.146  -4.994 -34.559  1.00  0.00     0.116 A 
HETATM   31  C   UNL     1      -6.426  -4.586 -34.892  1.00  0.00     0.020 A 
HETATM   32  C   UNL     1      -6.729  -3.227 -34.815  1.00  0.00     0.015 A 
ENDBRANCH  23  27
ENDBRANCH  20  21
ENDBRANCH   1  20
TORSDOF 8
ENDMDL
MODEL 6
REMARK VINA RESULT:      -7.9      2.464      4.747
REMARK  8 active torsions:
REMARK  status: ('A' for Active; 'I' for Inactive)
REMARK    1  A    between atoms: C_4  and  N_5 
REMARK       I    between atoms: N_5  and  C_6 
REMARK    2  A    between atoms: C_6  and  C_7 
REMARK    3  A    between atoms: C_7  and  N_8 
REMARK    4  A    between atoms: N_8  and  C_10 
REMARK    5  A    between atoms: N_8  and  C_13 
REMARK    6  A    between atoms: C_13  and  C_14 
REMARK    7  A    between atoms: C_16  and  C_17 
REMARK    8  A    between atoms: C_27  and  O_28 
ROOT
HETATM    1  N   UNL     1      -5.454   3.208 -30.819  1.00  0.00    -0.055 N 
HETATM    2  H   UNL     1      -5.722   3.431 -31.790  1.00  0.00     0.281 HD
ENDROOT
BRANCH   1   3
HETATM    3  C   UNL     1      -5.362   4.598 -30.151  1.00  0.00     0.338 C 
BRANCH   3   4
HETATM    4  C   UNL     1      -6.312   5.613 -30.792  1.00  0.00     0.248 C 
HETATM    5  N   UNL     1      -6.116   5.988 -32.087  1.00  0.00    -0.323 N 
HETATM    6  H   UNL     1      -6.942   6.351 -32.560  1.00  0.00     0.169 HD
HETATM    7  O   UNL     1      -7.310   5.991 -30.172  1.00  0.00    -0.271 OA
BRANCH   5   8
HETATM    8  C   UNL     1      -4.965   5.912 -32.896  1.00  0.00     0.069 A 
HETATM    9  C   UNL     1      -3.777   6.580 -32.578  1.00  0.00     0.039 A 
HETATM   10  C   UNL     1      -2.677   6.523 -33.443  1.00  0.00    -0.060 A 
HETATM   11  C   UNL     1      -1.431   7.311 -33.154  1.00  0.00     0.048 C 
HETATM   12  C   UNL     1      -2.787   5.805 -34.638  1.00  0.00     0.009 A 
HETATM   13  C   UNL     1      -3.976   5.150 -34.972  1.00  0.00     0.039 A 
HETATM   14  C   UNL     1      -5.073   5.207 -34.111  1.00  0.00     0.095 A 
BRANCH  14  15
HETATM   15  O   UNL     1      -6.286   4.603 -34.337  1.00  0.00    -0.354 OA
HETATM   16  C   UNL     1      -6.307   3.178 -34.340  1.00  0.00     0.210 C 
ENDBRANCH  14  15
ENDBRANCH   5   8
ENDBRANCH   3   4
ENDBRANCH   1   3
BRANCH   1  17
HETATM   17  C   UNL     1      -4.105   2.549 -30.959  1.00  0.00     0.189 A 
HETATM   18  C   UNL     1      -3.563   2.339 -32.346  1.00  0.00     0.035 A 
HETATM   19  C   UNL     1      -2.891   3.306 -31.417  1.00  0.00     0.035 A 
ENDBRANCH   1  17
BRANCH   1  20
HETATM   20  C   UNL     1      -6.552   2.347 -30.257  1.00  0.00     0.274 C 
BRANCH  20  21
HETATM   21  C   UNL     1      -7.259   1.493 -31.276  1.00  0.00    -0.032 A 
HETATM   22  C   UNL     1      -6.573   0.465 -31.948  1.00  0.00     0.021 A 
HETATM   23  C   UNL     1      -7.214  -0.346 -32.901  1.00  0.00    -0.024 A 
HETATM   24  C   UNL     1      -8.568  -0.096 -33.173  1.00  0.00     0.012 A 
HETATM   25  C   UNL     1      -9.261   0.921 -32.515  1.00  0.00     0.001 A 
HETATM   26  C   UNL     1      -8.612   1.711 -31.569  1.00  0.00     0.009 A 
BRANCH  23  27
HETATM   27  C   UNL     1      -6.489  -1.430 -33.583  1.00  0.00    -0.008 A 
HETATM   28  C   UNL     1      -7.156  -2.438 -34.283  1.00  0.00     0.128 A 
HETATM   29  N   UNL     1      -6.553  -3.474 -34.911  1.00  0.00    -0.272 NA
HETATM   30  C   UNL     1      -5.206  -3.510 -34.867  1.00  0.00     0.116 A 
HETATM   31  C   UNL     1      -4.438  -2.560 -34.217  1.00  0.00     0.020 A 
HETATM   32  C   UNL     1      -5.090  -1.513 -33.567  1.00  0.00     0.015 A 
ENDBRANCH  23  27
ENDBRANCH  20  21
ENDBRANCH   1  20
TORSDOF 8
ENDMDL
MODEL 7
REMARK VINA RESULT:      -7.9      2.592      4.575
REMARK  8 active torsions:
REMARK  status: ('A' for Active; 'I' for Inactive)
REMARK    1  A    between atoms: C_4  and  N_5 
REMARK       I    between atoms: N_5  and  C_6 
REMARK    2  A    between atoms: C_6  and  C_7 
REMARK    3  A    between atoms: C_7  and  N_8 
REMARK    4  A    between atoms: N_8  and  C_10 
REMARK    5  A    between atoms: N_8  and  C_13 
REMARK    6  A    between atoms: C_13  and  C_14 
REMARK    7  A    between atoms: C_16  and  C_17 
REMARK    8  A    between atoms: C_27  and  O_28 
ROOT
HETATM    1  N   UNL     1      -5.634   2.741 -31.357  1.00  0.00    -0.055 N 
HETATM    2  H   UNL     1      -5.645   3.173 -32.294  1.00  0.00     0.281 HD
ENDROOT
BRANCH   1   3
HETATM    3  C   UNL     1      -5.947   3.929 -30.419  1.00  0.00     0.338 C 
BRANCH   3   4
HETATM    4  C   UNL     1      -6.935   4.916 -31.046  1.00  0.00     0.248 C 
HETATM    5  N   UNL     1      -6.521   5.723 -32.062  1.00  0.00    -0.323 N 
HETATM    6  H   UNL     1      -7.265   6.072 -32.666  1.00  0.00     0.169 HD
HETATM    7  O   UNL     1      -8.121   4.892 -30.705  1.00  0.00    -0.271 OA
BRANCH   5   8
HETATM    8  C   UNL     1      -5.224   6.117 -32.446  1.00  0.00     0.069 A 
HETATM    9  C   UNL     1      -4.548   5.532 -33.523  1.00  0.00     0.039 A 
HETATM   10  C   UNL     1      -3.236   5.915 -33.830  1.00  0.00    -0.060 A 
HETATM   11  C   UNL     1      -2.472   5.227 -34.925  1.00  0.00     0.048 C 
HETATM   12  C   UNL     1      -2.604   6.878 -33.037  1.00  0.00     0.009 A 
HETATM   13  C   UNL     1      -3.266   7.453 -31.948  1.00  0.00     0.039 A 
HETATM   14  C   UNL     1      -4.572   7.072 -31.640  1.00  0.00     0.095 A 
BRANCH  14  15
HETATM   15  O   UNL     1      -5.316   7.571 -30.598  1.00  0.00    -0.354 OA
HETATM   16  C   UNL     1      -4.723   7.525 -29.303  1.00  0.00     0.210 C 
ENDBRANCH  14  15
ENDBRANCH   5   8
ENDBRANCH   3   4
ENDBRANCH   1   3
BRANCH   1  17
HETATM   17  C   UNL     1      -4.217   2.248 -31.203  1.00  0.00     0.189 A 
HETATM   18  C   UNL     1      -3.362   2.164 -32.436  1.00  0.00     0.035 A 
HETATM   19  C   UNL     1      -3.034   3.159 -31.363  1.00  0.00     0.035 A 
ENDBRANCH   1  17
BRANCH   1  20
HETATM   20  C   UNL     1      -6.703   1.684 -31.358  1.00  0.00     0.274 C 
BRANCH  20  21
HETATM   21  C   UNL     1      -6.883   0.979 -32.677  1.00  0.00    -0.032 A 
HETATM   22  C   UNL     1      -6.371  -0.316 -32.871  1.00  0.00     0.021 A 
HETATM   23  C   UNL     1      -6.530  -0.994 -34.094  1.00  0.00    -0.024 A 
HETATM   24  C   UNL     1      -7.212  -0.334 -35.127  1.00  0.00     0.012 A 
HETATM   25  C   UNL     1      -7.725   0.952 -34.949  1.00  0.00     0.001 A 
HETATM   26  C   UNL     1      -7.564   1.606 -33.729  1.00  0.00     0.009 A 
BRANCH  23  27
HETATM   27  C   UNL     1      -6.005  -2.356 -34.278  1.00  0.00    -0.008 A 
HETATM   28  C   UNL     1      -4.686  -2.688 -33.960  1.00  0.00     0.128 A 
HETATM   29  N   UNL     1      -4.133  -3.912 -34.127  1.00  0.00    -0.272 NA
HETATM   30  C   UNL     1      -4.935  -4.878 -34.618  1.00  0.00     0.116 A 
HETATM   31  C   UNL     1      -6.261  -4.671 -34.956  1.00  0.00     0.020 A 
HETATM   32  C   UNL     1      -6.797  -3.395 -34.785  1.00  0.00     0.015 A 
ENDBRANCH  23  27
ENDBRANCH  20  21
ENDBRANCH   1  20
TORSDOF 8
ENDMDL
MODEL 8
REMARK VINA RESULT:      -7.9      2.199      5.238
REMARK  8 active torsions:
REMARK  status: ('A' for Active; 'I' for Inactive)
REMARK    1  A    between atoms: C_4  and  N_5 
REMARK       I    between atoms: N_5  and  C_6 
REMARK    2  A    between atoms: C_6  and  C_7 
REMARK    3  A    between atoms: C_7  and  N_8 
REMARK    4  A    between atoms: N_8  and  C_10 
REMARK    5  A    between atoms: N_8  and  C_13 
REMARK    6  A    between atoms: C_13  and  C_14 
REMARK    7  A    between atoms: C_16  and  C_17 
REMARK    8  A    between atoms: C_27  and  O_28 
ROOT
HETATM    1  N   UNL     1      -4.422   4.121 -33.111  1.00  0.00    -0.055 N 
HETATM    2  H   UNL     1      -4.142   3.222 -33.533  1.00  0.00     0.281 HD
ENDROOT
BRANCH   1   3
HETATM    3  C   UNL     1      -5.722   4.474 -33.869  1.00  0.00     0.338 C 
BRANCH   3   4
HETATM    4  C   UNL     1      -6.590   5.469 -33.094  1.00  0.00     0.248 C 
HETATM    5  N   UNL     1      -7.797   5.067 -32.608  1.00  0.00    -0.323 N 
HETATM    6  H   UNL     1      -8.151   5.613 -31.824  1.00  0.00     0.169 HD
HETATM    7  O   UNL     1      -6.142   6.586 -32.819  1.00  0.00    -0.271 OA
BRANCH   5   8
HETATM    8  C   UNL     1      -8.619   3.986 -32.984  1.00  0.00     0.069 A 
HETATM    9  C   UNL     1      -8.648   2.780 -32.273  1.00  0.00     0.039 A 
HETATM   10  C   UNL     1      -9.437   1.712 -32.719  1.00  0.00    -0.060 A 
HETATM   11  C   UNL     1      -9.402   0.386 -32.014  1.00  0.00     0.048 C 
HETATM   12  C   UNL     1     -10.183   1.859 -33.892  1.00  0.00     0.009 A 
HETATM   13  C   UNL     1     -10.145   3.053 -34.618  1.00  0.00     0.039 A 
HETATM   14  C   UNL     1      -9.359   4.118 -34.177  1.00  0.00     0.095 A 
BRANCH  14  15
HETATM   15  O   UNL     1      -9.248   5.333 -34.808  1.00  0.00    -0.354 OA
HETATM   16  C   UNL     1     -10.442   5.890 -35.349  1.00  0.00     0.210 C 
ENDBRANCH  14  15
ENDBRANCH   5   8
ENDBRANCH   3   4
ENDBRANCH   1   3
BRANCH   1  17
HETATM   17  C   UNL     1      -3.286   5.051 -33.458  1.00  0.00     0.189 A 
HETATM   18  C   UNL     1      -2.121   4.488 -34.223  1.00  0.00     0.035 A 
HETATM   19  C   UNL     1      -3.023   5.498 -34.868  1.00  0.00     0.035 A 
ENDBRANCH   1  17
BRANCH   1  20
HETATM   20  C   UNL     1      -4.636   3.862 -31.646  1.00  0.00     0.274 C 
BRANCH  20  21
HETATM   21  C   UNL     1      -5.141   2.480 -31.324  1.00  0.00    -0.032 A 
HETATM   22  C   UNL     1      -5.140   1.471 -32.304  1.00  0.00     0.021 A 
HETATM   23  C   UNL     1      -5.604   0.173 -32.025  1.00  0.00    -0.024 A 
HETATM   24  C   UNL     1      -6.082  -0.090 -30.732  1.00  0.00     0.012 A 
HETATM   25  C   UNL     1      -6.090   0.901 -29.749  1.00  0.00     0.001 A 
HETATM   26  C   UNL     1      -5.620   2.180 -30.042  1.00  0.00     0.009 A 
BRANCH  23  27
HETATM   27  C   UNL     1      -5.580  -0.877 -33.055  1.00  0.00    -0.008 A 
HETATM   28  C   UNL     1      -4.419  -1.595 -33.351  1.00  0.00     0.128 A 
HETATM   29  N   UNL     1      -4.321  -2.554 -34.300  1.00  0.00    -0.272 NA
HETATM   30  C   UNL     1      -5.444  -2.843 -34.988  1.00  0.00     0.116 A 
HETATM   31  C   UNL     1      -6.655  -2.209 -34.773  1.00  0.00     0.020 A 
HETATM   32  C   UNL     1      -6.719  -1.215 -33.798  1.00  0.00     0.015 A 
ENDBRANCH  23  27
ENDBRANCH  20  21
ENDBRANCH   1  20
TORSDOF 8
ENDMDL
MODEL 9
REMARK VINA RESULT:      -7.8      2.260      3.363
REMARK  8 active torsions:
REMARK  status: ('A' for Active; 'I' for Inactive)
REMARK    1  A    between atoms: C_4  and  N_5 
REMARK       I    between atoms: N_5  and  C_6 
REMARK    2  A    between atoms: C_6  and  C_7 
REMARK    3  A    between atoms: C_7  and  N_8 
REMARK    4  A    between atoms: N_8  and  C_10 
REMARK    5  A    between atoms: N_8  and  C_13 
REMARK    6  A    between atoms: C_13  and  C_14 
REMARK    7  A    between atoms: C_16  and  C_17 
REMARK    8  A    between atoms: C_27  and  O_28 
ROOT
HETATM    1  N   UNL     1      -7.025   4.297 -33.357  1.00  0.00    -0.055 N 
HETATM    2  H   UNL     1      -7.321   3.896 -32.454  1.00  0.00     0.281 HD
ENDROOT
BRANCH   1   3
HETATM    3  C   UNL     1      -5.933   5.313 -32.949  1.00  0.00     0.338 C 
BRANCH   3   4
HETATM    4  C   UNL     1      -5.909   5.560 -31.438  1.00  0.00     0.248 C 
HETATM    5  N   UNL     1      -5.316   4.647 -30.620  1.00  0.00    -0.323 N 
HETATM    6  H   UNL     1      -5.007   5.011 -29.719  1.00  0.00     0.169 HD
HETATM    7  O   UNL     1      -6.322   6.633 -30.989  1.00  0.00    -0.271 OA
BRANCH   5   8
HETATM    8  C   UNL     1      -5.016   3.287 -30.834  1.00  0.00     0.069 A 
HETATM    9  C   UNL     1      -5.911   2.260 -30.510  1.00  0.00     0.039 A 
HETATM   10  C   UNL     1      -5.546   0.920 -30.686  1.00  0.00    -0.060 A 
HETATM   11  C   UNL     1      -6.464  -0.189 -30.256  1.00  0.00     0.048 C 
HETATM   12  C   UNL     1      -4.270   0.619 -31.171  1.00  0.00     0.009 A 
HETATM   13  C   UNL     1      -3.364   1.638 -31.479  1.00  0.00     0.039 A 
HETATM   14  C   UNL     1      -3.725   2.974 -31.304  1.00  0.00     0.095 A 
BRANCH  14  15
HETATM   15  O   UNL     1      -2.918   4.053 -31.574  1.00  0.00    -0.354 OA
HETATM   16  C   UNL     1      -2.378   4.141 -32.890  1.00  0.00     0.210 C 
ENDBRANCH  14  15
ENDBRANCH   5   8
ENDBRANCH   3   4
ENDBRANCH   1   3
BRANCH   1  17
HETATM   17  C   UNL     1      -8.269   4.972 -33.877  1.00  0.00     0.189 A 
HETATM   18  C   UNL     1      -9.481   5.000 -32.988  1.00  0.00     0.035 A 
HETATM   19  C   UNL     1      -8.763   6.275 -33.318  1.00  0.00     0.035 A 
ENDBRANCH   1  17
BRANCH   1  20
HETATM   20  C   UNL     1      -6.499   3.156 -34.183  1.00  0.00     0.274 C 
BRANCH  20  21
HETATM   21  C   UNL     1      -7.139   1.825 -33.889  1.00  0.00    -0.032 A 
HETATM   22  C   UNL     1      -6.445   0.627 -34.137  1.00  0.00     0.021 A 
HETATM   23  C   UNL     1      -7.022  -0.627 -33.867  1.00  0.00    -0.024 A 
HETATM   24  C   UNL     1      -8.324  -0.653 -33.347  1.00  0.00     0.012 A 
HETATM   25  C   UNL     1      -9.026   0.527 -33.096  1.00  0.00     0.001 A 
HETATM   26  C   UNL     1      -8.437   1.761 -33.363  1.00  0.00     0.009 A 
BRANCH  23  27
HETATM   27  C   UNL     1      -6.277  -1.872 -34.115  1.00  0.00    -0.008 A 
HETATM   28  C   UNL     1      -4.923  -1.998 -33.797  1.00  0.00     0.128 A 
HETATM   29  N   UNL     1      -4.174  -3.102 -34.020  1.00  0.00    -0.272 NA
HETATM   30  C   UNL     1      -4.802  -4.160 -34.571  1.00  0.00     0.116 A 
HETATM   31  C   UNL     1      -6.143  -4.158 -34.915  1.00  0.00     0.020 A 
HETATM   32  C   UNL     1      -6.883  -2.999 -34.685  1.00  0.00     0.015 A 
ENDBRANCH  23  27
ENDBRANCH  20  21
ENDBRANCH   1  20
TORSDOF 8
ENDMDL
MODEL 10
REMARK VINA RESULT:      -7.8      3.117      5.082
REMARK  8 active torsions:
REMARK  status: ('A' for Active; 'I' for Inactive)
REMARK    1  A    between atoms: C_4  and  N_5 
REMARK       I    between atoms: N_5  and  C_6 
REMARK    2  A    between atoms: C_6  and  C_7 
REMARK    3  A    between atoms: C_7  and  N_8 
REMARK    4  A    between atoms: N_8  and  C_10 
REMARK    5  A    between atoms: N_8  and  C_13 
REMARK    6  A    between atoms: C_13  and  C_14 
REMARK    7  A    between atoms: C_16  and  C_17 
REMARK    8  A    between atoms: C_27  and  O_28 
ROOT
HETATM    1  N   UNL     1      -5.583   3.044 -31.958  1.00  0.00    -0.055 N 
HETATM    2  H   UNL     1      -5.266   2.939 -32.933  1.00  0.00     0.281 HD
ENDROOT
BRANCH   1   3
HETATM    3  C   UNL     1      -6.231   4.448 -31.948  1.00  0.00     0.338 C 
BRANCH   3   4
HETATM    4  C   UNL     1      -6.151   5.131 -33.315  1.00  0.00     0.248 C 
HETATM    5  N   UNL     1      -5.039   5.848 -33.640  1.00  0.00    -0.323 N 
HETATM    6  H   UNL     1      -4.876   5.962 -34.640  1.00  0.00     0.169 HD
HETATM    7  O   UNL     1      -7.038   4.932 -34.150  1.00  0.00    -0.271 OA
BRANCH   5   8
HETATM    8  C   UNL     1      -4.048   6.422 -32.818  1.00  0.00     0.069 A 
HETATM    9  C   UNL     1      -4.335   6.960 -31.559  1.00  0.00     0.039 A 
HETATM   10  C   UNL     1      -3.328   7.572 -30.803  1.00  0.00    -0.060 A 
HETATM   11  C   UNL     1      -3.646   8.232 -29.491  1.00  0.00     0.048 C 
HETATM   12  C   UNL     1      -2.035   7.655 -31.330  1.00  0.00     0.009 A 
HETATM   13  C   UNL     1      -1.745   7.137 -32.595  1.00  0.00     0.039 A 
HETATM   14  C   UNL     1      -2.747   6.527 -33.350  1.00  0.00     0.095 A 
BRANCH  14  15
HETATM   15  O   UNL     1      -2.575   5.985 -34.601  1.00  0.00    -0.354 OA
HETATM   16  C   UNL     1      -1.380   5.242 -34.822  1.00  0.00     0.210 C 
ENDBRANCH  14  15
ENDBRANCH   5   8
ENDBRANCH   3   4
ENDBRANCH   1   3
BRANCH   1  17
HETATM   17  C   UNL     1      -4.307   2.997 -31.156  1.00  0.00     0.189 A 
HETATM   18  C   UNL     1      -3.380   1.833 -31.373  1.00  0.00     0.035 A 
HETATM   19  C   UNL     1      -2.960   3.212 -31.786  1.00  0.00     0.035 A 
ENDBRANCH   1  17
BRANCH   1  20
HETATM   20  C   UNL     1      -6.563   1.933 -31.702  1.00  0.00     0.274 C 
BRANCH  20  21
HETATM   21  C   UNL     1      -6.877   1.087 -32.908  1.00  0.00    -0.032 A 
HETATM   22  C   UNL     1      -6.316  -0.195 -33.048  1.00  0.00     0.021 A 
HETATM   23  C   UNL     1      -6.598  -1.003 -34.165  1.00  0.00    -0.024 A 
HETATM   24  C   UNL     1      -7.455  -0.488 -35.149  1.00  0.00     0.012 A 
HETATM   25  C   UNL     1      -8.019   0.783 -35.023  1.00  0.00     0.001 A 
HETATM   26  C   UNL     1      -7.734   1.567 -33.908  1.00  0.00     0.009 A 
BRANCH  23  27
HETATM   27  C   UNL     1      -6.018  -2.349 -34.290  1.00  0.00    -0.008 A 
HETATM   28  C   UNL     1      -4.689  -2.615 -33.952  1.00  0.00     0.128 A 
HETATM   29  N   UNL     1      -4.086  -3.822 -34.066  1.00  0.00    -0.272 NA
HETATM   30  C   UNL     1      -4.846  -4.838 -34.521  1.00  0.00     0.116 A 
HETATM   31  C   UNL     1      -6.177  -4.698 -34.874  1.00  0.00     0.020 A 
HETATM   32  C   UNL     1      -6.764  -3.439 -34.758  1.00  0.00     0.015 A 
ENDBRANCH  23  27
ENDBRANCH  20  21
ENDBRANCH   1  20
TORSDOF 8
ENDMDL
