MODEL 1
REMARK VINA RESULT:      -8.5      0.000      0.000
REMARK  2 active torsions:
REMARK  status: ('A' for Active; 'I' for Inactive)
REMARK    1  A    between atoms: C_7  and  C_8 
REMARK    2  A    between atoms: C_8  and  O_9 
ROOT
HETATM    1  C   UNL     1      -6.830   0.017 -33.424  1.00  0.00     0.199 A 
HETATM    2  C   UNL     1      -6.758   1.131 -34.532  1.00  0.00     0.266 A 
HETATM    3  O   UNL     1      -6.891   1.020 -35.742  1.00  0.00    -0.269 OA
HETATM    4  N   UNL     1      -6.565   2.350 -33.877  1.00  0.00    -0.323 N 
HETATM    5  C   UNL     1      -6.461   2.180 -32.506  1.00  0.00     0.045 A 
HETATM    6  C   UNL     1      -6.588   0.830 -32.169  1.00  0.00     0.017 A 
HETATM    7  C   UNL     1      -6.261   3.164 -31.561  1.00  0.00     0.030 A 
HETATM    8  C   UNL     1      -6.196   2.768 -30.224  1.00  0.00     0.002 A 
HETATM    9  C   UNL     1      -6.332   1.413 -29.866  1.00  0.00     0.001 A 
HETATM   10  C   UNL     1      -6.535   0.432 -30.841  1.00  0.00     0.013 A 
HETATM   11  H   UNL     1      -6.498   3.226 -34.374  1.00  0.00     0.169 HD
ENDROOT
BRANCH   1  12
HETATM   12  C   UNL     1      -5.713  -1.001 -33.544  1.00  0.00     0.025 A 
HETATM   13  C   UNL     1      -4.358  -0.838 -33.235  1.00  0.00     0.016 A 
HETATM   14  C   UNL     1      -3.589   0.320 -32.702  1.00  0.00     0.069 C 
HETATM   15  N   UNL     1      -3.712  -2.017 -33.511  1.00  0.00    -0.359 N 
HETATM   16  H   UNL     1      -2.723  -2.180 -33.384  1.00  0.00     0.166 HD
HETATM   17  C   UNL     1      -4.582  -2.950 -34.007  1.00  0.00     0.043 A 
HETATM   18  C   UNL     1      -5.842  -2.353 -34.046  1.00  0.00     0.003 A 
HETATM   19  C   UNL     1      -4.340  -4.264 -34.426  1.00  0.00     0.030 A 
HETATM   20  C   UNL     1      -6.914  -3.132 -34.539  1.00  0.00     0.014 A 
HETATM   21  C   UNL     1      -6.693  -4.448 -34.963  1.00  0.00     0.001 A 
HETATM   22  C   UNL     1      -5.420  -5.005 -34.907  1.00  0.00     0.002 A 
ENDBRANCH   1  12
BRANCH   1  23
HETATM   23  O   UNL     1      -8.137  -0.544 -33.345  1.00  0.00    -0.371 OA
HETATM   24  H   UNL     1      -8.304  -0.728 -32.407  1.00  0.00     0.212 HD
ENDBRANCH   1  23
TORSDOF 2
ENDMDL
MODEL 2
REMARK VINA RESULT:      -8.3      3.542      5.889
REMARK  2 active torsions:
REMARK  status: ('A' for Active; 'I' for Inactive)
REMARK    1  A    between atoms: C_7  and  C_8 
REMARK    2  A    between atoms: C_8  and  O_9 
ROOT
HETATM    1  C   UNL     1      -8.655   1.062 -32.115  1.00  0.00     0.199 A 
HETATM    2  C   UNL     1      -7.775   2.050 -31.265  1.00  0.00     0.266 A 
HETATM    3  O   UNL     1      -8.134   2.937 -30.505  1.00  0.00    -0.269 OA
HETATM    4  N   UNL     1      -6.439   1.700 -31.479  1.00  0.00    -0.323 N 
HETATM    5  C   UNL     1      -6.326   0.651 -32.379  1.00  0.00     0.045 A 
HETATM    6  C   UNL     1      -7.590   0.238 -32.810  1.00  0.00     0.017 A 
HETATM    7  C   UNL     1      -5.162   0.061 -32.822  1.00  0.00     0.030 A 
HETATM    8  C   UNL     1      -5.281  -0.994 -33.729  1.00  0.00     0.002 A 
HETATM    9  C   UNL     1      -6.546  -1.430 -34.166  1.00  0.00     0.001 A 
HETATM   10  C   UNL     1      -7.715  -0.816 -33.702  1.00  0.00     0.013 A 
HETATM   11  H   UNL     1      -5.674   2.182 -31.031  1.00  0.00     0.169 HD
ENDROOT
BRANCH   1  12
HETATM   12  C   UNL     1      -9.467   1.771 -33.181  1.00  0.00     0.025 A 
HETATM   13  C   UNL     1      -9.121   2.910 -33.917  1.00  0.00     0.016 A 
HETATM   14  C   UNL     1      -7.903   3.766 -33.915  1.00  0.00     0.069 C 
HETATM   15  N   UNL     1     -10.162   3.206 -34.759  1.00  0.00    -0.359 N 
HETATM   16  H   UNL     1     -10.184   3.984 -35.404  1.00  0.00     0.166 HD
HETATM   17  C   UNL     1     -11.192   2.319 -34.600  1.00  0.00     0.043 A 
HETATM   18  C   UNL     1     -10.798   1.407 -33.621  1.00  0.00     0.003 A 
HETATM   19  C   UNL     1     -12.435   2.267 -35.243  1.00  0.00     0.030 A 
HETATM   20  C   UNL     1     -11.715   0.389 -33.275  1.00  0.00     0.014 A 
HETATM   21  C   UNL     1     -12.963   0.319 -33.906  1.00  0.00     0.001 A 
HETATM   22  C   UNL     1     -13.317   1.249 -34.878  1.00  0.00     0.002 A 
ENDBRANCH   1  12
BRANCH   1  23
HETATM   23  O   UNL     1      -9.409   0.194 -31.275  1.00  0.00    -0.371 OA
HETATM   24  H   UNL     1      -9.792   0.747 -30.574  1.00  0.00     0.212 HD
ENDBRANCH   1  23
TORSDOF 2
ENDMDL
MODEL 3
REMARK VINA RESULT:      -8.0      2.422      3.673
REMARK  2 active torsions:
REMARK  status: ('A' for Active; 'I' for Inactive)
REMARK    1  A    between atoms: C_7  and  C_8 
REMARK    2  A    between atoms: C_8  and  O_9 
ROOT
HETATM    1  C   UNL     1      -4.880   0.638 -31.123  1.00  0.00     0.199 A 
HETATM    2  C   UNL     1      -5.619   0.954 -29.771  1.00  0.00     0.266 A 
HETATM    3  O   UNL     1      -6.119   0.178 -28.970  1.00  0.00    -0.269 OA
HETATM    4  N   UNL     1      -5.562   2.338 -29.585  1.00  0.00    -0.323 N 
HETATM    5  C   UNL     1      -4.927   2.968 -30.643  1.00  0.00     0.045 A 
HETATM    6  C   UNL     1      -4.517   2.031 -31.595  1.00  0.00     0.017 A 
HETATM    7  C   UNL     1      -4.704   4.321 -30.790  1.00  0.00     0.030 A 
HETATM    8  C   UNL     1      -4.032   4.740 -31.940  1.00  0.00     0.002 A 
HETATM    9  C   UNL     1      -3.603   3.809 -32.904  1.00  0.00     0.001 A 
HETATM   10  C   UNL     1      -3.839   2.441 -32.734  1.00  0.00     0.013 A 
HETATM   11  H   UNL     1      -5.959   2.792 -28.775  1.00  0.00     0.169 HD
ENDROOT
BRANCH   1  12
HETATM   12  C   UNL     1      -5.796   0.018 -32.160  1.00  0.00     0.025 A 
HETATM   13  C   UNL     1      -7.121   0.355 -32.456  1.00  0.00     0.016 A 
HETATM   14  C   UNL     1      -8.036   1.388 -31.896  1.00  0.00     0.069 C 
HETATM   15  N   UNL     1      -7.561  -0.477 -33.454  1.00  0.00    -0.359 N 
HETATM   16  H   UNL     1      -8.486  -0.457 -33.861  1.00  0.00     0.166 HD
HETATM   17  C   UNL     1      -6.585  -1.364 -33.820  1.00  0.00     0.043 A 
HETATM   18  C   UNL     1      -5.467  -1.090 -33.032  1.00  0.00     0.003 A 
HETATM   19  C   UNL     1      -6.619  -2.385 -34.778  1.00  0.00     0.030 A 
HETATM   20  C   UNL     1      -4.323  -1.897 -33.227  1.00  0.00     0.014 A 
HETATM   21  C   UNL     1      -4.336  -2.923 -34.180  1.00  0.00     0.001 A 
HETATM   22  C   UNL     1      -5.472  -3.162 -34.945  1.00  0.00     0.002 A 
ENDBRANCH   1  12
BRANCH   1  23
HETATM   23  O   UNL     1      -3.673  -0.081 -30.891  1.00  0.00    -0.371 OA
HETATM   24  H   UNL     1      -3.764  -0.507 -30.024  1.00  0.00     0.212 HD
ENDBRANCH   1  23
TORSDOF 2
ENDMDL
MODEL 4
REMARK VINA RESULT:      -7.9      4.542      5.785
REMARK  2 active torsions:
REMARK  status: ('A' for Active; 'I' for Inactive)
REMARK    1  A    between atoms: C_7  and  C_8 
REMARK    2  A    between atoms: C_8  and  O_9 
ROOT
HETATM    1  C   UNL     1     -10.448   2.700 -33.776  1.00  0.00     0.199 A 
HETATM    2  C   UNL     1     -10.692   4.147 -33.210  1.00  0.00     0.266 A 
HETATM    3  O   UNL     1      -9.915   5.088 -33.148  1.00  0.00    -0.269 OA
HETATM    4  N   UNL     1     -12.032   4.214 -32.818  1.00  0.00    -0.323 N 
HETATM    5  C   UNL     1     -12.681   3.005 -33.012  1.00  0.00     0.045 A 
HETATM    6  C   UNL     1     -11.804   2.061 -33.554  1.00  0.00     0.017 A 
HETATM    7  C   UNL     1     -13.999   2.717 -32.728  1.00  0.00     0.030 A 
HETATM    8  C   UNL     1     -14.450   1.426 -33.013  1.00  0.00     0.002 A 
HETATM    9  C   UNL     1     -13.583   0.466 -33.569  1.00  0.00     0.001 A 
HETATM   10  C   UNL     1     -12.250   0.781 -33.849  1.00  0.00     0.013 A 
HETATM   11  H   UNL     1     -12.441   5.052 -32.431  1.00  0.00     0.169 HD
ENDROOT
BRANCH   1  12
HETATM   12  C   UNL     1      -9.428   1.920 -32.970  1.00  0.00     0.025 A 
HETATM   13  C   UNL     1      -9.142   2.025 -31.604  1.00  0.00     0.016 A 
HETATM   14  C   UNL     1      -9.715   2.880 -30.528  1.00  0.00     0.069 C 
HETATM   15  N   UNL     1      -8.139   1.137 -31.308  1.00  0.00    -0.359 N 
HETATM   16  H   UNL     1      -7.732   1.005 -30.392  1.00  0.00     0.166 HD
HETATM   17  C   UNL     1      -7.736   0.460 -32.427  1.00  0.00     0.043 A 
HETATM   18  C   UNL     1      -8.515   0.923 -33.487  1.00  0.00     0.003 A 
HETATM   19  C   UNL     1      -6.740  -0.514 -32.572  1.00  0.00     0.030 A 
HETATM   20  C   UNL     1      -8.269   0.368 -34.764  1.00  0.00     0.014 A 
HETATM   21  C   UNL     1      -7.277  -0.607 -34.931  1.00  0.00     0.001 A 
HETATM   22  C   UNL     1      -6.523  -1.040 -33.846  1.00  0.00     0.002 A 
ENDBRANCH   1  12
BRANCH   1  23
HETATM   23  O   UNL     1     -10.197   2.733 -35.177  1.00  0.00    -0.371 OA
HETATM   24  H   UNL     1      -9.244   2.588 -35.293  1.00  0.00     0.212 HD
ENDBRANCH   1  23
TORSDOF 2
ENDMDL
MODEL 5
REMARK VINA RESULT:      -7.9      3.056      4.604
REMARK  2 active torsions:
REMARK  status: ('A' for Active; 'I' for Inactive)
REMARK    1  A    between atoms: C_7  and  C_8 
REMARK    2  A    between atoms: C_8  and  O_9 
ROOT
HETATM    1  C   UNL     1      -4.298   2.347 -31.683  1.00  0.00     0.199 A 
HETATM    2  C   UNL     1      -5.039   2.935 -30.426  1.00  0.00     0.266 A 
HETATM    3  O   UNL     1      -5.826   2.383 -29.671  1.00  0.00    -0.269 OA
HETATM    4  N   UNL     1      -4.588   4.247 -30.260  1.00  0.00    -0.323 N 
HETATM    5  C   UNL     1      -3.692   4.607 -31.253  1.00  0.00     0.045 A 
HETATM    6  C   UNL     1      -3.489   3.544 -32.138  1.00  0.00     0.017 A 
HETATM    7  C   UNL     1      -3.060   5.824 -31.399  1.00  0.00     0.030 A 
HETATM    8  C   UNL     1      -2.183   5.967 -32.476  1.00  0.00     0.002 A 
HETATM    9  C   UNL     1      -1.959   4.904 -33.370  1.00  0.00     0.001 A 
HETATM   10  C   UNL     1      -2.610   3.678 -33.202  1.00  0.00     0.013 A 
HETATM   11  H   UNL     1      -4.909   4.838 -29.507  1.00  0.00     0.169 HD
ENDROOT
BRANCH   1  12
HETATM   12  C   UNL     1      -5.251   1.974 -32.802  1.00  0.00     0.025 A 
HETATM   13  C   UNL     1      -6.115   2.811 -33.517  1.00  0.00     0.016 A 
HETATM   14  C   UNL     1      -6.377   4.275 -33.437  1.00  0.00     0.069 C 
HETATM   15  N   UNL     1      -6.797   2.044 -34.427  1.00  0.00    -0.359 N 
HETATM   16  H   UNL     1      -7.491   2.391 -35.074  1.00  0.00     0.166 HD
HETATM   17  C   UNL     1      -6.431   0.728 -34.333  1.00  0.00     0.043 A 
HETATM   18  C   UNL     1      -5.469   0.643 -33.327  1.00  0.00     0.003 A 
HETATM   19  C   UNL     1      -6.889  -0.380 -35.056  1.00  0.00     0.030 A 
HETATM   20  C   UNL     1      -4.944  -0.638 -33.040  1.00  0.00     0.014 A 
HETATM   21  C   UNL     1      -5.387  -1.759 -33.751  1.00  0.00     0.001 A 
HETATM   22  C   UNL     1      -6.349  -1.629 -34.747  1.00  0.00     0.002 A 
ENDBRANCH   1  12
BRANCH   1  23
HETATM   23  O   UNL     1      -3.392   1.315 -31.307  1.00  0.00    -0.371 OA
HETATM   24  H   UNL     1      -2.734   1.721 -30.720  1.00  0.00     0.212 HD
ENDBRANCH   1  23
TORSDOF 2
ENDMDL
MODEL 6
REMARK VINA RESULT:      -7.8      2.773      4.158
REMARK  2 active torsions:
REMARK  status: ('A' for Active; 'I' for Inactive)
REMARK    1  A    between atoms: C_7  and  C_8 
REMARK    2  A    between atoms: C_8  and  O_9 
ROOT
HETATM    1  C   UNL     1      -6.142   3.449 -32.097  1.00  0.00     0.199 A 
HETATM    2  C   UNL     1      -7.197   4.128 -33.046  1.00  0.00     0.266 A 
HETATM    3  O   UNL     1      -8.415   4.134 -32.960  1.00  0.00    -0.269 OA
HETATM    4  N   UNL     1      -6.481   4.815 -34.031  1.00  0.00    -0.323 N 
HETATM    5  C   UNL     1      -5.114   4.644 -33.879  1.00  0.00     0.045 A 
HETATM    6  C   UNL     1      -4.842   3.835 -32.773  1.00  0.00     0.017 A 
HETATM    7  C   UNL     1      -4.120   5.172 -34.674  1.00  0.00     0.030 A 
HETATM    8  C   UNL     1      -2.798   4.877 -34.332  1.00  0.00     0.002 A 
HETATM    9  C   UNL     1      -2.506   4.072 -33.215  1.00  0.00     0.001 A 
HETATM   10  C   UNL     1      -3.531   3.548 -32.421  1.00  0.00     0.013 A 
HETATM   11  H   UNL     1      -6.936   5.347 -34.758  1.00  0.00     0.169 HD
ENDROOT
BRANCH   1  12
HETATM   12  C   UNL     1      -6.239   1.936 -32.102  1.00  0.00     0.025 A 
HETATM   13  C   UNL     1      -6.031   1.053 -31.036  1.00  0.00     0.016 A 
HETATM   14  C   UNL     1      -5.673   1.279 -29.609  1.00  0.00     0.069 C 
HETATM   15  N   UNL     1      -6.213  -0.226 -31.499  1.00  0.00    -0.359 N 
HETATM   16  H   UNL     1      -6.121  -1.064 -30.943  1.00  0.00     0.166 HD
HETATM   17  C   UNL     1      -6.517  -0.226 -32.834  1.00  0.00     0.043 A 
HETATM   18  C   UNL     1      -6.540   1.105 -33.249  1.00  0.00     0.003 A 
HETATM   19  C   UNL     1      -6.762  -1.304 -33.694  1.00  0.00     0.030 A 
HETATM   20  C   UNL     1      -6.827   1.356 -34.610  1.00  0.00     0.014 A 
HETATM   21  C   UNL     1      -7.074   0.293 -35.487  1.00  0.00     0.001 A 
HETATM   22  C   UNL     1      -7.042  -1.021 -35.032  1.00  0.00     0.002 A 
ENDBRANCH   1  12
BRANCH   1  23
HETATM   23  O   UNL     1      -6.162   4.040 -30.802  1.00  0.00    -0.371 OA
HETATM   24  H   UNL     1      -5.237   4.213 -30.560  1.00  0.00     0.212 HD
ENDBRANCH   1  23
TORSDOF 2
ENDMDL
MODEL 7
REMARK VINA RESULT:      -7.7     13.622     15.255
REMARK  2 active torsions:
REMARK  status: ('A' for Active; 'I' for Inactive)
REMARK    1  A    between atoms: C_7  and  C_8 
REMARK    2  A    between atoms: C_8  and  O_9 
ROOT
HETATM    1  C   UNL     1      -5.306 -13.012 -40.376  1.00  0.00     0.199 A 
HETATM    2  C   UNL     1      -4.310 -13.573 -41.456  1.00  0.00     0.266 A 
HETATM    3  O   UNL     1      -4.482 -13.717 -42.657  1.00  0.00    -0.269 OA
HETATM    4  N   UNL     1      -3.105 -13.844 -40.803  1.00  0.00    -0.323 N 
HETATM    5  C   UNL     1      -3.190 -13.577 -39.446  1.00  0.00     0.045 A 
HETATM    6  C   UNL     1      -4.464 -13.103 -39.120  1.00  0.00     0.017 A 
HETATM    7  C   UNL     1      -2.195 -13.737 -38.505  1.00  0.00     0.030 A 
HETATM    8  C   UNL     1      -2.498 -13.396 -37.185  1.00  0.00     0.002 A 
HETATM    9  C   UNL     1      -3.772 -12.907 -36.841  1.00  0.00     0.001 A 
HETATM   10  C   UNL     1      -4.766 -12.752 -37.812  1.00  0.00     0.013 A 
HETATM   11  H   UNL     1      -2.296 -14.205 -41.287  1.00  0.00     0.169 HD
ENDROOT
BRANCH   1  12
HETATM   12  C   UNL     1      -6.523 -13.896 -40.186  1.00  0.00     0.025 A 
HETATM   13  C   UNL     1      -6.568 -15.287 -40.040  1.00  0.00     0.016 A 
HETATM   14  C   UNL     1      -5.497 -16.321 -40.011  1.00  0.00     0.069 C 
HETATM   15  N   UNL     1      -7.881 -15.661 -39.909  1.00  0.00    -0.359 N 
HETATM   16  H   UNL     1      -8.206 -16.611 -39.793  1.00  0.00     0.166 HD
HETATM   17  C   UNL     1      -8.711 -14.574 -39.980  1.00  0.00     0.043 A 
HETATM   18  C   UNL     1      -7.901 -13.453 -40.156  1.00  0.00     0.003 A 
HETATM   19  C   UNL     1     -10.108 -14.511 -39.909  1.00  0.00     0.030 A 
HETATM   20  C   UNL     1      -8.545 -12.199 -40.267  1.00  0.00     0.014 A 
HETATM   21  C   UNL     1      -9.941 -12.114 -40.199  1.00  0.00     0.001 A 
HETATM   22  C   UNL     1     -10.711 -13.258 -40.023  1.00  0.00     0.002 A 
ENDBRANCH   1  12
BRANCH   1  23
HETATM   23  O   UNL     1      -5.601 -11.639 -40.614  1.00  0.00    -0.371 OA
HETATM   24  H   UNL     1      -5.804 -11.244 -39.751  1.00  0.00     0.212 HD
ENDBRANCH   1  23
TORSDOF 2
ENDMDL
MODEL 8
REMARK VINA RESULT:      -7.7      2.261      6.056
REMARK  2 active torsions:
REMARK  status: ('A' for Active; 'I' for Inactive)
REMARK    1  A    between atoms: C_7  and  C_8 
REMARK    2  A    between atoms: C_8  and  O_9 
ROOT
HETATM    1  C   UNL     1      -7.311   0.809 -31.692  1.00  0.00     0.199 A 
HETATM    2  C   UNL     1      -6.083   0.690 -30.716  1.00  0.00     0.266 A 
HETATM    3  O   UNL     1      -5.895   1.251 -29.647  1.00  0.00    -0.269 OA
HETATM    4  N   UNL     1      -5.215  -0.259 -31.262  1.00  0.00    -0.323 N 
HETATM    5  C   UNL     1      -5.685  -0.742 -32.473  1.00  0.00     0.045 A 
HETATM    6  C   UNL     1      -6.905  -0.142 -32.799  1.00  0.00     0.017 A 
HETATM    7  C   UNL     1      -5.079  -1.678 -33.284  1.00  0.00     0.030 A 
HETATM    8  C   UNL     1      -5.738  -2.027 -34.465  1.00  0.00     0.002 A 
HETATM    9  C   UNL     1      -6.971  -1.441 -34.803  1.00  0.00     0.001 A 
HETATM   10  C   UNL     1      -7.568  -0.493 -33.965  1.00  0.00     0.013 A 
HETATM   11  H   UNL     1      -4.352  -0.525 -30.812  1.00  0.00     0.169 HD
ENDROOT
BRANCH   1  12
HETATM   12  C   UNL     1      -7.448   2.195 -32.293  1.00  0.00     0.025 A 
HETATM   13  C   UNL     1      -8.621   2.890 -32.606  1.00  0.00     0.016 A 
HETATM   14  C   UNL     1     -10.059   2.535 -32.457  1.00  0.00     0.069 C 
HETATM   15  N   UNL     1      -8.270   4.102 -33.143  1.00  0.00    -0.359 N 
HETATM   16  H   UNL     1      -8.920   4.806 -33.463  1.00  0.00     0.166 HD
HETATM   17  C   UNL     1      -6.909   4.232 -33.214  1.00  0.00     0.043 A 
HETATM   18  C   UNL     1      -6.359   3.060 -32.695  1.00  0.00     0.003 A 
HETATM   19  C   UNL     1      -6.137   5.292 -33.705  1.00  0.00     0.030 A 
HETATM   20  C   UNL     1      -4.949   2.959 -32.675  1.00  0.00     0.014 A 
HETATM   21  C   UNL     1      -4.158   4.007 -33.161  1.00  0.00     0.001 A 
HETATM   22  C   UNL     1      -4.748   5.159 -33.670  1.00  0.00     0.002 A 
ENDBRANCH   1  12
BRANCH   1  23
HETATM   23  O   UNL     1      -8.498   0.306 -31.087  1.00  0.00    -0.371 OA
HETATM   24  H   UNL     1      -9.215   0.436 -31.729  1.00  0.00     0.212 HD
ENDBRANCH   1  23
TORSDOF 2
ENDMDL
MODEL 9
REMARK VINA RESULT:      -7.6      2.720      6.186
REMARK  2 active torsions:
REMARK  status: ('A' for Active; 'I' for Inactive)
REMARK    1  A    between atoms: C_7  and  C_8 
REMARK    2  A    between atoms: C_8  and  O_9 
ROOT
HETATM    1  C   UNL     1      -6.987   2.160 -32.256  1.00  0.00     0.199 A 
HETATM    2  C   UNL     1      -6.094   1.613 -31.083  1.00  0.00     0.266 A 
HETATM    3  O   UNL     1      -5.852   2.124 -30.000  1.00  0.00    -0.269 OA
HETATM    4  N   UNL     1      -5.638   0.350 -31.470  1.00  0.00    -0.323 N 
HETATM    5  C   UNL     1      -6.075   0.018 -32.742  1.00  0.00     0.045 A 
HETATM    6  C   UNL     1      -6.858   1.046 -33.274  1.00  0.00     0.017 A 
HETATM    7  C   UNL     1      -5.807  -1.144 -33.434  1.00  0.00     0.030 A 
HETATM    8  C   UNL     1      -6.360  -1.275 -34.710  1.00  0.00     0.002 A 
HETATM    9  C   UNL     1      -7.160  -0.254 -35.256  1.00  0.00     0.001 A 
HETATM   10  C   UNL     1      -7.419   0.916 -34.536  1.00  0.00     0.013 A 
HETATM   11  H   UNL     1      -5.050  -0.218 -30.877  1.00  0.00     0.169 HD
ENDROOT
BRANCH   1  12
HETATM   12  C   UNL     1      -6.428   3.426 -32.877  1.00  0.00     0.025 A 
HETATM   13  C   UNL     1      -7.129   4.475 -33.482  1.00  0.00     0.016 A 
HETATM   14  C   UNL     1      -8.583   4.704 -33.706  1.00  0.00     0.069 C 
HETATM   15  N   UNL     1      -6.218   5.404 -33.914  1.00  0.00    -0.359 N 
HETATM   16  H   UNL     1      -6.448   6.265 -34.392  1.00  0.00     0.166 HD
HETATM   17  C   UNL     1      -4.939   5.006 -33.634  1.00  0.00     0.043 A 
HETATM   18  C   UNL     1      -5.027   3.773 -32.988  1.00  0.00     0.003 A 
HETATM   19  C   UNL     1      -3.723   5.643 -33.912  1.00  0.00     0.030 A 
HETATM   20  C   UNL     1      -3.816   3.153 -32.606  1.00  0.00     0.014 A 
HETATM   21  C   UNL     1      -2.590   3.772 -32.875  1.00  0.00     0.001 A 
HETATM   22  C   UNL     1      -2.546   5.003 -33.521  1.00  0.00     0.002 A 
ENDBRANCH   1  12
BRANCH   1  23
HETATM   23  O   UNL     1      -8.353   2.246 -31.863  1.00  0.00    -0.371 OA
HETATM   24  H   UNL     1      -8.361   2.319 -30.895  1.00  0.00     0.212 HD
ENDBRANCH   1  23
TORSDOF 2
ENDMDL
MODEL 10
REMARK VINA RESULT:      -7.5     13.478     15.081
REMARK  2 active torsions:
REMARK  status: ('A' for Active; 'I' for Inactive)
REMARK    1  A    between atoms: C_7  and  C_8 
REMARK    2  A    between atoms: C_8  and  O_9 
ROOT
HETATM    1  C   UNL     1      -4.125 -12.967 -38.190  1.00  0.00     0.199 A 
HETATM    2  C   UNL     1      -4.785 -13.225 -36.785  1.00  0.00     0.266 A 
HETATM    3  O   UNL     1      -4.244 -13.475 -35.718  1.00  0.00    -0.269 OA
HETATM    4  N   UNL     1      -6.163 -13.058 -36.942  1.00  0.00    -0.323 N 
HETATM    5  C   UNL     1      -6.495 -12.768 -38.255  1.00  0.00     0.045 A 
HETATM    6  C   UNL     1      -5.347 -12.719 -39.051  1.00  0.00     0.017 A 
HETATM    7  C   UNL     1      -7.759 -12.551 -38.762  1.00  0.00     0.030 A 
HETATM    8  C   UNL     1      -7.863 -12.264 -40.126  1.00  0.00     0.002 A 
HETATM    9  C   UNL     1      -6.717 -12.200 -40.939  1.00  0.00     0.001 A 
HETATM   10  C   UNL     1      -5.444 -12.423 -40.402  1.00  0.00     0.013 A 
HETATM   11  H   UNL     1      -6.811 -13.160 -36.174  1.00  0.00     0.169 HD
ENDROOT
BRANCH   1  12
HETATM   12  C   UNL     1      -3.411 -14.188 -38.735  1.00  0.00     0.025 A 
HETATM   13  C   UNL     1      -3.968 -15.404 -39.149  1.00  0.00     0.016 A 
HETATM   14  C   UNL     1      -5.375 -15.887 -39.203  1.00  0.00     0.069 C 
HETATM   15  N   UNL     1      -2.948 -16.225 -39.555  1.00  0.00    -0.359 N 
HETATM   16  H   UNL     1      -3.063 -17.168 -39.900  1.00  0.00     0.166 HD
HETATM   17  C   UNL     1      -1.734 -15.609 -39.412  1.00  0.00     0.043 A 
HETATM   18  C   UNL     1      -1.980 -14.335 -38.899  1.00  0.00     0.003 A 
HETATM   19  C   UNL     1      -0.448 -16.091 -39.690  1.00  0.00     0.030 A 
HETATM   20  C   UNL     1      -0.861 -13.507 -38.655  1.00  0.00     0.014 A 
HETATM   21  C   UNL     1       0.433 -13.969 -38.926  1.00  0.00     0.001 A 
HETATM   22  C   UNL     1       0.634 -15.247 -39.437  1.00  0.00     0.002 A 
ENDBRANCH   1  12
BRANCH   1  23
HETATM   23  O   UNL     1      -3.342 -11.778 -38.178  1.00  0.00    -0.371 OA
HETATM   24  H   UNL     1      -3.965 -11.034 -38.154  1.00  0.00     0.212 HD
ENDBRANCH   1  23
TORSDOF 2
ENDMDL
