MODEL 1
REMARK VINA RESULT:      -9.0      0.000      0.000
REMARK  8 active torsions:
REMARK  status: ('A' for Active; 'I' for Inactive)
REMARK       I    between atoms: N_2  and  C_3 
REMARK       I    between atoms: C_3  and  N_4 
REMARK       I    between atoms: N_4  and  C_5 
REMARK    1  A    between atoms: C_5  and  C_6 
REMARK    2  A    between atoms: C_6  and  N_7 
REMARK    3  A    between atoms: N_7  and  C_8 
REMARK    4  A    between atoms: C_9  and  C_10 
REMARK       I    between atoms: C_10  and  N_11 
REMARK    5  A    between atoms: N_11  and  C_12 
REMARK    6  A    between atoms: C_12  and  C_13 
REMARK    7  A    between atoms: C_13  and  C_14 
REMARK    8  A    between atoms: C_17  and  O_18 
ROOT
HETATM    1  C   UNL     1      -1.502   4.824 -32.099  1.00  0.00     0.024 A 
HETATM    2  C   UNL     1      -2.581   4.167 -32.730  1.00  0.00     0.053 A 
HETATM    3  C   UNL     1      -2.961   4.524 -34.037  1.00  0.00     0.019 A 
HETATM    4  C   UNL     1      -2.282   5.532 -34.719  1.00  0.00     0.001 A 
HETATM    5  C   UNL     1      -1.226   6.193 -34.101  1.00  0.00     0.002 A 
HETATM    6  C   UNL     1      -0.844   5.847 -32.803  1.00  0.00     0.024 A 
ENDROOT
BRANCH   2   7
HETATM    7  C   UNL     1      -3.352   3.083 -32.060  1.00  0.00     0.253 C 
HETATM    8  N   UNL     1      -4.693   3.007 -32.390  1.00  0.00    -0.357 N 
HETATM    9  H   UNL     1      -5.012   3.489 -33.222  1.00  0.00     0.162 HD
HETATM   10  O   UNL     1      -2.820   2.325 -31.258  1.00  0.00    -0.268 OA
BRANCH   8  11
HETATM   11  C   UNL     1      -5.511   1.925 -31.868  1.00  0.00     0.127 C 
BRANCH  11  12
HETATM   12  C   UNL     1      -6.441   1.316 -32.921  1.00  0.00     0.058 C 
BRANCH  12  13
HETATM   13  C   UNL     1      -6.155  -0.093 -33.394  1.00  0.00    -0.057 A 
HETATM   14  C   UNL     1      -7.122  -0.929 -33.960  1.00  0.00     0.010 A 
HETATM   15  C   UNL     1      -6.773  -2.197 -34.440  1.00  0.00     0.037 A 
HETATM   16  C   UNL     1      -5.453  -2.644 -34.385  1.00  0.00     0.068 A 
HETATM   17  C   UNL     1      -4.481  -1.822 -33.821  1.00  0.00     0.037 A 
HETATM   18  C   UNL     1      -4.831  -0.557 -33.335  1.00  0.00     0.010 A 
BRANCH  16  19
HETATM   19  O   UNL     1      -5.244  -3.891 -34.908  1.00  0.00    -0.356 OA
HETATM   20  C   UNL     1      -6.389  -4.572 -35.406  1.00  0.00     0.210 C 
ENDBRANCH  16  19
ENDBRANCH  12  13
ENDBRANCH  11  12
ENDBRANCH   8  11
ENDBRANCH   2   7
BRANCH   1  21
HETATM   21  N   UNL     1      -1.070   4.531 -30.786  1.00  0.00    -0.283 NA
HETATM   22  H   UNL     1      -1.094   3.524 -30.620  1.00  0.00     0.128 HD
BRANCH  21  23
HETATM   23  C   UNL     1       0.301   5.035 -30.486  1.00  0.00     0.195 C 
BRANCH  23  24
HETATM   24  C   UNL     1       0.234   6.154 -29.438  1.00  0.00     0.238 C 
HETATM   25  N   UNL     1      -0.225   5.704 -28.209  1.00  0.00    -0.278 N 
HETATM   26  C   UNL     1      -0.314   6.344 -27.005  1.00  0.00     0.322 C 
HETATM   27  H   UNL     1      -0.518   4.732 -28.202  1.00  0.00     0.173 HD
HETATM   28  N   UNL     1       0.089   7.647 -26.996  1.00  0.00    -0.347 N 
HETATM   29  O   UNL     1      -0.706   5.746 -26.005  1.00  0.00    -0.247 OA
HETATM   30  C   UNL     1      -0.044   8.469 -25.825  1.00  0.00     0.151 C 
HETATM   31  H   UNL     1       0.193   8.088 -27.907  1.00  0.00     0.163 HD
HETATM   32  O   UNL     1       0.544   7.319 -29.685  1.00  0.00    -0.272 OA
ENDBRANCH  23  24
ENDBRANCH  21  23
ENDBRANCH   1  21
TORSDOF 8
ENDMDL
MODEL 2
REMARK VINA RESULT:      -8.6      4.045      7.608
REMARK  8 active torsions:
REMARK  status: ('A' for Active; 'I' for Inactive)
REMARK       I    between atoms: N_2  and  C_3 
REMARK       I    between atoms: C_3  and  N_4 
REMARK       I    between atoms: N_4  and  C_5 
REMARK    1  A    between atoms: C_5  and  C_6 
REMARK    2  A    between atoms: C_6  and  N_7 
REMARK    3  A    between atoms: N_7  and  C_8 
REMARK    4  A    between atoms: C_9  and  C_10 
REMARK       I    between atoms: C_10  and  N_11 
REMARK    5  A    between atoms: N_11  and  C_12 
REMARK    6  A    between atoms: C_12  and  C_13 
REMARK    7  A    between atoms: C_13  and  C_14 
REMARK    8  A    between atoms: C_17  and  O_18 
ROOT
HETATM    1  C   UNL     1      -4.736  -2.274 -33.905  1.00  0.00     0.024 A 
HETATM    2  C   UNL     1      -6.054  -2.099 -34.382  1.00  0.00     0.053 A 
HETATM    3  C   UNL     1      -6.796  -3.206 -34.833  1.00  0.00     0.019 A 
HETATM    4  C   UNL     1      -6.237  -4.483 -34.820  1.00  0.00     0.001 A 
HETATM    5  C   UNL     1      -4.936  -4.664 -34.363  1.00  0.00     0.002 A 
HETATM    6  C   UNL     1      -4.192  -3.570 -33.916  1.00  0.00     0.024 A 
ENDROOT
BRANCH   2   7
HETATM    7  C   UNL     1      -6.711  -0.764 -34.427  1.00  0.00     0.253 C 
HETATM    8  N   UNL     1      -6.922  -0.156 -33.203  1.00  0.00    -0.357 N 
HETATM    9  H   UNL     1      -6.411  -0.503 -32.399  1.00  0.00     0.162 HD
HETATM   10  O   UNL     1      -7.050  -0.256 -35.489  1.00  0.00    -0.268 OA
BRANCH   8  11
HETATM   11  C   UNL     1      -7.465   1.190 -33.143  1.00  0.00     0.127 C 
BRANCH  11  12
HETATM   12  C   UNL     1      -8.637   1.320 -32.166  1.00  0.00     0.058 C 
BRANCH  12  13
HETATM   13  C   UNL     1     -10.027   1.493 -32.741  1.00  0.00    -0.057 A 
HETATM   14  C   UNL     1     -10.786   0.440 -33.259  1.00  0.00     0.010 A 
HETATM   15  C   UNL     1     -12.092   0.660 -33.712  1.00  0.00     0.037 A 
HETATM   16  C   UNL     1     -12.672   1.926 -33.636  1.00  0.00     0.068 A 
HETATM   17  C   UNL     1     -11.925   2.984 -33.125  1.00  0.00     0.037 A 
HETATM   18  C   UNL     1     -10.616   2.766 -32.679  1.00  0.00     0.010 A 
BRANCH  16  19
HETATM   19  O   UNL     1     -13.960   2.000 -34.090  1.00  0.00    -0.356 OA
HETATM   20  C   UNL     1     -14.733   0.809 -34.006  1.00  0.00     0.210 C 
ENDBRANCH  16  19
ENDBRANCH  12  13
ENDBRANCH  11  12
ENDBRANCH   8  11
ENDBRANCH   2   7
BRANCH   1  21
HETATM   21  N   UNL     1      -3.924  -1.211 -33.448  1.00  0.00    -0.283 NA
HETATM   22  H   UNL     1      -4.337  -0.313 -33.701  1.00  0.00     0.128 HD
BRANCH  21  23
HETATM   23  C   UNL     1      -3.691  -1.234 -31.975  1.00  0.00     0.195 C 
BRANCH  23  24
HETATM   24  C   UNL     1      -4.176   0.078 -31.344  1.00  0.00     0.238 C 
HETATM   25  N   UNL     1      -3.321   1.139 -31.602  1.00  0.00    -0.278 N 
HETATM   26  C   UNL     1      -3.450   2.472 -31.327  1.00  0.00     0.322 C 
HETATM   27  H   UNL     1      -2.474   0.883 -32.098  1.00  0.00     0.173 HD
HETATM   28  N   UNL     1      -4.591   2.833 -30.673  1.00  0.00    -0.347 N 
HETATM   29  O   UNL     1      -2.591   3.272 -31.691  1.00  0.00    -0.247 OA
HETATM   30  C   UNL     1      -4.812   4.184 -30.233  1.00  0.00     0.151 C 
HETATM   31  H   UNL     1      -5.119   2.076 -30.246  1.00  0.00     0.163 HD
HETATM   32  O   UNL     1      -5.204   0.156 -30.673  1.00  0.00    -0.272 OA
ENDBRANCH  23  24
ENDBRANCH  21  23
ENDBRANCH   1  21
TORSDOF 8
ENDMDL
MODEL 3
REMARK VINA RESULT:      -8.3      3.640      7.744
REMARK  8 active torsions:
REMARK  status: ('A' for Active; 'I' for Inactive)
REMARK       I    between atoms: N_2  and  C_3 
REMARK       I    between atoms: C_3  and  N_4 
REMARK       I    between atoms: N_4  and  C_5 
REMARK    1  A    between atoms: C_5  and  C_6 
REMARK    2  A    between atoms: C_6  and  N_7 
REMARK    3  A    between atoms: N_7  and  C_8 
REMARK    4  A    between atoms: C_9  and  C_10 
REMARK       I    between atoms: C_10  and  N_11 
REMARK    5  A    between atoms: N_11  and  C_12 
REMARK    6  A    between atoms: C_12  and  C_13 
REMARK    7  A    between atoms: C_13  and  C_14 
REMARK    8  A    between atoms: C_17  and  O_18 
ROOT
HETATM    1  C   UNL     1      -4.753  -2.375 -33.991  1.00  0.00     0.024 A 
HETATM    2  C   UNL     1      -6.110  -2.080 -34.248  1.00  0.00     0.053 A 
HETATM    3  C   UNL     1      -6.982  -3.090 -34.696  1.00  0.00     0.019 A 
HETATM    4  C   UNL     1      -6.515  -4.388 -34.895  1.00  0.00     0.001 A 
HETATM    5  C   UNL     1      -5.177  -4.685 -34.654  1.00  0.00     0.002 A 
HETATM    6  C   UNL     1      -4.305  -3.688 -34.213  1.00  0.00     0.024 A 
ENDROOT
BRANCH   2   7
HETATM    7  C   UNL     1      -6.676  -0.715 -34.061  1.00  0.00     0.253 C 
HETATM    8  N   UNL     1      -7.919  -0.657 -33.457  1.00  0.00    -0.357 N 
HETATM    9  H   UNL     1      -8.250  -1.475 -32.958  1.00  0.00     0.162 HD
HETATM   10  O   UNL     1      -6.071   0.282 -34.436  1.00  0.00    -0.268 OA
BRANCH   8  11
HETATM   11  C   UNL     1      -8.513   0.629 -33.138  1.00  0.00     0.127 C 
BRANCH  11  12
HETATM   12  C   UNL     1      -8.445   0.967 -31.646  1.00  0.00     0.058 C 
BRANCH  12  13
HETATM   13  C   UNL     1      -7.873   2.310 -31.245  1.00  0.00    -0.057 A 
HETATM   14  C   UNL     1      -7.014   2.489 -30.156  1.00  0.00     0.010 A 
HETATM   15  C   UNL     1      -6.467   3.748 -29.883  1.00  0.00     0.037 A 
HETATM   16  C   UNL     1      -6.747   4.843 -30.701  1.00  0.00     0.068 A 
HETATM   17  C   UNL     1      -7.604   4.678 -31.785  1.00  0.00     0.037 A 
HETATM   18  C   UNL     1      -8.158   3.421 -32.055  1.00  0.00     0.010 A 
BRANCH  16  19
HETATM   19  O   UNL     1      -6.131   6.009 -30.336  1.00  0.00    -0.356 OA
HETATM   20  C   UNL     1      -5.536   6.037 -29.045  1.00  0.00     0.210 C 
ENDBRANCH  16  19
ENDBRANCH  12  13
ENDBRANCH  11  12
ENDBRANCH   8  11
ENDBRANCH   2   7
BRANCH   1  21
HETATM   21  N   UNL     1      -3.815  -1.413 -33.553  1.00  0.00    -0.283 NA
HETATM   22  H   UNL     1      -4.000  -0.510 -33.991  1.00  0.00     0.128 HD
BRANCH  21  23
HETATM   23  C   UNL     1      -3.796  -1.233 -32.073  1.00  0.00     0.195 C 
BRANCH  23  24
HETATM   24  C   UNL     1      -3.331   0.186 -31.719  1.00  0.00     0.238 C 
HETATM   25  N   UNL     1      -3.998   1.160 -32.447  1.00  0.00    -0.278 N 
HETATM   26  C   UNL     1      -3.966   2.523 -32.347  1.00  0.00     0.322 C 
HETATM   27  H   UNL     1      -4.633   0.796 -33.150  1.00  0.00     0.173 HD
HETATM   28  N   UNL     1      -3.128   3.026 -31.396  1.00  0.00    -0.347 N 
HETATM   29  O   UNL     1      -4.684   3.220 -33.061  1.00  0.00    -0.247 OA
HETATM   30  C   UNL     1      -2.919   4.441 -31.249  1.00  0.00     0.151 C 
HETATM   31  H   UNL     1      -2.442   2.377 -31.017  1.00  0.00     0.163 HD
HETATM   32  O   UNL     1      -2.450   0.413 -30.890  1.00  0.00    -0.272 OA
ENDBRANCH  23  24
ENDBRANCH  21  23
ENDBRANCH   1  21
TORSDOF 8
ENDMDL
MODEL 4
REMARK VINA RESULT:      -8.2      4.476      9.416
REMARK  8 active torsions:
REMARK  status: ('A' for Active; 'I' for Inactive)
REMARK       I    between atoms: N_2  and  C_3 
REMARK       I    between atoms: C_3  and  N_4 
REMARK       I    between atoms: N_4  and  C_5 
REMARK    1  A    between atoms: C_5  and  C_6 
REMARK    2  A    between atoms: C_6  and  N_7 
REMARK    3  A    between atoms: N_7  and  C_8 
REMARK    4  A    between atoms: C_9  and  C_10 
REMARK       I    between atoms: C_10  and  N_11 
REMARK    5  A    between atoms: N_11  and  C_12 
REMARK    6  A    between atoms: C_12  and  C_13 
REMARK    7  A    between atoms: C_13  and  C_14 
REMARK    8  A    between atoms: C_17  and  O_18 
ROOT
HETATM    1  C   UNL     1      -6.475  -1.790 -33.848  1.00  0.00     0.024 A 
HETATM    2  C   UNL     1      -5.086  -1.873 -33.606  1.00  0.00     0.053 A 
HETATM    3  C   UNL     1      -4.351  -2.979 -34.072  1.00  0.00     0.019 A 
HETATM    4  C   UNL     1      -4.985  -4.004 -34.771  1.00  0.00     0.001 A 
HETATM    5  C   UNL     1      -6.354  -3.936 -35.006  1.00  0.00     0.002 A 
HETATM    6  C   UNL     1      -7.092  -2.844 -34.544  1.00  0.00     0.024 A 
ENDROOT
BRANCH   2   7
HETATM    7  C   UNL     1      -4.345  -0.816 -32.863  1.00  0.00     0.253 C 
HETATM    8  N   UNL     1      -4.903  -0.425 -31.659  1.00  0.00    -0.357 N 
HETATM    9  H   UNL     1      -5.600  -1.025 -31.234  1.00  0.00     0.162 HD
HETATM   10  O   UNL     1      -3.316  -0.325 -33.310  1.00  0.00    -0.268 OA
BRANCH   8  11
HETATM   11  C   UNL     1      -4.207   0.527 -30.810  1.00  0.00     0.127 C 
BRANCH  11  12
HETATM   12  C   UNL     1      -4.834   1.923 -30.836  1.00  0.00     0.058 C 
BRANCH  12  13
HETATM   13  C   UNL     1      -4.353   2.900 -31.887  1.00  0.00    -0.057 A 
HETATM   14  C   UNL     1      -5.206   3.558 -32.779  1.00  0.00     0.010 A 
HETATM   15  C   UNL     1      -4.701   4.501 -33.681  1.00  0.00     0.037 A 
HETATM   16  C   UNL     1      -3.343   4.823 -33.695  1.00  0.00     0.068 A 
HETATM   17  C   UNL     1      -2.484   4.172 -32.815  1.00  0.00     0.037 A 
HETATM   18  C   UNL     1      -2.987   3.223 -31.918  1.00  0.00     0.010 A 
BRANCH  16  19
HETATM   19  O   UNL     1      -2.985   5.776 -34.608  1.00  0.00    -0.356 OA
HETATM   20  C   UNL     1      -2.110   6.799 -34.150  1.00  0.00     0.210 C 
ENDBRANCH  16  19
ENDBRANCH  12  13
ENDBRANCH  11  12
ENDBRANCH   8  11
ENDBRANCH   2   7
BRANCH   1  21
HETATM   21  N   UNL     1      -7.282  -0.720 -33.402  1.00  0.00    -0.283 NA
HETATM   22  H   UNL     1      -6.725  -0.054 -32.865  1.00  0.00     0.128 HD
BRANCH  21  23
HETATM   23  C   UNL     1      -7.968   0.009 -34.508  1.00  0.00     0.195 C 
BRANCH  23  24
HETATM   24  C   UNL     1      -9.237   0.693 -33.982  1.00  0.00     0.238 C 
HETATM   25  N   UNL     1      -9.497   1.894 -34.627  1.00  0.00    -0.278 N 
HETATM   26  C   UNL     1     -10.573   2.734 -34.541  1.00  0.00     0.322 C 
HETATM   27  H   UNL     1      -8.782   2.177 -35.289  1.00  0.00     0.173 HD
HETATM   28  N   UNL     1     -11.548   2.357 -33.666  1.00  0.00    -0.347 N 
HETATM   29  O   UNL     1     -10.639   3.738 -35.246  1.00  0.00    -0.247 OA
HETATM   30  C   UNL     1     -12.686   3.195 -33.401  1.00  0.00     0.151 C 
HETATM   31  H   UNL     1     -11.294   1.634 -32.997  1.00  0.00     0.163 HD
HETATM   32  O   UNL     1      -9.924   0.222 -33.077  1.00  0.00    -0.272 OA
ENDBRANCH  23  24
ENDBRANCH  21  23
ENDBRANCH   1  21
TORSDOF 8
ENDMDL
MODEL 5
REMARK VINA RESULT:      -8.1      4.040      9.841
REMARK  8 active torsions:
REMARK  status: ('A' for Active; 'I' for Inactive)
REMARK       I    between atoms: N_2  and  C_3 
REMARK       I    between atoms: C_3  and  N_4 
REMARK       I    between atoms: N_4  and  C_5 
REMARK    1  A    between atoms: C_5  and  C_6 
REMARK    2  A    between atoms: C_6  and  N_7 
REMARK    3  A    between atoms: N_7  and  C_8 
REMARK    4  A    between atoms: C_9  and  C_10 
REMARK       I    between atoms: C_10  and  N_11 
REMARK    5  A    between atoms: N_11  and  C_12 
REMARK    6  A    between atoms: C_12  and  C_13 
REMARK    7  A    between atoms: C_13  and  C_14 
REMARK    8  A    between atoms: C_17  and  O_18 
ROOT
HETATM    1  C   UNL     1      -7.103  -0.549 -34.130  1.00  0.00     0.024 A 
HETATM    2  C   UNL     1      -5.964   0.096 -33.599  1.00  0.00     0.053 A 
HETATM    3  C   UNL     1      -4.742  -0.595 -33.499  1.00  0.00     0.019 A 
HETATM    4  C   UNL     1      -4.644  -1.921 -33.918  1.00  0.00     0.001 A 
HETATM    5  C   UNL     1      -5.763  -2.567 -34.432  1.00  0.00     0.002 A 
HETATM    6  C   UNL     1      -6.981  -1.890 -34.531  1.00  0.00     0.024 A 
ENDROOT
BRANCH   2   7
HETATM    7  C   UNL     1      -5.998   1.509 -33.131  1.00  0.00     0.253 C 
HETATM    8  N   UNL     1      -6.125   2.467 -34.120  1.00  0.00    -0.357 N 
HETATM    9  H   UNL     1      -6.439   2.173 -35.037  1.00  0.00     0.162 HD
HETATM   10  O   UNL     1      -5.904   1.788 -31.942  1.00  0.00    -0.268 OA
BRANCH   8  11
HETATM   11  C   UNL     1      -6.268   3.868 -33.762  1.00  0.00     0.127 C 
BRANCH  11  12
HETATM   12  C   UNL     1      -5.161   4.751 -34.345  1.00  0.00     0.058 C 
BRANCH  12  13
HETATM   13  C   UNL     1      -3.850   4.838 -33.595  1.00  0.00    -0.057 A 
HETATM   14  C   UNL     1      -3.689   4.423 -32.269  1.00  0.00     0.010 A 
HETATM   15  C   UNL     1      -2.431   4.468 -31.658  1.00  0.00     0.037 A 
HETATM   16  C   UNL     1      -1.308   4.906 -32.361  1.00  0.00     0.068 A 
HETATM   17  C   UNL     1      -1.457   5.326 -33.680  1.00  0.00     0.037 A 
HETATM   18  C   UNL     1      -2.716   5.288 -34.290  1.00  0.00     0.010 A 
BRANCH  16  19
HETATM   19  O   UNL     1      -0.138   4.879 -31.655  1.00  0.00    -0.356 OA
HETATM   20  C   UNL     1       0.300   6.114 -31.101  1.00  0.00     0.210 C 
ENDBRANCH  16  19
ENDBRANCH  12  13
ENDBRANCH  11  12
ENDBRANCH   8  11
ENDBRANCH   2   7
BRANCH   1  21
HETATM   21  N   UNL     1      -8.367   0.073 -34.251  1.00  0.00    -0.283 NA
HETATM   22  H   UNL     1      -8.851  -0.264 -35.083  1.00  0.00     0.128 HD
BRANCH  21  23
HETATM   23  C   UNL     1      -9.246  -0.136 -33.065  1.00  0.00     0.195 C 
BRANCH  23  24
HETATM   24  C   UNL     1     -10.303   0.974 -32.989  1.00  0.00     0.238 C 
HETATM   25  N   UNL     1     -11.555   0.543 -33.404  1.00  0.00    -0.278 N 
HETATM   26  C   UNL     1     -12.767   1.176 -33.375  1.00  0.00     0.322 C 
HETATM   27  H   UNL     1     -11.574  -0.405 -33.763  1.00  0.00     0.173 HD
HETATM   28  N   UNL     1     -12.759   2.447 -32.881  1.00  0.00    -0.347 N 
HETATM   29  O   UNL     1     -13.785   0.595 -33.746  1.00  0.00    -0.247 OA
HETATM   30  C   UNL     1     -13.942   3.264 -32.886  1.00  0.00     0.151 C 
HETATM   31  H   UNL     1     -11.846   2.890 -32.802  1.00  0.00     0.163 HD
HETATM   32  O   UNL     1     -10.045   2.117 -32.615  1.00  0.00    -0.272 OA
ENDBRANCH  23  24
ENDBRANCH  21  23
ENDBRANCH   1  21
TORSDOF 8
ENDMDL
MODEL 6
REMARK VINA RESULT:      -8.1      3.899     10.399
REMARK  8 active torsions:
REMARK  status: ('A' for Active; 'I' for Inactive)
REMARK       I    between atoms: N_2  and  C_3 
REMARK       I    between atoms: C_3  and  N_4 
REMARK       I    between atoms: N_4  and  C_5 
REMARK    1  A    between atoms: C_5  and  C_6 
REMARK    2  A    between atoms: C_6  and  N_7 
REMARK    3  A    between atoms: N_7  and  C_8 
REMARK    4  A    between atoms: C_9  and  C_10 
REMARK       I    between atoms: C_10  and  N_11 
REMARK    5  A    between atoms: N_11  and  C_12 
REMARK    6  A    between atoms: C_12  and  C_13 
REMARK    7  A    between atoms: C_13  and  C_14 
REMARK    8  A    between atoms: C_17  and  O_18 
ROOT
HETATM    1  C   UNL     1      -6.538  -0.566 -33.546  1.00  0.00     0.024 A 
HETATM    2  C   UNL     1      -5.176  -0.675 -33.188  1.00  0.00     0.053 A 
HETATM    3  C   UNL     1      -4.424  -1.792 -33.593  1.00  0.00     0.019 A 
HETATM    4  C   UNL     1      -5.015  -2.806 -34.346  1.00  0.00     0.001 A 
HETATM    5  C   UNL     1      -6.359  -2.713 -34.694  1.00  0.00     0.002 A 
HETATM    6  C   UNL     1      -7.113  -1.608 -34.293  1.00  0.00     0.024 A 
ENDROOT
BRANCH   2   7
HETATM    7  C   UNL     1      -4.481   0.368 -32.383  1.00  0.00     0.253 C 
HETATM    8  N   UNL     1      -4.706   1.677 -32.772  1.00  0.00    -0.357 N 
HETATM    9  H   UNL     1      -5.494   1.869 -33.379  1.00  0.00     0.162 HD
HETATM   10  O   UNL     1      -3.750   0.069 -31.447  1.00  0.00    -0.268 OA
BRANCH   8  11
HETATM   11  C   UNL     1      -4.156   2.772 -31.992  1.00  0.00     0.127 C 
BRANCH  11  12
HETATM   12  C   UNL     1      -2.883   3.363 -32.605  1.00  0.00     0.058 C 
BRANCH  12  13
HETATM   13  C   UNL     1      -2.621   4.841 -32.413  1.00  0.00    -0.057 A 
HETATM   14  C   UNL     1      -1.339   5.400 -32.378  1.00  0.00     0.010 A 
HETATM   15  C   UNL     1      -1.171   6.785 -32.267  1.00  0.00     0.037 A 
HETATM   16  C   UNL     1      -2.273   7.638 -32.210  1.00  0.00     0.068 A 
HETATM   17  C   UNL     1      -3.554   7.093 -32.240  1.00  0.00     0.037 A 
HETATM   18  C   UNL     1      -3.723   5.708 -32.344  1.00  0.00     0.010 A 
BRANCH  16  19
HETATM   19  O   UNL     1      -1.969   8.969 -32.125  1.00  0.00    -0.356 OA
HETATM   20  C   UNL     1      -2.339   9.630 -30.921  1.00  0.00     0.210 C 
ENDBRANCH  16  19
ENDBRANCH  12  13
ENDBRANCH  11  12
ENDBRANCH   8  11
ENDBRANCH   2   7
BRANCH   1  21
HETATM   21  N   UNL     1      -7.361   0.518 -33.166  1.00  0.00    -0.283 NA
HETATM   22  H   UNL     1      -6.791   1.313 -32.875  1.00  0.00     0.128 HD
BRANCH  21  23
HETATM   23  C   UNL     1      -8.291   0.962 -34.242  1.00  0.00     0.195 C 
BRANCH  23  24
HETATM   24  C   UNL     1      -9.744   0.876 -33.754  1.00  0.00     0.238 C 
HETATM   25  N   UNL     1     -10.647   1.364 -34.688  1.00  0.00    -0.278 N 
HETATM   26  C   UNL     1     -12.014   1.354 -34.691  1.00  0.00     0.322 C 
HETATM   27  H   UNL     1     -10.218   1.769 -35.513  1.00  0.00     0.173 HD
HETATM   28  N   UNL     1     -12.604   0.799 -33.594  1.00  0.00    -0.347 N 
HETATM   29  O   UNL     1     -12.640   1.796 -35.652  1.00  0.00    -0.247 OA
HETATM   30  C   UNL     1     -14.031   0.813 -33.418  1.00  0.00     0.151 C 
HETATM   31  H   UNL     1     -12.002   0.660 -32.785  1.00  0.00     0.163 HD
HETATM   32  O   UNL     1     -10.051   0.436 -32.647  1.00  0.00    -0.272 OA
ENDBRANCH  23  24
ENDBRANCH  21  23
ENDBRANCH   1  21
TORSDOF 8
ENDMDL
MODEL 7
REMARK VINA RESULT:      -8.1      5.449      9.132
REMARK  8 active torsions:
REMARK  status: ('A' for Active; 'I' for Inactive)
REMARK       I    between atoms: N_2  and  C_3 
REMARK       I    between atoms: C_3  and  N_4 
REMARK       I    between atoms: N_4  and  C_5 
REMARK    1  A    between atoms: C_5  and  C_6 
REMARK    2  A    between atoms: C_6  and  N_7 
REMARK    3  A    between atoms: N_7  and  C_8 
REMARK    4  A    between atoms: C_9  and  C_10 
REMARK       I    between atoms: C_10  and  N_11 
REMARK    5  A    between atoms: N_11  and  C_12 
REMARK    6  A    between atoms: C_12  and  C_13 
REMARK    7  A    between atoms: C_13  and  C_14 
REMARK    8  A    between atoms: C_17  and  O_18 
ROOT
HETATM    1  C   UNL     1      -5.549  -2.368 -34.230  1.00  0.00     0.024 A 
HETATM    2  C   UNL     1      -4.421  -2.806 -33.500  1.00  0.00     0.053 A 
HETATM    3  C   UNL     1      -3.993  -4.143 -33.593  1.00  0.00     0.019 A 
HETATM    4  C   UNL     1      -4.680  -5.050 -34.399  1.00  0.00     0.001 A 
HETATM    5  C   UNL     1      -5.798  -4.631 -35.112  1.00  0.00     0.002 A 
HETATM    6  C   UNL     1      -6.231  -3.306 -35.023  1.00  0.00     0.024 A 
ENDROOT
BRANCH   2   7
HETATM    7  C   UNL     1      -3.643  -1.893 -32.618  1.00  0.00     0.253 C 
HETATM    8  N   UNL     1      -3.828  -0.540 -32.841  1.00  0.00    -0.357 N 
HETATM    9  H   UNL     1      -4.635  -0.247 -33.379  1.00  0.00     0.162 HD
HETATM   10  O   UNL     1      -2.881  -2.328 -31.764  1.00  0.00    -0.268 OA
BRANCH   8  11
HETATM   11  C   UNL     1      -3.193   0.434 -31.970  1.00  0.00     0.127 C 
BRANCH  11  12
HETATM   12  C   UNL     1      -3.576   1.878 -32.306  1.00  0.00     0.058 C 
BRANCH  12  13
HETATM   13  C   UNL     1      -5.035   2.269 -32.204  1.00  0.00    -0.057 A 
HETATM   14  C   UNL     1      -5.914   1.733 -31.258  1.00  0.00     0.010 A 
HETATM   15  C   UNL     1      -7.234   2.191 -31.175  1.00  0.00     0.037 A 
HETATM   16  C   UNL     1      -7.694   3.205 -32.016  1.00  0.00     0.068 A 
HETATM   17  C   UNL     1      -6.829   3.744 -32.964  1.00  0.00     0.037 A 
HETATM   18  C   UNL     1      -5.511   3.281 -33.053  1.00  0.00     0.010 A 
BRANCH  16  19
HETATM   19  O   UNL     1      -8.996   3.575 -31.815  1.00  0.00    -0.356 OA
HETATM   20  C   UNL     1      -9.553   3.275 -30.542  1.00  0.00     0.210 C 
ENDBRANCH  16  19
ENDBRANCH  12  13
ENDBRANCH  11  12
ENDBRANCH   8  11
ENDBRANCH   2   7
BRANCH   1  21
HETATM   21  N   UNL     1      -6.046  -1.047 -34.179  1.00  0.00    -0.283 NA
HETATM   22  H   UNL     1      -6.030  -0.624 -35.108  1.00  0.00     0.128 HD
BRANCH  21  23
HETATM   23  C   UNL     1      -7.431  -0.954 -33.634  1.00  0.00     0.195 C 
BRANCH  23  24
HETATM   24  C   UNL     1      -8.146   0.274 -34.213  1.00  0.00     0.238 C 
HETATM   25  N   UNL     1      -9.448   0.395 -33.752  1.00  0.00    -0.278 N 
HETATM   26  C   UNL     1     -10.364   1.396 -33.928  1.00  0.00     0.322 C 
HETATM   27  H   UNL     1      -9.760  -0.374 -33.168  1.00  0.00     0.173 HD
HETATM   28  N   UNL     1      -9.954   2.444 -34.699  1.00  0.00    -0.347 N 
HETATM   29  O   UNL     1     -11.465   1.339 -33.385  1.00  0.00    -0.247 OA
HETATM   30  C   UNL     1     -10.846   3.515 -35.049  1.00  0.00     0.151 C 
HETATM   31  H   UNL     1      -9.117   2.287 -35.256  1.00  0.00     0.163 HD
HETATM   32  O   UNL     1      -7.611   1.045 -35.008  1.00  0.00    -0.272 OA
ENDBRANCH  23  24
ENDBRANCH  21  23
ENDBRANCH   1  21
TORSDOF 8
ENDMDL
MODEL 8
REMARK VINA RESULT:      -8.1      5.872      8.906
REMARK  8 active torsions:
REMARK  status: ('A' for Active; 'I' for Inactive)
REMARK       I    between atoms: N_2  and  C_3 
REMARK       I    between atoms: C_3  and  N_4 
REMARK       I    between atoms: N_4  and  C_5 
REMARK    1  A    between atoms: C_5  and  C_6 
REMARK    2  A    between atoms: C_6  and  N_7 
REMARK    3  A    between atoms: N_7  and  C_8 
REMARK    4  A    between atoms: C_9  and  C_10 
REMARK       I    between atoms: C_10  and  N_11 
REMARK    5  A    between atoms: N_11  and  C_12 
REMARK    6  A    between atoms: C_12  and  C_13 
REMARK    7  A    between atoms: C_13  and  C_14 
REMARK    8  A    between atoms: C_17  and  O_18 
ROOT
HETATM    1  C   UNL     1     -12.316   1.940 -34.431  1.00  0.00     0.024 A 
HETATM    2  C   UNL     1     -11.655   0.856 -33.813  1.00  0.00     0.053 A 
HETATM    3  C   UNL     1     -12.382  -0.279 -33.409  1.00  0.00     0.019 A 
HETATM    4  C   UNL     1     -13.760  -0.342 -33.608  1.00  0.00     0.001 A 
HETATM    5  C   UNL     1     -14.421   0.726 -34.206  1.00  0.00     0.002 A 
HETATM    6  C   UNL     1     -13.707   1.857 -34.608  1.00  0.00     0.024 A 
ENDROOT
BRANCH   2   7
HETATM    7  C   UNL     1     -10.186   0.858 -33.567  1.00  0.00     0.253 C 
HETATM    8  N   UNL     1      -9.394   1.173 -34.656  1.00  0.00    -0.357 N 
HETATM    9  H   UNL     1      -9.829   1.622 -35.453  1.00  0.00     0.162 HD
HETATM   10  O   UNL     1      -9.725   0.581 -32.466  1.00  0.00    -0.268 OA
BRANCH   8  11
HETATM   11  C   UNL     1      -7.956   1.300 -34.497  1.00  0.00     0.127 C 
BRANCH  11  12
HETATM   12  C   UNL     1      -7.181   0.122 -35.095  1.00  0.00     0.058 C 
BRANCH  12  13
HETATM   13  C   UNL     1      -6.047  -0.469 -34.286  1.00  0.00    -0.057 A 
HETATM   14  C   UNL     1      -5.383   0.222 -33.267  1.00  0.00     0.010 A 
HETATM   15  C   UNL     1      -4.388  -0.409 -32.512  1.00  0.00     0.037 A 
HETATM   16  C   UNL     1      -4.052  -1.743 -32.743  1.00  0.00     0.068 A 
HETATM   17  C   UNL     1      -4.703  -2.440 -33.756  1.00  0.00     0.037 A 
HETATM   18  C   UNL     1      -5.693  -1.808 -34.517  1.00  0.00     0.010 A 
BRANCH  16  19
HETATM   19  O   UNL     1      -3.081  -2.244 -31.920  1.00  0.00    -0.356 OA
HETATM   20  C   UNL     1      -2.979  -3.661 -31.846  1.00  0.00     0.210 C 
ENDBRANCH  16  19
ENDBRANCH  12  13
ENDBRANCH  11  12
ENDBRANCH   8  11
ENDBRANCH   2   7
BRANCH   1  21
HETATM   21  N   UNL     1     -11.657   3.118 -34.853  1.00  0.00    -0.283 NA
HETATM   22  H   UNL     1     -11.889   3.327 -35.825  1.00  0.00     0.128 HD
BRANCH  21  23
HETATM   23  C   UNL     1     -11.978   4.309 -34.016  1.00  0.00     0.195 C 
BRANCH  23  24
HETATM   24  C   UNL     1     -10.776   4.673 -33.134  1.00  0.00     0.238 C 
HETATM   25  N   UNL     1      -9.577   4.641 -33.831  1.00  0.00    -0.278 N 
HETATM   26  C   UNL     1      -8.317   5.011 -33.450  1.00  0.00     0.322 C 
HETATM   27  H   UNL     1      -9.658   4.314 -34.788  1.00  0.00     0.173 HD
HETATM   28  N   UNL     1      -8.196   5.467 -32.170  1.00  0.00    -0.347 N 
HETATM   29  O   UNL     1      -7.382   4.954 -34.245  1.00  0.00    -0.247 OA
HETATM   30  C   UNL     1      -6.916   5.794 -31.606  1.00  0.00     0.151 C 
HETATM   31  H   UNL     1      -8.981   5.275 -31.552  1.00  0.00     0.163 HD
HETATM   32  O   UNL     1     -10.883   4.945 -31.939  1.00  0.00    -0.272 OA
ENDBRANCH  23  24
ENDBRANCH  21  23
ENDBRANCH   1  21
TORSDOF 8
ENDMDL
MODEL 9
REMARK VINA RESULT:      -8.0      4.828      9.536
REMARK  8 active torsions:
REMARK  status: ('A' for Active; 'I' for Inactive)
REMARK       I    between atoms: N_2  and  C_3 
REMARK       I    between atoms: C_3  and  N_4 
REMARK       I    between atoms: N_4  and  C_5 
REMARK    1  A    between atoms: C_5  and  C_6 
REMARK    2  A    between atoms: C_6  and  N_7 
REMARK    3  A    between atoms: N_7  and  C_8 
REMARK    4  A    between atoms: C_9  and  C_10 
REMARK       I    between atoms: C_10  and  N_11 
REMARK    5  A    between atoms: N_11  and  C_12 
REMARK    6  A    between atoms: C_12  and  C_13 
REMARK    7  A    between atoms: C_13  and  C_14 
REMARK    8  A    between atoms: C_17  and  O_18 
ROOT
HETATM    1  C   UNL     1      -6.485  -0.743 -33.526  1.00  0.00     0.024 A 
HETATM    2  C   UNL     1      -5.159  -0.853 -33.055  1.00  0.00     0.053 A 
HETATM    3  C   UNL     1      -4.354  -1.937 -33.451  1.00  0.00     0.019 A 
HETATM    4  C   UNL     1      -4.859  -2.915 -34.307  1.00  0.00     0.001 A 
HETATM    5  C   UNL     1      -6.168  -2.821 -34.768  1.00  0.00     0.002 A 
HETATM    6  C   UNL     1      -6.974  -1.749 -34.377  1.00  0.00     0.024 A 
ENDROOT
BRANCH   2   7
HETATM    7  C   UNL     1      -4.556   0.152 -32.136  1.00  0.00     0.253 C 
HETATM    8  N   UNL     1      -4.492   1.446 -32.621  1.00  0.00    -0.357 N 
HETATM    9  H   UNL     1      -5.064   1.689 -33.421  1.00  0.00     0.162 HD
HETATM   10  O   UNL     1      -4.137  -0.166 -31.031  1.00  0.00    -0.268 OA
BRANCH   8  11
HETATM   11  C   UNL     1      -4.014   2.520 -31.767  1.00  0.00     0.127 C 
BRANCH  11  12
HETATM   12  C   UNL     1      -4.682   3.865 -32.065  1.00  0.00     0.058 C 
BRANCH  12  13
HETATM   13  C   UNL     1      -6.176   3.879 -32.309  1.00  0.00    -0.057 A 
HETATM   14  C   UNL     1      -7.121   3.543 -31.334  1.00  0.00     0.010 A 
HETATM   15  C   UNL     1      -8.490   3.644 -31.607  1.00  0.00     0.037 A 
HETATM   16  C   UNL     1      -8.942   4.102 -32.845  1.00  0.00     0.068 A 
HETATM   17  C   UNL     1      -8.011   4.436 -33.825  1.00  0.00     0.037 A 
HETATM   18  C   UNL     1      -6.641   4.328 -33.556  1.00  0.00     0.010 A 
BRANCH  16  19
HETATM   19  O   UNL     1     -10.301   4.175 -32.973  1.00  0.00    -0.356 OA
HETATM   20  C   UNL     1     -11.069   3.778 -31.843  1.00  0.00     0.210 C 
ENDBRANCH  16  19
ENDBRANCH  12  13
ENDBRANCH  11  12
ENDBRANCH   8  11
ENDBRANCH   2   7
BRANCH   1  21
HETATM   21  N   UNL     1      -7.358   0.308 -33.163  1.00  0.00    -0.283 NA
HETATM   22  H   UNL     1      -6.825   1.122 -32.855  1.00  0.00     0.128 HD
BRANCH  21  23
HETATM   23  C   UNL     1      -8.277   0.723 -34.262  1.00  0.00     0.195 C 
BRANCH  23  24
HETATM   24  C   UNL     1      -9.722   0.782 -33.747  1.00  0.00     0.238 C 
HETATM   25  N   UNL     1     -10.592   1.337 -34.674  1.00  0.00    -0.278 N 
HETATM   26  C   UNL     1     -11.954   1.457 -34.654  1.00  0.00     0.322 C 
HETATM   27  H   UNL     1     -10.143   1.686 -35.514  1.00  0.00     0.173 HD
HETATM   28  N   UNL     1     -12.573   0.978 -33.537  1.00  0.00    -0.347 N 
HETATM   29  O   UNL     1     -12.554   1.939 -35.612  1.00  0.00    -0.247 OA
HETATM   30  C   UNL     1     -13.988   1.129 -33.338  1.00  0.00     0.151 C 
HETATM   31  H   UNL     1     -11.972   0.796 -32.736  1.00  0.00     0.163 HD
HETATM   32  O   UNL     1     -10.049   0.391 -32.628  1.00  0.00    -0.272 OA
ENDBRANCH  23  24
ENDBRANCH  21  23
ENDBRANCH   1  21
TORSDOF 8
ENDMDL
MODEL 10
REMARK VINA RESULT:      -8.0      5.237      7.874
REMARK  8 active torsions:
REMARK  status: ('A' for Active; 'I' for Inactive)
REMARK       I    between atoms: N_2  and  C_3 
REMARK       I    between atoms: C_3  and  N_4 
REMARK       I    between atoms: N_4  and  C_5 
REMARK    1  A    between atoms: C_5  and  C_6 
REMARK    2  A    between atoms: C_6  and  N_7 
REMARK    3  A    between atoms: N_7  and  C_8 
REMARK    4  A    between atoms: C_9  and  C_10 
REMARK       I    between atoms: C_10  and  N_11 
REMARK    5  A    between atoms: N_11  and  C_12 
REMARK    6  A    between atoms: C_12  and  C_13 
REMARK    7  A    between atoms: C_13  and  C_14 
REMARK    8  A    between atoms: C_17  and  O_18 
ROOT
HETATM    1  C   UNL     1      -6.209  -0.261 -32.425  1.00  0.00     0.024 A 
HETATM    2  C   UNL     1      -7.353  -0.390 -33.242  1.00  0.00     0.053 A 
HETATM    3  C   UNL     1      -7.341  -1.265 -34.344  1.00  0.00     0.019 A 
HETATM    4  C   UNL     1      -6.201  -2.007 -34.644  1.00  0.00     0.001 A 
HETATM    5  C   UNL     1      -5.065  -1.878 -33.852  1.00  0.00     0.002 A 
HETATM    6  C   UNL     1      -5.067  -1.010 -32.758  1.00  0.00     0.024 A 
ENDROOT
BRANCH   2   7
HETATM    7  C   UNL     1      -8.604   0.374 -32.982  1.00  0.00     0.253 C 
HETATM    8  N   UNL     1      -8.893   1.381 -33.885  1.00  0.00    -0.357 N 
HETATM    9  H   UNL     1      -8.413   1.378 -34.778  1.00  0.00     0.162 HD
HETATM   10  O   UNL     1      -9.315   0.124 -32.016  1.00  0.00    -0.268 OA
BRANCH   8  11
HETATM   11  C   UNL     1     -10.139   2.119 -33.779  1.00  0.00     0.127 C 
BRANCH  11  12
HETATM   12  C   UNL     1     -11.279   1.489 -34.583  1.00  0.00     0.058 C 
BRANCH  12  13
HETATM   13  C   UNL     1     -12.682   1.579 -34.022  1.00  0.00    -0.057 A 
HETATM   14  C   UNL     1     -13.092   2.569 -33.123  1.00  0.00     0.010 A 
HETATM   15  C   UNL     1     -14.424   2.635 -32.697  1.00  0.00     0.037 A 
HETATM   16  C   UNL     1     -15.373   1.730 -33.174  1.00  0.00     0.068 A 
HETATM   17  C   UNL     1     -14.976   0.738 -34.066  1.00  0.00     0.037 A 
HETATM   18  C   UNL     1     -13.643   0.667 -34.487  1.00  0.00     0.010 A 
BRANCH  16  19
HETATM   19  O   UNL     1     -16.641   1.919 -32.696  1.00  0.00    -0.356 OA
HETATM   20  C   UNL     1     -16.907   3.169 -32.072  1.00  0.00     0.210 C 
ENDBRANCH  16  19
ENDBRANCH  12  13
ENDBRANCH  11  12
ENDBRANCH   8  11
ENDBRANCH   2   7
BRANCH   1  21
HETATM   21  N   UNL     1      -6.139   0.604 -31.310  1.00  0.00    -0.283 NA
HETATM   22  H   UNL     1      -6.558   0.163 -30.490  1.00  0.00     0.128 HD
BRANCH  21  23
HETATM   23  C   UNL     1      -4.749   1.025 -30.971  1.00  0.00     0.195 C 
BRANCH  23  24
HETATM   24  C   UNL     1      -4.503   2.464 -31.445  1.00  0.00     0.238 C 
HETATM   25  N   UNL     1      -3.222   2.907 -31.150  1.00  0.00    -0.278 N 
HETATM   26  C   UNL     1      -2.578   4.060 -31.503  1.00  0.00     0.322 C 
HETATM   27  H   UNL     1      -2.667   2.254 -30.607  1.00  0.00     0.173 HD
HETATM   28  N   UNL     1      -3.306   4.941 -32.246  1.00  0.00    -0.347 N 
HETATM   29  O   UNL     1      -1.406   4.245 -31.182  1.00  0.00    -0.247 OA
HETATM   30  C   UNL     1      -2.789   6.235 -32.601  1.00  0.00     0.151 C 
HETATM   31  H   UNL     1      -4.310   4.780 -32.272  1.00  0.00     0.163 HD
HETATM   32  O   UNL     1      -5.364   3.138 -32.007  1.00  0.00    -0.272 OA
ENDBRANCH  23  24
ENDBRANCH  21  23
ENDBRANCH   1  21
TORSDOF 8
ENDMDL
