MODEL 1
REMARK VINA RESULT:      -9.4      0.000      0.000
REMARK  6 active torsions:
REMARK  status: ('A' for Active; 'I' for Inactive)
REMARK    1  A    between atoms: C_6  and  C_7 
REMARK    2  A    between atoms: C_7  and  N_8 
REMARK    3  A    between atoms: C_12  and  C_13 
REMARK    4  A    between atoms: C_13  and  C_14 
REMARK    5  A    between atoms: N_23  and  C_24 
REMARK    6  A    between atoms: C_24  and  C_25 
ROOT
HETATM    1  C   UNL     1      -6.955   1.892 -32.716  1.00  0.00     0.149 C 
HETATM    2  N   UNL     1      -7.492   1.706 -34.057  1.00  0.00    -0.220 NA
HETATM    3  C   UNL     1      -6.818   0.706 -34.729  1.00  0.00     0.304 C 
HETATM    4  O   UNL     1      -6.986   0.489 -35.916  1.00  0.00    -0.253 OA
HETATM    5  N   UNL     1      -6.002   0.054 -33.865  1.00  0.00    -0.270 N 
HETATM    6  C   UNL     1      -6.045   0.645 -32.636  1.00  0.00     0.257 C 
HETATM    7  O   UNL     1      -5.468   0.257 -31.630  1.00  0.00    -0.270 OA
HETATM    8  H   UNL     1      -7.605   2.537 -34.636  1.00  0.00     0.134 HD
ENDROOT
BRANCH   1   9
HETATM    9  C   UNL     1      -8.065   1.866 -31.616  1.00  0.00     0.028 C 
HETATM   10  C   UNL     1      -9.094   0.725 -31.776  1.00  0.00     0.035 C 
HETATM   11  C   UNL     1     -10.162   0.965 -32.840  1.00  0.00     0.235 C 
HETATM   12  N   UNL     1     -10.829   2.303 -32.634  1.00  0.00    -0.067 N 
HETATM   13  H   UNL     1     -11.334   2.245 -31.742  1.00  0.00     0.280 HD
HETATM   14  C   UNL     1      -9.855   3.452 -32.543  1.00  0.00     0.235 C 
HETATM   15  C   UNL     1      -8.843   3.185 -31.441  1.00  0.00     0.035 C 
BRANCH  12  16
HETATM   16  C   UNL     1     -11.885   2.593 -33.690  1.00  0.00     0.273 C 
BRANCH  16  17
HETATM   17  C   UNL     1     -13.300   2.560 -33.171  1.00  0.00    -0.027 A 
HETATM   18  C   UNL     1     -14.147   1.443 -33.335  1.00  0.00    -0.054 A 
HETATM   19  C   UNL     1     -15.472   1.514 -32.867  1.00  0.00     0.014 A 
HETATM   20  C   UNL     1     -13.690   0.165 -33.986  1.00  0.00     0.049 C 
HETATM   21  C   UNL     1     -15.957   2.656 -32.219  1.00  0.00    -0.061 A 
HETATM   22  C   UNL     1     -17.379   2.721 -31.742  1.00  0.00     0.048 C 
HETATM   23  C   UNL     1     -15.113   3.754 -32.057  1.00  0.00     0.007 A 
HETATM   24  C   UNL     1     -13.799   3.705 -32.521  1.00  0.00     0.010 A 
ENDBRANCH  16  17
ENDBRANCH  12  16
ENDBRANCH   1   9
BRANCH   1  25
HETATM   25  C   UNL     1      -6.129   3.178 -32.681  1.00  0.00     0.067 A 
HETATM   26  N   UNL     1      -5.385   3.365 -31.550  1.00  0.00    -0.263 NA
HETATM   27  C   UNL     1      -4.656   4.502 -31.464  1.00  0.00     0.117 A 
HETATM   28  C   UNL     1      -4.593   5.450 -32.469  1.00  0.00     0.019 A 
HETATM   29  C   UNL     1      -5.320   5.226 -33.632  1.00  0.00     0.003 A 
HETATM   30  C   UNL     1      -6.096   4.076 -33.746  1.00  0.00     0.030 A 
ENDBRANCH   1  25
BRANCH   5  31
HETATM   31  C   UNL     1      -5.131  -1.047 -34.230  1.00  0.00     0.168 C 
BRANCH  31  32
HETATM   32  C   UNL     1      -5.686  -2.423 -33.857  1.00  0.00     0.140 C 
HETATM   33  O   UNL     1      -4.615  -3.387 -33.902  1.00  0.00    -0.384 OA
HETATM   34  C   UNL     1      -5.028  -4.497 -34.708  1.00  0.00     0.168 C 
HETATM   35  C   UNL     1      -6.536  -4.427 -34.771  1.00  0.00     0.029 C 
HETATM   36  C   UNL     1      -6.771  -2.937 -34.796  1.00  0.00     0.036 C 
ENDBRANCH  31  32
ENDBRANCH   5  31
TORSDOF 6
ENDMDL
MODEL 2
REMARK VINA RESULT:      -9.1      3.146      9.137
REMARK  6 active torsions:
REMARK  status: ('A' for Active; 'I' for Inactive)
REMARK    1  A    between atoms: C_6  and  C_7 
REMARK    2  A    between atoms: C_7  and  N_8 
REMARK    3  A    between atoms: C_12  and  C_13 
REMARK    4  A    between atoms: C_13  and  C_14 
REMARK    5  A    between atoms: N_23  and  C_24 
REMARK    6  A    between atoms: C_24  and  C_25 
ROOT
HETATM    1  C   UNL     1      -5.999   1.896 -32.394  1.00  0.00     0.149 C 
HETATM    2  N   UNL     1      -5.886   3.023 -33.309  1.00  0.00    -0.220 NA
HETATM    3  C   UNL     1      -7.102   3.657 -33.472  1.00  0.00     0.304 C 
HETATM    4  O   UNL     1      -7.281   4.520 -34.313  1.00  0.00    -0.253 OA
HETATM    5  N   UNL     1      -7.987   3.172 -32.567  1.00  0.00    -0.270 N 
HETATM    6  C   UNL     1      -7.421   2.161 -31.847  1.00  0.00     0.257 C 
HETATM    7  O   UNL     1      -7.942   1.561 -30.917  1.00  0.00    -0.270 OA
HETATM    8  H   UNL     1      -5.428   2.855 -34.204  1.00  0.00     0.134 HD
ENDROOT
BRANCH   1   9
HETATM    9  C   UNL     1      -4.929   1.936 -31.256  1.00  0.00     0.028 C 
HETATM   10  C   UNL     1      -5.275   2.886 -30.089  1.00  0.00     0.035 C 
HETATM   11  C   UNL     1      -5.027   4.367 -30.368  1.00  0.00     0.235 C 
HETATM   12  N   UNL     1      -3.623   4.585 -30.877  1.00  0.00    -0.067 N 
HETATM   13  H   UNL     1      -2.989   4.338 -30.109  1.00  0.00     0.280 HD
HETATM   14  C   UNL     1      -3.274   3.722 -32.063  1.00  0.00     0.235 C 
HETATM   15  C   UNL     1      -3.494   2.258 -31.720  1.00  0.00     0.035 C 
BRANCH  12  16
HETATM   16  C   UNL     1      -3.341   6.047 -31.192  1.00  0.00     0.273 C 
BRANCH  16  17
HETATM   17  C   UNL     1      -2.155   6.617 -30.457  1.00  0.00    -0.027 A 
HETATM   18  C   UNL     1      -0.855   6.635 -31.005  1.00  0.00    -0.054 A 
HETATM   19  C   UNL     1       0.208   7.137 -30.230  1.00  0.00     0.014 A 
HETATM   20  C   UNL     1      -0.552   6.146 -32.396  1.00  0.00     0.049 C 
HETATM   21  C   UNL     1      -0.003   7.642 -28.942  1.00  0.00    -0.061 A 
HETATM   22  C   UNL     1       1.146   8.157 -28.123  1.00  0.00     0.048 C 
HETATM   23  C   UNL     1      -1.291   7.624 -28.409  1.00  0.00     0.007 A 
HETATM   24  C   UNL     1      -2.355   7.124 -29.158  1.00  0.00     0.010 A 
ENDBRANCH  16  17
ENDBRANCH  12  16
ENDBRANCH   1   9
BRANCH   1  25
HETATM   25  C   UNL     1      -5.953   0.594 -33.193  1.00  0.00     0.067 A 
HETATM   26  N   UNL     1      -5.094  -0.355 -32.717  1.00  0.00    -0.263 NA
HETATM   27  C   UNL     1      -5.001  -1.516 -33.408  1.00  0.00     0.117 A 
HETATM   28  C   UNL     1      -5.754  -1.802 -34.531  1.00  0.00     0.019 A 
HETATM   29  C   UNL     1      -6.656  -0.844 -34.979  1.00  0.00     0.003 A 
HETATM   30  C   UNL     1      -6.764   0.369 -34.305  1.00  0.00     0.030 A 
ENDBRANCH   1  25
BRANCH   5  31
HETATM   31  C   UNL     1      -9.368   3.600 -32.458  1.00  0.00     0.168 C 
BRANCH  31  32
HETATM   32  C   UNL     1     -10.291   2.983 -33.510  1.00  0.00     0.140 C 
HETATM   33  O   UNL     1     -11.597   3.584 -33.397  1.00  0.00    -0.384 OA
HETATM   34  C   UNL     1     -12.577   2.542 -33.309  1.00  0.00     0.168 C 
HETATM   35  C   UNL     1     -11.910   1.297 -33.845  1.00  0.00     0.029 C 
HETATM   36  C   UNL     1     -10.493   1.479 -33.362  1.00  0.00     0.036 C 
ENDBRANCH  31  32
ENDBRANCH   5  31
TORSDOF 6
ENDMDL
MODEL 3
REMARK VINA RESULT:      -8.9      3.902      7.633
REMARK  6 active torsions:
REMARK  status: ('A' for Active; 'I' for Inactive)
REMARK    1  A    between atoms: C_6  and  C_7 
REMARK    2  A    between atoms: C_7  and  N_8 
REMARK    3  A    between atoms: C_12  and  C_13 
REMARK    4  A    between atoms: C_13  and  C_14 
REMARK    5  A    between atoms: N_23  and  C_24 
REMARK    6  A    between atoms: C_24  and  C_25 
ROOT
HETATM    1  C   UNL     1      -4.403   5.285 -31.722  1.00  0.00     0.149 C 
HETATM    2  N   UNL     1      -4.709   4.476 -30.551  1.00  0.00    -0.220 NA
HETATM    3  C   UNL     1      -5.921   4.838 -29.997  1.00  0.00     0.304 C 
HETATM    4  O   UNL     1      -6.302   4.411 -28.921  1.00  0.00    -0.253 OA
HETATM    5  N   UNL     1      -6.560   5.692 -30.833  1.00  0.00    -0.270 N 
HETATM    6  C   UNL     1      -5.770   5.983 -31.907  1.00  0.00     0.257 C 
HETATM    7  O   UNL     1      -6.084   6.676 -32.865  1.00  0.00    -0.270 OA
HETATM    8  H   UNL     1      -3.984   4.387 -29.840  1.00  0.00     0.134 HD
ENDROOT
BRANCH   1   9
HETATM    9  C   UNL     1      -4.025   4.421 -32.967  1.00  0.00     0.028 C 
HETATM   10  C   UNL     1      -5.233   3.804 -33.705  1.00  0.00     0.035 C 
HETATM   11  C   UNL     1      -5.835   2.570 -33.037  1.00  0.00     0.235 C 
HETATM   12  N   UNL     1      -4.765   1.545 -32.750  1.00  0.00    -0.067 N 
HETATM   13  H   UNL     1      -4.412   1.225 -33.659  1.00  0.00     0.280 HD
HETATM   14  C   UNL     1      -3.599   2.097 -31.969  1.00  0.00     0.235 C 
HETATM   15  C   UNL     1      -3.009   3.294 -32.697  1.00  0.00     0.035 C 
BRANCH  12  16
HETATM   16  C   UNL     1      -5.318   0.306 -32.060  1.00  0.00     0.273 C 
BRANCH  16  17
HETATM   17  C   UNL     1      -5.568  -0.855 -32.989  1.00  0.00    -0.027 A 
HETATM   18  C   UNL     1      -6.838  -1.134 -33.537  1.00  0.00    -0.054 A 
HETATM   19  C   UNL     1      -6.996  -2.270 -34.353  1.00  0.00     0.014 A 
HETATM   20  C   UNL     1      -8.039  -0.259 -33.294  1.00  0.00     0.049 C 
HETATM   21  C   UNL     1      -5.917  -3.110 -34.654  1.00  0.00    -0.061 A 
HETATM   22  C   UNL     1      -6.109  -4.327 -35.511  1.00  0.00     0.048 C 
HETATM   23  C   UNL     1      -4.665  -2.825 -34.111  1.00  0.00     0.007 A 
HETATM   24  C   UNL     1      -4.490  -1.708 -33.294  1.00  0.00     0.010 A 
ENDBRANCH  16  17
ENDBRANCH  12  16
ENDBRANCH   1   9
BRANCH   1  25
HETATM   25  C   UNL     1      -3.315   6.297 -31.361  1.00  0.00     0.067 A 
HETATM   26  N   UNL     1      -3.027   6.396 -30.029  1.00  0.00    -0.263 NA
HETATM   27  C   UNL     1      -2.086   7.297 -29.660  1.00  0.00     0.117 A 
HETATM   28  C   UNL     1      -1.382   8.080 -30.556  1.00  0.00     0.019 A 
HETATM   29  C   UNL     1      -1.654   7.937 -31.911  1.00  0.00     0.003 A 
HETATM   30  C   UNL     1      -2.629   7.034 -32.324  1.00  0.00     0.030 A 
ENDBRANCH   1  25
BRANCH   5  31
HETATM   31  C   UNL     1      -7.855   6.288 -30.566  1.00  0.00     0.168 C 
BRANCH  31  32
HETATM   32  C   UNL     1      -9.036   5.427 -31.015  1.00  0.00     0.140 C 
HETATM   33  O   UNL     1      -9.397   4.532 -29.944  1.00  0.00    -0.384 OA
HETATM   34  C   UNL     1      -9.459   3.196 -30.461  1.00  0.00     0.168 C 
HETATM   35  C   UNL     1      -9.599   3.337 -31.959  1.00  0.00     0.029 C 
HETATM   36  C   UNL     1      -8.749   4.554 -32.231  1.00  0.00     0.036 C 
ENDBRANCH  31  32
ENDBRANCH   5  31
TORSDOF 6
ENDMDL
MODEL 4
REMARK VINA RESULT:      -8.7      3.834      9.667
REMARK  6 active torsions:
REMARK  status: ('A' for Active; 'I' for Inactive)
REMARK    1  A    between atoms: C_6  and  C_7 
REMARK    2  A    between atoms: C_7  and  N_8 
REMARK    3  A    between atoms: C_12  and  C_13 
REMARK    4  A    between atoms: C_13  and  C_14 
REMARK    5  A    between atoms: N_23  and  C_24 
REMARK    6  A    between atoms: C_24  and  C_25 
ROOT
HETATM    1  C   UNL     1      -6.202   2.275 -32.435  1.00  0.00     0.149 C 
HETATM    2  N   UNL     1      -6.006   3.395 -33.346  1.00  0.00    -0.220 NA
HETATM    3  C   UNL     1      -7.126   4.201 -33.392  1.00  0.00     0.304 C 
HETATM    4  O   UNL     1      -7.250   5.100 -34.206  1.00  0.00    -0.253 OA
HETATM    5  N   UNL     1      -7.989   3.829 -32.416  1.00  0.00    -0.270 N 
HETATM    6  C   UNL     1      -7.516   2.730 -31.760  1.00  0.00     0.257 C 
HETATM    7  O   UNL     1      -8.035   2.190 -30.792  1.00  0.00    -0.270 OA
HETATM    8  H   UNL     1      -5.657   3.183 -34.280  1.00  0.00     0.134 HD
ENDROOT
BRANCH   1   9
HETATM    9  C   UNL     1      -5.041   2.134 -31.398  1.00  0.00     0.028 C 
HETATM   10  C   UNL     1      -5.037   3.215 -30.296  1.00  0.00     0.035 C 
HETATM   11  C   UNL     1      -4.482   4.571 -30.725  1.00  0.00     0.235 C 
HETATM   12  N   UNL     1      -3.125   4.413 -31.366  1.00  0.00    -0.067 N 
HETATM   13  H   UNL     1      -2.492   4.073 -30.634  1.00  0.00     0.280 HD
HETATM   14  C   UNL     1      -3.108   3.414 -32.496  1.00  0.00     0.235 C 
HETATM   15  C   UNL     1      -3.626   2.071 -32.007  1.00  0.00     0.035 C 
BRANCH  12  16
HETATM   16  C   UNL     1      -2.546   5.741 -31.832  1.00  0.00     0.273 C 
BRANCH  16  17
HETATM   17  C   UNL     1      -1.633   6.400 -30.829  1.00  0.00    -0.027 A 
HETATM   18  C   UNL     1      -1.995   7.562 -30.117  1.00  0.00    -0.054 A 
HETATM   19  C   UNL     1      -1.063   8.144 -29.237  1.00  0.00     0.014 A 
HETATM   20  C   UNL     1      -3.349   8.208 -30.247  1.00  0.00     0.049 C 
HETATM   21  C   UNL     1       0.202   7.580 -29.036  1.00  0.00    -0.061 A 
HETATM   22  C   UNL     1       1.191   8.224 -28.108  1.00  0.00     0.048 C 
HETATM   23  C   UNL     1       0.551   6.429 -29.742  1.00  0.00     0.007 A 
HETATM   24  C   UNL     1      -0.356   5.842 -30.623  1.00  0.00     0.010 A 
ENDBRANCH  16  17
ENDBRANCH  12  16
ENDBRANCH   1   9
BRANCH   1  25
HETATM   25  C   UNL     1      -6.416   0.999 -33.249  1.00  0.00     0.067 A 
HETATM   26  N   UNL     1      -6.736   1.190 -34.564  1.00  0.00    -0.263 NA
HETATM   27  C   UNL     1      -6.959   0.088 -35.317  1.00  0.00     0.117 A 
HETATM   28  C   UNL     1      -6.839  -1.205 -34.841  1.00  0.00     0.019 A 
HETATM   29  C   UNL     1      -6.470  -1.384 -33.513  1.00  0.00     0.003 A 
HETATM   30  C   UNL     1      -6.252  -0.273 -32.703  1.00  0.00     0.030 A 
ENDBRANCH   1  25
BRANCH   5  31
HETATM   31  C   UNL     1      -9.278   4.450 -32.179  1.00  0.00     0.168 C 
BRANCH  31  32
HETATM   32  C   UNL     1      -9.230   5.615 -31.189  1.00  0.00     0.140 C 
HETATM   33  O   UNL     1      -8.406   6.662 -31.739  1.00  0.00    -0.384 OA
HETATM   34  C   UNL     1      -7.429   7.041 -30.762  1.00  0.00     0.168 C 
HETATM   35  C   UNL     1      -7.957   6.550 -29.434  1.00  0.00     0.029 C 
HETATM   36  C   UNL     1      -8.631   5.261 -29.833  1.00  0.00     0.036 C 
ENDBRANCH  31  32
ENDBRANCH   5  31
TORSDOF 6
ENDMDL
MODEL 5
REMARK VINA RESULT:      -8.6      2.521      7.962
REMARK  6 active torsions:
REMARK  status: ('A' for Active; 'I' for Inactive)
REMARK    1  A    between atoms: C_6  and  C_7 
REMARK    2  A    between atoms: C_7  and  N_8 
REMARK    3  A    between atoms: C_12  and  C_13 
REMARK    4  A    between atoms: C_13  and  C_14 
REMARK    5  A    between atoms: N_23  and  C_24 
REMARK    6  A    between atoms: C_24  and  C_25 
ROOT
HETATM    1  C   UNL     1      -6.421  -0.306 -32.912  1.00  0.00     0.149 C 
HETATM    2  N   UNL     1      -5.786   0.798 -33.618  1.00  0.00    -0.220 NA
HETATM    3  C   UNL     1      -6.717   1.555 -34.301  1.00  0.00     0.304 C 
HETATM    4  O   UNL     1      -6.399   2.427 -35.089  1.00  0.00    -0.253 OA
HETATM    5  N   UNL     1      -7.964   1.170 -33.935  1.00  0.00    -0.270 N 
HETATM    6  C   UNL     1      -7.901   0.108 -33.080  1.00  0.00     0.257 C 
HETATM    7  O   UNL     1      -8.851  -0.429 -32.528  1.00  0.00    -0.270 OA
HETATM    8  H   UNL     1      -4.980   0.578 -34.203  1.00  0.00     0.134 HD
ENDROOT
BRANCH   1   9
HETATM    9  C   UNL     1      -6.009  -0.372 -31.406  1.00  0.00     0.028 C 
HETATM   10  C   UNL     1      -6.916   0.445 -30.461  1.00  0.00     0.035 C 
HETATM   11  C   UNL     1      -6.657   1.950 -30.461  1.00  0.00     0.235 C 
HETATM   12  N   UNL     1      -5.194   2.238 -30.229  1.00  0.00    -0.067 N 
HETATM   13  H   UNL     1      -4.978   1.919 -29.278  1.00  0.00     0.280 HD
HETATM   14  C   UNL     1      -4.280   1.508 -31.182  1.00  0.00     0.235 C 
HETATM   15  C   UNL     1      -4.546   0.014 -31.111  1.00  0.00     0.035 C 
BRANCH  12  16
HETATM   16  C   UNL     1      -4.887   3.729 -30.246  1.00  0.00     0.273 C 
BRANCH  16  17
HETATM   17  C   UNL     1      -4.129   4.187 -31.467  1.00  0.00    -0.027 A 
HETATM   18  C   UNL     1      -4.770   4.691 -32.618  1.00  0.00    -0.054 A 
HETATM   19  C   UNL     1      -3.991   5.047 -33.734  1.00  0.00     0.014 A 
HETATM   20  C   UNL     1      -6.262   4.877 -32.703  1.00  0.00     0.049 C 
HETATM   21  C   UNL     1      -2.595   4.937 -33.717  1.00  0.00    -0.061 A 
HETATM   22  C   UNL     1      -1.782   5.304 -34.924  1.00  0.00     0.048 C 
HETATM   23  C   UNL     1      -1.969   4.440 -32.574  1.00  0.00     0.007 A 
HETATM   24  C   UNL     1      -2.725   4.075 -31.460  1.00  0.00     0.010 A 
ENDBRANCH  16  17
ENDBRANCH  12  16
ENDBRANCH   1   9
BRANCH   1  25
HETATM   25  C   UNL     1      -6.129  -1.610 -33.655  1.00  0.00     0.067 A 
HETATM   26  N   UNL     1      -4.810  -1.960 -33.728  1.00  0.00    -0.263 NA
HETATM   27  C   UNL     1      -4.502  -3.095 -34.398  1.00  0.00     0.117 A 
HETATM   28  C   UNL     1      -5.446  -3.930 -34.967  1.00  0.00     0.019 A 
HETATM   29  C   UNL     1      -6.786  -3.585 -34.847  1.00  0.00     0.003 A 
HETATM   30  C   UNL     1      -7.139  -2.414 -34.182  1.00  0.00     0.030 A 
ENDBRANCH   1  25
BRANCH   5  31
HETATM   31  C   UNL     1      -9.188   1.741 -34.464  1.00  0.00     0.168 C 
BRANCH  31  32
HETATM   32  C   UNL     1      -9.636   3.015 -33.747  1.00  0.00     0.140 C 
HETATM   33  O   UNL     1     -10.457   2.652 -32.618  1.00  0.00    -0.384 OA
HETATM   34  C   UNL     1     -11.679   3.399 -32.678  1.00  0.00     0.168 C 
HETATM   35  C   UNL     1     -11.406   4.571 -33.591  1.00  0.00     0.029 C 
HETATM   36  C   UNL     1     -10.473   3.956 -34.605  1.00  0.00     0.036 C 
ENDBRANCH  31  32
ENDBRANCH   5  31
TORSDOF 6
ENDMDL
MODEL 6
REMARK VINA RESULT:      -8.5      4.683      8.781
REMARK  6 active torsions:
REMARK  status: ('A' for Active; 'I' for Inactive)
REMARK    1  A    between atoms: C_6  and  C_7 
REMARK    2  A    between atoms: C_7  and  N_8 
REMARK    3  A    between atoms: C_12  and  C_13 
REMARK    4  A    between atoms: C_13  and  C_14 
REMARK    5  A    between atoms: N_23  and  C_24 
REMARK    6  A    between atoms: C_24  and  C_25 
ROOT
HETATM    1  C   UNL     1      -3.847   5.395 -31.480  1.00  0.00     0.149 C 
HETATM    2  N   UNL     1      -4.253   4.556 -30.361  1.00  0.00    -0.220 NA
HETATM    3  C   UNL     1      -5.295   5.129 -29.660  1.00  0.00     0.304 C 
HETATM    4  O   UNL     1      -5.687   4.687 -28.594  1.00  0.00    -0.253 OA
HETATM    5  N   UNL     1      -5.768   6.196 -30.348  1.00  0.00    -0.270 N 
HETATM    6  C   UNL     1      -5.013   6.411 -31.465  1.00  0.00     0.257 C 
HETATM    7  O   UNL     1      -5.219   7.260 -32.321  1.00  0.00    -0.270 OA
HETATM    8  H   UNL     1      -3.520   4.221 -29.737  1.00  0.00     0.134 HD
ENDROOT
BRANCH   1   9
HETATM    9  C   UNL     1      -3.786   4.610 -32.829  1.00  0.00     0.028 C 
HETATM   10  C   UNL     1      -5.166   4.246 -33.418  1.00  0.00     0.035 C 
HETATM   11  C   UNL     1      -5.853   3.051 -32.760  1.00  0.00     0.235 C 
HETATM   12  N   UNL     1      -4.925   1.861 -32.715  1.00  0.00    -0.067 N 
HETATM   13  H   UNL     1      -4.757   1.583 -33.689  1.00  0.00     0.280 HD
HETATM   14  C   UNL     1      -3.590   2.164 -32.082  1.00  0.00     0.235 C 
HETATM   15  C   UNL     1      -2.929   3.329 -32.801  1.00  0.00     0.035 C 
BRANCH  12  16
HETATM   16  C   UNL     1      -5.563   0.654 -32.044  1.00  0.00     0.273 C 
BRANCH  16  17
HETATM   17  C   UNL     1      -5.736  -0.536 -32.953  1.00  0.00    -0.027 A 
HETATM   18  C   UNL     1      -6.988  -0.918 -33.479  1.00  0.00    -0.054 A 
HETATM   19  C   UNL     1      -7.071  -2.074 -34.278  1.00  0.00     0.014 A 
HETATM   20  C   UNL     1      -8.249  -0.133 -33.231  1.00  0.00     0.049 C 
HETATM   21  C   UNL     1      -5.936  -2.834 -34.583  1.00  0.00    -0.061 A 
HETATM   22  C   UNL     1      -6.046  -4.074 -35.421  1.00  0.00     0.048 C 
HETATM   23  C   UNL     1      -4.702  -2.448 -34.061  1.00  0.00     0.007 A 
HETATM   24  C   UNL     1      -4.601  -1.310 -33.262  1.00  0.00     0.010 A 
ENDBRANCH  16  17
ENDBRANCH  12  16
ENDBRANCH   1   9
BRANCH   1  25
HETATM   25  C   UNL     1      -2.522   6.077 -31.140  1.00  0.00     0.067 A 
HETATM   26  N   UNL     1      -2.343   6.384 -29.820  1.00  0.00    -0.263 NA
HETATM   27  C   UNL     1      -1.194   7.011 -29.476  1.00  0.00     0.117 A 
HETATM   28  C   UNL     1      -0.186   7.312 -30.373  1.00  0.00     0.019 A 
HETATM   29  C   UNL     1      -0.362   6.954 -31.704  1.00  0.00     0.003 A 
HETATM   30  C   UNL     1      -1.540   6.326 -32.098  1.00  0.00     0.030 A 
ENDBRANCH   1  25
BRANCH   5  31
HETATM   31  C   UNL     1      -6.854   7.047 -29.902  1.00  0.00     0.168 C 
BRANCH  31  32
HETATM   32  C   UNL     1      -6.453   8.038 -28.808  1.00  0.00     0.140 C 
HETATM   33  O   UNL     1      -7.330   7.865 -27.676  1.00  0.00    -0.384 OA
HETATM   34  C   UNL     1      -7.864   9.142 -27.307  1.00  0.00     0.168 C 
HETATM   35  C   UNL     1      -6.943  10.171 -27.921  1.00  0.00     0.029 C 
HETATM   36  C   UNL     1      -6.561   9.502 -29.218  1.00  0.00     0.036 C 
ENDBRANCH  31  32
ENDBRANCH   5  31
TORSDOF 6
ENDMDL
MODEL 7
REMARK VINA RESULT:      -8.4      2.231      3.320
REMARK  6 active torsions:
REMARK  status: ('A' for Active; 'I' for Inactive)
REMARK    1  A    between atoms: C_6  and  C_7 
REMARK    2  A    between atoms: C_7  and  N_8 
REMARK    3  A    between atoms: C_12  and  C_13 
REMARK    4  A    between atoms: C_13  and  C_14 
REMARK    5  A    between atoms: N_23  and  C_24 
REMARK    6  A    between atoms: C_24  and  C_25 
ROOT
HETATM    1  C   UNL     1      -5.937   3.508 -32.387  1.00  0.00     0.149 C 
HETATM    2  N   UNL     1      -7.071   3.366 -33.290  1.00  0.00    -0.220 NA
HETATM    3  C   UNL     1      -7.318   2.038 -33.575  1.00  0.00     0.304 C 
HETATM    4  O   UNL     1      -8.111   1.691 -34.433  1.00  0.00    -0.253 OA
HETATM    5  N   UNL     1      -6.566   1.256 -32.763  1.00  0.00    -0.270 N 
HETATM    6  C   UNL     1      -5.750   2.026 -31.987  1.00  0.00     0.257 C 
HETATM    7  O   UNL     1      -4.996   1.622 -31.113  1.00  0.00    -0.270 OA
HETATM    8  H   UNL     1      -7.073   3.938 -34.133  1.00  0.00     0.134 HD
ENDROOT
BRANCH   1   9
HETATM    9  C   UNL     1      -6.263   4.402 -31.148  1.00  0.00     0.028 C 
HETATM   10  C   UNL     1      -7.449   3.901 -30.295  1.00  0.00     0.035 C 
HETATM   11  C   UNL     1      -8.830   4.204 -30.871  1.00  0.00     0.235 C 
HETATM   12  N   UNL     1      -8.956   5.669 -31.210  1.00  0.00    -0.067 N 
HETATM   13  H   UNL     1      -8.907   6.182 -30.321  1.00  0.00     0.280 HD
HETATM   14  C   UNL     1      -7.850   6.178 -32.100  1.00  0.00     0.235 C 
HETATM   15  C   UNL     1      -6.500   5.892 -31.462  1.00  0.00     0.035 C 
BRANCH  12  16
HETATM   16  C   UNL     1     -10.312   6.011 -31.811  1.00  0.00     0.273 C 
BRANCH  16  17
HETATM   17  C   UNL     1     -10.899   4.917 -32.665  1.00  0.00    -0.027 A 
HETATM   18  C   UNL     1     -11.894   4.033 -32.196  1.00  0.00    -0.054 A 
HETATM   19  C   UNL     1     -12.350   3.004 -33.041  1.00  0.00     0.014 A 
HETATM   20  C   UNL     1     -12.501   4.147 -30.822  1.00  0.00     0.049 C 
HETATM   21  C   UNL     1     -11.859   2.858 -34.344  1.00  0.00    -0.061 A 
HETATM   22  C   UNL     1     -12.345   1.744 -35.225  1.00  0.00     0.048 C 
HETATM   23  C   UNL     1     -10.879   3.737 -34.801  1.00  0.00     0.007 A 
HETATM   24  C   UNL     1     -10.409   4.758 -33.976  1.00  0.00     0.010 A 
ENDBRANCH  16  17
ENDBRANCH  12  16
ENDBRANCH   1   9
BRANCH   1  25
HETATM   25  C   UNL     1      -4.731   4.019 -33.175  1.00  0.00     0.067 A 
HETATM   26  N   UNL     1      -5.025   4.652 -34.350  1.00  0.00    -0.263 NA
HETATM   27  C   UNL     1      -3.987   5.101 -35.094  1.00  0.00     0.117 A 
HETATM   28  C   UNL     1      -2.663   4.991 -34.709  1.00  0.00     0.019 A 
HETATM   29  C   UNL     1      -2.381   4.384 -33.491  1.00  0.00     0.003 A 
HETATM   30  C   UNL     1      -3.423   3.894 -32.709  1.00  0.00     0.030 A 
ENDBRANCH   1  25
BRANCH   5  31
HETATM   31  C   UNL     1      -6.559  -0.194 -32.795  1.00  0.00     0.168 C 
BRANCH  31  32
HETATM   32  C   UNL     1      -5.599  -0.785 -33.828  1.00  0.00     0.140 C 
HETATM   33  O   UNL     1      -6.361  -1.505 -34.818  1.00  0.00    -0.384 OA
HETATM   34  C   UNL     1      -5.807  -2.819 -34.960  1.00  0.00     0.168 C 
HETATM   35  C   UNL     1      -4.407  -2.743 -34.396  1.00  0.00     0.029 C 
HETATM   36  C   UNL     1      -4.592  -1.775 -33.254  1.00  0.00     0.036 C 
ENDBRANCH  31  32
ENDBRANCH   5  31
TORSDOF 6
ENDMDL
MODEL 8
REMARK VINA RESULT:      -8.3      5.320      9.014
REMARK  6 active torsions:
REMARK  status: ('A' for Active; 'I' for Inactive)
REMARK    1  A    between atoms: C_6  and  C_7 
REMARK    2  A    between atoms: C_7  and  N_8 
REMARK    3  A    between atoms: C_12  and  C_13 
REMARK    4  A    between atoms: C_13  and  C_14 
REMARK    5  A    between atoms: N_23  and  C_24 
REMARK    6  A    between atoms: C_24  and  C_25 
ROOT
HETATM    1  C   UNL     1      -4.411   5.868 -31.341  1.00  0.00     0.149 C 
HETATM    2  N   UNL     1      -4.580   5.059 -30.142  1.00  0.00    -0.220 NA
HETATM    3  C   UNL     1      -5.208   5.775 -29.142  1.00  0.00     0.304 C 
HETATM    4  O   UNL     1      -5.307   5.356 -28.002  1.00  0.00    -0.253 OA
HETATM    5  N   UNL     1      -5.669   6.945 -29.648  1.00  0.00    -0.270 N 
HETATM    6  C   UNL     1      -5.294   7.077 -30.953  1.00  0.00     0.257 C 
HETATM    7  O   UNL     1      -5.604   7.992 -31.703  1.00  0.00    -0.270 OA
HETATM    8  H   UNL     1      -3.761   4.565 -29.791  1.00  0.00     0.134 HD
ENDROOT
BRANCH   1   9
HETATM    9  C   UNL     1      -4.942   5.156 -32.626  1.00  0.00     0.028 C 
HETATM   10  C   UNL     1      -6.351   4.541 -32.478  1.00  0.00     0.035 C 
HETATM   11  C   UNL     1      -6.398   3.212 -31.728  1.00  0.00     0.235 C 
HETATM   12  N   UNL     1      -5.413   2.232 -32.317  1.00  0.00    -0.067 N 
HETATM   13  H   UNL     1      -5.738   2.026 -33.269  1.00  0.00     0.280 HD
HETATM   14  C   UNL     1      -4.010   2.776 -32.413  1.00  0.00     0.235 C 
HETATM   15  C   UNL     1      -4.011   4.073 -33.206  1.00  0.00     0.035 C 
BRANCH  12  16
HETATM   16  C   UNL     1      -5.410   0.900 -31.582  1.00  0.00     0.273 C 
BRANCH  16  17
HETATM   17  C   UNL     1      -5.477  -0.303 -32.489  1.00  0.00    -0.027 A 
HETATM   18  C   UNL     1      -4.352  -1.105 -32.776  1.00  0.00    -0.054 A 
HETATM   19  C   UNL     1      -4.488  -2.179 -33.675  1.00  0.00     0.014 A 
HETATM   20  C   UNL     1      -3.003  -0.868 -32.150  1.00  0.00     0.049 C 
HETATM   21  C   UNL     1      -5.719  -2.483 -34.268  1.00  0.00    -0.061 A 
HETATM   22  C   UNL     1      -5.842  -3.621 -35.239  1.00  0.00     0.048 C 
HETATM   23  C   UNL     1      -6.827  -1.687 -33.976  1.00  0.00     0.007 A 
HETATM   24  C   UNL     1      -6.710  -0.615 -33.094  1.00  0.00     0.010 A 
ENDBRANCH  16  17
ENDBRANCH  12  16
ENDBRANCH   1   9
BRANCH   1  25
HETATM   25  C   UNL     1      -2.943   6.279 -31.465  1.00  0.00     0.067 A 
HETATM   26  N   UNL     1      -2.060   5.515 -30.755  1.00  0.00    -0.263 NA
HETATM   27  C   UNL     1      -0.752   5.856 -30.816  1.00  0.00     0.117 A 
HETATM   28  C   UNL     1      -0.266   6.898 -31.584  1.00  0.00     0.019 A 
HETATM   29  C   UNL     1      -1.170   7.639 -32.335  1.00  0.00     0.003 A 
HETATM   30  C   UNL     1      -2.526   7.328 -32.281  1.00  0.00     0.030 A 
ENDBRANCH   1  25
BRANCH   5  31
HETATM   31  C   UNL     1      -6.369   7.954 -28.877  1.00  0.00     0.168 C 
BRANCH  31  32
HETATM   32  C   UNL     1      -5.442   8.915 -28.131  1.00  0.00     0.140 C 
HETATM   33  O   UNL     1      -4.136   8.872 -28.739  1.00  0.00    -0.384 OA
HETATM   34  C   UNL     1      -3.157   8.648 -27.716  1.00  0.00     0.168 C 
HETATM   35  C   UNL     1      -3.824   9.026 -26.414  1.00  0.00     0.029 C 
HETATM   36  C   UNL     1      -5.244   8.577 -26.658  1.00  0.00     0.036 C 
ENDBRANCH  31  32
ENDBRANCH   5  31
TORSDOF 6
ENDMDL
MODEL 9
REMARK VINA RESULT:      -8.1      2.706      5.206
REMARK  6 active torsions:
REMARK  status: ('A' for Active; 'I' for Inactive)
REMARK    1  A    between atoms: C_6  and  C_7 
REMARK    2  A    between atoms: C_7  and  N_8 
REMARK    3  A    between atoms: C_12  and  C_13 
REMARK    4  A    between atoms: C_13  and  C_14 
REMARK    5  A    between atoms: N_23  and  C_24 
REMARK    6  A    between atoms: C_24  and  C_25 
ROOT
HETATM    1  C   UNL     1      -6.392   3.348 -31.830  1.00  0.00     0.149 C 
HETATM    2  N   UNL     1      -6.541   3.898 -33.171  1.00  0.00    -0.220 NA
HETATM    3  C   UNL     1      -5.323   4.299 -33.683  1.00  0.00     0.304 C 
HETATM    4  O   UNL     1      -5.228   4.935 -34.718  1.00  0.00    -0.253 OA
HETATM    5  N   UNL     1      -4.329   3.865 -32.872  1.00  0.00    -0.270 N 
HETATM    6  C   UNL     1      -4.850   3.248 -31.772  1.00  0.00     0.257 C 
HETATM    7  O   UNL     1      -4.213   2.698 -30.884  1.00  0.00    -0.270 OA
HETATM    8  H   UNL     1      -7.258   4.608 -33.308  1.00  0.00     0.134 HD
ENDROOT
BRANCH   1   9
HETATM    9  C   UNL     1      -7.066   1.946 -31.678  1.00  0.00     0.028 C 
HETATM   10  C   UNL     1      -6.970   1.053 -32.934  1.00  0.00     0.035 C 
HETATM   11  C   UNL     1      -7.954   1.399 -34.048  1.00  0.00     0.235 C 
HETATM   12  N   UNL     1      -9.363   1.470 -33.512  1.00  0.00    -0.067 N 
HETATM   13  H   UNL     1      -9.610   0.521 -33.208  1.00  0.00     0.280 HD
HETATM   14  C   UNL     1      -9.508   2.389 -32.325  1.00  0.00     0.235 C 
HETATM   15  C   UNL     1      -8.540   1.975 -31.228  1.00  0.00     0.035 C 
BRANCH  12  16
HETATM   16  C   UNL     1     -10.375   1.838 -34.587  1.00  0.00     0.273 C 
BRANCH  16  17
HETATM   17  C   UNL     1     -11.795   1.933 -34.088  1.00  0.00    -0.027 A 
HETATM   18  C   UNL     1     -12.443   3.166 -33.863  1.00  0.00    -0.054 A 
HETATM   19  C   UNL     1     -13.752   3.167 -33.345  1.00  0.00     0.014 A 
HETATM   20  C   UNL     1     -11.796   4.492 -34.163  1.00  0.00     0.049 C 
HETATM   21  C   UNL     1     -14.431   1.973 -33.076  1.00  0.00    -0.061 A 
HETATM   22  C   UNL     1     -15.820   1.993 -32.507  1.00  0.00     0.048 C 
HETATM   23  C   UNL     1     -13.784   0.758 -33.304  1.00  0.00     0.007 A 
HETATM   24  C   UNL     1     -12.485   0.738 -33.810  1.00  0.00     0.010 A 
ENDBRANCH  16  17
ENDBRANCH  12  16
ENDBRANCH   1   9
BRANCH   1  25
HETATM   25  C   UNL     1      -6.915   4.361 -30.812  1.00  0.00     0.067 A 
HETATM   26  N   UNL     1      -7.729   5.334 -31.320  1.00  0.00    -0.263 NA
HETATM   27  C   UNL     1      -8.196   6.269 -30.459  1.00  0.00     0.117 A 
HETATM   28  C   UNL     1      -7.930   6.262 -29.102  1.00  0.00     0.019 A 
HETATM   29  C   UNL     1      -7.138   5.241 -28.592  1.00  0.00     0.003 A 
HETATM   30  C   UNL     1      -6.623   4.275 -29.452  1.00  0.00     0.030 A 
ENDBRANCH   1  25
BRANCH   5  31
HETATM   31  C   UNL     1      -2.918   4.117 -33.094  1.00  0.00     0.168 C 
BRANCH  31  32
HETATM   32  C   UNL     1      -2.396   5.372 -32.392  1.00  0.00     0.140 C 
HETATM   33  O   UNL     1      -2.610   6.511 -33.250  1.00  0.00    -0.384 OA
HETATM   34  C   UNL     1      -1.376   7.229 -33.377  1.00  0.00     0.168 C 
HETATM   35  C   UNL     1      -0.518   6.792 -32.213  1.00  0.00     0.029 C 
HETATM   36  C   UNL     1      -0.905   5.340 -32.078  1.00  0.00     0.036 C 
ENDBRANCH  31  32
ENDBRANCH   5  31
TORSDOF 6
ENDMDL
MODEL 10
REMARK VINA RESULT:      -7.9      4.214      8.566
REMARK  6 active torsions:
REMARK  status: ('A' for Active; 'I' for Inactive)
REMARK    1  A    between atoms: C_6  and  C_7 
REMARK    2  A    between atoms: C_7  and  N_8 
REMARK    3  A    between atoms: C_12  and  C_13 
REMARK    4  A    between atoms: C_13  and  C_14 
REMARK    5  A    between atoms: N_23  and  C_24 
REMARK    6  A    between atoms: C_24  and  C_25 
ROOT
HETATM    1  C   UNL     1      -5.854   3.857 -32.370  1.00  0.00     0.149 C 
HETATM    2  N   UNL     1      -7.031   3.794 -33.225  1.00  0.00    -0.220 NA
HETATM    3  C   UNL     1      -7.394   2.486 -33.476  1.00  0.00     0.304 C 
HETATM    4  O   UNL     1      -8.246   2.191 -34.296  1.00  0.00    -0.253 OA
HETATM    5  N   UNL     1      -6.676   1.658 -32.679  1.00  0.00    -0.270 N 
HETATM    6  C   UNL     1      -5.770   2.371 -31.950  1.00  0.00     0.257 C 
HETATM    7  O   UNL     1      -5.016   1.921 -31.098  1.00  0.00    -0.270 OA
HETATM    8  H   UNL     1      -7.020   4.351 -34.078  1.00  0.00     0.134 HD
ENDROOT
BRANCH   1   9
HETATM    9  C   UNL     1      -6.057   4.794 -31.135  1.00  0.00     0.028 C 
HETATM   10  C   UNL     1      -6.473   6.237 -31.492  1.00  0.00     0.035 C 
HETATM   11  C   UNL     1      -5.337   7.134 -31.978  1.00  0.00     0.235 C 
HETATM   12  N   UNL     1      -4.181   7.102 -31.008  1.00  0.00    -0.067 N 
HETATM   13  H   UNL     1      -4.517   7.527 -30.136  1.00  0.00     0.280 HD
HETATM   14  C   UNL     1      -3.703   5.707 -30.689  1.00  0.00     0.235 C 
HETATM   15  C   UNL     1      -4.859   4.870 -30.168  1.00  0.00     0.035 C 
BRANCH  12  16
HETATM   16  C   UNL     1      -3.014   7.964 -31.467  1.00  0.00     0.273 C 
BRANCH  16  17
HETATM   17  C   UNL     1      -1.859   8.001 -30.500  1.00  0.00    -0.027 A 
HETATM   18  C   UNL     1      -0.621   7.378 -30.765  1.00  0.00    -0.054 A 
HETATM   19  C   UNL     1       0.388   7.415 -29.785  1.00  0.00     0.014 A 
HETATM   20  C   UNL     1      -0.325   6.678 -32.065  1.00  0.00     0.049 C 
HETATM   21  C   UNL     1       0.199   8.078 -28.567  1.00  0.00    -0.061 A 
HETATM   22  C   UNL     1       1.281   8.091 -27.526  1.00  0.00     0.048 C 
HETATM   23  C   UNL     1      -1.026   8.694 -28.314  1.00  0.00     0.007 A 
HETATM   24  C   UNL     1      -2.040   8.662 -29.269  1.00  0.00     0.010 A 
ENDBRANCH  16  17
ENDBRANCH  12  16
ENDBRANCH   1   9
BRANCH   1  25
HETATM   25  C   UNL     1      -4.643   4.258 -33.213  1.00  0.00     0.067 A 
HETATM   26  N   UNL     1      -3.449   3.727 -32.812  1.00  0.00    -0.263 NA
HETATM   27  C   UNL     1      -2.345   4.075 -33.515  1.00  0.00     0.117 A 
HETATM   28  C   UNL     1      -2.372   4.893 -34.629  1.00  0.00     0.019 A 
HETATM   29  C   UNL     1      -3.599   5.390 -35.052  1.00  0.00     0.003 A 
HETATM   30  C   UNL     1      -4.752   5.070 -34.341  1.00  0.00     0.030 A 
ENDBRANCH   1  25
BRANCH   5  31
HETATM   31  C   UNL     1      -6.786   0.212 -32.685  1.00  0.00     0.168 C 
BRANCH  31  32
HETATM   32  C   UNL     1      -5.956  -0.467 -33.775  1.00  0.00     0.140 C 
HETATM   33  O   UNL     1      -6.826  -1.278 -34.589  1.00  0.00    -0.384 OA
HETATM   34  C   UNL     1      -6.274  -2.598 -34.682  1.00  0.00     0.168 C 
HETATM   35  C   UNL     1      -4.815  -2.465 -34.311  1.00  0.00     0.029 C 
HETATM   36  C   UNL     1      -4.868  -1.396 -33.247  1.00  0.00     0.036 C 
ENDBRANCH  31  32
ENDBRANCH   5  31
TORSDOF 6
ENDMDL
