MODEL 1
REMARK VINA RESULT:      -7.8      0.000      0.000
REMARK  4 active torsions:
REMARK  status: ('A' for Active; 'I' for Inactive)
REMARK    1  A    between atoms: C_3  and  N_4 
REMARK    2  A    between atoms: C_5  and  C_6 
REMARK    3  A    between atoms: C_13  and  N_14 
REMARK       I    between atoms: N_14  and  C_15 
REMARK    4  A    between atoms: C_15  and  C_16 
ROOT
HETATM    1  C   UNL     1      -6.428   2.917 -32.765  1.00  0.00     0.005 A 
HETATM    2  C   UNL     1      -6.356   1.544 -32.996  1.00  0.00     0.031 A 
HETATM    3  C   UNL     1      -5.149   0.861 -32.835  1.00  0.00     0.058 A 
HETATM    4  C   UNL     1      -4.013   1.569 -32.416  1.00  0.00     0.061 A 
HETATM    5  C   UNL     1      -4.068   2.948 -32.195  1.00  0.00     0.037 A 
HETATM    6  C   UNL     1      -5.287   3.614 -32.367  1.00  0.00     0.029 A 
ENDROOT
BRANCH   5   7
HETATM    7  N   UNL     1      -2.965   3.725 -31.795  1.00  0.00    -0.321 N 
HETATM    8  C   UNL     1      -2.061   4.407 -32.592  1.00  0.00     0.279 C 
HETATM    9  O   UNL     1      -2.098   4.471 -33.816  1.00  0.00    -0.265 OA
HETATM   10  H   UNL     1      -2.811   3.833 -30.798  1.00  0.00     0.169 HD
BRANCH   8  11
HETATM   11  C   UNL     1      -1.037   5.087 -31.816  1.00  0.00     0.142 A 
HETATM   12  O   UNL     1      -0.488   4.460 -30.726  1.00  0.00    -0.317 OA
HETATM   13  C   UNL     1       0.434   5.309 -30.200  1.00  0.00     0.143 A 
HETATM   14  C   UNL     1       0.488   6.475 -30.926  1.00  0.00     0.027 A 
HETATM   15  C   UNL     1      -0.460   6.333 -31.969  1.00  0.00     0.045 A 
ENDBRANCH   8  11
ENDBRANCH   5   7
BRANCH   3  16
HETATM   16  N   UNL     1      -5.131  -0.528 -33.038  1.00  0.00    -0.259 NA
HETATM   17  C   UNL     1      -5.735  -0.978 -34.090  1.00  0.00     0.146 C 
BRANCH  17  18
HETATM   18  C   UNL     1      -5.736  -2.391 -34.351  1.00  0.00     0.049 A 
HETATM   19  N   UNL     1      -4.615  -3.182 -34.249  1.00  0.00    -0.365 N 
HETATM   20  H   UNL     1      -3.704  -2.826 -33.984  1.00  0.00     0.165 HD
HETATM   21  C   UNL     1      -4.926  -4.479 -34.557  1.00  0.00     0.088 A 
HETATM   22  C   UNL     1      -6.266  -4.529 -34.870  1.00  0.00     0.019 A 
HETATM   23  C   UNL     1      -6.777  -3.214 -34.740  1.00  0.00     0.032 A 
ENDBRANCH  17  18
ENDBRANCH   3  16
TORSDOF 4
ENDMDL
MODEL 2
REMARK VINA RESULT:      -7.5      2.155      2.445
REMARK  4 active torsions:
REMARK  status: ('A' for Active; 'I' for Inactive)
REMARK    1  A    between atoms: C_3  and  N_4 
REMARK    2  A    between atoms: C_5  and  C_6 
REMARK    3  A    between atoms: C_13  and  N_14 
REMARK       I    between atoms: N_14  and  C_15 
REMARK    4  A    between atoms: C_15  and  C_16 
ROOT
HETATM    1  C   UNL     1      -7.387   2.234 -31.133  1.00  0.00     0.005 A 
HETATM    2  C   UNL     1      -7.490   0.943 -31.648  1.00  0.00     0.031 A 
HETATM    3  C   UNL     1      -6.587   0.490 -32.611  1.00  0.00     0.058 A 
HETATM    4  C   UNL     1      -5.560   1.343 -33.040  1.00  0.00     0.061 A 
HETATM    5  C   UNL     1      -5.454   2.646 -32.545  1.00  0.00     0.037 A 
HETATM    6  C   UNL     1      -6.373   3.081 -31.582  1.00  0.00     0.029 A 
ENDROOT
BRANCH   5   7
HETATM    7  N   UNL     1      -4.463   3.562 -32.945  1.00  0.00    -0.321 N 
HETATM    8  C   UNL     1      -4.561   4.575 -33.884  1.00  0.00     0.279 C 
HETATM    9  O   UNL     1      -5.572   4.866 -34.514  1.00  0.00    -0.265 OA
HETATM   10  H   UNL     1      -3.564   3.505 -32.479  1.00  0.00     0.169 HD
BRANCH   8  11
HETATM   11  C   UNL     1      -3.316   5.307 -34.044  1.00  0.00     0.142 A 
HETATM   12  O   UNL     1      -3.268   6.640 -33.719  1.00  0.00    -0.317 OA
HETATM   13  C   UNL     1      -2.000   7.063 -33.956  1.00  0.00     0.143 A 
HETATM   14  C   UNL     1      -1.226   6.032 -34.434  1.00  0.00     0.027 A 
HETATM   15  C   UNL     1      -2.074   4.899 -34.491  1.00  0.00     0.045 A 
ENDBRANCH   8  11
ENDBRANCH   5   7
BRANCH   3  16
HETATM   16  N   UNL     1      -6.702  -0.832 -33.070  1.00  0.00    -0.259 NA
HETATM   17  C   UNL     1      -5.711  -1.305 -33.754  1.00  0.00     0.146 C 
BRANCH  17  18
HETATM   18  C   UNL     1      -5.771  -2.657 -34.238  1.00  0.00     0.049 A 
HETATM   19  N   UNL     1      -4.700  -3.522 -34.207  1.00  0.00    -0.365 N 
HETATM   20  H   UNL     1      -3.789  -3.269 -33.843  1.00  0.00     0.165 HD
HETATM   21  C   UNL     1      -5.060  -4.733 -34.733  1.00  0.00     0.088 A 
HETATM   22  C   UNL     1      -6.380  -4.651 -35.117  1.00  0.00     0.019 A 
HETATM   23  C   UNL     1      -6.829  -3.343 -34.804  1.00  0.00     0.032 A 
ENDBRANCH  17  18
ENDBRANCH   3  16
TORSDOF 4
ENDMDL
MODEL 3
REMARK VINA RESULT:      -7.5      2.517      8.474
REMARK  4 active torsions:
REMARK  status: ('A' for Active; 'I' for Inactive)
REMARK    1  A    between atoms: C_3  and  N_4 
REMARK    2  A    between atoms: C_5  and  C_6 
REMARK    3  A    between atoms: C_13  and  N_14 
REMARK       I    between atoms: N_14  and  C_15 
REMARK    4  A    between atoms: C_15  and  C_16 
ROOT
HETATM    1  C   UNL     1      -6.196   2.682 -31.820  1.00  0.00     0.005 A 
HETATM    2  C   UNL     1      -4.968   3.272 -31.523  1.00  0.00     0.031 A 
HETATM    3  C   UNL     1      -3.779   2.573 -31.734  1.00  0.00     0.058 A 
HETATM    4  C   UNL     1      -3.831   1.278 -32.269  1.00  0.00     0.061 A 
HETATM    5  C   UNL     1      -5.056   0.669 -32.557  1.00  0.00     0.037 A 
HETATM    6  C   UNL     1      -6.238   1.386 -32.334  1.00  0.00     0.029 A 
ENDROOT
BRANCH   5   7
HETATM    7  N   UNL     1      -5.184  -0.633 -33.075  1.00  0.00    -0.321 N 
HETATM    8  C   UNL     1      -5.838  -1.038 -34.228  1.00  0.00     0.279 C 
HETATM    9  O   UNL     1      -6.401  -0.295 -35.025  1.00  0.00    -0.265 OA
HETATM   10  H   UNL     1      -4.724  -1.382 -32.568  1.00  0.00     0.169 HD
BRANCH   8  11
HETATM   11  C   UNL     1      -5.773  -2.476 -34.427  1.00  0.00     0.142 A 
HETATM   12  O   UNL     1      -4.604  -3.144 -34.162  1.00  0.00    -0.317 OA
HETATM   13  C   UNL     1      -4.826  -4.457 -34.426  1.00  0.00     0.143 A 
HETATM   14  C   UNL     1      -6.115  -4.653 -34.862  1.00  0.00     0.027 A 
HETATM   15  C   UNL     1      -6.727  -3.376 -34.864  1.00  0.00     0.045 A 
ENDBRANCH   8  11
ENDBRANCH   5   7
BRANCH   3  16
HETATM   16  N   UNL     1      -2.563   3.220 -31.461  1.00  0.00    -0.259 NA
HETATM   17  C   UNL     1      -2.553   4.512 -31.538  1.00  0.00     0.146 C 
BRANCH  17  18
HETATM   18  C   UNL     1      -1.337   5.225 -31.256  1.00  0.00     0.049 A 
HETATM   19  N   UNL     1      -0.588   5.027 -30.118  1.00  0.00    -0.365 N 
HETATM   20  H   UNL     1      -0.839   4.364 -29.394  1.00  0.00     0.165 HD
HETATM   21  C   UNL     1       0.509   5.845 -30.131  1.00  0.00     0.088 A 
HETATM   22  C   UNL     1       0.467   6.590 -31.289  1.00  0.00     0.019 A 
HETATM   23  C   UNL     1      -0.696   6.199 -31.998  1.00  0.00     0.032 A 
ENDBRANCH  17  18
ENDBRANCH   3  16
TORSDOF 4
ENDMDL
MODEL 4
REMARK VINA RESULT:      -7.3      6.043      8.649
REMARK  4 active torsions:
REMARK  status: ('A' for Active; 'I' for Inactive)
REMARK    1  A    between atoms: C_3  and  N_4 
REMARK    2  A    between atoms: C_5  and  C_6 
REMARK    3  A    between atoms: C_13  and  N_14 
REMARK       I    between atoms: N_14  and  C_15 
REMARK    4  A    between atoms: C_15  and  C_16 
ROOT
HETATM    1  C   UNL     1      -7.983   2.514 -33.928  1.00  0.00     0.005 A 
HETATM    2  C   UNL     1      -7.399   1.249 -33.870  1.00  0.00     0.031 A 
HETATM    3  C   UNL     1      -8.159   0.134 -33.514  1.00  0.00     0.058 A 
HETATM    4  C   UNL     1      -9.525   0.297 -33.236  1.00  0.00     0.061 A 
HETATM    5  C   UNL     1     -10.120   1.561 -33.275  1.00  0.00     0.037 A 
HETATM    6  C   UNL     1      -9.338   2.667 -33.630  1.00  0.00     0.029 A 
ENDROOT
BRANCH   5   7
HETATM    7  N   UNL     1     -11.476   1.801 -32.988  1.00  0.00    -0.321 N 
HETATM    8  C   UNL     1     -12.568   1.664 -33.828  1.00  0.00     0.279 C 
HETATM    9  O   UNL     1     -12.529   1.267 -34.988  1.00  0.00    -0.265 OA
HETATM   10  H   UNL     1     -11.706   2.086 -32.042  1.00  0.00     0.169 HD
BRANCH   8  11
HETATM   11  C   UNL     1     -13.818   2.024 -33.179  1.00  0.00     0.142 A 
HETATM   12  O   UNL     1     -13.878   3.161 -32.412  1.00  0.00    -0.317 OA
HETATM   13  C   UNL     1     -15.147   3.256 -31.939  1.00  0.00     0.143 A 
HETATM   14  C   UNL     1     -15.910   2.201 -32.381  1.00  0.00     0.027 A 
HETATM   15  C   UNL     1     -15.054   1.406 -33.181  1.00  0.00     0.045 A 
ENDBRANCH   8  11
ENDBRANCH   5   7
BRANCH   3  16
HETATM   16  N   UNL     1      -7.541  -1.127 -33.510  1.00  0.00    -0.259 NA
HETATM   17  C   UNL     1      -6.814  -1.429 -34.537  1.00  0.00     0.146 C 
BRANCH  17  18
HETATM   18  C   UNL     1      -6.148  -2.702 -34.578  1.00  0.00     0.049 A 
HETATM   19  N   UNL     1      -4.824  -2.877 -34.246  1.00  0.00    -0.365 N 
HETATM   20  H   UNL     1      -4.219  -2.120 -33.950  1.00  0.00     0.165 HD
HETATM   21  C   UNL     1      -4.476  -4.194 -34.381  1.00  0.00     0.088 A 
HETATM   22  C   UNL     1      -5.588  -4.882 -34.813  1.00  0.00     0.019 A 
HETATM   23  C   UNL     1      -6.642  -3.943 -34.937  1.00  0.00     0.032 A 
ENDBRANCH  17  18
ENDBRANCH   3  16
TORSDOF 4
ENDMDL
MODEL 5
REMARK VINA RESULT:      -7.1      2.956      9.045
REMARK  4 active torsions:
REMARK  status: ('A' for Active; 'I' for Inactive)
REMARK    1  A    between atoms: C_3  and  N_4 
REMARK    2  A    between atoms: C_5  and  C_6 
REMARK    3  A    between atoms: C_13  and  N_14 
REMARK       I    between atoms: N_14  and  C_15 
REMARK    4  A    between atoms: C_15  and  C_16 
ROOT
HETATM    1  C   UNL     1      -1.588   6.033 -34.221  1.00  0.00     0.005 A 
HETATM    2  C   UNL     1      -0.986   6.692 -33.150  1.00  0.00     0.031 A 
HETATM    3  C   UNL     1      -1.029   6.144 -31.867  1.00  0.00     0.058 A 
HETATM    4  C   UNL     1      -1.668   4.910 -31.671  1.00  0.00     0.061 A 
HETATM    5  C   UNL     1      -2.288   4.246 -32.733  1.00  0.00     0.037 A 
HETATM    6  C   UNL     1      -2.236   4.815 -34.011  1.00  0.00     0.029 A 
ENDROOT
BRANCH   5   7
HETATM    7  N   UNL     1      -2.964   3.018 -32.605  1.00  0.00    -0.321 N 
HETATM    8  C   UNL     1      -4.215   2.780 -32.062  1.00  0.00     0.279 C 
HETATM    9  O   UNL     1      -4.974   3.636 -31.619  1.00  0.00    -0.265 OA
HETATM   10  H   UNL     1      -2.503   2.194 -32.977  1.00  0.00     0.169 HD
BRANCH   8  11
HETATM   11  C   UNL     1      -4.573   1.372 -32.087  1.00  0.00     0.142 A 
HETATM   12  O   UNL     1      -5.760   0.966 -31.530  1.00  0.00    -0.317 OA
HETATM   13  C   UNL     1      -5.840  -0.380 -31.697  1.00  0.00     0.143 A 
HETATM   14  C   UNL     1      -4.726  -0.854 -32.347  1.00  0.00     0.027 A 
HETATM   15  C   UNL     1      -3.908   0.274 -32.599  1.00  0.00     0.045 A 
ENDBRANCH   8  11
ENDBRANCH   5   7
BRANCH   3  16
HETATM   16  N   UNL     1      -0.374   6.820 -30.826  1.00  0.00    -0.259 NA
HETATM   17  C   UNL     1      -0.406   6.270 -29.655  1.00  0.00     0.146 C 
BRANCH  17  18
HETATM   18  C   UNL     1       0.260   6.914 -28.556  1.00  0.00     0.049 A 
HETATM   19  N   UNL     1       0.190   6.462 -27.258  1.00  0.00    -0.365 N 
HETATM   20  H   UNL     1      -0.338   5.644 -26.980  1.00  0.00     0.165 HD
HETATM   21  C   UNL     1       0.925   7.276 -26.438  1.00  0.00     0.088 A 
HETATM   22  C   UNL     1       1.472   8.273 -27.214  1.00  0.00     0.019 A 
HETATM   23  C   UNL     1       1.054   8.045 -28.549  1.00  0.00     0.032 A 
ENDBRANCH  17  18
ENDBRANCH   3  16
TORSDOF 4
ENDMDL
MODEL 6
REMARK VINA RESULT:      -6.9      3.325      8.377
REMARK  4 active torsions:
REMARK  status: ('A' for Active; 'I' for Inactive)
REMARK    1  A    between atoms: C_3  and  N_4 
REMARK    2  A    between atoms: C_5  and  C_6 
REMARK    3  A    between atoms: C_13  and  N_14 
REMARK       I    between atoms: N_14  and  C_15 
REMARK    4  A    between atoms: C_15  and  C_16 
ROOT
HETATM    1  C   UNL     1      -4.090  -0.962 -31.596  1.00  0.00     0.005 A 
HETATM    2  C   UNL     1      -3.213   0.100 -31.380  1.00  0.00     0.031 A 
HETATM    3  C   UNL     1      -3.643   1.417 -31.548  1.00  0.00     0.058 A 
HETATM    4  C   UNL     1      -4.974   1.662 -31.915  1.00  0.00     0.061 A 
HETATM    5  C   UNL     1      -5.860   0.606 -32.149  1.00  0.00     0.037 A 
HETATM    6  C   UNL     1      -5.407  -0.708 -31.979  1.00  0.00     0.029 A 
ENDROOT
BRANCH   5   7
HETATM    7  N   UNL     1      -7.201   0.776 -32.539  1.00  0.00    -0.321 N 
HETATM    8  C   UNL     1      -7.695   1.121 -33.786  1.00  0.00     0.279 C 
HETATM    9  O   UNL     1      -7.019   1.309 -34.792  1.00  0.00    -0.265 OA
HETATM   10  H   UNL     1      -7.914   0.603 -31.838  1.00  0.00     0.169 HD
BRANCH   8  11
HETATM   11  C   UNL     1      -9.144   1.222 -33.803  1.00  0.00     0.142 A 
HETATM   12  O   UNL     1      -9.742   2.262 -34.470  1.00  0.00    -0.317 OA
HETATM   13  C   UNL     1     -11.084   2.107 -34.329  1.00  0.00     0.143 A 
HETATM   14  C   UNL     1     -11.367   0.990 -33.579  1.00  0.00     0.027 A 
HETATM   15  C   UNL     1     -10.117   0.418 -33.239  1.00  0.00     0.045 A 
ENDBRANCH   8  11
ENDBRANCH   5   7
BRANCH   3  16
HETATM   16  N   UNL     1      -2.739   2.458 -31.279  1.00  0.00    -0.259 NA
HETATM   17  C   UNL     1      -3.013   3.619 -31.778  1.00  0.00     0.146 C 
BRANCH  17  18
HETATM   18  C   UNL     1      -2.128   4.722 -31.523  1.00  0.00     0.049 A 
HETATM   19  N   UNL     1      -2.288   5.595 -30.471  1.00  0.00    -0.365 N 
HETATM   20  H   UNL     1      -3.042   5.526 -29.798  1.00  0.00     0.165 HD
HETATM   21  C   UNL     1      -1.294   6.536 -30.487  1.00  0.00     0.088 A 
HETATM   22  C   UNL     1      -0.482   6.275 -31.569  1.00  0.00     0.019 A 
HETATM   23  C   UNL     1      -1.008   5.132 -32.222  1.00  0.00     0.032 A 
ENDBRANCH  17  18
ENDBRANCH   3  16
TORSDOF 4
ENDMDL
MODEL 7
REMARK VINA RESULT:      -6.8      3.796      5.066
REMARK  4 active torsions:
REMARK  status: ('A' for Active; 'I' for Inactive)
REMARK    1  A    between atoms: C_3  and  N_4 
REMARK    2  A    between atoms: C_5  and  C_6 
REMARK    3  A    between atoms: C_13  and  N_14 
REMARK       I    between atoms: N_14  and  C_15 
REMARK    4  A    between atoms: C_15  and  C_16 
ROOT
HETATM    1  C   UNL     1      -6.271  -0.665 -32.863  1.00  0.00     0.005 A 
HETATM    2  C   UNL     1      -7.611  -0.292 -32.762  1.00  0.00     0.031 A 
HETATM    3  C   UNL     1      -7.968   1.055 -32.684  1.00  0.00     0.058 A 
HETATM    4  C   UNL     1      -6.963   2.032 -32.730  1.00  0.00     0.061 A 
HETATM    5  C   UNL     1      -5.615   1.673 -32.816  1.00  0.00     0.037 A 
HETATM    6  C   UNL     1      -5.279   0.316 -32.888  1.00  0.00     0.029 A 
ENDROOT
BRANCH   5   7
HETATM    7  N   UNL     1      -4.555   2.598 -32.845  1.00  0.00    -0.321 N 
HETATM    8  C   UNL     1      -3.398   2.602 -32.083  1.00  0.00     0.279 C 
HETATM    9  O   UNL     1      -3.088   1.752 -31.256  1.00  0.00    -0.265 OA
HETATM   10  H   UNL     1      -4.615   3.351 -33.522  1.00  0.00     0.169 HD
BRANCH   8  11
HETATM   11  C   UNL     1      -2.539   3.736 -32.382  1.00  0.00     0.142 A 
HETATM   12  O   UNL     1      -1.674   4.200 -31.423  1.00  0.00    -0.317 OA
HETATM   13  C   UNL     1      -1.000   5.246 -31.966  1.00  0.00     0.143 A 
HETATM   14  C   UNL     1      -1.415   5.472 -33.257  1.00  0.00     0.027 A 
HETATM   15  C   UNL     1      -2.408   4.499 -33.527  1.00  0.00     0.045 A 
ENDBRANCH   8  11
ENDBRANCH   5   7
BRANCH   3  16
HETATM   16  N   UNL     1      -9.331   1.386 -32.627  1.00  0.00    -0.259 NA
HETATM   17  C   UNL     1     -10.121   0.770 -33.445  1.00  0.00     0.146 C 
BRANCH  17  18
HETATM   18  C   UNL     1     -11.528   1.062 -33.420  1.00  0.00     0.049 A 
HETATM   19  N   UNL     1     -12.043   2.278 -33.033  1.00  0.00    -0.365 N 
HETATM   20  H   UNL     1     -11.469   3.058 -32.735  1.00  0.00     0.165 HD
HETATM   21  C   UNL     1     -13.410   2.256 -33.113  1.00  0.00     0.088 A 
HETATM   22  C   UNL     1     -13.787   1.006 -33.551  1.00  0.00     0.019 A 
HETATM   23  C   UNL     1     -12.602   0.254 -33.745  1.00  0.00     0.032 A 
ENDBRANCH  17  18
ENDBRANCH   3  16
TORSDOF 4
ENDMDL
MODEL 8
REMARK VINA RESULT:      -6.7      4.894      7.784
REMARK  4 active torsions:
REMARK  status: ('A' for Active; 'I' for Inactive)
REMARK    1  A    between atoms: C_3  and  N_4 
REMARK    2  A    between atoms: C_5  and  C_6 
REMARK    3  A    between atoms: C_13  and  N_14 
REMARK       I    between atoms: N_14  and  C_15 
REMARK    4  A    between atoms: C_15  and  C_16 
ROOT
HETATM    1  C   UNL     1      -6.188   2.557 -33.272  1.00  0.00     0.005 A 
HETATM    2  C   UNL     1      -5.494   1.349 -33.221  1.00  0.00     0.031 A 
HETATM    3  C   UNL     1      -6.171   0.137 -33.364  1.00  0.00     0.058 A 
HETATM    4  C   UNL     1      -7.556   0.148 -33.582  1.00  0.00     0.061 A 
HETATM    5  C   UNL     1      -8.267   1.351 -33.621  1.00  0.00     0.037 A 
HETATM    6  C   UNL     1      -7.570   2.555 -33.471  1.00  0.00     0.029 A 
ENDROOT
BRANCH   5   7
HETATM    7  N   UNL     1      -9.659   1.436 -33.814  1.00  0.00    -0.321 N 
HETATM    8  C   UNL     1     -10.643   0.574 -33.358  1.00  0.00     0.279 C 
HETATM    9  O   UNL     1     -10.454  -0.418 -32.663  1.00  0.00    -0.265 OA
HETATM   10  H   UNL     1     -10.007   2.239 -34.327  1.00  0.00     0.169 HD
BRANCH   8  11
HETATM   11  C   UNL     1     -11.974   0.981 -33.775  1.00  0.00     0.142 A 
HETATM   12  O   UNL     1     -12.173   2.249 -34.260  1.00  0.00    -0.317 OA
HETATM   13  C   UNL     1     -13.490   2.354 -34.576  1.00  0.00     0.143 A 
HETATM   14  C   UNL     1     -14.149   1.179 -34.300  1.00  0.00     0.027 A 
HETATM   15  C   UNL     1     -13.173   0.292 -33.784  1.00  0.00     0.045 A 
ENDBRANCH   8  11
ENDBRANCH   5   7
BRANCH   3  16
HETATM   16  N   UNL     1      -5.426  -1.054 -33.349  1.00  0.00    -0.259 NA
HETATM   17  C   UNL     1      -5.850  -2.023 -34.094  1.00  0.00     0.146 C 
BRANCH  17  18
HETATM   18  C   UNL     1      -5.119  -3.260 -34.125  1.00  0.00     0.049 A 
HETATM   19  N   UNL     1      -3.863  -3.412 -33.582  1.00  0.00    -0.365 N 
HETATM   20  H   UNL     1      -3.360  -2.663 -33.121  1.00  0.00     0.165 HD
HETATM   21  C   UNL     1      -3.426  -4.696 -33.765  1.00  0.00     0.088 A 
HETATM   22  C   UNL     1      -4.408  -5.384 -34.442  1.00  0.00     0.019 A 
HETATM   23  C   UNL     1      -5.475  -4.480 -34.670  1.00  0.00     0.032 A 
ENDBRANCH  17  18
ENDBRANCH   3  16
TORSDOF 4
ENDMDL
MODEL 9
REMARK VINA RESULT:      -6.6      4.185      8.590
REMARK  4 active torsions:
REMARK  status: ('A' for Active; 'I' for Inactive)
REMARK    1  A    between atoms: C_3  and  N_4 
REMARK    2  A    between atoms: C_5  and  C_6 
REMARK    3  A    between atoms: C_13  and  N_14 
REMARK       I    between atoms: N_14  and  C_15 
REMARK    4  A    between atoms: C_15  and  C_16 
ROOT
HETATM    1  C   UNL     1      -5.850  -1.579 -33.496  1.00  0.00     0.005 A 
HETATM    2  C   UNL     1      -4.843  -0.699 -33.101  1.00  0.00     0.031 A 
HETATM    3  C   UNL     1      -5.094   0.670 -33.013  1.00  0.00     0.058 A 
HETATM    4  C   UNL     1      -6.380   1.150 -33.305  1.00  0.00     0.061 A 
HETATM    5  C   UNL     1      -7.395   0.282 -33.716  1.00  0.00     0.037 A 
HETATM    6  C   UNL     1      -7.120  -1.088 -33.802  1.00  0.00     0.029 A 
ENDROOT
BRANCH   5   7
HETATM    7  N   UNL     1      -8.699   0.695 -34.044  1.00  0.00    -0.321 N 
HETATM    8  C   UNL     1      -9.701   1.131 -33.194  1.00  0.00     0.279 C 
HETATM    9  O   UNL     1      -9.597   1.260 -31.978  1.00  0.00    -0.265 OA
HETATM   10  H   UNL     1      -8.947   0.709 -35.028  1.00  0.00     0.169 HD
BRANCH   8  11
HETATM   11  C   UNL     1     -10.928   1.456 -33.900  1.00  0.00     0.142 A 
HETATM   12  O   UNL     1     -12.024   0.641 -33.765  1.00  0.00    -0.317 OA
HETATM   13  C   UNL     1     -13.018   1.178 -34.518  1.00  0.00     0.143 A 
HETATM   14  C   UNL     1     -12.585   2.324 -35.144  1.00  0.00     0.027 A 
HETATM   15  C   UNL     1     -11.238   2.505 -34.746  1.00  0.00     0.045 A 
ENDBRANCH   8  11
ENDBRANCH   5   7
BRANCH   3  16
HETATM   16  N   UNL     1      -4.064   1.516 -32.571  1.00  0.00    -0.259 NA
HETATM   17  C   UNL     1      -4.103   2.747 -32.965  1.00  0.00     0.146 C 
BRANCH  17  18
HETATM   18  C   UNL     1      -3.079   3.658 -32.531  1.00  0.00     0.049 A 
HETATM   19  N   UNL     1      -2.791   3.900 -31.207  1.00  0.00    -0.365 N 
HETATM   20  H   UNL     1      -3.280   3.456 -30.439  1.00  0.00     0.165 HD
HETATM   21  C   UNL     1      -1.773   4.809 -31.108  1.00  0.00     0.088 A 
HETATM   22  C   UNL     1      -1.400   5.167 -32.384  1.00  0.00     0.019 A 
HETATM   23  C   UNL     1      -2.223   4.442 -33.281  1.00  0.00     0.032 A 
ENDBRANCH  17  18
ENDBRANCH   3  16
TORSDOF 4
ENDMDL
MODEL 10
REMARK VINA RESULT:      -6.6      3.889      8.662
REMARK  4 active torsions:
REMARK  status: ('A' for Active; 'I' for Inactive)
REMARK    1  A    between atoms: C_3  and  N_4 
REMARK    2  A    between atoms: C_5  and  C_6 
REMARK    3  A    between atoms: C_13  and  N_14 
REMARK       I    between atoms: N_14  and  C_15 
REMARK    4  A    between atoms: C_15  and  C_16 
ROOT
HETATM    1  C   UNL     1      -8.997   2.137 -31.240  1.00  0.00     0.005 A 
HETATM    2  C   UNL     1      -8.124   2.956 -30.526  1.00  0.00     0.031 A 
HETATM    3  C   UNL     1      -6.763   2.653 -30.462  1.00  0.00     0.058 A 
HETATM    4  C   UNL     1      -6.279   1.526 -31.142  1.00  0.00     0.061 A 
HETATM    5  C   UNL     1      -7.146   0.687 -31.849  1.00  0.00     0.037 A 
HETATM    6  C   UNL     1      -8.508   1.007 -31.897  1.00  0.00     0.029 A 
ENDROOT
BRANCH   5   7
HETATM    7  N   UNL     1      -6.734  -0.470 -32.536  1.00  0.00    -0.321 N 
HETATM    8  C   UNL     1      -6.371  -0.594 -33.866  1.00  0.00     0.279 C 
HETATM    9  O   UNL     1      -6.317   0.323 -34.679  1.00  0.00    -0.265 OA
HETATM   10  H   UNL     1      -6.663  -1.328 -31.998  1.00  0.00     0.169 HD
BRANCH   8  11
HETATM   11  C   UNL     1      -6.022  -1.959 -34.222  1.00  0.00     0.142 A 
HETATM   12  O   UNL     1      -4.716  -2.370 -34.128  1.00  0.00    -0.317 OA
HETATM   13  C   UNL     1      -4.678  -3.673 -34.510  1.00  0.00     0.143 A 
HETATM   14  C   UNL     1      -5.934  -4.113 -34.855  1.00  0.00     0.027 A 
HETATM   15  C   UNL     1      -6.802  -3.009 -34.670  1.00  0.00     0.045 A 
ENDBRANCH   8  11
ENDBRANCH   5   7
BRANCH   3  16
HETATM   16  N   UNL     1      -5.912   3.529 -29.768  1.00  0.00    -0.259 NA
HETATM   17  C   UNL     1      -6.440   4.611 -29.296  1.00  0.00     0.146 C 
BRANCH  17  18
HETATM   18  C   UNL     1      -5.616   5.536 -28.566  1.00  0.00     0.049 A 
HETATM   19  N   UNL     1      -5.252   5.353 -27.251  1.00  0.00    -0.365 N 
HETATM   20  H   UNL     1      -5.539   4.553 -26.699  1.00  0.00     0.165 HD
HETATM   21  C   UNL     1      -4.469   6.394 -26.832  1.00  0.00     0.088 A 
HETATM   22  C   UNL     1      -4.330   7.269 -27.887  1.00  0.00     0.019 A 
HETATM   23  C   UNL     1      -5.052   6.728 -28.979  1.00  0.00     0.032 A 
ENDBRANCH  17  18
ENDBRANCH   3  16
TORSDOF 4
ENDMDL
