MODEL 1
REMARK VINA RESULT:      -8.4      0.000      0.000
REMARK  9 active torsions:
REMARK  status: ('A' for Active; 'I' for Inactive)
REMARK    1  A    between atoms: C_2  and  O_3 
REMARK    2  A    between atoms: O_3  and  C_4 
REMARK    3  A    between atoms: C_7  and  N_8 
REMARK    4  A    between atoms: C_12  and  N_13 
REMARK       I    between atoms: N_13  and  C_14 
REMARK       I    between atoms: C_14  and  N_15 
REMARK    5  A    between atoms: N_15  and  C_16 
REMARK    6  A    between atoms: C_16  and  C_17 
REMARK    7  A    between atoms: C_17  and  C_18 
REMARK    8  A    between atoms: C_21  and  S_22 
REMARK    9  A    between atoms: S_22  and  N_23 
ROOT
HETATM    1  N   UNL     1      -4.665   4.397 -33.430  1.00  0.00    -0.336 N 
HETATM    2  C   UNL     1      -4.998   3.112 -33.082  1.00  0.00     0.316 C 
HETATM    3  N   UNL     1      -6.333   2.887 -33.270  1.00  0.00    -0.343 N 
HETATM    4  O   UNL     1      -4.209   2.294 -32.635  1.00  0.00    -0.248 OA
HETATM    5  H   UNL     1      -5.175   4.729 -34.238  1.00  0.00     0.164 HD
HETATM    6  H   UNL     1      -6.923   3.707 -33.227  1.00  0.00     0.164 HD
ENDROOT
BRANCH   1   7
HETATM    7  C   UNL     1      -3.290   4.858 -33.280  1.00  0.00     0.113 C 
HETATM    8  C   UNL     1      -2.991   6.043 -34.184  1.00  0.00     0.130 C 
HETATM    9  C   UNL     1      -2.001   6.870 -33.405  1.00  0.00     0.226 C 
HETATM   10  N   UNL     1      -2.054   6.479 -32.064  1.00  0.00    -0.316 N 
HETATM   11  O   UNL     1      -1.348   7.761 -33.927  1.00  0.00    -0.273 OA
HETATM   12  C   UNL     1      -2.973   5.380 -31.879  1.00  0.00     0.157 C 
BRANCH  10  13
HETATM   13  C   UNL     1      -1.478   7.164 -30.957  1.00  0.00     0.037 A 
HETATM   14  C   UNL     1      -2.188   8.119 -30.219  1.00  0.00     0.032 A 
HETATM   15  C   UNL     1      -1.640   8.713 -29.071  1.00  0.00     0.039 A 
HETATM   16  C   UNL     1      -0.365   8.359 -28.641  1.00  0.00     0.068 A 
HETATM   17  C   UNL     1       0.381   7.464 -29.398  1.00  0.00     0.039 A 
HETATM   18  C   UNL     1      -0.171   6.867 -30.538  1.00  0.00     0.032 A 
BRANCH  16  19
HETATM   19  O   UNL     1       0.249   8.836 -27.518  1.00  0.00    -0.352 OA
BRANCH  19  20
HETATM   20  C   UNL     1       1.660   8.618 -27.454  1.00  0.00     0.171 C 
HETATM   21  C   UNL     1       2.007   8.232 -26.028  1.00  0.00     0.034 C 
ENDBRANCH  19  20
ENDBRANCH  16  19
ENDBRANCH  10  13
ENDBRANCH   1   7
BRANCH   3  22
HETATM   22  C   UNL     1      -6.922   1.606 -32.930  1.00  0.00     0.129 C 
BRANCH  22  23
HETATM   23  C   UNL     1      -7.135   0.699 -34.148  1.00  0.00     0.058 C 
BRANCH  23  24
HETATM   24  C   UNL     1      -6.317  -0.574 -34.135  1.00  0.00    -0.057 A 
HETATM   25  C   UNL     1      -6.743  -1.712 -34.835  1.00  0.00     0.009 A 
HETATM   26  C   UNL     1      -5.993  -2.889 -34.799  1.00  0.00     0.025 A 
HETATM   27  C   UNL     1      -4.798  -2.924 -34.076  1.00  0.00     0.074 A 
HETATM   28  C   UNL     1      -4.355  -1.798 -33.379  1.00  0.00     0.025 A 
HETATM   29  C   UNL     1      -5.111  -0.625 -33.417  1.00  0.00     0.009 A 
BRANCH  27  30
HETATM   30  S   UNL     1      -3.876  -4.429 -33.988  1.00  0.00     0.239 S 
HETATM   31  O   UNL     1      -2.885  -4.442 -35.040  1.00  0.00    -0.206 OA
HETATM   32  O   UNL     1      -3.542  -4.699 -32.609  1.00  0.00    -0.206 OA
BRANCH  30  33
HETATM   33  N   UNL     1      -5.026  -5.570 -34.422  1.00  0.00    -0.225 NA
HETATM   34  H   UNL     1      -5.549  -5.867 -33.597  1.00  0.00     0.136 HD
HETATM   35  H   UNL     1      -5.612  -5.203 -35.172  1.00  0.00     0.136 HD
ENDBRANCH  30  33
ENDBRANCH  27  30
ENDBRANCH  23  24
ENDBRANCH  22  23
ENDBRANCH   3  22
TORSDOF 9
ENDMDL
MODEL 2
REMARK VINA RESULT:      -8.4      3.366     10.844
REMARK  9 active torsions:
REMARK  status: ('A' for Active; 'I' for Inactive)
REMARK    1  A    between atoms: C_2  and  O_3 
REMARK    2  A    between atoms: O_3  and  C_4 
REMARK    3  A    between atoms: C_7  and  N_8 
REMARK    4  A    between atoms: C_12  and  N_13 
REMARK       I    between atoms: N_13  and  C_14 
REMARK       I    between atoms: C_14  and  N_15 
REMARK    5  A    between atoms: N_15  and  C_16 
REMARK    6  A    between atoms: C_16  and  C_17 
REMARK    7  A    between atoms: C_17  and  C_18 
REMARK    8  A    between atoms: C_21  and  S_22 
REMARK    9  A    between atoms: S_22  and  N_23 
ROOT
HETATM    1  N   UNL     1      -4.057   4.283 -31.660  1.00  0.00    -0.336 N 
HETATM    2  C   UNL     1      -2.916   4.861 -32.156  1.00  0.00     0.316 C 
HETATM    3  N   UNL     1      -3.179   6.107 -32.656  1.00  0.00    -0.343 N 
HETATM    4  O   UNL     1      -1.822   4.319 -32.176  1.00  0.00    -0.248 OA
HETATM    5  H   UNL     1      -4.666   4.948 -31.201  1.00  0.00     0.164 HD
HETATM    6  H   UNL     1      -4.128   6.260 -32.965  1.00  0.00     0.164 HD
ENDROOT
BRANCH   1   7
HETATM    7  C   UNL     1      -4.008   2.937 -31.102  1.00  0.00     0.113 C 
HETATM    8  C   UNL     1      -5.311   2.563 -30.416  1.00  0.00     0.130 C 
HETATM    9  C   UNL     1      -5.446   1.080 -30.648  1.00  0.00     0.226 C 
HETATM   10  N   UNL     1      -4.596   0.716 -31.696  1.00  0.00    -0.316 N 
HETATM   11  O   UNL     1      -6.242   0.396 -30.023  1.00  0.00    -0.273 OA
HETATM   12  C   UNL     1      -3.826   1.848 -32.158  1.00  0.00     0.157 C 
BRANCH  10  13
HETATM   13  C   UNL     1      -4.597  -0.522 -32.400  1.00  0.00     0.037 A 
HETATM   14  C   UNL     1      -5.426  -0.751 -33.505  1.00  0.00     0.032 A 
HETATM   15  C   UNL     1      -5.344  -1.940 -34.247  1.00  0.00     0.039 A 
HETATM   16  C   UNL     1      -4.428  -2.924 -33.892  1.00  0.00     0.068 A 
HETATM   17  C   UNL     1      -3.645  -2.744 -32.759  1.00  0.00     0.039 A 
HETATM   18  C   UNL     1      -3.722  -1.555 -32.025  1.00  0.00     0.032 A 
BRANCH  16  19
HETATM   19  O   UNL     1      -4.230  -4.097 -34.565  1.00  0.00    -0.352 OA
BRANCH  19  20
HETATM   20  C   UNL     1      -5.309  -5.031 -34.495  1.00  0.00     0.171 C 
HETATM   21  C   UNL     1      -6.307  -4.672 -35.580  1.00  0.00     0.034 C 
ENDBRANCH  19  20
ENDBRANCH  16  19
ENDBRANCH  10  13
ENDBRANCH   1   7
BRANCH   3  22
HETATM   22  C   UNL     1      -2.127   6.893 -33.272  1.00  0.00     0.129 C 
BRANCH  22  23
HETATM   23  C   UNL     1      -1.813   8.183 -32.506  1.00  0.00     0.058 C 
BRANCH  23  24
HETATM   24  C   UNL     1      -1.328   7.971 -31.088  1.00  0.00    -0.057 A 
HETATM   25  C   UNL     1      -0.160   7.240 -30.826  1.00  0.00     0.009 A 
HETATM   26  C   UNL     1       0.266   7.031 -29.513  1.00  0.00     0.025 A 
HETATM   27  C   UNL     1      -0.467   7.573 -28.455  1.00  0.00     0.074 A 
HETATM   28  C   UNL     1      -1.628   8.309 -28.698  1.00  0.00     0.025 A 
HETATM   29  C   UNL     1      -2.051   8.512 -30.012  1.00  0.00     0.009 A 
BRANCH  27  30
HETATM   30  S   UNL     1       0.044   7.264 -26.791  1.00  0.00     0.239 S 
HETATM   31  O   UNL     1       1.479   7.100 -26.758  1.00  0.00    -0.206 OA
HETATM   32  O   UNL     1      -0.651   8.169 -25.907  1.00  0.00    -0.206 OA
BRANCH  30  33
HETATM   33  N   UNL     1      -0.601   5.742 -26.504  1.00  0.00    -0.225 NA
HETATM   34  H   UNL     1       0.111   5.028 -26.664  1.00  0.00     0.136 HD
HETATM   35  H   UNL     1      -1.014   5.711 -25.572  1.00  0.00     0.136 HD
ENDBRANCH  30  33
ENDBRANCH  27  30
ENDBRANCH  23  24
ENDBRANCH  22  23
ENDBRANCH   3  22
TORSDOF 9
ENDMDL
MODEL 3
REMARK VINA RESULT:      -8.1      4.410     11.116
REMARK  9 active torsions:
REMARK  status: ('A' for Active; 'I' for Inactive)
REMARK    1  A    between atoms: C_2  and  O_3 
REMARK    2  A    between atoms: O_3  and  C_4 
REMARK    3  A    between atoms: C_7  and  N_8 
REMARK    4  A    between atoms: C_12  and  N_13 
REMARK       I    between atoms: N_13  and  C_14 
REMARK       I    between atoms: C_14  and  N_15 
REMARK    5  A    between atoms: N_15  and  C_16 
REMARK    6  A    between atoms: C_16  and  C_17 
REMARK    7  A    between atoms: C_17  and  C_18 
REMARK    8  A    between atoms: C_21  and  S_22 
REMARK    9  A    between atoms: S_22  and  N_23 
ROOT
HETATM    1  N   UNL     1      -4.400   4.072 -33.353  1.00  0.00    -0.336 N 
HETATM    2  C   UNL     1      -3.076   4.281 -33.057  1.00  0.00     0.316 C 
HETATM    3  N   UNL     1      -2.556   5.281 -33.830  1.00  0.00    -0.343 N 
HETATM    4  O   UNL     1      -2.444   3.634 -32.235  1.00  0.00    -0.248 OA
HETATM    5  H   UNL     1      -4.895   4.930 -33.557  1.00  0.00     0.164 HD
HETATM    6  H   UNL     1      -3.017   5.431 -34.716  1.00  0.00     0.164 HD
ENDROOT
BRANCH   1   7
HETATM    7  C   UNL     1      -5.144   3.027 -32.661  1.00  0.00     0.113 C 
HETATM    8  C   UNL     1      -5.752   3.532 -31.363  1.00  0.00     0.130 C 
HETATM    9  C   UNL     1      -7.039   2.761 -31.226  1.00  0.00     0.226 C 
HETATM   10  N   UNL     1      -7.368   2.221 -32.472  1.00  0.00    -0.316 N 
HETATM   11  O   UNL     1      -7.664   2.723 -30.176  1.00  0.00    -0.273 OA
HETATM   12  C   UNL     1      -6.347   2.513 -33.452  1.00  0.00     0.157 C 
BRANCH  10  13
HETATM   13  C   UNL     1      -8.616   1.643 -32.846  1.00  0.00     0.037 A 
HETATM   14  C   UNL     1      -8.970   0.337 -32.485  1.00  0.00     0.032 A 
HETATM   15  C   UNL     1     -10.242  -0.182 -32.775  1.00  0.00     0.039 A 
HETATM   16  C   UNL     1     -11.183   0.600 -33.436  1.00  0.00     0.068 A 
HETATM   17  C   UNL     1     -10.826   1.874 -33.862  1.00  0.00     0.039 A 
HETATM   18  C   UNL     1      -9.561   2.393 -33.564  1.00  0.00     0.032 A 
BRANCH  16  19
HETATM   19  O   UNL     1     -12.461   0.217 -33.730  1.00  0.00    -0.352 OA
BRANCH  19  20
HETATM   20  C   UNL     1     -13.392   1.286 -33.912  1.00  0.00     0.171 C 
HETATM   21  C   UNL     1     -14.741   0.676 -34.246  1.00  0.00     0.034 C 
ENDBRANCH  19  20
ENDBRANCH  16  19
ENDBRANCH  10  13
ENDBRANCH   1   7
BRANCH   3  22
HETATM   22  C   UNL     1      -1.158   5.650 -33.720  1.00  0.00     0.129 C 
BRANCH  22  23
HETATM   23  C   UNL     1      -0.950   7.066 -33.171  1.00  0.00     0.058 C 
BRANCH  23  24
HETATM   24  C   UNL     1      -0.690   7.133 -31.681  1.00  0.00    -0.057 A 
HETATM   25  C   UNL     1       0.435   6.514 -31.117  1.00  0.00     0.009 A 
HETATM   26  C   UNL     1       0.653   6.562 -29.739  1.00  0.00     0.025 A 
HETATM   27  C   UNL     1      -0.246   7.250 -28.921  1.00  0.00     0.074 A 
HETATM   28  C   UNL     1      -1.368   7.877 -29.467  1.00  0.00     0.025 A 
HETATM   29  C   UNL     1      -1.582   7.823 -30.845  1.00  0.00     0.009 A 
BRANCH  27  30
HETATM   30  S   UNL     1       0.003   7.266 -27.171  1.00  0.00     0.239 S 
HETATM   31  O   UNL     1       1.419   7.189 -26.892  1.00  0.00    -0.206 OA
HETATM   32  O   UNL     1      -0.847   8.273 -26.581  1.00  0.00    -0.206 OA
BRANCH  30  33
HETATM   33  N   UNL     1      -0.639   5.786 -26.713  1.00  0.00    -0.225 NA
HETATM   34  H   UNL     1      -1.589   5.693 -27.074  1.00  0.00     0.136 HD
HETATM   35  H   UNL     1      -0.013   5.033 -27.000  1.00  0.00     0.136 HD
ENDBRANCH  30  33
ENDBRANCH  27  30
ENDBRANCH  23  24
ENDBRANCH  22  23
ENDBRANCH   3  22
TORSDOF 9
ENDMDL
MODEL 4
REMARK VINA RESULT:      -8.1      3.793      5.053
REMARK  9 active torsions:
REMARK  status: ('A' for Active; 'I' for Inactive)
REMARK    1  A    between atoms: C_2  and  O_3 
REMARK    2  A    between atoms: O_3  and  C_4 
REMARK    3  A    between atoms: C_7  and  N_8 
REMARK    4  A    between atoms: C_12  and  N_13 
REMARK       I    between atoms: N_13  and  C_14 
REMARK       I    between atoms: C_14  and  N_15 
REMARK    5  A    between atoms: N_15  and  C_16 
REMARK    6  A    between atoms: C_16  and  C_17 
REMARK    7  A    between atoms: C_17  and  C_18 
REMARK    8  A    between atoms: C_21  and  S_22 
REMARK    9  A    between atoms: S_22  and  N_23 
ROOT
HETATM    1  N   UNL     1      -4.394   4.075 -33.167  1.00  0.00    -0.336 N 
HETATM    2  C   UNL     1      -4.696   2.834 -32.664  1.00  0.00     0.316 C 
HETATM    3  N   UNL     1      -6.026   2.555 -32.821  1.00  0.00    -0.343 N 
HETATM    4  O   UNL     1      -3.889   2.096 -32.121  1.00  0.00    -0.248 OA
HETATM    5  H   UNL     1      -4.911   4.292 -34.009  1.00  0.00     0.164 HD
HETATM    6  H   UNL     1      -6.635   3.360 -32.878  1.00  0.00     0.164 HD
ENDROOT
BRANCH   1   7
HETATM    7  C   UNL     1      -3.031   4.584 -33.077  1.00  0.00     0.113 C 
HETATM    8  C   UNL     1      -2.813   5.775 -33.995  1.00  0.00     0.130 C 
HETATM    9  C   UNL     1      -1.820   6.638 -33.261  1.00  0.00     0.226 C 
HETATM   10  N   UNL     1      -1.802   6.250 -31.918  1.00  0.00    -0.316 N 
HETATM   11  O   UNL     1      -1.221   7.551 -33.812  1.00  0.00    -0.273 OA
HETATM   12  C   UNL     1      -2.673   5.120 -31.691  1.00  0.00     0.157 C 
BRANCH  10  13
HETATM   13  C   UNL     1      -1.203   6.959 -30.837  1.00  0.00     0.037 A 
HETATM   14  C   UNL     1      -1.890   7.946 -30.120  1.00  0.00     0.032 A 
HETATM   15  C   UNL     1      -1.321   8.564 -28.996  1.00  0.00     0.039 A 
HETATM   16  C   UNL     1      -0.047   8.204 -28.570  1.00  0.00     0.068 A 
HETATM   17  C   UNL     1       0.677   7.275 -29.308  1.00  0.00     0.039 A 
HETATM   18  C   UNL     1       0.104   6.654 -30.423  1.00  0.00     0.032 A 
BRANCH  16  19
HETATM   19  O   UNL     1       0.587   8.704 -27.467  1.00  0.00    -0.352 OA
BRANCH  19  20
HETATM   20  C   UNL     1       1.495   7.806 -26.826  1.00  0.00     0.171 C 
HETATM   21  C   UNL     1       2.140   8.546 -25.669  1.00  0.00     0.034 C 
ENDBRANCH  19  20
ENDBRANCH  16  19
ENDBRANCH  10  13
ENDBRANCH   1   7
BRANCH   3  22
HETATM   22  C   UNL     1      -6.584   1.312 -32.325  1.00  0.00     0.129 C 
BRANCH  22  23
HETATM   23  C   UNL     1      -7.816   1.518 -31.437  1.00  0.00     0.058 C 
BRANCH  23  24
HETATM   24  C   UNL     1      -9.136   1.509 -32.178  1.00  0.00    -0.057 A 
HETATM   25  C   UNL     1      -9.703   0.308 -32.628  1.00  0.00     0.009 A 
HETATM   26  C   UNL     1     -10.909   0.314 -33.330  1.00  0.00     0.025 A 
HETATM   27  C   UNL     1     -11.565   1.524 -33.567  1.00  0.00     0.074 A 
HETATM   28  C   UNL     1     -11.018   2.729 -33.120  1.00  0.00     0.025 A 
HETATM   29  C   UNL     1      -9.810   2.717 -32.421  1.00  0.00     0.009 A 
BRANCH  27  30
HETATM   30  S   UNL     1     -13.065   1.536 -34.502  1.00  0.00     0.239 S 
HETATM   31  O   UNL     1     -12.751   1.702 -35.902  1.00  0.00    -0.206 OA
HETATM   32  O   UNL     1     -13.928   0.482 -34.023  1.00  0.00    -0.206 OA
BRANCH  30  33
HETATM   33  N   UNL     1     -13.772   2.976 -34.013  1.00  0.00    -0.225 NA
HETATM   34  H   UNL     1     -14.764   2.829 -33.823  1.00  0.00     0.136 HD
HETATM   35  H   UNL     1     -13.254   3.365 -33.225  1.00  0.00     0.136 HD
ENDBRANCH  30  33
ENDBRANCH  27  30
ENDBRANCH  23  24
ENDBRANCH  22  23
ENDBRANCH   3  22
TORSDOF 9
ENDMDL
MODEL 5
REMARK VINA RESULT:      -8.1      4.368     11.939
REMARK  9 active torsions:
REMARK  status: ('A' for Active; 'I' for Inactive)
REMARK    1  A    between atoms: C_2  and  O_3 
REMARK    2  A    between atoms: O_3  and  C_4 
REMARK    3  A    between atoms: C_7  and  N_8 
REMARK    4  A    between atoms: C_12  and  N_13 
REMARK       I    between atoms: N_13  and  C_14 
REMARK       I    between atoms: C_14  and  N_15 
REMARK    5  A    between atoms: N_15  and  C_16 
REMARK    6  A    between atoms: C_16  and  C_17 
REMARK    7  A    between atoms: C_17  and  C_18 
REMARK    8  A    between atoms: C_21  and  S_22 
REMARK    9  A    between atoms: S_22  and  N_23 
ROOT
HETATM    1  N   UNL     1      -3.009   3.116 -31.335  1.00  0.00    -0.336 N 
HETATM    2  C   UNL     1      -2.345   4.202 -31.848  1.00  0.00     0.316 C 
HETATM    3  N   UNL     1      -1.847   4.987 -30.846  1.00  0.00    -0.343 N 
HETATM    4  O   UNL     1      -2.243   4.445 -33.041  1.00  0.00    -0.248 OA
HETATM    5  H   UNL     1      -2.567   2.743 -30.505  1.00  0.00     0.164 HD
HETATM    6  H   UNL     1      -2.336   4.928 -29.964  1.00  0.00     0.164 HD
ENDROOT
BRANCH   1   7
HETATM    7  C   UNL     1      -3.644   2.160 -32.234  1.00  0.00     0.113 C 
HETATM    8  C   UNL     1      -3.504   0.734 -31.729  1.00  0.00     0.130 C 
HETATM    9  C   UNL     1      -4.770   0.050 -32.177  1.00  0.00     0.226 C 
HETATM   10  N   UNL     1      -5.715   1.031 -32.494  1.00  0.00    -0.316 N 
HETATM   11  O   UNL     1      -4.889  -1.166 -32.168  1.00  0.00    -0.273 OA
HETATM   12  C   UNL     1      -5.154   2.356 -32.361  1.00  0.00     0.157 C 
BRANCH  10  13
HETATM   13  C   UNL     1      -7.108   0.829 -32.714  1.00  0.00     0.037 A 
HETATM   14  C   UNL     1      -7.990   0.523 -31.670  1.00  0.00     0.032 A 
HETATM   15  C   UNL     1      -9.374   0.425 -31.887  1.00  0.00     0.039 A 
HETATM   16  C   UNL     1      -9.898   0.630 -33.159  1.00  0.00     0.068 A 
HETATM   17  C   UNL     1      -9.032   0.868 -34.219  1.00  0.00     0.039 A 
HETATM   18  C   UNL     1      -7.654   0.973 -33.999  1.00  0.00     0.032 A 
BRANCH  16  19
HETATM   19  O   UNL     1     -11.227   0.605 -33.478  1.00  0.00    -0.352 OA
BRANCH  19  20
HETATM   20  C   UNL     1     -11.772   1.849 -33.923  1.00  0.00     0.171 C 
HETATM   21  C   UNL     1     -12.598   1.576 -35.166  1.00  0.00     0.034 C 
ENDBRANCH  19  20
ENDBRANCH  16  19
ENDBRANCH  10  13
ENDBRANCH   1   7
BRANCH   3  22
HETATM   22  C   UNL     1      -1.140   6.216 -31.151  1.00  0.00     0.129 C 
BRANCH  22  23
HETATM   23  C   UNL     1       0.159   6.376 -30.354  1.00  0.00     0.058 C 
BRANCH  23  24
HETATM   24  C   UNL     1       0.110   7.435 -29.274  1.00  0.00    -0.057 A 
HETATM   25  C   UNL     1      -0.987   8.303 -29.164  1.00  0.00     0.009 A 
HETATM   26  C   UNL     1      -1.013   9.290 -28.178  1.00  0.00     0.025 A 
HETATM   27  C   UNL     1       0.054   9.400 -27.282  1.00  0.00     0.074 A 
HETATM   28  C   UNL     1       1.150   8.540 -27.373  1.00  0.00     0.025 A 
HETATM   29  C   UNL     1       1.171   7.556 -28.362  1.00  0.00     0.009 A 
BRANCH  27  30
HETATM   30  S   UNL     1       0.044  10.684 -26.067  1.00  0.00     0.239 S 
HETATM   31  O   UNL     1      -1.059  11.580 -26.333  1.00  0.00    -0.206 OA
HETATM   32  O   UNL     1       0.273  10.105 -24.765  1.00  0.00    -0.206 OA
BRANCH  30  33
HETATM   33  N   UNL     1       1.436  11.538 -26.451  1.00  0.00    -0.225 NA
HETATM   34  H   UNL     1       1.480  11.695 -27.459  1.00  0.00     0.136 HD
HETATM   35  H   UNL     1       1.479  12.394 -25.898  1.00  0.00     0.136 HD
ENDBRANCH  30  33
ENDBRANCH  27  30
ENDBRANCH  23  24
ENDBRANCH  22  23
ENDBRANCH   3  22
TORSDOF 9
ENDMDL
MODEL 6
REMARK VINA RESULT:      -7.7      3.913      9.716
REMARK  9 active torsions:
REMARK  status: ('A' for Active; 'I' for Inactive)
REMARK    1  A    between atoms: C_2  and  O_3 
REMARK    2  A    between atoms: O_3  and  C_4 
REMARK    3  A    between atoms: C_7  and  N_8 
REMARK    4  A    between atoms: C_12  and  N_13 
REMARK       I    between atoms: N_13  and  C_14 
REMARK       I    between atoms: C_14  and  N_15 
REMARK    5  A    between atoms: N_15  and  C_16 
REMARK    6  A    between atoms: C_16  and  C_17 
REMARK    7  A    between atoms: C_17  and  C_18 
REMARK    8  A    between atoms: C_21  and  S_22 
REMARK    9  A    between atoms: S_22  and  N_23 
ROOT
HETATM    1  N   UNL     1      -8.604   3.141 -29.981  1.00  0.00    -0.336 N 
HETATM    2  C   UNL     1      -7.311   3.543 -29.763  1.00  0.00     0.316 C 
HETATM    3  N   UNL     1      -7.251   4.473 -28.763  1.00  0.00    -0.343 N 
HETATM    4  O   UNL     1      -6.349   3.143 -30.402  1.00  0.00    -0.248 OA
HETATM    5  H   UNL     1      -9.142   3.073 -29.127  1.00  0.00     0.164 HD
HETATM    6  H   UNL     1      -8.093   5.013 -28.621  1.00  0.00     0.164 HD
ENDROOT
BRANCH   1   7
HETATM    7  C   UNL     1      -8.898   2.169 -31.028  1.00  0.00     0.113 C 
HETATM    8  C   UNL     1      -9.098   2.838 -32.377  1.00  0.00     0.130 C 
HETATM    9  C   UNL     1      -8.571   1.838 -33.374  1.00  0.00     0.226 C 
HETATM   10  N   UNL     1      -7.765   0.919 -32.696  1.00  0.00    -0.316 N 
HETATM   11  O   UNL     1      -8.804   1.930 -34.570  1.00  0.00    -0.273 OA
HETATM   12  C   UNL     1      -7.759   1.181 -31.275  1.00  0.00     0.157 C 
BRANCH  10  13
HETATM   13  C   UNL     1      -6.878  -0.028 -33.284  1.00  0.00     0.037 A 
HETATM   14  C   UNL     1      -5.497  -0.000 -33.052  1.00  0.00     0.032 A 
HETATM   15  C   UNL     1      -4.650  -0.998 -33.558  1.00  0.00     0.039 A 
HETATM   16  C   UNL     1      -5.173  -2.045 -34.309  1.00  0.00     0.068 A 
HETATM   17  C   UNL     1      -6.531  -2.053 -34.607  1.00  0.00     0.039 A 
HETATM   18  C   UNL     1      -7.375  -1.062 -34.094  1.00  0.00     0.032 A 
BRANCH  16  19
HETATM   19  O   UNL     1      -4.454  -3.092 -34.813  1.00  0.00    -0.352 OA
BRANCH  19  20
HETATM   20  C   UNL     1      -4.696  -4.355 -34.189  1.00  0.00     0.171 C 
HETATM   21  C   UNL     1      -3.364  -4.897 -33.704  1.00  0.00     0.034 C 
ENDBRANCH  19  20
ENDBRANCH  16  19
ENDBRANCH  10  13
ENDBRANCH   1   7
BRANCH   3  22
HETATM   22  C   UNL     1      -5.986   5.073 -28.386  1.00  0.00     0.129 C 
BRANCH  22  23
HETATM   23  C   UNL     1      -5.713   6.402 -29.100  1.00  0.00     0.058 C 
BRANCH  23  24
HETATM   24  C   UNL     1      -4.971   6.271 -30.412  1.00  0.00    -0.057 A 
HETATM   25  C   UNL     1      -5.656   6.308 -31.636  1.00  0.00     0.009 A 
HETATM   26  C   UNL     1      -4.965   6.164 -32.839  1.00  0.00     0.025 A 
HETATM   27  C   UNL     1      -3.577   6.002 -32.824  1.00  0.00     0.074 A 
HETATM   28  C   UNL     1      -2.879   5.970 -31.616  1.00  0.00     0.025 A 
HETATM   29  C   UNL     1      -3.576   6.112 -30.415  1.00  0.00     0.009 A 
BRANCH  27  30
HETATM   30  S   UNL     1      -2.710   5.767 -34.346  1.00  0.00     0.239 S 
HETATM   31  O   UNL     1      -1.658   4.796 -34.148  1.00  0.00    -0.206 OA
HETATM   32  O   UNL     1      -3.665   5.662 -35.424  1.00  0.00    -0.206 OA
BRANCH  30  33
HETATM   33  N   UNL     1      -1.943   7.245 -34.544  1.00  0.00    -0.225 NA
HETATM   34  H   UNL     1      -2.401   7.953 -33.968  1.00  0.00     0.136 HD
HETATM   35  H   UNL     1      -0.945   7.145 -34.358  1.00  0.00     0.136 HD
ENDBRANCH  30  33
ENDBRANCH  27  30
ENDBRANCH  23  24
ENDBRANCH  22  23
ENDBRANCH   3  22
TORSDOF 9
ENDMDL
MODEL 7
REMARK VINA RESULT:      -7.7      4.079     11.475
REMARK  9 active torsions:
REMARK  status: ('A' for Active; 'I' for Inactive)
REMARK    1  A    between atoms: C_2  and  O_3 
REMARK    2  A    between atoms: O_3  and  C_4 
REMARK    3  A    between atoms: C_7  and  N_8 
REMARK    4  A    between atoms: C_12  and  N_13 
REMARK       I    between atoms: N_13  and  C_14 
REMARK       I    between atoms: C_14  and  N_15 
REMARK    5  A    between atoms: N_15  and  C_16 
REMARK    6  A    between atoms: C_16  and  C_17 
REMARK    7  A    between atoms: C_17  and  C_18 
REMARK    8  A    between atoms: C_21  and  S_22 
REMARK    9  A    between atoms: S_22  and  N_23 
ROOT
HETATM    1  N   UNL     1      -4.240   5.243 -30.391  1.00  0.00    -0.336 N 
HETATM    2  C   UNL     1      -3.035   5.267 -31.046  1.00  0.00     0.316 C 
HETATM    3  N   UNL     1      -2.078   5.878 -30.285  1.00  0.00    -0.343 N 
HETATM    4  O   UNL     1      -2.855   4.828 -32.172  1.00  0.00    -0.248 OA
HETATM    5  H   UNL     1      -4.142   5.090 -29.396  1.00  0.00     0.164 HD
HETATM    6  H   UNL     1      -2.422   6.545 -29.608  1.00  0.00     0.164 HD
ENDROOT
BRANCH   1   7
HETATM    7  C   UNL     1      -5.409   4.658 -31.038  1.00  0.00     0.113 C 
HETATM    8  C   UNL     1      -5.730   5.348 -32.353  1.00  0.00     0.130 C 
HETATM    9  C   UNL     1      -6.292   4.255 -33.224  1.00  0.00     0.226 C 
HETATM   10  N   UNL     1      -5.934   3.021 -32.674  1.00  0.00    -0.316 N 
HETATM   11  O   UNL     1      -6.892   4.495 -34.261  1.00  0.00    -0.273 OA
HETATM   12  C   UNL     1      -5.216   3.194 -31.431  1.00  0.00     0.157 C 
BRANCH  10  13
HETATM   13  C   UNL     1      -6.039   1.747 -33.303  1.00  0.00     0.037 A 
HETATM   14  C   UNL     1      -5.368   0.618 -32.817  1.00  0.00     0.032 A 
HETATM   15  C   UNL     1      -5.560  -0.649 -33.389  1.00  0.00     0.039 A 
HETATM   16  C   UNL     1      -6.429  -0.808 -34.464  1.00  0.00     0.068 A 
HETATM   17  C   UNL     1      -7.051   0.312 -35.002  1.00  0.00     0.039 A 
HETATM   18  C   UNL     1      -6.865   1.573 -34.425  1.00  0.00     0.032 A 
BRANCH  16  19
HETATM   19  O   UNL     1      -6.727  -1.995 -35.069  1.00  0.00    -0.352 OA
BRANCH  19  20
HETATM   20  C   UNL     1      -5.724  -3.007 -34.955  1.00  0.00     0.171 C 
HETATM   21  C   UNL     1      -6.406  -4.356 -35.100  1.00  0.00     0.034 C 
ENDBRANCH  19  20
ENDBRANCH  16  19
ENDBRANCH  10  13
ENDBRANCH   1   7
BRANCH   3  22
HETATM   22  C   UNL     1      -0.731   6.056 -30.792  1.00  0.00     0.129 C 
BRANCH  22  23
HETATM   23  C   UNL     1       0.349   5.622 -29.795  1.00  0.00     0.058 C 
BRANCH  23  24
HETATM   24  C   UNL     1       0.540   6.560 -28.624  1.00  0.00    -0.057 A 
HETATM   25  C   UNL     1       0.208   6.164 -27.320  1.00  0.00     0.009 A 
HETATM   26  C   UNL     1       0.366   7.045 -26.249  1.00  0.00     0.025 A 
HETATM   27  C   UNL     1       0.879   8.324 -26.478  1.00  0.00     0.074 A 
HETATM   28  C   UNL     1       1.221   8.733 -27.768  1.00  0.00     0.025 A 
HETATM   29  C   UNL     1       1.058   7.848 -28.835  1.00  0.00     0.009 A 
BRANCH  27  30
HETATM   30  S   UNL     1       1.029   9.457 -25.129  1.00  0.00     0.239 S 
HETATM   31  O   UNL     1      -0.289   9.873 -24.709  1.00  0.00    -0.206 OA
HETATM   32  O   UNL     1       2.015   8.958 -24.200  1.00  0.00    -0.206 OA
BRANCH  30  33
HETATM   33  N   UNL     1       1.721  10.794 -25.871  1.00  0.00    -0.225 NA
HETATM   34  H   UNL     1       1.928  11.509 -25.172  1.00  0.00     0.136 HD
HETATM   35  H   UNL     1       2.531  10.505 -26.419  1.00  0.00     0.136 HD
ENDBRANCH  30  33
ENDBRANCH  27  30
ENDBRANCH  23  24
ENDBRANCH  22  23
ENDBRANCH   3  22
TORSDOF 9
ENDMDL
MODEL 8
REMARK VINA RESULT:      -7.6      4.416     11.448
REMARK  9 active torsions:
REMARK  status: ('A' for Active; 'I' for Inactive)
REMARK    1  A    between atoms: C_2  and  O_3 
REMARK    2  A    between atoms: O_3  and  C_4 
REMARK    3  A    between atoms: C_7  and  N_8 
REMARK    4  A    between atoms: C_12  and  N_13 
REMARK       I    between atoms: N_13  and  C_14 
REMARK       I    between atoms: C_14  and  N_15 
REMARK    5  A    between atoms: N_15  and  C_16 
REMARK    6  A    between atoms: C_16  and  C_17 
REMARK    7  A    between atoms: C_17  and  C_18 
REMARK    8  A    between atoms: C_21  and  S_22 
REMARK    9  A    between atoms: S_22  and  N_23 
ROOT
HETATM    1  N   UNL     1      -3.182   4.260 -31.141  1.00  0.00    -0.336 N 
HETATM    2  C   UNL     1      -1.947   4.828 -31.324  1.00  0.00     0.316 C 
HETATM    3  N   UNL     1      -1.693   5.764 -30.360  1.00  0.00    -0.343 N 
HETATM    4  O   UNL     1      -1.193   4.553 -32.245  1.00  0.00    -0.248 OA
HETATM    5  H   UNL     1      -3.411   4.128 -30.164  1.00  0.00     0.164 HD
HETATM    6  H   UNL     1      -2.508   6.191 -29.943  1.00  0.00     0.164 HD
ENDROOT
BRANCH   1   7
HETATM    7  C   UNL     1      -3.666   3.253 -32.077  1.00  0.00     0.113 C 
HETATM    8  C   UNL     1      -3.272   1.849 -31.647  1.00  0.00     0.130 C 
HETATM    9  C   UNL     1      -4.414   0.981 -32.108  1.00  0.00     0.226 C 
HETATM   10  N   UNL     1      -5.520   1.798 -32.360  1.00  0.00    -0.316 N 
HETATM   11  O   UNL     1      -4.323  -0.237 -32.159  1.00  0.00    -0.273 OA
HETATM   12  C   UNL     1      -5.190   3.192 -32.169  1.00  0.00     0.157 C 
BRANCH  10  13
HETATM   13  C   UNL     1      -6.863   1.370 -32.567  1.00  0.00     0.037 A 
HETATM   14  C   UNL     1      -7.799   1.324 -31.527  1.00  0.00     0.032 A 
HETATM   15  C   UNL     1      -9.142   0.996 -31.766  1.00  0.00     0.039 A 
HETATM   16  C   UNL     1      -9.573   0.705 -33.056  1.00  0.00     0.068 A 
HETATM   17  C   UNL     1      -8.644   0.680 -34.090  1.00  0.00     0.039 A 
HETATM   18  C   UNL     1      -7.307   1.016 -33.851  1.00  0.00     0.032 A 
BRANCH  16  19
HETATM   19  O   UNL     1     -10.860   0.418 -33.413  1.00  0.00    -0.352 OA
BRANCH  19  20
HETATM   20  C   UNL     1     -11.707   1.552 -33.610  1.00  0.00     0.171 C 
HETATM   21  C   UNL     1     -12.090   1.597 -35.077  1.00  0.00     0.034 C 
ENDBRANCH  19  20
ENDBRANCH  16  19
ENDBRANCH  10  13
ENDBRANCH   1   7
BRANCH   3  22
HETATM   22  C   UNL     1      -0.459   6.526 -30.376  1.00  0.00     0.129 C 
BRANCH  22  23
HETATM   23  C   UNL     1       0.173   6.677 -28.988  1.00  0.00     0.058 C 
BRANCH  23  24
HETATM   24  C   UNL     1      -0.752   7.242 -27.932  1.00  0.00    -0.057 A 
HETATM   25  C   UNL     1      -1.160   6.464 -26.839  1.00  0.00     0.009 A 
HETATM   26  C   UNL     1      -2.031   6.987 -25.882  1.00  0.00     0.025 A 
HETATM   27  C   UNL     1      -2.483   8.303 -26.007  1.00  0.00     0.074 A 
HETATM   28  C   UNL     1      -2.082   9.094 -27.085  1.00  0.00     0.025 A 
HETATM   29  C   UNL     1      -1.213   8.564 -28.040  1.00  0.00     0.009 A 
BRANCH  27  30
HETATM   30  S   UNL     1      -3.628   8.947 -24.824  1.00  0.00     0.239 S 
HETATM   31  O   UNL     1      -3.555  10.391 -24.830  1.00  0.00    -0.206 OA
HETATM   32  O   UNL     1      -4.879   8.236 -24.941  1.00  0.00    -0.206 OA
BRANCH  30  33
HETATM   33  N   UNL     1      -2.945   8.456 -23.373  1.00  0.00    -0.225 NA
HETATM   34  H   UNL     1      -2.626   7.490 -23.449  1.00  0.00     0.136 HD
HETATM   35  H   UNL     1      -2.215   9.111 -23.095  1.00  0.00     0.136 HD
ENDBRANCH  30  33
ENDBRANCH  27  30
ENDBRANCH  23  24
ENDBRANCH  22  23
ENDBRANCH   3  22
TORSDOF 9
ENDMDL
MODEL 9
REMARK VINA RESULT:      -7.6      3.668     11.134
REMARK  9 active torsions:
REMARK  status: ('A' for Active; 'I' for Inactive)
REMARK    1  A    between atoms: C_2  and  O_3 
REMARK    2  A    between atoms: O_3  and  C_4 
REMARK    3  A    between atoms: C_7  and  N_8 
REMARK    4  A    between atoms: C_12  and  N_13 
REMARK       I    between atoms: N_13  and  C_14 
REMARK       I    between atoms: C_14  and  N_15 
REMARK    5  A    between atoms: N_15  and  C_16 
REMARK    6  A    between atoms: C_16  and  C_17 
REMARK    7  A    between atoms: C_17  and  C_18 
REMARK    8  A    between atoms: C_21  and  S_22 
REMARK    9  A    between atoms: S_22  and  N_23 
ROOT
HETATM    1  N   UNL     1      -3.783   4.123 -30.688  1.00  0.00    -0.336 N 
HETATM    2  C   UNL     1      -2.630   4.172 -31.432  1.00  0.00     0.316 C 
HETATM    3  N   UNL     1      -1.741   5.060 -30.895  1.00  0.00    -0.343 N 
HETATM    4  O   UNL     1      -2.443   3.529 -32.454  1.00  0.00    -0.248 OA
HETATM    5  H   UNL     1      -3.611   4.205 -29.695  1.00  0.00     0.164 HD
HETATM    6  H   UNL     1      -2.147   5.803 -30.344  1.00  0.00     0.164 HD
ENDROOT
BRANCH   1   7
HETATM    7  C   UNL     1      -4.880   3.257 -31.102  1.00  0.00     0.113 C 
HETATM    8  C   UNL     1      -5.535   3.749 -32.381  1.00  0.00     0.130 C 
HETATM    9  C   UNL     1      -5.970   2.491 -33.088  1.00  0.00     0.226 C 
HETATM   10  N   UNL     1      -5.275   1.410 -32.538  1.00  0.00    -0.316 N 
HETATM   11  O   UNL     1      -6.756   2.511 -34.024  1.00  0.00    -0.273 OA
HETATM   12  C   UNL     1      -4.435   1.835 -31.442  1.00  0.00     0.157 C 
BRANCH  10  13
HETATM   13  C   UNL     1      -5.194   0.091 -33.072  1.00  0.00     0.037 A 
HETATM   14  C   UNL     1      -6.126  -0.397 -33.996  1.00  0.00     0.032 A 
HETATM   15  C   UNL     1      -5.977  -1.662 -34.586  1.00  0.00     0.039 A 
HETATM   16  C   UNL     1      -4.887  -2.462 -34.259  1.00  0.00     0.068 A 
HETATM   17  C   UNL     1      -3.989  -2.023 -33.294  1.00  0.00     0.039 A 
HETATM   18  C   UNL     1      -4.136  -0.758 -32.713  1.00  0.00     0.032 A 
BRANCH  16  19
HETATM   19  O   UNL     1      -4.616  -3.686 -34.802  1.00  0.00    -0.352 OA
BRANCH  19  20
HETATM   20  C   UNL     1      -5.575  -4.707 -34.517  1.00  0.00     0.171 C 
HETATM   21  C   UNL     1      -6.621  -4.683 -35.616  1.00  0.00     0.034 C 
ENDBRANCH  19  20
ENDBRANCH  16  19
ENDBRANCH  10  13
ENDBRANCH   1   7
BRANCH   3  22
HETATM   22  C   UNL     1      -0.464   5.308 -31.537  1.00  0.00     0.129 C 
BRANCH  22  23
HETATM   23  C   UNL     1       0.583   5.900 -30.587  1.00  0.00     0.058 C 
BRANCH  23  24
HETATM   24  C   UNL     1       0.009   6.594 -29.370  1.00  0.00    -0.057 A 
HETATM   25  C   UNL     1       0.190   6.063 -28.084  1.00  0.00     0.009 A 
HETATM   26  C   UNL     1      -0.362   6.699 -26.971  1.00  0.00     0.025 A 
HETATM   27  C   UNL     1      -1.083   7.883 -27.140  1.00  0.00     0.074 A 
HETATM   28  C   UNL     1      -1.267   8.429 -28.412  1.00  0.00     0.025 A 
HETATM   29  C   UNL     1      -0.715   7.787 -29.521  1.00  0.00     0.009 A 
BRANCH  27  30
HETATM   30  S   UNL     1      -1.826   8.659 -25.736  1.00  0.00     0.239 S 
HETATM   31  O   UNL     1      -0.788   9.113 -24.839  1.00  0.00    -0.206 OA
HETATM   32  O   UNL     1      -2.894   9.522 -26.182  1.00  0.00    -0.206 OA
BRANCH  30  33
HETATM   33  N   UNL     1      -2.564   7.362 -24.969  1.00  0.00    -0.225 NA
HETATM   34  H   UNL     1      -1.856   6.765 -24.540  1.00  0.00     0.136 HD
HETATM   35  H   UNL     1      -3.269   7.701 -24.315  1.00  0.00     0.136 HD
ENDBRANCH  30  33
ENDBRANCH  27  30
ENDBRANCH  23  24
ENDBRANCH  22  23
ENDBRANCH   3  22
TORSDOF 9
ENDMDL
MODEL 10
REMARK VINA RESULT:      -7.6      6.182      9.879
REMARK  9 active torsions:
REMARK  status: ('A' for Active; 'I' for Inactive)
REMARK    1  A    between atoms: C_2  and  O_3 
REMARK    2  A    between atoms: O_3  and  C_4 
REMARK    3  A    between atoms: C_7  and  N_8 
REMARK    4  A    between atoms: C_12  and  N_13 
REMARK       I    between atoms: N_13  and  C_14 
REMARK       I    between atoms: C_14  and  N_15 
REMARK    5  A    between atoms: N_15  and  C_16 
REMARK    6  A    between atoms: C_16  and  C_17 
REMARK    7  A    between atoms: C_17  and  C_18 
REMARK    8  A    between atoms: C_21  and  S_22 
REMARK    9  A    between atoms: S_22  and  N_23 
ROOT
HETATM    1  N   UNL     1      -8.010   6.048 -33.222  1.00  0.00    -0.336 N 
HETATM    2  C   UNL     1      -8.930   5.724 -34.188  1.00  0.00     0.316 C 
HETATM    3  N   UNL     1      -9.569   6.841 -34.648  1.00  0.00    -0.343 N 
HETATM    4  O   UNL     1      -9.165   4.584 -34.559  1.00  0.00    -0.248 OA
HETATM    5  H   UNL     1      -7.535   6.921 -33.412  1.00  0.00     0.164 HD
HETATM    6  H   UNL     1      -9.605   7.618 -34.002  1.00  0.00     0.164 HD
ENDROOT
BRANCH   1   7
HETATM    7  C   UNL     1      -7.233   4.998 -32.575  1.00  0.00     0.113 C 
HETATM    8  C   UNL     1      -8.030   4.294 -31.490  1.00  0.00     0.130 C 
HETATM    9  C   UNL     1      -7.533   2.872 -31.521  1.00  0.00     0.226 C 
HETATM   10  N   UNL     1      -6.879   2.657 -32.737  1.00  0.00    -0.316 N 
HETATM   11  O   UNL     1      -7.768   2.083 -30.618  1.00  0.00    -0.273 OA
HETATM   12  C   UNL     1      -6.831   3.869 -33.523  1.00  0.00     0.157 C 
BRANCH  10  13
HETATM   13  C   UNL     1      -6.486   1.400 -33.280  1.00  0.00     0.037 A 
HETATM   14  C   UNL     1      -5.265   0.796 -32.954  1.00  0.00     0.032 A 
HETATM   15  C   UNL     1      -4.936  -0.486 -33.419  1.00  0.00     0.039 A 
HETATM   16  C   UNL     1      -5.827  -1.189 -34.224  1.00  0.00     0.068 A 
HETATM   17  C   UNL     1      -7.014  -0.578 -34.613  1.00  0.00     0.039 A 
HETATM   18  C   UNL     1      -7.343   0.697 -34.142  1.00  0.00     0.032 A 
BRANCH  16  19
HETATM   19  O   UNL     1      -5.634  -2.456 -34.696  1.00  0.00    -0.352 OA
BRANCH  19  20
HETATM   20  C   UNL     1      -6.797  -3.286 -34.710  1.00  0.00     0.171 C 
HETATM   21  C   UNL     1      -6.443  -4.570 -35.437  1.00  0.00     0.034 C 
ENDBRANCH  19  20
ENDBRANCH  16  19
ENDBRANCH  10  13
ENDBRANCH   1   7
BRANCH   3  22
HETATM   22  C   UNL     1     -10.616   6.737 -35.646  1.00  0.00     0.129 C 
BRANCH  22  23
HETATM   23  C   UNL     1     -12.023   6.702 -35.041  1.00  0.00     0.058 C 
BRANCH  23  24
HETATM   24  C   UNL     1     -12.540   5.315 -34.727  1.00  0.00    -0.057 A 
HETATM   25  C   UNL     1     -13.182   5.043 -33.510  1.00  0.00     0.009 A 
HETATM   26  C   UNL     1     -13.635   3.755 -33.220  1.00  0.00     0.025 A 
HETATM   27  C   UNL     1     -13.464   2.735 -34.160  1.00  0.00     0.074 A 
HETATM   28  C   UNL     1     -12.833   2.990 -35.379  1.00  0.00     0.025 A 
HETATM   29  C   UNL     1     -12.380   4.279 -35.662  1.00  0.00     0.009 A 
BRANCH  27  30
HETATM   30  S   UNL     1     -13.991   1.093 -33.770  1.00  0.00     0.239 S 
HETATM   31  O   UNL     1     -15.036   0.699 -34.688  1.00  0.00    -0.206 OA
HETATM   32  O   UNL     1     -12.830   0.271 -33.522  1.00  0.00    -0.206 OA
BRANCH  30  33
HETATM   33  N   UNL     1     -14.738   1.308 -32.284  1.00  0.00    -0.225 NA
HETATM   34  H   UNL     1     -14.468   2.210 -31.888  1.00  0.00     0.136 HD
HETATM   35  H   UNL     1     -15.745   1.185 -32.382  1.00  0.00     0.136 HD
ENDBRANCH  30  33
ENDBRANCH  27  30
ENDBRANCH  23  24
ENDBRANCH  22  23
ENDBRANCH   3  22
TORSDOF 9
ENDMDL
