MODEL 1
REMARK VINA RESULT:      -9.7      0.000      0.000
REMARK  7 active torsions:
REMARK  status: ('A' for Active; 'I' for Inactive)
REMARK    1  A    between atoms: C_6  and  C_7 
REMARK       I    between atoms: C_7  and  N_8 
REMARK    2  A    between atoms: N_8  and  C_9 
REMARK    3  A    between atoms: C_9  and  C_10 
REMARK       I    between atoms: C_10  and  N_11 
REMARK    4  A    between atoms: N_11  and  N_12 
REMARK       I    between atoms: N_12  and  C_13 
REMARK    5  A    between atoms: C_13  and  C_14 
REMARK    6  A    between atoms: C_14  and  N_15 
REMARK    7  A    between atoms: N_15  and  C_16 
ROOT
HETATM    1  C   UNL     1      -6.702   3.734 -33.749  1.00  0.00     0.253 C 
HETATM    2  N   UNL     1      -5.452   3.496 -33.218  1.00  0.00    -0.266 N 
HETATM    3  O   UNL     1      -7.025   4.826 -34.220  1.00  0.00    -0.270 OA
HETATM    4  H   UNL     1      -5.171   2.603 -32.813  1.00  0.00     0.190 HD
ENDROOT
BRANCH   2   5
HETATM    5  N   UNL     1      -4.464   4.473 -33.382  1.00  0.00    -0.266 N 
HETATM    6  C   UNL     1      -3.177   4.159 -32.984  1.00  0.00     0.258 C 
HETATM    7  O   UNL     1      -2.912   3.165 -32.303  1.00  0.00    -0.269 OA
HETATM    8  H   UNL     1      -4.645   5.153 -34.120  1.00  0.00     0.190 HD
BRANCH   6   9
HETATM    9  C   UNL     1      -2.107   5.163 -33.452  1.00  0.00     0.173 C 
HETATM   10  C   UNL     1      -1.861   5.001 -34.949  1.00  0.00     0.042 C 
BRANCH   9  11
HETATM   11  N   UNL     1      -0.857   4.912 -32.735  1.00  0.00    -0.356 N 
HETATM   12  H   UNL     1      -0.499   3.963 -32.842  1.00  0.00     0.162 HD
BRANCH  11  13
HETATM   13  C   UNL     1      -0.603   5.561 -31.580  1.00  0.00     0.168 A 
HETATM   14  S   UNL     1      -1.081   7.202 -31.394  1.00  0.00    -0.050 SA
HETATM   15  C   UNL     1      -0.435   7.219 -29.801  1.00  0.00     0.037 A 
HETATM   16  C   UNL     1       0.110   5.965 -29.524  1.00  0.00     0.076 A 
HETATM   17  C   UNL     1      -0.408   8.264 -28.863  1.00  0.00     0.021 A 
HETATM   18  N   UNL     1      -0.002   5.033 -30.541  1.00  0.00    -0.223 NA
HETATM   19  C   UNL     1       0.715   5.751 -28.270  1.00  0.00     0.033 A 
HETATM   20  C   UNL     1       0.754   6.786 -27.329  1.00  0.00     0.002 A 
HETATM   21  C   UNL     1       0.195   8.025 -27.624  1.00  0.00     0.002 A 
ENDBRANCH  11  13
ENDBRANCH   9  11
ENDBRANCH   6   9
ENDBRANCH   2   5
BRANCH   1  22
HETATM   22  C   UNL     1      -7.674   2.566 -33.631  1.00  0.00     0.227 C 
BRANCH  22  23
HETATM   23  N   UNL     1      -6.929   1.329 -33.508  1.00  0.00    -0.348 N 
HETATM   24  C   UNL     1      -7.178   0.292 -34.384  1.00  0.00     0.252 C 
HETATM   25  O   UNL     1      -8.060   0.341 -35.234  1.00  0.00    -0.268 OA
HETATM   26  H   UNL     1      -6.018   1.383 -33.070  1.00  0.00     0.163 HD
BRANCH  24  27
HETATM   27  C   UNL     1      -6.279  -0.890 -34.283  1.00  0.00     0.032 A 
HETATM   28  C   UNL     1      -6.704  -2.103 -34.839  1.00  0.00     0.024 A 
HETATM   29  C   UNL     1      -5.896  -3.251 -34.770  1.00  0.00    -0.055 A 
HETATM   30  C   UNL     1      -4.657  -3.183 -34.099  1.00  0.00    -0.056 A 
HETATM   31  C   UNL     1      -6.395  -4.534 -35.379  1.00  0.00     0.049 C 
HETATM   32  C   UNL     1      -3.756  -4.382 -33.987  1.00  0.00     0.049 C 
HETATM   33  C   UNL     1      -4.242  -1.962 -33.543  1.00  0.00     0.008 A 
HETATM   34  C   UNL     1      -5.046  -0.824 -33.629  1.00  0.00     0.017 A 
ENDBRANCH  24  27
ENDBRANCH  22  23
ENDBRANCH   1  22
TORSDOF 7
ENDMDL
MODEL 2
REMARK VINA RESULT:      -9.3      2.745      9.626
REMARK  7 active torsions:
REMARK  status: ('A' for Active; 'I' for Inactive)
REMARK    1  A    between atoms: C_6  and  C_7 
REMARK       I    between atoms: C_7  and  N_8 
REMARK    2  A    between atoms: N_8  and  C_9 
REMARK    3  A    between atoms: C_9  and  C_10 
REMARK       I    between atoms: C_10  and  N_11 
REMARK    4  A    between atoms: N_11  and  N_12 
REMARK       I    between atoms: N_12  and  C_13 
REMARK    5  A    between atoms: C_13  and  C_14 
REMARK    6  A    between atoms: C_14  and  N_15 
REMARK    7  A    between atoms: N_15  and  C_16 
ROOT
HETATM    1  C   UNL     1      -4.509   4.844 -34.006  1.00  0.00     0.253 C 
HETATM    2  N   UNL     1      -4.333   3.932 -32.988  1.00  0.00    -0.266 N 
HETATM    3  O   UNL     1      -5.563   4.941 -34.636  1.00  0.00    -0.270 OA
HETATM    4  H   UNL     1      -3.464   3.832 -32.464  1.00  0.00     0.190 HD
ENDROOT
BRANCH   2   5
HETATM    5  N   UNL     1      -5.448   3.216 -32.539  1.00  0.00    -0.266 N 
HETATM    6  C   UNL     1      -5.780   3.316 -31.200  1.00  0.00     0.258 C 
HETATM    7  O   UNL     1      -5.026   3.815 -30.360  1.00  0.00    -0.269 OA
HETATM    8  H   UNL     1      -6.151   3.017 -33.251  1.00  0.00     0.190 HD
BRANCH   6   9
HETATM    9  C   UNL     1      -7.162   2.739 -30.845  1.00  0.00     0.173 C 
HETATM   10  C   UNL     1      -7.737   3.471 -29.637  1.00  0.00     0.042 C 
BRANCH   9  11
HETATM   11  N   UNL     1      -7.029   1.318 -30.521  1.00  0.00    -0.356 N 
HETATM   12  H   UNL     1      -6.707   1.137 -29.571  1.00  0.00     0.162 HD
BRANCH  11  13
HETATM   13  C   UNL     1      -6.693   0.438 -31.487  1.00  0.00     0.168 A 
HETATM   14  S   UNL     1      -7.841   0.002 -32.689  1.00  0.00    -0.050 SA
HETATM   15  C   UNL     1      -6.690  -1.043 -33.423  1.00  0.00     0.037 A 
HETATM   16  C   UNL     1      -5.505  -0.990 -32.689  1.00  0.00     0.076 A 
HETATM   17  C   UNL     1      -6.822  -1.854 -34.561  1.00  0.00     0.021 A 
HETATM   18  N   UNL     1      -5.520  -0.137 -31.599  1.00  0.00    -0.223 NA
HETATM   19  C   UNL     1      -4.416  -1.785 -33.101  1.00  0.00     0.033 A 
HETATM   20  C   UNL     1      -4.538  -2.602 -34.230  1.00  0.00     0.002 A 
HETATM   21  C   UNL     1      -5.727  -2.631 -34.951  1.00  0.00     0.002 A 
ENDBRANCH  11  13
ENDBRANCH   9  11
ENDBRANCH   6   9
ENDBRANCH   2   5
BRANCH   1  22
HETATM   22  C   UNL     1      -3.269   5.665 -34.344  1.00  0.00     0.227 C 
BRANCH  22  23
HETATM   23  N   UNL     1      -2.486   5.873 -33.142  1.00  0.00    -0.348 N 
HETATM   24  C   UNL     1      -1.711   7.007 -33.019  1.00  0.00     0.252 C 
HETATM   25  O   UNL     1      -1.597   7.831 -33.919  1.00  0.00    -0.268 OA
HETATM   26  H   UNL     1      -2.809   5.415 -32.299  1.00  0.00     0.163 HD
BRANCH  24  27
HETATM   27  C   UNL     1      -1.047   7.217 -31.703  1.00  0.00     0.032 A 
HETATM   28  C   UNL     1      -1.680   8.032 -30.757  1.00  0.00     0.024 A 
HETATM   29  C   UNL     1      -1.097   8.266 -29.500  1.00  0.00    -0.055 A 
HETATM   30  C   UNL     1       0.160   7.698 -29.207  1.00  0.00    -0.056 A 
HETATM   31  C   UNL     1      -1.811   9.152 -28.516  1.00  0.00     0.049 C 
HETATM   32  C   UNL     1       0.835   7.921 -27.881  1.00  0.00     0.049 C 
HETATM   33  C   UNL     1       0.787   6.884 -30.164  1.00  0.00     0.008 A 
HETATM   34  C   UNL     1       0.193   6.646 -31.405  1.00  0.00     0.017 A 
ENDBRANCH  24  27
ENDBRANCH  22  23
ENDBRANCH   1  22
TORSDOF 7
ENDMDL
MODEL 3
REMARK VINA RESULT:      -9.3      2.608     10.048
REMARK  7 active torsions:
REMARK  status: ('A' for Active; 'I' for Inactive)
REMARK    1  A    between atoms: C_6  and  C_7 
REMARK       I    between atoms: C_7  and  N_8 
REMARK    2  A    between atoms: N_8  and  C_9 
REMARK    3  A    between atoms: C_9  and  C_10 
REMARK       I    between atoms: C_10  and  N_11 
REMARK    4  A    between atoms: N_11  and  N_12 
REMARK       I    between atoms: N_12  and  C_13 
REMARK    5  A    between atoms: C_13  and  C_14 
REMARK    6  A    between atoms: C_14  and  N_15 
REMARK    7  A    between atoms: N_15  and  C_16 
ROOT
HETATM    1  C   UNL     1      -2.880   5.604 -34.215  1.00  0.00     0.253 C 
HETATM    2  N   UNL     1      -2.842   4.725 -33.154  1.00  0.00    -0.266 N 
HETATM    3  O   UNL     1      -3.781   5.591 -35.056  1.00  0.00    -0.270 OA
HETATM    4  H   UNL     1      -2.098   4.714 -32.457  1.00  0.00     0.190 HD
ENDROOT
BRANCH   2   5
HETATM    5  N   UNL     1      -3.956   3.910 -32.928  1.00  0.00    -0.266 N 
HETATM    6  C   UNL     1      -3.881   2.991 -31.896  1.00  0.00     0.258 C 
HETATM    7  O   UNL     1      -2.823   2.711 -31.327  1.00  0.00    -0.269 OA
HETATM    8  H   UNL     1      -4.848   4.299 -33.233  1.00  0.00     0.190 HD
BRANCH   6   9
HETATM    9  C   UNL     1      -5.227   2.340 -31.529  1.00  0.00     0.173 C 
HETATM   10  C   UNL     1      -5.880   3.105 -30.383  1.00  0.00     0.042 C 
BRANCH   9  11
HETATM   11  N   UNL     1      -5.000   0.956 -31.110  1.00  0.00    -0.356 N 
HETATM   12  H   UNL     1      -4.302   0.854 -30.375  1.00  0.00     0.162 HD
BRANCH  11  13
HETATM   13  C   UNL     1      -5.139  -0.047 -32.001  1.00  0.00     0.168 A 
HETATM   14  S   UNL     1      -3.754  -0.894 -32.564  1.00  0.00    -0.050 SA
HETATM   15  C   UNL     1      -4.752  -1.886 -33.553  1.00  0.00     0.037 A 
HETATM   16  C   UNL     1      -6.080  -1.492 -33.388  1.00  0.00     0.076 A 
HETATM   17  C   UNL     1      -4.390  -2.934 -34.415  1.00  0.00     0.021 A 
HETATM   18  N   UNL     1      -6.284  -0.453 -32.497  1.00  0.00    -0.223 NA
HETATM   19  C   UNL     1      -7.081  -2.162 -34.120  1.00  0.00     0.033 A 
HETATM   20  C   UNL     1      -6.732  -3.203 -34.987  1.00  0.00     0.002 A 
HETATM   21  C   UNL     1      -5.402  -3.584 -35.128  1.00  0.00     0.002 A 
ENDBRANCH  11  13
ENDBRANCH   9  11
ENDBRANCH   6   9
ENDBRANCH   2   5
BRANCH   1  22
HETATM   22  C   UNL     1      -1.677   6.536 -34.311  1.00  0.00     0.227 C 
BRANCH  22  23
HETATM   23  N   UNL     1      -1.038   6.633 -33.014  1.00  0.00    -0.348 N 
HETATM   24  C   UNL     1      -1.339   7.690 -32.181  1.00  0.00     0.252 C 
HETATM   25  O   UNL     1      -2.084   8.605 -32.515  1.00  0.00    -0.268 OA
HETATM   26  H   UNL     1      -0.708   5.770 -32.599  1.00  0.00     0.163 HD
BRANCH  24  27
HETATM   27  C   UNL     1      -0.750   7.646 -30.815  1.00  0.00     0.032 A 
HETATM   28  C   UNL     1      -1.312   8.452 -29.817  1.00  0.00     0.024 A 
HETATM   29  C   UNL     1      -0.795   8.451 -28.511  1.00  0.00    -0.055 A 
HETATM   30  C   UNL     1       0.330   7.653 -28.215  1.00  0.00    -0.056 A 
HETATM   31  C   UNL     1      -1.429   9.336 -27.472  1.00  0.00     0.049 C 
HETATM   32  C   UNL     1       0.931   7.619 -26.837  1.00  0.00     0.049 C 
HETATM   33  C   UNL     1       0.888   6.850 -29.224  1.00  0.00     0.008 A 
HETATM   34  C   UNL     1       0.357   6.848 -30.516  1.00  0.00     0.017 A 
ENDBRANCH  24  27
ENDBRANCH  22  23
ENDBRANCH   1  22
TORSDOF 7
ENDMDL
MODEL 4
REMARK VINA RESULT:      -9.2      2.500      3.422
REMARK  7 active torsions:
REMARK  status: ('A' for Active; 'I' for Inactive)
REMARK    1  A    between atoms: C_6  and  C_7 
REMARK       I    between atoms: C_7  and  N_8 
REMARK    2  A    between atoms: N_8  and  C_9 
REMARK    3  A    between atoms: C_9  and  C_10 
REMARK       I    between atoms: C_10  and  N_11 
REMARK    4  A    between atoms: N_11  and  N_12 
REMARK       I    between atoms: N_12  and  C_13 
REMARK    5  A    between atoms: C_13  and  C_14 
REMARK    6  A    between atoms: C_14  and  N_15 
REMARK    7  A    between atoms: N_15  and  C_16 
ROOT
HETATM    1  C   UNL     1      -9.032   2.192 -32.043  1.00  0.00     0.253 C 
HETATM    2  N   UNL     1      -8.793   2.069 -30.691  1.00  0.00    -0.266 N 
HETATM    3  O   UNL     1      -8.816   3.235 -32.663  1.00  0.00    -0.270 OA
HETATM    4  H   UNL     1      -8.977   1.218 -30.161  1.00  0.00     0.190 HD
ENDROOT
BRANCH   2   5
HETATM    5  N   UNL     1      -8.119   3.107 -30.039  1.00  0.00    -0.266 N 
HETATM    6  C   UNL     1      -6.744   3.009 -29.928  1.00  0.00     0.258 C 
HETATM    7  O   UNL     1      -6.126   1.970 -30.172  1.00  0.00    -0.269 OA
HETATM    8  H   UNL     1      -8.591   4.011 -30.059  1.00  0.00     0.190 HD
BRANCH   6   9
HETATM    9  C   UNL     1      -6.052   4.303 -29.460  1.00  0.00     0.173 C 
HETATM   10  C   UNL     1      -7.050   5.187 -28.719  1.00  0.00     0.042 C 
BRANCH   9  11
HETATM   11  N   UNL     1      -5.544   5.031 -30.623  1.00  0.00    -0.356 N 
HETATM   12  H   UNL     1      -6.054   4.846 -31.486  1.00  0.00     0.162 HD
BRANCH  11  13
HETATM   13  C   UNL     1      -4.230   5.324 -30.710  1.00  0.00     0.168 A 
HETATM   14  S   UNL     1      -3.200   4.368 -31.699  1.00  0.00    -0.050 SA
HETATM   15  C   UNL     1      -1.856   5.347 -31.261  1.00  0.00     0.037 A 
HETATM   16  C   UNL     1      -2.290   6.336 -30.380  1.00  0.00     0.076 A 
HETATM   17  C   UNL     1      -0.514   5.247 -31.664  1.00  0.00     0.021 A 
HETATM   18  N   UNL     1      -3.642   6.315 -30.084  1.00  0.00    -0.223 NA
HETATM   19  C   UNL     1      -1.347   7.253 -29.872  1.00  0.00     0.033 A 
HETATM   20  C   UNL     1      -0.006   7.160 -30.261  1.00  0.00     0.002 A 
HETATM   21  C   UNL     1       0.401   6.170 -31.149  1.00  0.00     0.002 A 
ENDBRANCH  11  13
ENDBRANCH   9  11
ENDBRANCH   6   9
ENDBRANCH   2   5
BRANCH   1  22
HETATM   22  C   UNL     1      -9.658   0.963 -32.691  1.00  0.00     0.227 C 
BRANCH  22  23
HETATM   23  N   UNL     1      -8.652  -0.068 -32.845  1.00  0.00    -0.348 N 
HETATM   24  C   UNL     1      -7.923  -0.143 -34.013  1.00  0.00     0.252 C 
HETATM   25  O   UNL     1      -8.134   0.591 -34.972  1.00  0.00    -0.268 OA
HETATM   26  H   UNL     1      -8.244  -0.442 -31.997  1.00  0.00     0.163 HD
BRANCH  24  27
HETATM   27  C   UNL     1      -6.816  -1.137 -34.041  1.00  0.00     0.032 A 
HETATM   28  C   UNL     1      -7.029  -2.358 -34.693  1.00  0.00     0.024 A 
HETATM   29  C   UNL     1      -6.019  -3.334 -34.747  1.00  0.00    -0.055 A 
HETATM   30  C   UNL     1      -4.788  -3.089 -34.104  1.00  0.00    -0.056 A 
HETATM   31  C   UNL     1      -6.293  -4.633 -35.455  1.00  0.00     0.049 C 
HETATM   32  C   UNL     1      -3.675  -4.100 -34.122  1.00  0.00     0.049 C 
HETATM   33  C   UNL     1      -4.586  -1.862 -33.450  1.00  0.00     0.008 A 
HETATM   34  C   UNL     1      -5.591  -0.893 -33.414  1.00  0.00     0.017 A 
ENDBRANCH  24  27
ENDBRANCH  22  23
ENDBRANCH   1  22
TORSDOF 7
ENDMDL
MODEL 5
REMARK VINA RESULT:      -9.0      2.411     10.597
REMARK  7 active torsions:
REMARK  status: ('A' for Active; 'I' for Inactive)
REMARK    1  A    between atoms: C_6  and  C_7 
REMARK       I    between atoms: C_7  and  N_8 
REMARK    2  A    between atoms: N_8  and  C_9 
REMARK    3  A    between atoms: C_9  and  C_10 
REMARK       I    between atoms: C_10  and  N_11 
REMARK    4  A    between atoms: N_11  and  N_12 
REMARK       I    between atoms: N_12  and  C_13 
REMARK    5  A    between atoms: C_13  and  C_14 
REMARK    6  A    between atoms: C_14  and  N_15 
REMARK    7  A    between atoms: N_15  and  C_16 
ROOT
HETATM    1  C   UNL     1      -2.481   4.064 -32.318  1.00  0.00     0.253 C 
HETATM    2  N   UNL     1      -3.552   4.254 -33.165  1.00  0.00    -0.266 N 
HETATM    3  O   UNL     1      -2.500   3.247 -31.396  1.00  0.00    -0.270 OA
HETATM    4  H   UNL     1      -3.558   4.934 -33.924  1.00  0.00     0.190 HD
ENDROOT
BRANCH   2   5
HETATM    5  N   UNL     1      -4.628   3.363 -33.083  1.00  0.00    -0.266 N 
HETATM    6  C   UNL     1      -5.762   3.657 -33.818  1.00  0.00     0.258 C 
HETATM    7  O   UNL     1      -5.948   4.753 -34.352  1.00  0.00    -0.269 OA
HETATM    8  H   UNL     1      -4.379   2.403 -32.843  1.00  0.00     0.190 HD
BRANCH   6   9
HETATM    9  C   UNL     1      -6.779   2.503 -33.901  1.00  0.00     0.173 C 
HETATM   10  C   UNL     1      -8.178   3.018 -33.579  1.00  0.00     0.042 C 
BRANCH   9  11
HETATM   11  N   UNL     1      -6.419   1.466 -32.934  1.00  0.00    -0.356 N 
HETATM   12  H   UNL     1      -5.856   1.802 -32.154  1.00  0.00     0.162 HD
BRANCH  11  13
HETATM   13  C   UNL     1      -6.240   0.195 -33.348  1.00  0.00     0.168 A 
HETATM   14  S   UNL     1      -7.548  -0.674 -34.047  1.00  0.00    -0.050 SA
HETATM   15  C   UNL     1      -6.535  -2.048 -34.258  1.00  0.00     0.037 A 
HETATM   16  C   UNL     1      -5.264  -1.746 -33.770  1.00  0.00     0.076 A 
HETATM   17  C   UNL     1      -6.840  -3.302 -34.810  1.00  0.00     0.021 A 
HETATM   18  N   UNL     1      -5.110  -0.466 -33.266  1.00  0.00    -0.223 NA
HETATM   19  C   UNL     1      -4.264  -2.738 -33.825  1.00  0.00     0.033 A 
HETATM   20  C   UNL     1      -4.557  -3.994 -34.368  1.00  0.00     0.002 A 
HETATM   21  C   UNL     1      -5.830  -4.268 -34.857  1.00  0.00     0.002 A 
ENDBRANCH  11  13
ENDBRANCH   9  11
ENDBRANCH   6   9
ENDBRANCH   2   5
BRANCH   1  22
HETATM   22  C   UNL     1      -1.306   5.004 -32.563  1.00  0.00     0.227 C 
BRANCH  22  23
HETATM   23  N   UNL     1      -1.318   6.061 -31.571  1.00  0.00    -0.348 N 
HETATM   24  C   UNL     1      -0.532   5.949 -30.443  1.00  0.00     0.252 C 
HETATM   25  O   UNL     1       0.137   4.952 -30.200  1.00  0.00    -0.268 OA
HETATM   26  H   UNL     1      -1.575   6.987 -31.891  1.00  0.00     0.163 HD
BRANCH  24  27
HETATM   27  C   UNL     1      -0.493   7.134 -29.543  1.00  0.00     0.032 A 
HETATM   28  C   UNL     1       0.608   7.291 -28.692  1.00  0.00     0.024 A 
HETATM   29  C   UNL     1       0.696   8.390 -27.820  1.00  0.00    -0.055 A 
HETATM   30  C   UNL     1      -0.359   9.325 -27.781  1.00  0.00    -0.056 A 
HETATM   31  C   UNL     1       1.895   8.516 -26.921  1.00  0.00     0.049 C 
HETATM   32  C   UNL     1      -0.323  10.514 -26.862  1.00  0.00     0.049 C 
HETATM   33  C   UNL     1      -1.460   9.156 -28.637  1.00  0.00     0.008 A 
HETATM   34  C   UNL     1      -1.531   8.068 -29.510  1.00  0.00     0.017 A 
ENDBRANCH  24  27
ENDBRANCH  22  23
ENDBRANCH   1  22
TORSDOF 7
ENDMDL
MODEL 6
REMARK VINA RESULT:      -9.0      1.855      2.622
REMARK  7 active torsions:
REMARK  status: ('A' for Active; 'I' for Inactive)
REMARK    1  A    between atoms: C_6  and  C_7 
REMARK       I    between atoms: C_7  and  N_8 
REMARK    2  A    between atoms: N_8  and  C_9 
REMARK    3  A    between atoms: C_9  and  C_10 
REMARK       I    between atoms: C_10  and  N_11 
REMARK    4  A    between atoms: N_11  and  N_12 
REMARK       I    between atoms: N_12  and  C_13 
REMARK    5  A    between atoms: C_13  and  C_14 
REMARK    6  A    between atoms: C_14  and  N_15 
REMARK    7  A    between atoms: N_15  and  C_16 
ROOT
HETATM    1  C   UNL     1      -4.656   3.254 -31.613  1.00  0.00     0.253 C 
HETATM    2  N   UNL     1      -3.570   3.904 -32.157  1.00  0.00    -0.266 N 
HETATM    3  O   UNL     1      -4.835   3.164 -30.397  1.00  0.00    -0.270 OA
HETATM    4  H   UNL     1      -3.401   3.978 -33.160  1.00  0.00     0.190 HD
ENDROOT
BRANCH   2   5
HETATM    5  N   UNL     1      -2.740   4.638 -31.303  1.00  0.00    -0.266 N 
HETATM    6  C   UNL     1      -1.654   5.287 -31.864  1.00  0.00     0.258 C 
HETATM    7  O   UNL     1      -1.268   5.071 -33.015  1.00  0.00    -0.269 OA
HETATM    8  H   UNL     1      -3.185   4.979 -30.451  1.00  0.00     0.190 HD
BRANCH   6   9
HETATM    9  C   UNL     1      -0.962   6.291 -30.924  1.00  0.00     0.173 C 
HETATM   10  C   UNL     1       0.468   6.540 -31.390  1.00  0.00     0.042 C 
BRANCH   9  11
HETATM   11  N   UNL     1      -0.933   5.747 -29.566  1.00  0.00    -0.356 N 
HETATM   12  H   UNL     1      -1.634   5.029 -29.390  1.00  0.00     0.162 HD
BRANCH  11  13
HETATM   13  C   UNL     1      -0.552   6.531 -28.537  1.00  0.00     0.168 A 
HETATM   14  S   UNL     1      -1.690   7.579 -27.788  1.00  0.00    -0.050 SA
HETATM   15  C   UNL     1      -0.479   8.133 -26.700  1.00  0.00     0.037 A 
HETATM   16  C   UNL     1       0.719   7.479 -26.992  1.00  0.00     0.076 A 
HETATM   17  C   UNL     1      -0.576   9.078 -25.666  1.00  0.00     0.021 A 
HETATM   18  N   UNL     1       0.658   6.566 -28.031  1.00  0.00    -0.223 NA
HETATM   19  C   UNL     1       1.863   7.790 -26.231  1.00  0.00     0.033 A 
HETATM   20  C   UNL     1       1.781   8.734 -25.202  1.00  0.00     0.002 A 
HETATM   21  C   UNL     1       0.573   9.366 -24.924  1.00  0.00     0.002 A 
ENDBRANCH  11  13
ENDBRANCH   9  11
ENDBRANCH   6   9
ENDBRANCH   2   5
BRANCH   1  22
HETATM   22  C   UNL     1      -5.572   2.585 -32.632  1.00  0.00     0.227 C 
BRANCH  22  23
HETATM   23  N   UNL     1      -5.281   1.167 -32.685  1.00  0.00    -0.348 N 
HETATM   24  C   UNL     1      -5.780   0.405 -33.721  1.00  0.00     0.252 C 
HETATM   25  O   UNL     1      -6.526   0.863 -34.579  1.00  0.00    -0.268 OA
HETATM   26  H   UNL     1      -4.440   0.853 -32.216  1.00  0.00     0.163 HD
BRANCH  24  27
HETATM   27  C   UNL     1      -5.324  -1.010 -33.782  1.00  0.00     0.032 A 
HETATM   28  C   UNL     1      -6.118  -1.940 -34.464  1.00  0.00     0.024 A 
HETATM   29  C   UNL     1      -5.737  -3.290 -34.552  1.00  0.00    -0.055 A 
HETATM   30  C   UNL     1      -4.555  -3.715 -33.910  1.00  0.00    -0.056 A 
HETATM   31  C   UNL     1      -6.623  -4.254 -35.292  1.00  0.00     0.049 C 
HETATM   32  C   UNL     1      -4.102  -5.148 -33.962  1.00  0.00     0.049 C 
HETATM   33  C   UNL     1      -3.767  -2.774 -33.226  1.00  0.00     0.008 A 
HETATM   34  C   UNL     1      -4.148  -1.433 -33.158  1.00  0.00     0.017 A 
ENDBRANCH  24  27
ENDBRANCH  22  23
ENDBRANCH   1  22
TORSDOF 7
ENDMDL
MODEL 7
REMARK VINA RESULT:      -8.9      2.828     10.476
REMARK  7 active torsions:
REMARK  status: ('A' for Active; 'I' for Inactive)
REMARK    1  A    between atoms: C_6  and  C_7 
REMARK       I    between atoms: C_7  and  N_8 
REMARK    2  A    between atoms: N_8  and  C_9 
REMARK    3  A    between atoms: C_9  and  C_10 
REMARK       I    between atoms: C_10  and  N_11 
REMARK    4  A    between atoms: N_11  and  N_12 
REMARK       I    between atoms: N_12  and  C_13 
REMARK    5  A    between atoms: C_13  and  C_14 
REMARK    6  A    between atoms: C_14  and  N_15 
REMARK    7  A    between atoms: N_15  and  C_16 
ROOT
HETATM    1  C   UNL     1      -2.201   4.383 -32.449  1.00  0.00     0.253 C 
HETATM    2  N   UNL     1      -2.587   4.091 -31.158  1.00  0.00    -0.266 N 
HETATM    3  O   UNL     1      -2.665   3.800 -33.429  1.00  0.00    -0.270 OA
HETATM    4  H   UNL     1      -2.205   4.555 -30.336  1.00  0.00     0.190 HD
ENDROOT
BRANCH   2   5
HETATM    5  N   UNL     1      -3.670   3.226 -30.971  1.00  0.00    -0.266 N 
HETATM    6  C   UNL     1      -4.905   3.791 -30.706  1.00  0.00     0.258 C 
HETATM    7  O   UNL     1      -5.047   4.981 -30.414  1.00  0.00    -0.269 OA
HETATM    8  H   UNL     1      -3.584   2.317 -31.426  1.00  0.00     0.190 HD
BRANCH   6   9
HETATM    9  C   UNL     1      -6.085   2.805 -30.794  1.00  0.00     0.173 C 
HETATM   10  C   UNL     1      -7.157   3.185 -29.778  1.00  0.00     0.042 C 
BRANCH   9  11
HETATM   11  N   UNL     1      -5.611   1.452 -30.503  1.00  0.00    -0.356 N 
HETATM   12  H   UNL     1      -4.830   1.416 -29.849  1.00  0.00     0.162 HD
BRANCH  11  13
HETATM   13  C   UNL     1      -5.695   0.493 -31.448  1.00  0.00     0.168 A 
HETATM   14  S   UNL     1      -7.193   0.190 -32.234  1.00  0.00    -0.050 SA
HETATM   15  C   UNL     1      -6.459  -1.047 -33.177  1.00  0.00     0.037 A 
HETATM   16  C   UNL     1      -5.115  -1.146 -32.817  1.00  0.00     0.076 A 
HETATM   17  C   UNL     1      -7.028  -1.872 -34.160  1.00  0.00     0.021 A 
HETATM   18  N   UNL     1      -4.695  -0.259 -31.841  1.00  0.00    -0.223 NA
HETATM   19  C   UNL     1      -4.313  -2.113 -33.455  1.00  0.00     0.033 A 
HETATM   20  C   UNL     1      -4.870  -2.946 -34.432  1.00  0.00     0.002 A 
HETATM   21  C   UNL     1      -6.211  -2.822 -34.780  1.00  0.00     0.002 A 
ENDBRANCH  11  13
ENDBRANCH   9  11
ENDBRANCH   6   9
ENDBRANCH   2   5
BRANCH   1  22
HETATM   22  C   UNL     1      -1.096   5.428 -32.559  1.00  0.00     0.227 C 
BRANCH  22  23
HETATM   23  N   UNL     1      -1.162   6.323 -31.421  1.00  0.00    -0.348 N 
HETATM   24  C   UNL     1      -0.078   6.437 -30.576  1.00  0.00     0.252 C 
HETATM   25  O   UNL     1       0.934   5.757 -30.704  1.00  0.00    -0.268 OA
HETATM   26  H   UNL     1      -1.808   7.101 -31.486  1.00  0.00     0.163 HD
BRANCH  24  27
HETATM   27  C   UNL     1      -0.171   7.477 -29.515  1.00  0.00     0.032 A 
HETATM   28  C   UNL     1       0.870   7.577 -28.584  1.00  0.00     0.024 A 
HETATM   29  C   UNL     1       0.833   8.539 -27.560  1.00  0.00    -0.055 A 
HETATM   30  C   UNL     1      -0.288   9.388 -27.452  1.00  0.00    -0.056 A 
HETATM   31  C   UNL     1       1.972   8.608 -26.580  1.00  0.00     0.049 C 
HETATM   32  C   UNL     1      -0.386  10.429 -26.372  1.00  0.00     0.049 C 
HETATM   33  C   UNL     1      -1.328   9.277 -28.390  1.00  0.00     0.008 A 
HETATM   34  C   UNL     1      -1.275   8.327 -29.412  1.00  0.00     0.017 A 
ENDBRANCH  24  27
ENDBRANCH  22  23
ENDBRANCH   1  22
TORSDOF 7
ENDMDL
MODEL 8
REMARK VINA RESULT:      -8.9      1.943      2.463
REMARK  7 active torsions:
REMARK  status: ('A' for Active; 'I' for Inactive)
REMARK    1  A    between atoms: C_6  and  C_7 
REMARK       I    between atoms: C_7  and  N_8 
REMARK    2  A    between atoms: N_8  and  C_9 
REMARK    3  A    between atoms: C_9  and  C_10 
REMARK       I    between atoms: C_10  and  N_11 
REMARK    4  A    between atoms: N_11  and  N_12 
REMARK       I    between atoms: N_12  and  C_13 
REMARK    5  A    between atoms: C_13  and  C_14 
REMARK    6  A    between atoms: C_14  and  N_15 
REMARK    7  A    between atoms: N_15  and  C_16 
ROOT
HETATM    1  C   UNL     1      -5.174   3.124 -31.078  1.00  0.00     0.253 C 
HETATM    2  N   UNL     1      -4.207   3.855 -30.421  1.00  0.00    -0.266 N 
HETATM    3  O   UNL     1      -5.759   3.544 -32.078  1.00  0.00    -0.270 OA
HETATM    4  H   UNL     1      -3.722   3.528 -29.587  1.00  0.00     0.190 HD
ENDROOT
BRANCH   2   5
HETATM    5  N   UNL     1      -3.753   5.037 -31.015  1.00  0.00    -0.266 N 
HETATM    6  C   UNL     1      -2.588   4.976 -31.758  1.00  0.00     0.258 C 
HETATM    7  O   UNL     1      -1.831   4.002 -31.737  1.00  0.00    -0.269 OA
HETATM    8  H   UNL     1      -4.475   5.732 -31.208  1.00  0.00     0.190 HD
BRANCH   6   9
HETATM    9  C   UNL     1      -2.309   6.233 -32.604  1.00  0.00     0.173 C 
HETATM   10  C   UNL     1      -2.309   5.873 -34.086  1.00  0.00     0.042 C 
BRANCH   9  11
HETATM   11  N   UNL     1      -1.000   6.780 -32.246  1.00  0.00    -0.356 N 
HETATM   12  H   UNL     1      -0.222   6.366 -32.758  1.00  0.00     0.162 HD
BRANCH  11  13
HETATM   13  C   UNL     1      -0.776   7.218 -30.990  1.00  0.00     0.168 A 
HETATM   14  S   UNL     1      -1.809   8.403 -30.295  1.00  0.00    -0.050 SA
HETATM   15  C   UNL     1      -0.887   8.368 -28.844  1.00  0.00     0.037 A 
HETATM   16  C   UNL     1       0.155   7.453 -28.996  1.00  0.00     0.076 A 
HETATM   17  C   UNL     1      -1.068   9.096 -27.657  1.00  0.00     0.021 A 
HETATM   18  N   UNL     1       0.198   6.802 -30.217  1.00  0.00    -0.223 NA
HETATM   19  C   UNL     1       1.056   7.269 -27.929  1.00  0.00     0.033 A 
HETATM   20  C   UNL     1       0.890   7.994 -26.744  1.00  0.00     0.002 A 
HETATM   21  C   UNL     1      -0.163   8.893 -26.612  1.00  0.00     0.002 A 
ENDBRANCH  11  13
ENDBRANCH   9  11
ENDBRANCH   6   9
ENDBRANCH   2   5
BRANCH   1  22
HETATM   22  C   UNL     1      -5.517   1.792 -30.421  1.00  0.00     0.227 C 
BRANCH  22  23
HETATM   23  N   UNL     1      -5.764   0.797 -31.446  1.00  0.00    -0.348 N 
HETATM   24  C   UNL     1      -4.770  -0.098 -31.783  1.00  0.00     0.252 C 
HETATM   25  O   UNL     1      -3.645  -0.051 -31.299  1.00  0.00    -0.268 OA
HETATM   26  H   UNL     1      -6.728   0.530 -31.603  1.00  0.00     0.163 HD
BRANCH  24  27
HETATM   27  C   UNL     1      -5.145  -1.174 -32.741  1.00  0.00     0.032 A 
HETATM   28  C   UNL     1      -4.251  -2.233 -32.941  1.00  0.00     0.024 A 
HETATM   29  C   UNL     1      -4.553  -3.274 -33.835  1.00  0.00    -0.055 A 
HETATM   30  C   UNL     1      -5.759  -3.227 -34.565  1.00  0.00    -0.056 A 
HETATM   31  C   UNL     1      -3.561  -4.390 -34.021  1.00  0.00     0.049 C 
HETATM   32  C   UNL     1      -6.130  -4.309 -35.542  1.00  0.00     0.049 C 
HETATM   33  C   UNL     1      -6.647  -2.159 -34.359  1.00  0.00     0.008 A 
HETATM   34  C   UNL     1      -6.344  -1.137 -33.458  1.00  0.00     0.017 A 
ENDBRANCH  24  27
ENDBRANCH  22  23
ENDBRANCH   1  22
TORSDOF 7
ENDMDL
MODEL 9
REMARK VINA RESULT:      -8.9      1.335      1.935
REMARK  7 active torsions:
REMARK  status: ('A' for Active; 'I' for Inactive)
REMARK    1  A    between atoms: C_6  and  C_7 
REMARK       I    between atoms: C_7  and  N_8 
REMARK    2  A    between atoms: N_8  and  C_9 
REMARK    3  A    between atoms: C_9  and  C_10 
REMARK       I    between atoms: C_10  and  N_11 
REMARK    4  A    between atoms: N_11  and  N_12 
REMARK       I    between atoms: N_12  and  C_13 
REMARK    5  A    between atoms: C_13  and  C_14 
REMARK    6  A    between atoms: C_14  and  N_15 
REMARK    7  A    between atoms: N_15  and  C_16 
ROOT
HETATM    1  C   UNL     1      -6.562   3.598 -32.020  1.00  0.00     0.253 C 
HETATM    2  N   UNL     1      -5.511   3.331 -31.170  1.00  0.00    -0.266 N 
HETATM    3  O   UNL     1      -6.677   4.669 -32.618  1.00  0.00    -0.270 OA
HETATM    4  H   UNL     1      -5.406   2.455 -30.659  1.00  0.00     0.190 HD
ENDROOT
BRANCH   2   5
HETATM    5  N   UNL     1      -4.448   4.240 -31.124  1.00  0.00    -0.266 N 
HETATM    6  C   UNL     1      -3.219   3.816 -31.598  1.00  0.00     0.258 C 
HETATM    7  O   UNL     1      -2.970   2.633 -31.845  1.00  0.00    -0.269 OA
HETATM    8  H   UNL     1      -4.717   5.224 -31.140  1.00  0.00     0.190 HD
BRANCH   6   9
HETATM    9  C   UNL     1      -2.186   4.943 -31.778  1.00  0.00     0.173 C 
HETATM   10  C   UNL     1      -1.542   4.843 -33.157  1.00  0.00     0.042 C 
BRANCH   9  11
HETATM   11  N   UNL     1      -1.146   4.819 -30.757  1.00  0.00    -0.356 N 
HETATM   12  H   UNL     1      -1.061   3.884 -30.361  1.00  0.00     0.162 HD
BRANCH  11  13
HETATM   13  C   UNL     1      -0.850   5.874 -29.969  1.00  0.00     0.168 A 
HETATM   14  S   UNL     1      -1.932   7.206 -29.873  1.00  0.00    -0.050 SA
HETATM   15  C   UNL     1      -0.877   7.994 -28.768  1.00  0.00     0.037 A 
HETATM   16  C   UNL     1       0.237   7.183 -28.554  1.00  0.00     0.076 A 
HETATM   17  C   UNL     1      -1.019   9.241 -28.136  1.00  0.00     0.021 A 
HETATM   18  N   UNL     1       0.232   5.978 -29.236  1.00  0.00    -0.223 NA
HETATM   19  C   UNL     1       1.251   7.638 -27.688  1.00  0.00     0.033 A 
HETATM   20  C   UNL     1       1.124   8.880 -27.058  1.00  0.00     0.002 A 
HETATM   21  C   UNL     1      -0.001   9.668 -27.279  1.00  0.00     0.002 A 
ENDBRANCH  11  13
ENDBRANCH   9  11
ENDBRANCH   6   9
ENDBRANCH   2   5
BRANCH   1  22
HETATM   22  C   UNL     1      -7.612   2.495 -32.095  1.00  0.00     0.227 C 
BRANCH  22  23
HETATM   23  N   UNL     1      -6.957   1.217 -32.291  1.00  0.00    -0.348 N 
HETATM   24  C   UNL     1      -6.976   0.623 -33.535  1.00  0.00     0.252 C 
HETATM   25  O   UNL     1      -7.588   1.097 -34.486  1.00  0.00    -0.268 OA
HETATM   26  H   UNL     1      -6.201   0.988 -31.657  1.00  0.00     0.163 HD
BRANCH  24  27
HETATM   27  C   UNL     1      -6.165  -0.616 -33.690  1.00  0.00     0.032 A 
HETATM   28  C   UNL     1      -5.083  -0.820 -32.825  1.00  0.00     0.024 A 
HETATM   29  C   UNL     1      -4.283  -1.971 -32.928  1.00  0.00    -0.055 A 
HETATM   30  C   UNL     1      -4.556  -2.911 -33.943  1.00  0.00    -0.056 A 
HETATM   31  C   UNL     1      -3.129  -2.146 -31.979  1.00  0.00     0.049 C 
HETATM   32  C   UNL     1      -3.728  -4.155 -34.107  1.00  0.00     0.049 C 
HETATM   33  C   UNL     1      -5.642  -2.695 -34.808  1.00  0.00     0.008 A 
HETATM   34  C   UNL     1      -6.440  -1.555 -34.687  1.00  0.00     0.017 A 
ENDBRANCH  24  27
ENDBRANCH  22  23
ENDBRANCH   1  22
TORSDOF 7
ENDMDL
MODEL 10
REMARK VINA RESULT:      -8.8      2.926     11.066
REMARK  7 active torsions:
REMARK  status: ('A' for Active; 'I' for Inactive)
REMARK    1  A    between atoms: C_6  and  C_7 
REMARK       I    between atoms: C_7  and  N_8 
REMARK    2  A    between atoms: N_8  and  C_9 
REMARK    3  A    between atoms: C_9  and  C_10 
REMARK       I    between atoms: C_10  and  N_11 
REMARK    4  A    between atoms: N_11  and  N_12 
REMARK       I    between atoms: N_12  and  C_13 
REMARK    5  A    between atoms: C_13  and  C_14 
REMARK    6  A    between atoms: C_14  and  N_15 
REMARK    7  A    between atoms: N_15  and  C_16 
ROOT
HETATM    1  C   UNL     1      -1.571   5.959 -31.557  1.00  0.00     0.253 C 
HETATM    2  N   UNL     1      -1.840   4.809 -30.846  1.00  0.00    -0.266 N 
HETATM    3  O   UNL     1      -2.412   6.511 -32.269  1.00  0.00    -0.270 OA
HETATM    4  H   UNL     1      -1.153   4.333 -30.262  1.00  0.00     0.190 HD
ENDROOT
BRANCH   2   5
HETATM    5  N   UNL     1      -3.162   4.355 -30.794  1.00  0.00    -0.266 N 
HETATM    6  C   UNL     1      -3.491   3.243 -31.548  1.00  0.00     0.258 C 
HETATM    7  O   UNL     1      -2.746   2.780 -32.415  1.00  0.00    -0.269 OA
HETATM    8  H   UNL     1      -3.669   4.592 -29.940  1.00  0.00     0.190 HD
BRANCH   6   9
HETATM    9  C   UNL     1      -4.871   2.642 -31.222  1.00  0.00     0.173 C 
HETATM   10  C   UNL     1      -5.496   3.383 -30.044  1.00  0.00     0.042 C 
BRANCH   9  11
HETATM   11  N   UNL     1      -4.716   1.231 -30.868  1.00  0.00    -0.356 N 
HETATM   12  H   UNL     1      -3.939   1.043 -30.235  1.00  0.00     0.162 HD
BRANCH  11  13
HETATM   13  C   UNL     1      -5.060   0.275 -31.756  1.00  0.00     0.168 A 
HETATM   14  S   UNL     1      -6.692   0.131 -32.274  1.00  0.00    -0.050 SA
HETATM   15  C   UNL     1      -6.264  -1.193 -33.285  1.00  0.00     0.037 A 
HETATM   16  C   UNL     1      -4.898  -1.437 -33.149  1.00  0.00     0.076 A 
HETATM   17  C   UNL     1      -7.075  -1.963 -34.134  1.00  0.00     0.021 A 
HETATM   18  N   UNL     1      -4.227  -0.589 -32.284  1.00  0.00    -0.223 NA
HETATM   19  C   UNL     1      -4.322  -2.496 -33.879  1.00  0.00     0.033 A 
HETATM   20  C   UNL     1      -5.121  -3.275 -34.723  1.00  0.00     0.002 A 
HETATM   21  C   UNL     1      -6.480  -3.006 -34.850  1.00  0.00     0.002 A 
ENDBRANCH  11  13
ENDBRANCH   9  11
ENDBRANCH   6   9
ENDBRANCH   2   5
BRANCH   1  22
HETATM   22  C   UNL     1      -0.130   6.444 -31.456  1.00  0.00     0.227 C 
BRANCH  22  23
HETATM   23  N   UNL     1       0.020   7.270 -30.274  1.00  0.00    -0.348 N 
HETATM   24  C   UNL     1       0.443   6.700 -29.092  1.00  0.00     0.252 C 
HETATM   25  O   UNL     1       0.638   5.496 -28.970  1.00  0.00    -0.268 OA
HETATM   26  H   UNL     1       0.190   8.257 -30.423  1.00  0.00     0.163 HD
BRANCH  24  27
HETATM   27  C   UNL     1       0.706   7.634 -27.963  1.00  0.00     0.032 A 
HETATM   28  C   UNL     1       0.066   8.879 -27.962  1.00  0.00     0.024 A 
HETATM   29  C   UNL     1       0.280   9.800 -26.922  1.00  0.00    -0.055 A 
HETATM   30  C   UNL     1       1.181   9.474 -25.887  1.00  0.00    -0.056 A 
HETATM   31  C   UNL     1      -0.426  11.128 -26.964  1.00  0.00     0.049 C 
HETATM   32  C   UNL     1       1.456  10.425 -24.754  1.00  0.00     0.049 C 
HETATM   33  C   UNL     1       1.820   8.223 -25.899  1.00  0.00     0.008 A 
HETATM   34  C   UNL     1       1.589   7.310 -26.930  1.00  0.00     0.017 A 
ENDBRANCH  24  27
ENDBRANCH  22  23
ENDBRANCH   1  22
TORSDOF 7
ENDMDL
