MODEL 1
REMARK VINA RESULT:      -9.6      0.000      0.000
REMARK  10 active torsions:
REMARK  status: ('A' for Active; 'I' for Inactive)
REMARK    1  A    between atoms: O_2  and  C_3 
REMARK    2  A    between atoms: C_6  and  C_7 
REMARK    3  A    between atoms: C_7  and  C_8 
REMARK    4  A    between atoms: C_8  and  N_9 
REMARK    5  A    between atoms: N_12  and  C_13 
REMARK    6  A    between atoms: C_16  and  O_17 
REMARK    7  A    between atoms: C_23  and  C_24 
REMARK    8  A    between atoms: C_24  and  C_25 
REMARK       I    between atoms: C_25  and  N_26 
REMARK    9  A    between atoms: N_26  and  C_27 
REMARK   10  A    between atoms: C_30  and  O_31 
ROOT
HETATM    1  N   UNL     1      -9.096   1.546 -33.422  1.00  0.00    -0.319 N 
HETATM    2  C   UNL     1     -10.368   1.016 -33.169  1.00  0.00     0.332 C 
HETATM    3  O   UNL     1     -10.533  -0.069 -32.630  1.00  0.00    -0.246 OA
HETATM    4  N   UNL     1     -11.313   1.877 -33.688  1.00  0.00    -0.232 N 
HETATM    5  C   UNL     1     -10.667   2.798 -34.474  1.00  0.00     0.256 C 
HETATM    6  O   UNL     1     -11.136   3.606 -35.271  1.00  0.00    -0.270 OA
HETATM    7  C   UNL     1      -9.171   2.777 -34.183  1.00  0.00     0.190 C 
ENDROOT
BRANCH   7   8
HETATM    8  C   UNL     1      -8.859   4.010 -33.338  1.00  0.00     0.138 C 
BRANCH   8   9
HETATM    9  C   UNL     1      -7.398   4.432 -33.337  1.00  0.00     0.224 C 
HETATM   10  N   UNL     1      -6.670   4.017 -32.241  1.00  0.00    -0.327 N 
HETATM   11  H   UNL     1      -7.170   3.663 -31.426  1.00  0.00     0.169 HD
HETATM   12  O   UNL     1      -6.946   5.043 -34.303  1.00  0.00    -0.273 OA
BRANCH  10  13
HETATM   13  C   UNL     1      -5.268   4.015 -32.094  1.00  0.00     0.034 A 
HETATM   14  C   UNL     1      -4.680   5.192 -31.617  1.00  0.00     0.032 A 
HETATM   15  C   UNL     1      -3.305   5.251 -31.381  1.00  0.00     0.039 A 
HETATM   16  C   UNL     1      -2.509   4.124 -31.573  1.00  0.00     0.068 A 
HETATM   17  C   UNL     1      -3.086   2.954 -32.066  1.00  0.00     0.039 A 
HETATM   18  C   UNL     1      -4.461   2.903 -32.333  1.00  0.00     0.032 A 
BRANCH  16  19
HETATM   19  O   UNL     1      -1.184   4.285 -31.276  1.00  0.00    -0.356 OA
HETATM   20  C   UNL     1      -0.858   5.499 -30.608  1.00  0.00     0.210 C 
ENDBRANCH  16  19
ENDBRANCH  10  13
ENDBRANCH   8   9
ENDBRANCH   7   8
BRANCH   1  21
HETATM   21  C   UNL     1      -7.914   0.685 -33.408  1.00  0.00     0.133 C 
BRANCH  21  22
HETATM   22  C   UNL     1      -7.736  -0.193 -34.648  1.00  0.00     0.058 C 
BRANCH  22  23
HETATM   23  C   UNL     1      -6.604  -1.177 -34.481  1.00  0.00    -0.057 A 
HETATM   24  C   UNL     1      -5.387  -0.780 -33.913  1.00  0.00     0.010 A 
HETATM   25  C   UNL     1      -4.333  -1.693 -33.773  1.00  0.00     0.037 A 
HETATM   26  C   UNL     1      -4.485  -3.012 -34.199  1.00  0.00     0.068 A 
HETATM   27  C   UNL     1      -5.695  -3.406 -34.772  1.00  0.00     0.037 A 
HETATM   28  C   UNL     1      -6.749  -2.498 -34.913  1.00  0.00     0.010 A 
BRANCH  26  29
HETATM   29  O   UNL     1      -3.543  -4.000 -34.118  1.00  0.00    -0.356 OA
HETATM   30  C   UNL     1      -3.930  -5.208 -33.478  1.00  0.00     0.210 C 
ENDBRANCH  26  29
ENDBRANCH  22  23
ENDBRANCH  21  22
ENDBRANCH   1  21
BRANCH   4  31
HETATM   31  C   UNL     1     -12.727   1.796 -33.497  1.00  0.00     0.047 A 
HETATM   32  C   UNL     1     -13.410   2.646 -32.617  1.00  0.00     0.033 A 
HETATM   33  C   UNL     1     -14.809   2.612 -32.503  1.00  0.00     0.039 A 
HETATM   34  C   UNL     1     -15.570   1.744 -33.278  1.00  0.00     0.068 A 
HETATM   35  C   UNL     1     -14.916   0.875 -34.140  1.00  0.00     0.039 A 
HETATM   36  C   UNL     1     -13.516   0.904 -34.246  1.00  0.00     0.033 A 
BRANCH  34  37
HETATM   37  O   UNL     1     -16.921   1.833 -33.102  1.00  0.00    -0.356 OA
HETATM   38  C   UNL     1     -17.367   2.655 -32.031  1.00  0.00     0.210 C 
ENDBRANCH  34  37
ENDBRANCH   4  31
TORSDOF 10
ENDMDL
MODEL 2
REMARK VINA RESULT:      -8.8      1.928      6.304
REMARK  10 active torsions:
REMARK  status: ('A' for Active; 'I' for Inactive)
REMARK    1  A    between atoms: O_2  and  C_3 
REMARK    2  A    between atoms: C_6  and  C_7 
REMARK    3  A    between atoms: C_7  and  C_8 
REMARK    4  A    between atoms: C_8  and  N_9 
REMARK    5  A    between atoms: N_12  and  C_13 
REMARK    6  A    between atoms: C_16  and  O_17 
REMARK    7  A    between atoms: C_23  and  C_24 
REMARK    8  A    between atoms: C_24  and  C_25 
REMARK       I    between atoms: C_25  and  N_26 
REMARK    9  A    between atoms: N_26  and  C_27 
REMARK   10  A    between atoms: C_30  and  O_31 
ROOT
HETATM    1  N   UNL     1      -6.924   4.454 -32.559  1.00  0.00    -0.319 N 
HETATM    2  C   UNL     1      -8.055   4.067 -33.289  1.00  0.00     0.332 C 
HETATM    3  O   UNL     1      -8.223   4.384 -34.458  1.00  0.00    -0.246 OA
HETATM    4  N   UNL     1      -8.904   3.375 -32.449  1.00  0.00    -0.232 N 
HETATM    5  C   UNL     1      -8.456   3.535 -31.163  1.00  0.00     0.256 C 
HETATM    6  O   UNL     1      -9.016   3.263 -30.103  1.00  0.00    -0.270 OA
HETATM    7  C   UNL     1      -7.026   4.063 -31.167  1.00  0.00     0.190 C 
ENDROOT
BRANCH   7   8
HETATM    8  C   UNL     1      -6.112   2.891 -30.817  1.00  0.00     0.138 C 
BRANCH   8   9
HETATM    9  C   UNL     1      -6.478   1.573 -31.483  1.00  0.00     0.224 C 
HETATM   10  N   UNL     1      -5.955   1.389 -32.745  1.00  0.00    -0.327 N 
HETATM   11  H   UNL     1      -5.559   2.193 -33.233  1.00  0.00     0.169 HD
HETATM   12  O   UNL     1      -7.144   0.748 -30.860  1.00  0.00    -0.273 OA
BRANCH  10  13
HETATM   13  C   UNL     1      -5.891   0.189 -33.481  1.00  0.00     0.034 A 
HETATM   14  C   UNL     1      -4.780  -0.633 -33.260  1.00  0.00     0.032 A 
HETATM   15  C   UNL     1      -4.674  -1.869 -33.900  1.00  0.00     0.039 A 
HETATM   16  C   UNL     1      -5.696  -2.320 -34.732  1.00  0.00     0.068 A 
HETATM   17  C   UNL     1      -6.797  -1.498 -34.972  1.00  0.00     0.039 A 
HETATM   18  C   UNL     1      -6.890  -0.243 -34.354  1.00  0.00     0.032 A 
BRANCH  16  19
HETATM   19  O   UNL     1      -5.505  -3.559 -35.277  1.00  0.00    -0.356 OA
HETATM   20  C   UNL     1      -6.530  -4.507 -34.995  1.00  0.00     0.210 C 
ENDBRANCH  16  19
ENDBRANCH  10  13
ENDBRANCH   8   9
ENDBRANCH   7   8
BRANCH   1  21
HETATM   21  C   UNL     1      -6.080   5.556 -33.020  1.00  0.00     0.133 C 
BRANCH  21  22
HETATM   22  C   UNL     1      -5.003   5.168 -34.034  1.00  0.00     0.058 C 
BRANCH  22  23
HETATM   23  C   UNL     1      -3.629   5.140 -33.409  1.00  0.00    -0.057 A 
HETATM   24  C   UNL     1      -2.572   5.872 -33.966  1.00  0.00     0.010 A 
HETATM   25  C   UNL     1      -1.295   5.831 -33.391  1.00  0.00     0.037 A 
HETATM   26  C   UNL     1      -1.061   5.060 -32.254  1.00  0.00     0.068 A 
HETATM   27  C   UNL     1      -2.111   4.324 -31.703  1.00  0.00     0.037 A 
HETATM   28  C   UNL     1      -3.387   4.362 -32.274  1.00  0.00     0.010 A 
BRANCH  26  29
HETATM   29  O   UNL     1       0.131   4.935 -31.595  1.00  0.00    -0.356 OA
HETATM   30  C   UNL     1       0.295   5.702 -30.409  1.00  0.00     0.210 C 
ENDBRANCH  26  29
ENDBRANCH  22  23
ENDBRANCH  21  22
ENDBRANCH   1  21
BRANCH   4  31
HETATM   31  C   UNL     1     -10.083   2.666 -32.835  1.00  0.00     0.047 A 
HETATM   32  C   UNL     1     -11.291   3.322 -33.108  1.00  0.00     0.033 A 
HETATM   33  C   UNL     1     -12.418   2.622 -33.569  1.00  0.00     0.039 A 
HETATM   34  C   UNL     1     -12.367   1.251 -33.790  1.00  0.00     0.068 A 
HETATM   35  C   UNL     1     -11.190   0.573 -33.504  1.00  0.00     0.039 A 
HETATM   36  C   UNL     1     -10.067   1.274 -33.035  1.00  0.00     0.033 A 
BRANCH  34  37
HETATM   37  O   UNL     1     -13.516   0.692 -34.273  1.00  0.00    -0.356 OA
HETATM   38  C   UNL     1     -14.708   0.972 -33.548  1.00  0.00     0.210 C 
ENDBRANCH  34  37
ENDBRANCH   4  31
TORSDOF 10
ENDMDL
MODEL 3
REMARK VINA RESULT:      -8.5      2.017      3.126
REMARK  10 active torsions:
REMARK  status: ('A' for Active; 'I' for Inactive)
REMARK    1  A    between atoms: O_2  and  C_3 
REMARK    2  A    between atoms: C_6  and  C_7 
REMARK    3  A    between atoms: C_7  and  C_8 
REMARK    4  A    between atoms: C_8  and  N_9 
REMARK    5  A    between atoms: N_12  and  C_13 
REMARK    6  A    between atoms: C_16  and  O_17 
REMARK    7  A    between atoms: C_23  and  C_24 
REMARK    8  A    between atoms: C_24  and  C_25 
REMARK       I    between atoms: C_25  and  N_26 
REMARK    9  A    between atoms: N_26  and  C_27 
REMARK   10  A    between atoms: C_30  and  O_31 
ROOT
HETATM    1  N   UNL     1      -6.756   2.633 -32.158  1.00  0.00    -0.319 N 
HETATM    2  C   UNL     1      -8.132   2.385 -32.063  1.00  0.00     0.332 C 
HETATM    3  O   UNL     1      -8.730   2.398 -30.997  1.00  0.00    -0.246 OA
HETATM    4  N   UNL     1      -8.609   2.073 -33.320  1.00  0.00    -0.232 N 
HETATM    5  C   UNL     1      -7.534   1.872 -34.148  1.00  0.00     0.256 C 
HETATM    6  O   UNL     1      -7.499   1.387 -35.276  1.00  0.00    -0.270 OA
HETATM    7  C   UNL     1      -6.268   2.431 -33.508  1.00  0.00     0.190 C 
ENDROOT
BRANCH   7   8
HETATM    8  C   UNL     1      -5.946   3.744 -34.219  1.00  0.00     0.138 C 
BRANCH   8   9
HETATM    9  C   UNL     1      -5.081   4.708 -33.421  1.00  0.00     0.224 C 
HETATM   10  N   UNL     1      -3.791   4.280 -33.187  1.00  0.00    -0.327 N 
HETATM   11  H   UNL     1      -3.562   3.300 -33.354  1.00  0.00     0.169 HD
HETATM   12  O   UNL     1      -5.539   5.800 -33.093  1.00  0.00    -0.273 OA
BRANCH  10  13
HETATM   13  C   UNL     1      -2.702   5.048 -32.729  1.00  0.00     0.034 A 
HETATM   14  C   UNL     1      -2.159   4.703 -31.487  1.00  0.00     0.032 A 
HETATM   15  C   UNL     1      -1.038   5.372 -30.992  1.00  0.00     0.039 A 
HETATM   16  C   UNL     1      -0.419   6.362 -31.751  1.00  0.00     0.068 A 
HETATM   17  C   UNL     1      -0.966   6.725 -32.982  1.00  0.00     0.039 A 
HETATM   18  C   UNL     1      -2.109   6.075 -33.466  1.00  0.00     0.032 A 
BRANCH  16  19
HETATM   19  O   UNL     1       0.691   6.926 -31.185  1.00  0.00    -0.356 OA
HETATM   20  C   UNL     1       0.574   7.227 -29.798  1.00  0.00     0.210 C 
ENDBRANCH  16  19
ENDBRANCH  10  13
ENDBRANCH   8   9
ENDBRANCH   7   8
BRANCH   1  21
HETATM   21  C   UNL     1      -5.899   2.543 -30.977  1.00  0.00     0.133 C 
BRANCH  21  22
HETATM   22  C   UNL     1      -5.707   1.131 -30.420  1.00  0.00     0.058 C 
BRANCH  22  23
HETATM   23  C   UNL     1      -5.259   0.163 -31.488  1.00  0.00    -0.057 A 
HETATM   24  C   UNL     1      -3.927   0.140 -31.922  1.00  0.00     0.010 A 
HETATM   25  C   UNL     1      -3.518  -0.749 -32.924  1.00  0.00     0.037 A 
HETATM   26  C   UNL     1      -4.435  -1.625 -33.503  1.00  0.00     0.068 A 
HETATM   27  C   UNL     1      -5.764  -1.598 -33.076  1.00  0.00     0.037 A 
HETATM   28  C   UNL     1      -6.176  -0.711 -32.077  1.00  0.00     0.010 A 
BRANCH  26  29
HETATM   29  O   UNL     1      -4.169  -2.541 -34.483  1.00  0.00    -0.356 OA
HETATM   30  C   UNL     1      -5.268  -3.294 -34.977  1.00  0.00     0.210 C 
ENDBRANCH  26  29
ENDBRANCH  22  23
ENDBRANCH  21  22
ENDBRANCH   1  21
BRANCH   4  31
HETATM   31  C   UNL     1      -9.981   1.919 -33.689  1.00  0.00     0.047 A 
HETATM   32  C   UNL     1     -10.634   2.837 -34.524  1.00  0.00     0.033 A 
HETATM   33  C   UNL     1     -11.956   2.629 -34.948  1.00  0.00     0.039 A 
HETATM   34  C   UNL     1     -12.659   1.491 -34.570  1.00  0.00     0.068 A 
HETATM   35  C   UNL     1     -12.043   0.579 -33.724  1.00  0.00     0.039 A 
HETATM   36  C   UNL     1     -10.724   0.792 -33.293  1.00  0.00     0.033 A 
BRANCH  34  37
HETATM   37  O   UNL     1     -13.923   1.387 -35.077  1.00  0.00    -0.356 OA
HETATM   38  C   UNL     1     -14.885   0.743 -34.250  1.00  0.00     0.210 C 
ENDBRANCH  34  37
ENDBRANCH   4  31
TORSDOF 10
ENDMDL
MODEL 4
REMARK VINA RESULT:      -8.5      1.724      8.906
REMARK  10 active torsions:
REMARK  status: ('A' for Active; 'I' for Inactive)
REMARK    1  A    between atoms: O_2  and  C_3 
REMARK    2  A    between atoms: C_6  and  C_7 
REMARK    3  A    between atoms: C_7  and  C_8 
REMARK    4  A    between atoms: C_8  and  N_9 
REMARK    5  A    between atoms: N_12  and  C_13 
REMARK    6  A    between atoms: C_16  and  O_17 
REMARK    7  A    between atoms: C_23  and  C_24 
REMARK    8  A    between atoms: C_24  and  C_25 
REMARK       I    between atoms: C_25  and  N_26 
REMARK    9  A    between atoms: N_26  and  C_27 
REMARK   10  A    between atoms: C_30  and  O_31 
ROOT
HETATM    1  N   UNL     1      -6.003   2.686 -31.897  1.00  0.00    -0.319 N 
HETATM    2  C   UNL     1      -4.667   2.984 -31.596  1.00  0.00     0.332 C 
HETATM    3  O   UNL     1      -3.831   2.117 -31.387  1.00  0.00    -0.246 OA
HETATM    4  N   UNL     1      -4.531   4.355 -31.515  1.00  0.00    -0.232 N 
HETATM    5  C   UNL     1      -5.785   4.910 -31.508  1.00  0.00     0.256 C 
HETATM    6  O   UNL     1      -6.126   6.062 -31.249  1.00  0.00    -0.270 OA
HETATM    7  C   UNL     1      -6.814   3.885 -31.971  1.00  0.00     0.190 C 
ENDROOT
BRANCH   7   8
HETATM    8  C   UNL     1      -7.198   4.247 -33.404  1.00  0.00     0.138 C 
BRANCH   8   9
HETATM    9  C   UNL     1      -8.691   4.220 -33.693  1.00  0.00     0.224 C 
HETATM   10  N   UNL     1      -9.126   3.135 -34.424  1.00  0.00    -0.327 N 
HETATM   11  H   UNL     1      -8.435   2.556 -34.901  1.00  0.00     0.169 HD
HETATM   12  O   UNL     1      -9.412   5.099 -33.225  1.00  0.00    -0.273 OA
BRANCH  10  13
HETATM   13  C   UNL     1     -10.454   2.701 -34.607  1.00  0.00     0.034 A 
HETATM   14  C   UNL     1     -10.827   1.511 -33.971  1.00  0.00     0.032 A 
HETATM   15  C   UNL     1     -12.141   1.048 -34.049  1.00  0.00     0.039 A 
HETATM   16  C   UNL     1     -13.110   1.788 -34.723  1.00  0.00     0.068 A 
HETATM   17  C   UNL     1     -12.741   2.964 -35.375  1.00  0.00     0.039 A 
HETATM   18  C   UNL     1     -11.415   3.415 -35.324  1.00  0.00     0.032 A 
BRANCH  16  19
HETATM   19  O   UNL     1     -14.370   1.259 -34.704  1.00  0.00    -0.356 OA
HETATM   20  C   UNL     1     -15.029   1.313 -33.443  1.00  0.00     0.210 C 
ENDBRANCH  16  19
ENDBRANCH  10  13
ENDBRANCH   8   9
ENDBRANCH   7   8
BRANCH   1  21
HETATM   21  C   UNL     1      -6.555   1.364 -31.608  1.00  0.00     0.133 C 
BRANCH  21  22
HETATM   22  C   UNL     1      -7.271   0.689 -32.780  1.00  0.00     0.058 C 
BRANCH  22  23
HETATM   23  C   UNL     1      -6.498  -0.498 -33.301  1.00  0.00    -0.057 A 
HETATM   24  C   UNL     1      -7.115  -1.453 -34.119  1.00  0.00     0.010 A 
HETATM   25  C   UNL     1      -6.398  -2.562 -34.588  1.00  0.00     0.037 A 
HETATM   26  C   UNL     1      -5.056  -2.726 -34.246  1.00  0.00     0.068 A 
HETATM   27  C   UNL     1      -4.443  -1.779 -33.425  1.00  0.00     0.037 A 
HETATM   28  C   UNL     1      -5.156  -0.672 -32.955  1.00  0.00     0.010 A 
BRANCH  26  29
HETATM   29  O   UNL     1      -4.245  -3.755 -34.637  1.00  0.00    -0.356 OA
HETATM   30  C   UNL     1      -4.617  -5.063 -34.223  1.00  0.00     0.210 C 
ENDBRANCH  26  29
ENDBRANCH  22  23
ENDBRANCH  21  22
ENDBRANCH   1  21
BRANCH   4  31
HETATM   31  C   UNL     1      -3.304   5.077 -31.395  1.00  0.00     0.047 A 
HETATM   32  C   UNL     1      -3.106   6.050 -30.405  1.00  0.00     0.033 A 
HETATM   33  C   UNL     1      -1.867   6.691 -30.244  1.00  0.00     0.039 A 
HETATM   34  C   UNL     1      -0.783   6.367 -31.052  1.00  0.00     0.068 A 
HETATM   35  C   UNL     1      -0.960   5.425 -32.056  1.00  0.00     0.039 A 
HETATM   36  C   UNL     1      -2.202   4.791 -32.221  1.00  0.00     0.033 A 
BRANCH  34  37
HETATM   37  O   UNL     1       0.376   7.033 -30.773  1.00  0.00    -0.356 OA
HETATM   38  C   UNL     1       0.569   7.425 -29.419  1.00  0.00     0.210 C 
ENDBRANCH  34  37
ENDBRANCH   4  31
TORSDOF 10
ENDMDL
MODEL 5
REMARK VINA RESULT:      -8.4      2.173      7.508
REMARK  10 active torsions:
REMARK  status: ('A' for Active; 'I' for Inactive)
REMARK    1  A    between atoms: O_2  and  C_3 
REMARK    2  A    between atoms: C_6  and  C_7 
REMARK    3  A    between atoms: C_7  and  C_8 
REMARK    4  A    between atoms: C_8  and  N_9 
REMARK    5  A    between atoms: N_12  and  C_13 
REMARK    6  A    between atoms: C_16  and  O_17 
REMARK    7  A    between atoms: C_23  and  C_24 
REMARK    8  A    between atoms: C_24  and  C_25 
REMARK       I    between atoms: C_25  and  N_26 
REMARK    9  A    between atoms: N_26  and  C_27 
REMARK   10  A    between atoms: C_30  and  O_31 
ROOT
HETATM    1  N   UNL     1      -6.615   2.944 -33.689  1.00  0.00    -0.319 N 
HETATM    2  C   UNL     1      -6.758   1.661 -34.233  1.00  0.00     0.332 C 
HETATM    3  O   UNL     1      -7.526   1.419 -35.153  1.00  0.00    -0.246 OA
HETATM    4  N   UNL     1      -5.967   0.789 -33.514  1.00  0.00    -0.232 N 
HETATM    5  C   UNL     1      -5.531   1.437 -32.386  1.00  0.00     0.256 C 
HETATM    6  O   UNL     1      -4.982   0.978 -31.388  1.00  0.00    -0.270 OA
HETATM    7  C   UNL     1      -5.743   2.939 -32.531  1.00  0.00     0.190 C 
ENDROOT
BRANCH   7   8
HETATM    8  C   UNL     1      -4.378   3.561 -32.819  1.00  0.00     0.138 C 
BRANCH   8   9
HETATM    9  C   UNL     1      -3.719   4.237 -31.627  1.00  0.00     0.224 C 
HETATM   10  N   UNL     1      -2.419   4.649 -31.833  1.00  0.00    -0.327 N 
HETATM   11  H   UNL     1      -1.917   4.298 -32.649  1.00  0.00     0.169 HD
HETATM   12  O   UNL     1      -4.373   4.430 -30.605  1.00  0.00    -0.273 OA
BRANCH  10  13
HETATM   13  C   UNL     1      -1.660   5.526 -31.033  1.00  0.00     0.034 A 
HETATM   14  C   UNL     1      -0.502   5.007 -30.444  1.00  0.00     0.032 A 
HETATM   15  C   UNL     1       0.339   5.828 -29.691  1.00  0.00     0.039 A 
HETATM   16  C   UNL     1       0.060   7.185 -29.554  1.00  0.00     0.068 A 
HETATM   17  C   UNL     1      -1.103   7.706 -30.122  1.00  0.00     0.039 A 
HETATM   18  C   UNL     1      -1.965   6.876 -30.853  1.00  0.00     0.032 A 
BRANCH  16  19
HETATM   19  O   UNL     1       0.969   7.901 -28.826  1.00  0.00    -0.356 OA
HETATM   20  C   UNL     1       1.133   7.473 -27.478  1.00  0.00     0.210 C 
ENDBRANCH  16  19
ENDBRANCH  10  13
ENDBRANCH   8   9
ENDBRANCH   7   8
BRANCH   1  21
HETATM   21  C   UNL     1      -7.630   3.970 -33.921  1.00  0.00     0.133 C 
BRANCH  21  22
HETATM   22  C   UNL     1      -8.824   3.929 -32.966  1.00  0.00     0.058 C 
BRANCH  22  23
HETATM   23  C   UNL     1     -10.042   3.318 -33.615  1.00  0.00    -0.057 A 
HETATM   24  C   UNL     1     -10.552   3.835 -34.813  1.00  0.00     0.010 A 
HETATM   25  C   UNL     1     -11.691   3.275 -35.405  1.00  0.00     0.037 A 
HETATM   26  C   UNL     1     -12.333   2.191 -34.807  1.00  0.00     0.068 A 
HETATM   27  C   UNL     1     -11.829   1.680 -33.609  1.00  0.00     0.037 A 
HETATM   28  C   UNL     1     -10.693   2.237 -33.016  1.00  0.00     0.010 A 
BRANCH  26  29
HETATM   29  O   UNL     1     -13.445   1.551 -35.278  1.00  0.00    -0.356 OA
HETATM   30  C   UNL     1     -14.185   0.773 -34.346  1.00  0.00     0.210 C 
ENDBRANCH  26  29
ENDBRANCH  22  23
ENDBRANCH  21  22
ENDBRANCH   1  21
BRANCH   4  31
HETATM   31  C   UNL     1      -5.695  -0.575 -33.845  1.00  0.00     0.047 A 
HETATM   32  C   UNL     1      -4.422  -1.140 -33.685  1.00  0.00     0.033 A 
HETATM   33  C   UNL     1      -4.189  -2.502 -33.933  1.00  0.00     0.039 A 
HETATM   34  C   UNL     1      -5.222  -3.346 -34.327  1.00  0.00     0.068 A 
HETATM   35  C   UNL     1      -6.486  -2.805 -34.516  1.00  0.00     0.039 A 
HETATM   36  C   UNL     1      -6.716  -1.441 -34.276  1.00  0.00     0.033 A 
BRANCH  34  37
HETATM   37  O   UNL     1      -4.875  -4.655 -34.500  1.00  0.00    -0.356 OA
HETATM   38  C   UNL     1      -3.699  -5.092 -33.829  1.00  0.00     0.210 C 
ENDBRANCH  34  37
ENDBRANCH   4  31
TORSDOF 10
ENDMDL
MODEL 6
REMARK VINA RESULT:      -8.3      2.302      8.743
REMARK  10 active torsions:
REMARK  status: ('A' for Active; 'I' for Inactive)
REMARK    1  A    between atoms: O_2  and  C_3 
REMARK    2  A    between atoms: C_6  and  C_7 
REMARK    3  A    between atoms: C_7  and  C_8 
REMARK    4  A    between atoms: C_8  and  N_9 
REMARK    5  A    between atoms: N_12  and  C_13 
REMARK    6  A    between atoms: C_16  and  O_17 
REMARK    7  A    between atoms: C_23  and  C_24 
REMARK    8  A    between atoms: C_24  and  C_25 
REMARK       I    between atoms: C_25  and  N_26 
REMARK    9  A    between atoms: N_26  and  C_27 
REMARK   10  A    between atoms: C_30  and  O_31 
ROOT
HETATM    1  N   UNL     1      -4.091   3.129 -32.202  1.00  0.00    -0.319 N 
HETATM    2  C   UNL     1      -3.264   4.079 -31.589  1.00  0.00     0.332 C 
HETATM    3  O   UNL     1      -2.093   3.853 -31.317  1.00  0.00    -0.246 OA
HETATM    4  N   UNL     1      -4.016   5.202 -31.312  1.00  0.00    -0.232 N 
HETATM    5  C   UNL     1      -5.338   4.889 -31.503  1.00  0.00     0.256 C 
HETATM    6  O   UNL     1      -6.342   5.520 -31.180  1.00  0.00    -0.270 OA
HETATM    7  C   UNL     1      -5.460   3.595 -32.297  1.00  0.00     0.190 C 
ENDROOT
BRANCH   7   8
HETATM    8  C   UNL     1      -5.854   3.977 -33.723  1.00  0.00     0.138 C 
BRANCH   8   9
HETATM    9  C   UNL     1      -7.341   3.875 -34.025  1.00  0.00     0.224 C 
HETATM   10  N   UNL     1      -7.844   2.592 -34.064  1.00  0.00    -0.327 N 
HETATM   11  H   UNL     1      -7.190   1.810 -34.110  1.00  0.00     0.169 HD
HETATM   12  O   UNL     1      -8.002   4.903 -34.153  1.00  0.00    -0.273 OA
BRANCH  10  13
HETATM   13  C   UNL     1      -9.197   2.200 -34.047  1.00  0.00     0.034 A 
HETATM   14  C   UNL     1      -9.508   1.019 -33.363  1.00  0.00     0.032 A 
HETATM   15  C   UNL     1     -10.833   0.596 -33.244  1.00  0.00     0.039 A 
HETATM   16  C   UNL     1     -11.868   1.370 -33.765  1.00  0.00     0.068 A 
HETATM   17  C   UNL     1     -11.564   2.538 -34.464  1.00  0.00     0.039 A 
HETATM   18  C   UNL     1     -10.232   2.948 -34.611  1.00  0.00     0.032 A 
BRANCH  16  19
HETATM   19  O   UNL     1     -13.127   0.880 -33.559  1.00  0.00    -0.356 OA
HETATM   20  C   UNL     1     -14.075   1.832 -33.088  1.00  0.00     0.210 C 
ENDBRANCH  16  19
ENDBRANCH  10  13
ENDBRANCH   8   9
ENDBRANCH   7   8
BRANCH   1  21
HETATM   21  C   UNL     1      -3.726   1.713 -32.204  1.00  0.00     0.133 C 
BRANCH  21  22
HETATM   22  C   UNL     1      -4.825   0.759 -31.732  1.00  0.00     0.058 C 
BRANCH  22  23
HETATM   23  C   UNL     1      -5.068  -0.352 -32.724  1.00  0.00    -0.057 A 
HETATM   24  C   UNL     1      -6.283  -0.445 -33.414  1.00  0.00     0.010 A 
HETATM   25  C   UNL     1      -6.511  -1.486 -34.323  1.00  0.00     0.037 A 
HETATM   26  C   UNL     1      -5.525  -2.446 -34.552  1.00  0.00     0.068 A 
HETATM   27  C   UNL     1      -4.316  -2.358 -33.860  1.00  0.00     0.037 A 
HETATM   28  C   UNL     1      -4.087  -1.320 -32.952  1.00  0.00     0.010 A 
BRANCH  26  29
HETATM   29  O   UNL     1      -5.616  -3.506 -35.411  1.00  0.00    -0.356 OA
HETATM   30  C   UNL     1      -6.538  -4.533 -35.072  1.00  0.00     0.210 C 
ENDBRANCH  26  29
ENDBRANCH  22  23
ENDBRANCH  21  22
ENDBRANCH   1  21
BRANCH   4  31
HETATM   31  C   UNL     1      -3.519   6.458 -30.845  1.00  0.00     0.047 A 
HETATM   32  C   UNL     1      -3.449   6.770 -29.479  1.00  0.00     0.033 A 
HETATM   33  C   UNL     1      -2.880   7.972 -29.030  1.00  0.00     0.039 A 
HETATM   34  C   UNL     1      -2.347   8.891 -29.928  1.00  0.00     0.068 A 
HETATM   35  C   UNL     1      -2.426   8.617 -31.286  1.00  0.00     0.039 A 
HETATM   36  C   UNL     1      -3.003   7.418 -31.734  1.00  0.00     0.033 A 
BRANCH  34  37
HETATM   37  O   UNL     1      -1.790  10.004 -29.365  1.00  0.00    -0.356 OA
HETATM   38  C   UNL     1      -2.434  11.242 -29.642  1.00  0.00     0.210 C 
ENDBRANCH  34  37
ENDBRANCH   4  31
TORSDOF 10
ENDMDL
MODEL 7
REMARK VINA RESULT:      -8.2      2.255      7.300
REMARK  10 active torsions:
REMARK  status: ('A' for Active; 'I' for Inactive)
REMARK    1  A    between atoms: O_2  and  C_3 
REMARK    2  A    between atoms: C_6  and  C_7 
REMARK    3  A    between atoms: C_7  and  C_8 
REMARK    4  A    between atoms: C_8  and  N_9 
REMARK    5  A    between atoms: N_12  and  C_13 
REMARK    6  A    between atoms: C_16  and  O_17 
REMARK    7  A    between atoms: C_23  and  C_24 
REMARK    8  A    between atoms: C_24  and  C_25 
REMARK       I    between atoms: C_25  and  N_26 
REMARK    9  A    between atoms: N_26  and  C_27 
REMARK   10  A    between atoms: C_30  and  O_31 
ROOT
HETATM    1  N   UNL     1      -5.114   4.158 -32.648  1.00  0.00    -0.319 N 
HETATM    2  C   UNL     1      -6.152   3.561 -33.375  1.00  0.00     0.332 C 
HETATM    3  O   UNL     1      -6.148   3.498 -34.596  1.00  0.00    -0.246 OA
HETATM    4  N   UNL     1      -7.134   3.163 -32.491  1.00  0.00    -0.232 N 
HETATM    5  C   UNL     1      -6.857   3.716 -31.267  1.00  0.00     0.256 C 
HETATM    6  O   UNL     1      -7.566   3.786 -30.265  1.00  0.00    -0.270 OA
HETATM    7  C   UNL     1      -5.419   4.219 -31.232  1.00  0.00     0.190 C 
ENDROOT
BRANCH   7   8
HETATM    8  C   UNL     1      -4.610   3.215 -30.413  1.00  0.00     0.138 C 
BRANCH   8   9
HETATM    9  C   UNL     1      -4.064   2.036 -31.204  1.00  0.00     0.224 C 
HETATM   10  N   UNL     1      -4.933   0.975 -31.349  1.00  0.00    -0.327 N 
HETATM   11  H   UNL     1      -5.766   0.941 -30.762  1.00  0.00     0.169 HD
HETATM   12  O   UNL     1      -2.944   2.113 -31.705  1.00  0.00    -0.273 OA
BRANCH  10  13
HETATM   13  C   UNL     1      -4.818  -0.112 -32.238  1.00  0.00     0.034 A 
HETATM   14  C   UNL     1      -3.944  -1.142 -31.871  1.00  0.00     0.032 A 
HETATM   15  C   UNL     1      -3.822  -2.284 -32.664  1.00  0.00     0.039 A 
HETATM   16  C   UNL     1      -4.604  -2.434 -33.807  1.00  0.00     0.068 A 
HETATM   17  C   UNL     1      -5.463  -1.403 -34.189  1.00  0.00     0.039 A 
HETATM   18  C   UNL     1      -5.564  -0.242 -33.410  1.00  0.00     0.032 A 
BRANCH  16  19
HETATM   19  O   UNL     1      -4.430  -3.607 -34.487  1.00  0.00    -0.356 OA
HETATM   20  C   UNL     1      -5.632  -4.242 -34.913  1.00  0.00     0.210 C 
ENDBRANCH  16  19
ENDBRANCH  10  13
ENDBRANCH   8   9
ENDBRANCH   7   8
BRANCH   1  21
HETATM   21  C   UNL     1      -4.170   5.063 -33.302  1.00  0.00     0.133 C 
BRANCH  21  22
HETATM   22  C   UNL     1      -2.708   4.614 -33.265  1.00  0.00     0.058 C 
BRANCH  22  23
HETATM   23  C   UNL     1      -1.895   5.434 -32.293  1.00  0.00    -0.057 A 
HETATM   24  C   UNL     1      -2.135   6.804 -32.133  1.00  0.00     0.010 A 
HETATM   25  C   UNL     1      -1.368   7.565 -31.241  1.00  0.00     0.037 A 
HETATM   26  C   UNL     1      -0.352   6.963 -30.499  1.00  0.00     0.068 A 
HETATM   27  C   UNL     1      -0.107   5.599 -30.663  1.00  0.00     0.037 A 
HETATM   28  C   UNL     1      -0.871   4.837 -31.553  1.00  0.00     0.010 A 
BRANCH  26  29
HETATM   29  O   UNL     1       0.464   7.585 -29.595  1.00  0.00    -0.356 OA
HETATM   30  C   UNL     1       0.657   6.935 -28.346  1.00  0.00     0.210 C 
ENDBRANCH  26  29
ENDBRANCH  22  23
ENDBRANCH  21  22
ENDBRANCH   1  21
BRANCH   4  31
HETATM   31  C   UNL     1      -8.279   2.367 -32.802  1.00  0.00     0.047 A 
HETATM   32  C   UNL     1      -8.448   1.073 -32.288  1.00  0.00     0.033 A 
HETATM   33  C   UNL     1      -9.617   0.335 -32.532  1.00  0.00     0.039 A 
HETATM   34  C   UNL     1     -10.661   0.872 -33.278  1.00  0.00     0.068 A 
HETATM   35  C   UNL     1     -10.508   2.141 -33.819  1.00  0.00     0.039 A 
HETATM   36  C   UNL     1      -9.335   2.875 -33.581  1.00  0.00     0.033 A 
BRANCH  34  37
HETATM   37  O   UNL     1     -11.758   0.069 -33.413  1.00  0.00    -0.356 OA
HETATM   38  C   UNL     1     -12.896   0.654 -34.035  1.00  0.00     0.210 C 
ENDBRANCH  34  37
ENDBRANCH   4  31
TORSDOF 10
ENDMDL
MODEL 8
REMARK VINA RESULT:      -8.1      4.664      8.461
REMARK  10 active torsions:
REMARK  status: ('A' for Active; 'I' for Inactive)
REMARK    1  A    between atoms: O_2  and  C_3 
REMARK    2  A    between atoms: C_6  and  C_7 
REMARK    3  A    between atoms: C_7  and  C_8 
REMARK    4  A    between atoms: C_8  and  N_9 
REMARK    5  A    between atoms: N_12  and  C_13 
REMARK    6  A    between atoms: C_16  and  O_17 
REMARK    7  A    between atoms: C_23  and  C_24 
REMARK    8  A    between atoms: C_24  and  C_25 
REMARK       I    between atoms: C_25  and  N_26 
REMARK    9  A    between atoms: N_26  and  C_27 
REMARK   10  A    between atoms: C_30  and  O_31 
ROOT
HETATM    1  N   UNL     1      -5.930   3.295 -31.700  1.00  0.00    -0.319 N 
HETATM    2  C   UNL     1      -6.358   2.049 -32.177  1.00  0.00     0.332 C 
HETATM    3  O   UNL     1      -7.535   1.721 -32.194  1.00  0.00    -0.246 OA
HETATM    4  N   UNL     1      -5.247   1.306 -32.521  1.00  0.00    -0.232 N 
HETATM    5  C   UNL     1      -4.136   1.951 -32.040  1.00  0.00     0.256 C 
HETATM    6  O   UNL     1      -2.980   1.546 -31.947  1.00  0.00    -0.270 OA
HETATM    7  C   UNL     1      -4.484   3.387 -31.666  1.00  0.00     0.190 C 
ENDROOT
BRANCH   7   8
HETATM    8  C   UNL     1      -3.926   4.288 -32.766  1.00  0.00     0.138 C 
BRANCH   8   9
HETATM    9  C   UNL     1      -3.027   5.413 -32.277  1.00  0.00     0.224 C 
HETATM   10  N   UNL     1      -2.854   5.472 -30.910  1.00  0.00    -0.327 N 
HETATM   11  H   UNL     1      -3.481   4.932 -30.313  1.00  0.00     0.169 HD
HETATM   12  O   UNL     1      -2.474   6.143 -33.096  1.00  0.00    -0.273 OA
BRANCH  10  13
HETATM   13  C   UNL     1      -1.887   6.210 -30.198  1.00  0.00     0.034 A 
HETATM   14  C   UNL     1      -0.562   5.769 -30.286  1.00  0.00     0.032 A 
HETATM   15  C   UNL     1       0.464   6.482 -29.664  1.00  0.00     0.039 A 
HETATM   16  C   UNL     1       0.187   7.668 -28.987  1.00  0.00     0.068 A 
HETATM   17  C   UNL     1      -1.134   8.102 -28.879  1.00  0.00     0.039 A 
HETATM   18  C   UNL     1      -2.169   7.370 -29.477  1.00  0.00     0.032 A 
BRANCH  16  19
HETATM   19  O   UNL     1       1.271   8.302 -28.448  1.00  0.00    -0.356 OA
HETATM   20  C   UNL     1       1.481   8.063 -27.059  1.00  0.00     0.210 C 
ENDBRANCH  16  19
ENDBRANCH  10  13
ENDBRANCH   8   9
ENDBRANCH   7   8
BRANCH   1  21
HETATM   21  C   UNL     1      -6.803   4.110 -30.856  1.00  0.00     0.133 C 
BRANCH  21  22
HETATM   22  C   UNL     1      -6.555   5.618 -30.931  1.00  0.00     0.058 C 
BRANCH  22  23
HETATM   23  C   UNL     1      -6.103   6.177 -29.604  1.00  0.00    -0.057 A 
HETATM   24  C   UNL     1      -5.756   5.327 -28.546  1.00  0.00     0.010 A 
HETATM   25  C   UNL     1      -5.353   5.850 -27.311  1.00  0.00     0.037 A 
HETATM   26  C   UNL     1      -5.290   7.230 -27.120  1.00  0.00     0.068 A 
HETATM   27  C   UNL     1      -5.643   8.079 -28.171  1.00  0.00     0.037 A 
HETATM   28  C   UNL     1      -6.047   7.559 -29.404  1.00  0.00     0.010 A 
BRANCH  26  29
HETATM   29  O   UNL     1      -4.911   7.869 -25.972  1.00  0.00    -0.356 OA
HETATM   30  C   UNL     1      -3.528   7.837 -25.644  1.00  0.00     0.210 C 
ENDBRANCH  26  29
ENDBRANCH  22  23
ENDBRANCH  21  22
ENDBRANCH   1  21
BRANCH   4  31
HETATM   31  C   UNL     1      -5.248   0.051 -33.203  1.00  0.00     0.047 A 
HETATM   32  C   UNL     1      -4.361  -0.981 -32.864  1.00  0.00     0.033 A 
HETATM   33  C   UNL     1      -4.429  -2.239 -33.483  1.00  0.00     0.039 A 
HETATM   34  C   UNL     1      -5.395  -2.512 -34.445  1.00  0.00     0.068 A 
HETATM   35  C   UNL     1      -6.269  -1.500 -34.816  1.00  0.00     0.039 A 
HETATM   36  C   UNL     1      -6.195  -0.240 -34.202  1.00  0.00     0.033 A 
BRANCH  34  37
HETATM   37  O   UNL     1      -5.381  -3.783 -34.946  1.00  0.00    -0.356 OA
HETATM   38  C   UNL     1      -6.648  -4.379 -35.195  1.00  0.00     0.210 C 
ENDBRANCH  34  37
ENDBRANCH   4  31
TORSDOF 10
ENDMDL
MODEL 9
REMARK VINA RESULT:      -8.1      2.811      8.460
REMARK  10 active torsions:
REMARK  status: ('A' for Active; 'I' for Inactive)
REMARK    1  A    between atoms: O_2  and  C_3 
REMARK    2  A    between atoms: C_6  and  C_7 
REMARK    3  A    between atoms: C_7  and  C_8 
REMARK    4  A    between atoms: C_8  and  N_9 
REMARK    5  A    between atoms: N_12  and  C_13 
REMARK    6  A    between atoms: C_16  and  O_17 
REMARK    7  A    between atoms: C_23  and  C_24 
REMARK    8  A    between atoms: C_24  and  C_25 
REMARK       I    between atoms: C_25  and  N_26 
REMARK    9  A    between atoms: N_26  and  C_27 
REMARK   10  A    between atoms: C_30  and  O_31 
ROOT
HETATM    1  N   UNL     1      -7.438   1.700 -32.566  1.00  0.00    -0.319 N 
HETATM    2  C   UNL     1      -6.741   0.487 -32.483  1.00  0.00     0.332 C 
HETATM    3  O   UNL     1      -6.204   0.107 -31.453  1.00  0.00    -0.246 OA
HETATM    4  N   UNL     1      -6.727  -0.097 -33.733  1.00  0.00    -0.232 N 
HETATM    5  C   UNL     1      -7.173   0.828 -34.642  1.00  0.00     0.256 C 
HETATM    6  O   UNL     1      -7.129   0.798 -35.870  1.00  0.00    -0.270 OA
HETATM    7  C   UNL     1      -7.865   1.979 -33.922  1.00  0.00     0.190 C 
ENDROOT
BRANCH   7   8
HETATM    8  C   UNL     1      -9.369   1.792 -34.115  1.00  0.00     0.138 C 
BRANCH   8   9
HETATM    9  C   UNL     1     -10.198   3.056 -33.948  1.00  0.00     0.224 C 
HETATM   10  N   UNL     1     -10.218   3.892 -35.044  1.00  0.00    -0.327 N 
HETATM   11  H   UNL     1      -9.534   3.743 -35.787  1.00  0.00     0.169 HD
HETATM   12  O   UNL     1     -10.831   3.229 -32.909  1.00  0.00    -0.273 OA
BRANCH  10  13
HETATM   13  C   UNL     1     -11.093   4.970 -35.286  1.00  0.00     0.034 A 
HETATM   14  C   UNL     1     -10.525   6.247 -35.348  1.00  0.00     0.032 A 
HETATM   15  C   UNL     1     -11.314   7.359 -35.648  1.00  0.00     0.039 A 
HETATM   16  C   UNL     1     -12.668   7.205 -35.934  1.00  0.00     0.068 A 
HETATM   17  C   UNL     1     -13.245   5.937 -35.855  1.00  0.00     0.039 A 
HETATM   18  C   UNL     1     -12.460   4.824 -35.524  1.00  0.00     0.032 A 
BRANCH  16  19
HETATM   19  O   UNL     1     -13.336   8.355 -36.250  1.00  0.00    -0.356 OA
HETATM   20  C   UNL     1     -12.775   9.103 -37.325  1.00  0.00     0.210 C 
ENDBRANCH  16  19
ENDBRANCH  10  13
ENDBRANCH   8   9
ENDBRANCH   7   8
BRANCH   1  21
HETATM   21  C   UNL     1      -7.243   2.741 -31.558  1.00  0.00     0.133 C 
BRANCH  21  22
HETATM   22  C   UNL     1      -7.015   4.148 -32.114  1.00  0.00     0.058 C 
BRANCH  22  23
HETATM   23  C   UNL     1      -5.564   4.389 -32.451  1.00  0.00    -0.057 A 
HETATM   24  C   UNL     1      -4.556   3.588 -31.899  1.00  0.00     0.010 A 
HETATM   25  C   UNL     1      -3.209   3.825 -32.202  1.00  0.00     0.037 A 
HETATM   26  C   UNL     1      -2.855   4.865 -33.061  1.00  0.00     0.068 A 
HETATM   27  C   UNL     1      -3.858   5.668 -33.606  1.00  0.00     0.037 A 
HETATM   28  C   UNL     1      -5.203   5.435 -33.305  1.00  0.00     0.010 A 
BRANCH  26  29
HETATM   29  O   UNL     1      -1.585   5.200 -33.441  1.00  0.00    -0.356 OA
HETATM   30  C   UNL     1      -1.339   5.317 -34.836  1.00  0.00     0.210 C 
ENDBRANCH  26  29
ENDBRANCH  22  23
ENDBRANCH  21  22
ENDBRANCH   1  21
BRANCH   4  31
HETATM   31  C   UNL     1      -6.269  -1.414 -34.046  1.00  0.00     0.047 A 
HETATM   32  C   UNL     1      -4.923  -1.785 -33.916  1.00  0.00     0.033 A 
HETATM   33  C   UNL     1      -4.501  -3.104 -34.145  1.00  0.00     0.039 A 
HETATM   34  C   UNL     1      -5.411  -4.097 -34.490  1.00  0.00     0.068 A 
HETATM   35  C   UNL     1      -6.745  -3.750 -34.650  1.00  0.00     0.039 A 
HETATM   36  C   UNL     1      -7.164  -2.429 -34.428  1.00  0.00     0.033 A 
BRANCH  34  37
HETATM   37  O   UNL     1      -4.882  -5.346 -34.650  1.00  0.00    -0.356 OA
HETATM   38  C   UNL     1      -3.760  -5.667 -33.836  1.00  0.00     0.210 C 
ENDBRANCH  34  37
ENDBRANCH   4  31
TORSDOF 10
ENDMDL
MODEL 10
REMARK VINA RESULT:      -8.1      1.734      7.265
REMARK  10 active torsions:
REMARK  status: ('A' for Active; 'I' for Inactive)
REMARK    1  A    between atoms: O_2  and  C_3 
REMARK    2  A    between atoms: C_6  and  C_7 
REMARK    3  A    between atoms: C_7  and  C_8 
REMARK    4  A    between atoms: C_8  and  N_9 
REMARK    5  A    between atoms: N_12  and  C_13 
REMARK    6  A    between atoms: C_16  and  O_17 
REMARK    7  A    between atoms: C_23  and  C_24 
REMARK    8  A    between atoms: C_24  and  C_25 
REMARK       I    between atoms: C_25  and  N_26 
REMARK    9  A    between atoms: N_26  and  C_27 
REMARK   10  A    between atoms: C_30  and  O_31 
ROOT
HETATM    1  N   UNL     1      -8.410   2.793 -33.065  1.00  0.00    -0.319 N 
HETATM    2  C   UNL     1      -7.674   1.912 -33.869  1.00  0.00     0.332 C 
HETATM    3  O   UNL     1      -7.363   2.178 -35.021  1.00  0.00    -0.246 OA
HETATM    4  N   UNL     1      -7.463   0.746 -33.162  1.00  0.00    -0.232 N 
HETATM    5  C   UNL     1      -8.255   0.775 -32.043  1.00  0.00     0.256 C 
HETATM    6  O   UNL     1      -8.527  -0.130 -31.257  1.00  0.00    -0.270 OA
HETATM    7  C   UNL     1      -8.758   2.192 -31.793  1.00  0.00     0.190 C 
ENDROOT
BRANCH   7   8
HETATM    8  C   UNL     1      -7.945   2.760 -30.632  1.00  0.00     0.138 C 
BRANCH   8   9
HETATM    9  C   UNL     1      -6.808   3.686 -31.039  1.00  0.00     0.224 C 
HETATM   10  N   UNL     1      -5.638   3.051 -31.400  1.00  0.00    -0.327 N 
HETATM   11  H   UNL     1      -5.526   2.063 -31.172  1.00  0.00     0.169 HD
HETATM   12  O   UNL     1      -7.004   4.898 -31.084  1.00  0.00    -0.273 OA
BRANCH  10  13
HETATM   13  C   UNL     1      -4.531   3.609 -32.069  1.00  0.00     0.034 A 
HETATM   14  C   UNL     1      -4.768   4.171 -33.329  1.00  0.00     0.032 A 
HETATM   15  C   UNL     1      -3.738   4.803 -34.028  1.00  0.00     0.039 A 
HETATM   16  C   UNL     1      -2.471   4.921 -33.461  1.00  0.00     0.068 A 
HETATM   17  C   UNL     1      -2.223   4.346 -32.214  1.00  0.00     0.039 A 
HETATM   18  C   UNL     1      -3.249   3.685 -31.524  1.00  0.00     0.032 A 
BRANCH  16  19
HETATM   19  O   UNL     1      -1.550   5.589 -34.218  1.00  0.00    -0.356 OA
HETATM   20  C   UNL     1      -1.105   6.827 -33.673  1.00  0.00     0.210 C 
ENDBRANCH  16  19
ENDBRANCH  10  13
ENDBRANCH   8   9
ENDBRANCH   7   8
BRANCH   1  21
HETATM   21  C   UNL     1      -9.164   3.894 -33.663  1.00  0.00     0.133 C 
BRANCH  21  22
HETATM   22  C   UNL     1     -10.141   3.486 -34.767  1.00  0.00     0.058 C 
BRANCH  22  23
HETATM   23  C   UNL     1     -11.443   2.972 -34.202  1.00  0.00    -0.057 A 
HETATM   24  C   UNL     1     -12.025   3.571 -33.078  1.00  0.00     0.010 A 
HETATM   25  C   UNL     1     -13.225   3.080 -32.547  1.00  0.00     0.037 A 
HETATM   26  C   UNL     1     -13.857   1.986 -33.135  1.00  0.00     0.068 A 
HETATM   27  C   UNL     1     -13.274   1.383 -34.252  1.00  0.00     0.037 A 
HETATM   28  C   UNL     1     -12.077   1.870 -34.783  1.00  0.00     0.010 A 
BRANCH  26  29
HETATM   29  O   UNL     1     -15.028   1.412 -32.722  1.00  0.00    -0.356 OA
HETATM   30  C   UNL     1     -16.062   2.291 -32.300  1.00  0.00     0.210 C 
ENDBRANCH  26  29
ENDBRANCH  22  23
ENDBRANCH  21  22
ENDBRANCH   1  21
BRANCH   4  31
HETATM   31  C   UNL     1      -6.617  -0.337 -33.552  1.00  0.00     0.047 A 
HETATM   32  C   UNL     1      -5.279  -0.423 -33.140  1.00  0.00     0.033 A 
HETATM   33  C   UNL     1      -4.484  -1.535 -33.460  1.00  0.00     0.039 A 
HETATM   34  C   UNL     1      -5.004  -2.604 -34.182  1.00  0.00     0.068 A 
HETATM   35  C   UNL     1      -6.318  -2.532 -34.623  1.00  0.00     0.039 A 
HETATM   36  C   UNL     1      -7.110  -1.415 -34.310  1.00  0.00     0.033 A 
BRANCH  34  37
HETATM   37  O   UNL     1      -4.142  -3.641 -34.397  1.00  0.00    -0.356 OA
HETATM   38  C   UNL     1      -4.680  -4.950 -34.257  1.00  0.00     0.210 C 
ENDBRANCH  34  37
ENDBRANCH   4  31
TORSDOF 10
ENDMDL
