MODEL 1
REMARK VINA RESULT:      -9.7      0.000      0.000
REMARK  9 active torsions:
REMARK  status: ('A' for Active; 'I' for Inactive)
REMARK       I    between atoms: N_2  and  C_3 
REMARK    1  A    between atoms: N_2  and  C_28 
REMARK    2  A    between atoms: C_3  and  C_4 
REMARK    3  A    between atoms: C_6  and  N_7 
REMARK       I    between atoms: N_7  and  C_8 
REMARK    4  A    between atoms: C_8  and  C_9 
REMARK    5  A    between atoms: C_9  and  O_10 
REMARK    6  A    between atoms: N_17  and  C_18 
REMARK    7  A    between atoms: C_18  and  C_19 
REMARK    8  A    between atoms: C_19  and  C_20 
REMARK    9  A    between atoms: C_28  and  C_29 
ROOT
HETATM    1  C   UNL     1      -5.718   4.367 -32.751  1.00  0.00     0.036 C 
HETATM    2  C   UNL     1      -5.711   4.871 -31.448  1.00  0.00     0.049 C 
HETATM    3  C   UNL     1      -4.518   5.204 -30.784  1.00  0.00     0.065 C 
HETATM    4  C   UNL     1      -3.332   5.127 -31.545  1.00  0.00     0.091 C 
HETATM    5  C   UNL     1      -3.325   4.554 -32.824  1.00  0.00     0.088 C 
HETATM    6  N   UNL     1      -2.057   4.459 -33.330  1.00  0.00    -0.242 NA
HETATM    7  C   UNL     1      -1.293   5.030 -32.437  1.00  0.00     0.210 C 
HETATM    8  N   UNL     1      -2.017   5.530 -31.380  1.00  0.00    -0.337 N 
HETATM    9  C   UNL     1      -4.522   4.173 -33.442  1.00  0.00     0.051 C 
ENDROOT
BRANCH   1  10
HETATM   10  C   UNL     1      -6.992   4.160 -33.480  1.00  0.00     0.253 C 
HETATM   11  N   UNL     1      -7.740   2.998 -33.275  1.00  0.00    -0.350 N 
HETATM   12  C   UNL     1      -9.078   2.965 -33.855  1.00  0.00     0.153 C 
HETATM   13  O   UNL     1      -7.359   5.079 -34.213  1.00  0.00    -0.267 OA
BRANCH  11  14
HETATM   14  C   UNL     1      -7.153   1.698 -32.888  1.00  0.00     0.158 C 
BRANCH  14  15
HETATM   15  C   UNL     1      -6.465   0.932 -34.035  1.00  0.00     0.151 A 
HETATM   16  O   UNL     1      -5.227   0.338 -33.547  1.00  0.00    -0.343 OA
HETATM   17  C   UNL     1      -5.276  -0.974 -33.911  1.00  0.00     0.075 A 
HETATM   18  C   UNL     1      -6.463  -1.350 -34.510  1.00  0.00    -0.022 A 
HETATM   19  C   UNL     1      -4.250  -1.870 -33.695  1.00  0.00     0.037 A 
HETATM   20  C   UNL     1      -7.374  -0.187 -34.587  1.00  0.00     0.075 A 
HETATM   21  C   UNL     1      -6.668  -2.659 -34.913  1.00  0.00     0.010 A 
HETATM   22  C   UNL     1      -5.641  -3.586 -34.704  1.00  0.00     0.001 A 
HETATM   23  C   UNL     1      -4.437  -3.194 -34.099  1.00  0.00     0.003 A 
ENDBRANCH  14  15
ENDBRANCH  11  14
ENDBRANCH   1  10
BRANCH   3  24
HETATM   24  N   UNL     1      -4.497   5.561 -29.424  1.00  0.00    -0.323 N 
HETATM   25  C   UNL     1      -4.868   6.782 -28.882  1.00  0.00     0.246 C 
HETATM   26  O   UNL     1      -5.221   7.784 -29.501  1.00  0.00    -0.271 OA
HETATM   27  H   UNL     1      -4.413   4.826 -28.735  1.00  0.00     0.169 HD
BRANCH  25  28
HETATM   28  C   UNL     1      -4.864   6.777 -27.349  1.00  0.00     0.270 C 
BRANCH  28  29
HETATM   29  O   UNL     1      -3.547   6.674 -26.809  1.00  0.00    -0.387 OA
HETATM   30  C   UNL     1      -3.319   7.663 -25.810  1.00  0.00     0.202 C 
ENDBRANCH  28  29
ENDBRANCH  25  28
ENDBRANCH   3  24
BRANCH   8  31
HETATM   31  C   UNL     1      -1.506   6.625 -30.577  1.00  0.00     0.134 C 
BRANCH  31  32
HETATM   32  C   UNL     1      -0.023   6.637 -30.201  1.00  0.00     0.058 C 
BRANCH  32  33
HETATM   33  C   UNL     1       0.343   7.042 -28.800  1.00  0.00    -0.057 A 
HETATM   34  C   UNL     1      -0.091   6.307 -27.690  1.00  0.00     0.007 A 
HETATM   35  C   UNL     1       0.280   6.692 -26.400  1.00  0.00     0.001 A 
HETATM   36  C   UNL     1       1.104   7.800 -26.209  1.00  0.00     0.000 A 
HETATM   37  C   UNL     1       1.557   8.527 -27.306  1.00  0.00     0.001 A 
HETATM   38  C   UNL     1       1.177   8.151 -28.595  1.00  0.00     0.007 A 
ENDBRANCH  32  33
ENDBRANCH  31  32
ENDBRANCH   8  31
TORSDOF 9
ENDMDL
MODEL 2
REMARK VINA RESULT:      -9.5      2.746      6.772
REMARK  9 active torsions:
REMARK  status: ('A' for Active; 'I' for Inactive)
REMARK       I    between atoms: N_2  and  C_3 
REMARK    1  A    between atoms: N_2  and  C_28 
REMARK    2  A    between atoms: C_3  and  C_4 
REMARK    3  A    between atoms: C_6  and  N_7 
REMARK       I    between atoms: N_7  and  C_8 
REMARK    4  A    between atoms: C_8  and  C_9 
REMARK    5  A    between atoms: C_9  and  O_10 
REMARK    6  A    between atoms: N_17  and  C_18 
REMARK    7  A    between atoms: C_18  and  C_19 
REMARK    8  A    between atoms: C_19  and  C_20 
REMARK    9  A    between atoms: C_28  and  C_29 
ROOT
HETATM    1  C   UNL     1      -7.118   4.371 -30.366  1.00  0.00     0.036 C 
HETATM    2  C   UNL     1      -5.813   4.683 -30.754  1.00  0.00     0.049 C 
HETATM    3  C   UNL     1      -4.805   3.706 -30.835  1.00  0.00     0.065 C 
HETATM    4  C   UNL     1      -5.208   2.369 -30.630  1.00  0.00     0.091 C 
HETATM    5  C   UNL     1      -6.495   2.060 -30.169  1.00  0.00     0.088 C 
HETATM    6  N   UNL     1      -6.634   0.723 -29.911  1.00  0.00    -0.242 NA
HETATM    7  C   UNL     1      -5.499   0.189 -30.276  1.00  0.00     0.210 C 
HETATM    8  N   UNL     1      -4.633   1.121 -30.800  1.00  0.00    -0.337 N 
HETATM    9  C   UNL     1      -7.466   3.060 -30.037  1.00  0.00     0.051 C 
ENDROOT
BRANCH   1  10
HETATM   10  C   UNL     1      -8.194   5.388 -30.427  1.00  0.00     0.253 C 
HETATM   11  N   UNL     1      -8.717   5.787 -31.660  1.00  0.00    -0.350 N 
HETATM   12  C   UNL     1      -9.913   6.621 -31.629  1.00  0.00     0.153 C 
HETATM   13  O   UNL     1      -8.619   5.802 -29.348  1.00  0.00    -0.267 OA
BRANCH  11  14
HETATM   14  C   UNL     1      -7.949   5.776 -32.922  1.00  0.00     0.158 C 
BRANCH  14  15
HETATM   15  C   UNL     1      -8.258   4.590 -33.858  1.00  0.00     0.151 A 
HETATM   16  O   UNL     1      -7.059   3.779 -34.025  1.00  0.00    -0.343 OA
HETATM   17  C   UNL     1      -7.438   2.497 -33.760  1.00  0.00     0.075 A 
HETATM   18  C   UNL     1      -8.748   2.372 -33.338  1.00  0.00    -0.022 A 
HETATM   19  C   UNL     1      -6.601   1.408 -33.880  1.00  0.00     0.037 A 
HETATM   20  C   UNL     1      -9.387   3.705 -33.288  1.00  0.00     0.075 A 
HETATM   21  C   UNL     1      -9.269   1.131 -33.010  1.00  0.00     0.010 A 
HETATM   22  C   UNL     1      -8.438   0.012 -33.124  1.00  0.00     0.001 A 
HETATM   23  C   UNL     1      -7.110   0.148 -33.558  1.00  0.00     0.003 A 
ENDBRANCH  14  15
ENDBRANCH  11  14
ENDBRANCH   1  10
BRANCH   3  24
HETATM   24  N   UNL     1      -3.460   4.041 -31.072  1.00  0.00    -0.323 N 
HETATM   25  C   UNL     1      -2.890   4.366 -32.294  1.00  0.00     0.246 C 
HETATM   26  O   UNL     1      -3.448   4.359 -33.389  1.00  0.00    -0.271 OA
HETATM   27  H   UNL     1      -2.878   4.282 -30.281  1.00  0.00     0.169 HD
BRANCH  25  28
HETATM   28  C   UNL     1      -1.433   4.825 -32.166  1.00  0.00     0.270 C 
BRANCH  28  29
HETATM   29  O   UNL     1      -0.846   4.426 -30.928  1.00  0.00    -0.387 OA
HETATM   30  C   UNL     1      -0.020   5.455 -30.392  1.00  0.00     0.202 C 
ENDBRANCH  28  29
ENDBRANCH  25  28
ENDBRANCH   3  24
BRANCH   8  31
HETATM   31  C   UNL     1      -3.589   0.731 -31.729  1.00  0.00     0.134 C 
BRANCH  31  32
HETATM   32  C   UNL     1      -2.890  -0.616 -31.532  1.00  0.00     0.058 C 
BRANCH  32  33
HETATM   33  C   UNL     1      -3.346  -1.774 -32.377  1.00  0.00    -0.057 A 
HETATM   34  C   UNL     1      -4.046  -1.575 -33.573  1.00  0.00     0.007 A 
HETATM   35  C   UNL     1      -4.441  -2.666 -34.350  1.00  0.00     0.001 A 
HETATM   36  C   UNL     1      -4.120  -3.962 -33.951  1.00  0.00     0.000 A 
HETATM   37  C   UNL     1      -3.408  -4.172 -32.774  1.00  0.00     0.001 A 
HETATM   38  C   UNL     1      -3.024  -3.084 -31.990  1.00  0.00     0.007 A 
ENDBRANCH  32  33
ENDBRANCH  31  32
ENDBRANCH   8  31
TORSDOF 9
ENDMDL
MODEL 3
REMARK VINA RESULT:      -9.5      1.334      1.798
REMARK  9 active torsions:
REMARK  status: ('A' for Active; 'I' for Inactive)
REMARK       I    between atoms: N_2  and  C_3 
REMARK    1  A    between atoms: N_2  and  C_28 
REMARK    2  A    between atoms: C_3  and  C_4 
REMARK    3  A    between atoms: C_6  and  N_7 
REMARK       I    between atoms: N_7  and  C_8 
REMARK    4  A    between atoms: C_8  and  C_9 
REMARK    5  A    between atoms: C_9  and  O_10 
REMARK    6  A    between atoms: N_17  and  C_18 
REMARK    7  A    between atoms: C_18  and  C_19 
REMARK    8  A    between atoms: C_19  and  C_20 
REMARK    9  A    between atoms: C_28  and  C_29 
ROOT
HETATM    1  C   UNL     1      -6.418   4.299 -32.979  1.00  0.00     0.036 C 
HETATM    2  C   UNL     1      -5.905   4.765 -31.766  1.00  0.00     0.049 C 
HETATM    3  C   UNL     1      -4.635   5.361 -31.673  1.00  0.00     0.065 C 
HETATM    4  C   UNL     1      -3.955   5.585 -32.890  1.00  0.00     0.091 C 
HETATM    5  C   UNL     1      -4.432   5.054 -34.097  1.00  0.00     0.088 C 
HETATM    6  N   UNL     1      -3.558   5.275 -35.127  1.00  0.00    -0.242 NA
HETATM    7  C   UNL     1      -2.599   5.994 -34.608  1.00  0.00     0.210 C 
HETATM    8  N   UNL     1      -2.829   6.287 -33.283  1.00  0.00    -0.337 N 
HETATM    9  C   UNL     1      -5.673   4.410 -34.153  1.00  0.00     0.051 C 
ENDROOT
BRANCH   1  10
HETATM   10  C   UNL     1      -7.813   3.807 -33.077  1.00  0.00     0.253 C 
HETATM   11  N   UNL     1      -8.172   2.586 -32.501  1.00  0.00    -0.350 N 
HETATM   12  C   UNL     1      -9.596   2.275 -32.448  1.00  0.00     0.153 C 
HETATM   13  O   UNL     1      -8.619   4.553 -33.634  1.00  0.00    -0.267 OA
BRANCH  11  14
HETATM   14  C   UNL     1      -7.239   1.453 -32.327  1.00  0.00     0.158 C 
BRANCH  14  15
HETATM   15  C   UNL     1      -6.755   0.805 -33.640  1.00  0.00     0.151 A 
HETATM   16  O   UNL     1      -5.397   0.307 -33.462  1.00  0.00    -0.343 OA
HETATM   17  C   UNL     1      -5.418  -0.986 -33.891  1.00  0.00     0.075 A 
HETATM   18  C   UNL     1      -6.672  -1.442 -34.249  1.00  0.00    -0.022 A 
HETATM   19  C   UNL     1      -4.301  -1.793 -33.953  1.00  0.00     0.037 A 
HETATM   20  C   UNL     1      -7.669  -0.366 -34.058  1.00  0.00     0.075 A 
HETATM   21  C   UNL     1      -6.853  -2.745 -34.683  1.00  0.00     0.010 A 
HETATM   22  C   UNL     1      -5.734  -3.582 -34.754  1.00  0.00     0.001 A 
HETATM   23  C   UNL     1      -4.463  -3.109 -34.392  1.00  0.00     0.003 A 
ENDBRANCH  14  15
ENDBRANCH  11  14
ENDBRANCH   1  10
BRANCH   3  24
HETATM   24  N   UNL     1      -4.054   5.685 -30.435  1.00  0.00    -0.323 N 
HETATM   25  C   UNL     1      -4.238   6.857 -29.715  1.00  0.00     0.246 C 
HETATM   26  O   UNL     1      -4.894   7.837 -30.062  1.00  0.00    -0.271 OA
HETATM   27  H   UNL     1      -3.629   4.945 -29.894  1.00  0.00     0.169 HD
BRANCH  25  28
HETATM   28  C   UNL     1      -3.572   6.815 -28.335  1.00  0.00     0.270 C 
BRANCH  28  29
HETATM   29  O   UNL     1      -4.524   6.841 -27.271  1.00  0.00    -0.387 OA
HETATM   30  C   UNL     1      -5.437   5.753 -27.369  1.00  0.00     0.202 C 
ENDBRANCH  28  29
ENDBRANCH  25  28
ENDBRANCH   3  24
BRANCH   8  31
HETATM   31  C   UNL     1      -2.236   7.457 -32.663  1.00  0.00     0.134 C 
BRANCH  31  32
HETATM   32  C   UNL     1      -0.733   7.456 -32.370  1.00  0.00     0.058 C 
BRANCH  32  33
HETATM   33  C   UNL     1      -0.267   6.797 -31.102  1.00  0.00    -0.057 A 
HETATM   34  C   UNL     1       0.206   5.480 -31.092  1.00  0.00     0.007 A 
HETATM   35  C   UNL     1       0.653   4.898 -29.904  1.00  0.00     0.001 A 
HETATM   36  C   UNL     1       0.653   5.634 -28.721  1.00  0.00     0.000 A 
HETATM   37  C   UNL     1       0.204   6.952 -28.721  1.00  0.00     0.001 A 
HETATM   38  C   UNL     1      -0.255   7.530 -29.904  1.00  0.00     0.007 A 
ENDBRANCH  32  33
ENDBRANCH  31  32
ENDBRANCH   8  31
TORSDOF 9
ENDMDL
MODEL 4
REMARK VINA RESULT:      -9.3      2.018      9.924
REMARK  9 active torsions:
REMARK  status: ('A' for Active; 'I' for Inactive)
REMARK       I    between atoms: N_2  and  C_3 
REMARK    1  A    between atoms: N_2  and  C_28 
REMARK    2  A    between atoms: C_3  and  C_4 
REMARK    3  A    between atoms: C_6  and  N_7 
REMARK       I    between atoms: N_7  and  C_8 
REMARK    4  A    between atoms: C_8  and  C_9 
REMARK    5  A    between atoms: C_9  and  O_10 
REMARK    6  A    between atoms: N_17  and  C_18 
REMARK    7  A    between atoms: C_18  and  C_19 
REMARK    8  A    between atoms: C_19  and  C_20 
REMARK    9  A    between atoms: C_28  and  C_29 
ROOT
HETATM    1  C   UNL     1      -3.843   4.485 -32.766  1.00  0.00     0.036 C 
HETATM    2  C   UNL     1      -3.280   3.215 -32.903  1.00  0.00     0.049 C 
HETATM    3  C   UNL     1      -3.965   2.049 -32.518  1.00  0.00     0.065 C 
HETATM    4  C   UNL     1      -5.305   2.215 -32.107  1.00  0.00     0.091 C 
HETATM    5  C   UNL     1      -5.849   3.490 -31.898  1.00  0.00     0.088 C 
HETATM    6  N   UNL     1      -7.112   3.424 -31.376  1.00  0.00    -0.242 NA
HETATM    7  C   UNL     1      -7.393   2.148 -31.334  1.00  0.00     0.210 C 
HETATM    8  N   UNL     1      -6.375   1.376 -31.844  1.00  0.00    -0.337 N 
HETATM    9  C   UNL     1      -5.122   4.640 -32.232  1.00  0.00     0.051 C 
ENDROOT
BRANCH   1  10
HETATM   10  C   UNL     1      -3.161   5.683 -33.310  1.00  0.00     0.253 C 
HETATM   11  N   UNL     1      -1.913   6.070 -32.814  1.00  0.00    -0.350 N 
HETATM   12  C   UNL     1      -1.210   7.119 -33.543  1.00  0.00     0.153 C 
HETATM   13  O   UNL     1      -3.726   6.262 -34.238  1.00  0.00    -0.267 OA
BRANCH  11  14
HETATM   14  C   UNL     1      -1.457   5.802 -31.434  1.00  0.00     0.158 C 
BRANCH  14  15
HETATM   15  C   UNL     1      -1.154   7.060 -30.597  1.00  0.00     0.151 A 
HETATM   16  O   UNL     1      -2.001   7.069 -29.411  1.00  0.00    -0.343 OA
HETATM   17  C   UNL     1      -1.162   7.270 -28.357  1.00  0.00     0.075 A 
HETATM   18  C   UNL     1       0.176   7.301 -28.699  1.00  0.00    -0.022 A 
HETATM   19  C   UNL     1      -1.587   7.414 -27.053  1.00  0.00     0.037 A 
HETATM   20  C   UNL     1       0.325   7.099 -30.156  1.00  0.00     0.075 A 
HETATM   21  C   UNL     1       1.150   7.473 -27.729  1.00  0.00     0.010 A 
HETATM   22  C   UNL     1       0.742   7.622 -26.399  1.00  0.00     0.001 A 
HETATM   23  C   UNL     1      -0.620   7.594 -26.061  1.00  0.00     0.003 A 
ENDBRANCH  14  15
ENDBRANCH  11  14
ENDBRANCH   1  10
BRANCH   3  24
HETATM   24  N   UNL     1      -3.344   0.788 -32.508  1.00  0.00    -0.323 N 
HETATM   25  C   UNL     1      -3.250  -0.081 -31.431  1.00  0.00     0.246 C 
HETATM   26  O   UNL     1      -3.642   0.126 -30.284  1.00  0.00    -0.271 OA
HETATM   27  H   UNL     1      -3.121   0.354 -33.393  1.00  0.00     0.169 HD
BRANCH  25  28
HETATM   28  C   UNL     1      -2.638  -1.434 -31.811  1.00  0.00     0.270 C 
BRANCH  28  29
HETATM   29  O   UNL     1      -3.483  -2.530 -31.463  1.00  0.00    -0.387 OA
HETATM   30  C   UNL     1      -2.854  -3.777 -31.743  1.00  0.00     0.202 C 
ENDBRANCH  28  29
ENDBRANCH  25  28
ENDBRANCH   3  24
BRANCH   8  31
HETATM   31  C   UNL     1      -6.639   0.057 -32.389  1.00  0.00     0.134 C 
BRANCH  31  32
HETATM   32  C   UNL     1      -6.344  -0.203 -33.868  1.00  0.00     0.058 C 
BRANCH  32  33
HETATM   33  C   UNL     1      -6.076  -1.621 -34.290  1.00  0.00    -0.057 A 
HETATM   34  C   UNL     1      -4.776  -2.075 -34.545  1.00  0.00     0.007 A 
HETATM   35  C   UNL     1      -4.552  -3.403 -34.915  1.00  0.00     0.001 A 
HETATM   36  C   UNL     1      -5.620  -4.292 -35.013  1.00  0.00     0.000 A 
HETATM   37  C   UNL     1      -6.914  -3.858 -34.744  1.00  0.00     0.001 A 
HETATM   38  C   UNL     1      -7.142  -2.529 -34.386  1.00  0.00     0.007 A 
ENDBRANCH  32  33
ENDBRANCH  31  32
ENDBRANCH   8  31
TORSDOF 9
ENDMDL
MODEL 5
REMARK VINA RESULT:      -9.3      2.134      9.241
REMARK  9 active torsions:
REMARK  status: ('A' for Active; 'I' for Inactive)
REMARK       I    between atoms: N_2  and  C_3 
REMARK    1  A    between atoms: N_2  and  C_28 
REMARK    2  A    between atoms: C_3  and  C_4 
REMARK    3  A    between atoms: C_6  and  N_7 
REMARK       I    between atoms: N_7  and  C_8 
REMARK    4  A    between atoms: C_8  and  C_9 
REMARK    5  A    between atoms: C_9  and  O_10 
REMARK    6  A    between atoms: N_17  and  C_18 
REMARK    7  A    between atoms: C_18  and  C_19 
REMARK    8  A    between atoms: C_19  and  C_20 
REMARK    9  A    between atoms: C_28  and  C_29 
ROOT
HETATM    1  C   UNL     1      -4.728   5.129 -31.509  1.00  0.00     0.036 C 
HETATM    2  C   UNL     1      -5.914   4.748 -32.141  1.00  0.00     0.049 C 
HETATM    3  C   UNL     1      -6.095   3.459 -32.673  1.00  0.00     0.065 C 
HETATM    4  C   UNL     1      -5.067   2.525 -32.421  1.00  0.00     0.091 C 
HETATM    5  C   UNL     1      -3.847   2.922 -31.855  1.00  0.00     0.088 C 
HETATM    6  N   UNL     1      -2.946   1.893 -31.821  1.00  0.00    -0.242 NA
HETATM    7  C   UNL     1      -3.600   0.856 -32.274  1.00  0.00     0.210 C 
HETATM    8  N   UNL     1      -4.909   1.157 -32.569  1.00  0.00    -0.337 N 
HETATM    9  C   UNL     1      -3.669   4.229 -31.388  1.00  0.00     0.051 C 
ENDROOT
BRANCH   1  10
HETATM   10  C   UNL     1      -4.614   6.442 -30.831  1.00  0.00     0.253 C 
HETATM   11  N   UNL     1      -4.083   7.542 -31.510  1.00  0.00    -0.350 N 
HETATM   12  C   UNL     1      -4.206   8.841 -30.858  1.00  0.00     0.153 C 
HETATM   13  O   UNL     1      -5.058   6.507 -29.685  1.00  0.00    -0.267 OA
BRANCH  11  14
HETATM   14  C   UNL     1      -3.085   7.436 -32.595  1.00  0.00     0.158 C 
BRANCH  14  15
HETATM   15  C   UNL     1      -1.619   7.577 -32.141  1.00  0.00     0.151 A 
HETATM   16  O   UNL     1      -1.572   7.730 -30.693  1.00  0.00    -0.343 OA
HETATM   17  C   UNL     1      -0.673   6.808 -30.251  1.00  0.00     0.075 A 
HETATM   18  C   UNL     1      -0.178   5.982 -31.242  1.00  0.00    -0.022 A 
HETATM   19  C   UNL     1      -0.288   6.679 -28.932  1.00  0.00     0.037 A 
HETATM   20  C   UNL     1      -0.786   6.341 -32.541  1.00  0.00     0.075 A 
HETATM   21  C   UNL     1       0.728   4.979 -30.939  1.00  0.00     0.010 A 
HETATM   22  C   UNL     1       1.133   4.830 -29.609  1.00  0.00     0.001 A 
HETATM   23  C   UNL     1       0.629   5.677 -28.609  1.00  0.00     0.003 A 
ENDBRANCH  14  15
ENDBRANCH  11  14
ENDBRANCH   1  10
BRANCH   3  24
HETATM   24  N   UNL     1      -7.221   3.123 -33.444  1.00  0.00    -0.323 N 
HETATM   25  C   UNL     1      -8.503   2.875 -32.975  1.00  0.00     0.246 C 
HETATM   26  O   UNL     1      -8.862   2.847 -31.799  1.00  0.00    -0.271 OA
HETATM   27  H   UNL     1      -7.182   3.273 -34.443  1.00  0.00     0.169 HD
BRANCH  25  28
HETATM   28  C   UNL     1      -9.522   2.686 -34.104  1.00  0.00     0.270 C 
BRANCH  28  29
HETATM   29  O   UNL     1      -9.854   1.313 -34.312  1.00  0.00    -0.387 OA
HETATM   30  C   UNL     1     -11.081   0.976 -33.672  1.00  0.00     0.202 C 
ENDBRANCH  28  29
ENDBRANCH  25  28
ENDBRANCH   3  24
BRANCH   8  31
HETATM   31  C   UNL     1      -5.932   0.128 -32.562  1.00  0.00     0.134 C 
BRANCH  31  32
HETATM   32  C   UNL     1      -6.376  -0.480 -33.895  1.00  0.00     0.058 C 
BRANCH  32  33
HETATM   33  C   UNL     1      -5.985  -1.904 -34.180  1.00  0.00    -0.057 A 
HETATM   34  C   UNL     1      -4.676  -2.357 -33.979  1.00  0.00     0.007 A 
HETATM   35  C   UNL     1      -4.344  -3.690 -34.233  1.00  0.00     0.001 A 
HETATM   36  C   UNL     1      -5.320  -4.585 -34.667  1.00  0.00     0.000 A 
HETATM   37  C   UNL     1      -6.629  -4.150 -34.851  1.00  0.00     0.001 A 
HETATM   38  C   UNL     1      -6.960  -2.817 -34.611  1.00  0.00     0.007 A 
ENDBRANCH  32  33
ENDBRANCH  31  32
ENDBRANCH   8  31
TORSDOF 9
ENDMDL
MODEL 6
REMARK VINA RESULT:      -9.2      4.794      8.829
REMARK  9 active torsions:
REMARK  status: ('A' for Active; 'I' for Inactive)
REMARK       I    between atoms: N_2  and  C_3 
REMARK    1  A    between atoms: N_2  and  C_28 
REMARK    2  A    between atoms: C_3  and  C_4 
REMARK    3  A    between atoms: C_6  and  N_7 
REMARK       I    between atoms: N_7  and  C_8 
REMARK    4  A    between atoms: C_8  and  C_9 
REMARK    5  A    between atoms: C_9  and  O_10 
REMARK    6  A    between atoms: N_17  and  C_18 
REMARK    7  A    between atoms: C_18  and  C_19 
REMARK    8  A    between atoms: C_19  and  C_20 
REMARK    9  A    between atoms: C_28  and  C_29 
ROOT
HETATM    1  C   UNL     1      -9.040   3.820 -31.332  1.00  0.00     0.036 C 
HETATM    2  C   UNL     1      -7.666   3.725 -31.564  1.00  0.00     0.049 C 
HETATM    3  C   UNL     1      -7.083   2.578 -32.130  1.00  0.00     0.065 C 
HETATM    4  C   UNL     1      -7.971   1.575 -32.573  1.00  0.00     0.091 C 
HETATM    5  C   UNL     1      -9.339   1.632 -32.276  1.00  0.00     0.088 C 
HETATM    6  N   UNL     1      -9.994   0.501 -32.681  1.00  0.00    -0.242 NA
HETATM    7  C   UNL     1      -9.086  -0.215 -33.290  1.00  0.00     0.210 C 
HETATM    8  N   UNL     1      -7.867   0.422 -33.334  1.00  0.00    -0.337 N 
HETATM    9  C   UNL     1      -9.888   2.761 -31.656  1.00  0.00     0.051 C 
ENDROOT
BRANCH   1  10
HETATM   10  C   UNL     1      -9.648   5.090 -30.870  1.00  0.00     0.253 C 
HETATM   11  N   UNL     1     -10.538   5.785 -31.693  1.00  0.00    -0.350 N 
HETATM   12  C   UNL     1     -11.259   6.901 -31.089  1.00  0.00     0.153 C 
HETATM   13  O   UNL     1      -9.367   5.448 -29.726  1.00  0.00    -0.267 OA
BRANCH  11  14
HETATM   14  C   UNL     1     -10.499   5.742 -33.169  1.00  0.00     0.158 C 
BRANCH  14  15
HETATM   15  C   UNL     1     -11.786   5.218 -33.836  1.00  0.00     0.151 A 
HETATM   16  O   UNL     1     -11.453   4.118 -34.733  1.00  0.00    -0.343 OA
HETATM   17  C   UNL     1     -12.293   3.099 -34.396  1.00  0.00     0.075 A 
HETATM   18  C   UNL     1     -13.092   3.364 -33.301  1.00  0.00    -0.022 A 
HETATM   19  C   UNL     1     -12.344   1.893 -35.064  1.00  0.00     0.037 A 
HETATM   20  C   UNL     1     -12.800   4.719 -32.785  1.00  0.00     0.075 A 
HETATM   21  C   UNL     1     -13.979   2.413 -32.826  1.00  0.00     0.010 A 
HETATM   22  C   UNL     1     -14.049   1.182 -33.489  1.00  0.00     0.001 A 
HETATM   23  C   UNL     1     -13.237   0.923 -34.604  1.00  0.00     0.003 A 
ENDBRANCH  14  15
ENDBRANCH  11  14
ENDBRANCH   1  10
BRANCH   3  24
HETATM   24  N   UNL     1      -5.689   2.418 -32.219  1.00  0.00    -0.323 N 
HETATM   25  C   UNL     1      -4.848   1.910 -31.239  1.00  0.00     0.246 C 
HETATM   26  O   UNL     1      -5.168   1.567 -30.103  1.00  0.00    -0.271 OA
HETATM   27  H   UNL     1      -5.256   2.468 -33.131  1.00  0.00     0.169 HD
BRANCH  25  28
HETATM   28  C   UNL     1      -3.405   1.736 -31.727  1.00  0.00     0.270 C 
BRANCH  28  29
HETATM   29  O   UNL     1      -2.701   0.735 -30.993  1.00  0.00    -0.387 OA
HETATM   30  C   UNL     1      -2.791  -0.534 -31.633  1.00  0.00     0.202 C 
ENDBRANCH  28  29
ENDBRANCH  25  28
ENDBRANCH   3  24
BRANCH   8  31
HETATM   31  C   UNL     1      -6.898   0.110 -34.367  1.00  0.00     0.134 C 
BRANCH  31  32
HETATM   32  C   UNL     1      -5.630  -0.657 -33.984  1.00  0.00     0.058 C 
BRANCH  32  33
HETATM   33  C   UNL     1      -5.610  -2.142 -34.221  1.00  0.00    -0.057 A 
HETATM   34  C   UNL     1      -6.736  -2.822 -34.699  1.00  0.00     0.007 A 
HETATM   35  C   UNL     1      -6.685  -4.198 -34.930  1.00  0.00     0.001 A 
HETATM   36  C   UNL     1      -5.503  -4.901 -34.708  1.00  0.00     0.000 A 
HETATM   37  C   UNL     1      -4.371  -4.233 -34.251  1.00  0.00     0.001 A 
HETATM   38  C   UNL     1      -4.424  -2.861 -34.008  1.00  0.00     0.007 A 
ENDBRANCH  32  33
ENDBRANCH  31  32
ENDBRANCH   8  31
TORSDOF 9
ENDMDL
MODEL 7
REMARK VINA RESULT:      -9.2      2.291      9.652
REMARK  9 active torsions:
REMARK  status: ('A' for Active; 'I' for Inactive)
REMARK       I    between atoms: N_2  and  C_3 
REMARK    1  A    between atoms: N_2  and  C_28 
REMARK    2  A    between atoms: C_3  and  C_4 
REMARK    3  A    between atoms: C_6  and  N_7 
REMARK       I    between atoms: N_7  and  C_8 
REMARK    4  A    between atoms: C_8  and  C_9 
REMARK    5  A    between atoms: C_9  and  O_10 
REMARK    6  A    between atoms: N_17  and  C_18 
REMARK    7  A    between atoms: C_18  and  C_19 
REMARK    8  A    between atoms: C_19  and  C_20 
REMARK    9  A    between atoms: C_28  and  C_29 
ROOT
HETATM    1  C   UNL     1      -3.684   3.841 -32.690  1.00  0.00     0.036 C 
HETATM    2  C   UNL     1      -3.613   2.466 -32.923  1.00  0.00     0.049 C 
HETATM    3  C   UNL     1      -4.284   1.536 -32.110  1.00  0.00     0.065 C 
HETATM    4  C   UNL     1      -5.141   2.068 -31.122  1.00  0.00     0.091 C 
HETATM    5  C   UNL     1      -5.158   3.440 -30.838  1.00  0.00     0.088 C 
HETATM    6  N   UNL     1      -5.956   3.725 -29.763  1.00  0.00    -0.242 NA
HETATM    7  C   UNL     1      -6.493   2.581 -29.429  1.00  0.00     0.210 C 
HETATM    8  N   UNL     1      -6.107   1.562 -30.268  1.00  0.00    -0.337 N 
HETATM    9  C   UNL     1      -4.432   4.342 -31.625  1.00  0.00     0.051 C 
ENDROOT
BRANCH   1  10
HETATM   10  C   UNL     1      -3.088   4.807 -33.644  1.00  0.00     0.253 C 
HETATM   11  N   UNL     1      -1.746   5.179 -33.523  1.00  0.00    -0.350 N 
HETATM   12  C   UNL     1      -1.177   5.955 -34.619  1.00  0.00     0.153 C 
HETATM   13  O   UNL     1      -3.818   5.201 -34.552  1.00  0.00    -0.267 OA
BRANCH  11  14
HETATM   14  C   UNL     1      -1.010   5.202 -32.242  1.00  0.00     0.158 C 
BRANCH  14  15
HETATM   15  C   UNL     1      -0.445   6.580 -31.844  1.00  0.00     0.151 A 
HETATM   16  O   UNL     1      -1.505   7.385 -31.250  1.00  0.00    -0.343 OA
HETATM   17  C   UNL     1      -1.003   7.847 -30.071  1.00  0.00     0.075 A 
HETATM   18  C   UNL     1       0.251   7.359 -29.762  1.00  0.00    -0.022 A 
HETATM   19  C   UNL     1      -1.678   8.713 -29.236  1.00  0.00     0.037 A 
HETATM   20  C   UNL     1       0.708   6.442 -30.828  1.00  0.00     0.075 A 
HETATM   21  C   UNL     1       0.880   7.722 -28.582  1.00  0.00     0.010 A 
HETATM   22  C   UNL     1       0.215   8.599 -27.719  1.00  0.00     0.001 A 
HETATM   23  C   UNL     1      -1.057   9.094 -28.044  1.00  0.00     0.003 A 
ENDBRANCH  14  15
ENDBRANCH  11  14
ENDBRANCH   1  10
BRANCH   3  24
HETATM   24  N   UNL     1      -4.088   0.150 -32.245  1.00  0.00    -0.323 N 
HETATM   25  C   UNL     1      -3.055  -0.598 -31.700  1.00  0.00     0.246 C 
HETATM   26  O   UNL     1      -2.099  -0.170 -31.056  1.00  0.00    -0.271 OA
HETATM   27  H   UNL     1      -4.857  -0.414 -32.581  1.00  0.00     0.169 HD
BRANCH  25  28
HETATM   28  C   UNL     1      -3.232  -2.104 -31.922  1.00  0.00     0.270 C 
BRANCH  28  29
HETATM   29  O   UNL     1      -3.909  -2.398 -33.143  1.00  0.00    -0.387 OA
HETATM   30  C   UNL     1      -3.824  -3.783 -33.462  1.00  0.00     0.202 C 
ENDBRANCH  28  29
ENDBRANCH  25  28
ENDBRANCH   3  24
BRANCH   8  31
HETATM   31  C   UNL     1      -6.936   0.385 -30.445  1.00  0.00     0.134 C 
BRANCH  31  32
HETATM   32  C   UNL     1      -8.058   0.420 -31.485  1.00  0.00     0.058 C 
BRANCH  32  33
HETATM   33  C   UNL     1      -7.686   0.209 -32.926  1.00  0.00    -0.057 A 
HETATM   34  C   UNL     1      -7.653   1.271 -33.837  1.00  0.00     0.007 A 
HETATM   35  C   UNL     1      -7.284   1.051 -35.165  1.00  0.00     0.001 A 
HETATM   36  C   UNL     1      -6.924  -0.227 -35.590  1.00  0.00     0.000 A 
HETATM   37  C   UNL     1      -6.934  -1.288 -34.689  1.00  0.00     0.001 A 
HETATM   38  C   UNL     1      -7.315  -1.072 -33.365  1.00  0.00     0.007 A 
ENDBRANCH  32  33
ENDBRANCH  31  32
ENDBRANCH   8  31
TORSDOF 9
ENDMDL
MODEL 8
REMARK VINA RESULT:      -9.1      2.040      9.227
REMARK  9 active torsions:
REMARK  status: ('A' for Active; 'I' for Inactive)
REMARK       I    between atoms: N_2  and  C_3 
REMARK    1  A    between atoms: N_2  and  C_28 
REMARK    2  A    between atoms: C_3  and  C_4 
REMARK    3  A    between atoms: C_6  and  N_7 
REMARK       I    between atoms: N_7  and  C_8 
REMARK    4  A    between atoms: C_8  and  C_9 
REMARK    5  A    between atoms: C_9  and  O_10 
REMARK    6  A    between atoms: N_17  and  C_18 
REMARK    7  A    between atoms: C_18  and  C_19 
REMARK    8  A    between atoms: C_19  and  C_20 
REMARK    9  A    between atoms: C_28  and  C_29 
ROOT
HETATM    1  C   UNL     1      -6.551   4.338 -29.912  1.00  0.00     0.036 C 
HETATM    2  C   UNL     1      -5.963   4.602 -31.152  1.00  0.00     0.049 C 
HETATM    3  C   UNL     1      -5.452   3.577 -31.967  1.00  0.00     0.065 C 
HETATM    4  C   UNL     1      -5.678   2.254 -31.531  1.00  0.00     0.091 C 
HETATM    5  C   UNL     1      -6.199   1.988 -30.257  1.00  0.00     0.088 C 
HETATM    6  N   UNL     1      -6.213   0.647 -29.985  1.00  0.00    -0.242 NA
HETATM    7  C   UNL     1      -5.794   0.075 -31.083  1.00  0.00     0.210 C 
HETATM    8  N   UNL     1      -5.540   0.990 -32.079  1.00  0.00    -0.337 N 
HETATM    9  C   UNL     1      -6.646   3.030 -29.436  1.00  0.00     0.051 C 
ENDROOT
BRANCH   1  10
HETATM   10  C   UNL     1      -7.210   5.416 -29.138  1.00  0.00     0.253 C 
HETATM   11  N   UNL     1      -6.447   6.419 -28.534  1.00  0.00    -0.350 N 
HETATM   12  C   UNL     1      -7.172   7.556 -27.981  1.00  0.00     0.153 C 
HETATM   13  O   UNL     1      -8.441   5.398 -29.112  1.00  0.00    -0.267 OA
BRANCH  11  14
HETATM   14  C   UNL     1      -5.058   6.227 -28.066  1.00  0.00     0.158 C 
BRANCH  14  15
HETATM   15  C   UNL     1      -4.065   7.313 -28.523  1.00  0.00     0.151 A 
HETATM   16  O   UNL     1      -2.922   7.337 -27.618  1.00  0.00    -0.343 OA
HETATM   17  C   UNL     1      -1.818   7.272 -28.413  1.00  0.00     0.075 A 
HETATM   18  C   UNL     1      -2.098   7.110 -29.756  1.00  0.00    -0.022 A 
HETATM   19  C   UNL     1      -0.525   7.341 -27.939  1.00  0.00     0.037 A 
HETATM   20  C   UNL     1      -3.562   7.048 -29.958  1.00  0.00     0.075 A 
HETATM   21  C   UNL     1      -1.075   7.004 -30.684  1.00  0.00     0.010 A 
HETATM   22  C   UNL     1       0.245   7.072 -30.226  1.00  0.00     0.001 A 
HETATM   23  C   UNL     1       0.520   7.242 -28.860  1.00  0.00     0.003 A 
ENDBRANCH  14  15
ENDBRANCH  11  14
ENDBRANCH   1  10
BRANCH   3  24
HETATM   24  N   UNL     1      -4.722   3.851 -33.138  1.00  0.00    -0.323 N 
HETATM   25  C   UNL     1      -5.144   4.613 -34.218  1.00  0.00     0.246 C 
HETATM   26  O   UNL     1      -6.250   5.129 -34.365  1.00  0.00    -0.271 OA
HETATM   27  H   UNL     1      -3.727   3.673 -33.137  1.00  0.00     0.169 HD
BRANCH  25  28
HETATM   28  C   UNL     1      -4.039   4.830 -35.258  1.00  0.00     0.270 C 
BRANCH  28  29
HETATM   29  O   UNL     1      -3.303   6.031 -35.025  1.00  0.00    -0.387 OA
HETATM   30  C   UNL     1      -2.027   5.753 -34.456  1.00  0.00     0.202 C 
ENDBRANCH  28  29
ENDBRANCH  25  28
ENDBRANCH   3  24
BRANCH   8  31
HETATM   31  C   UNL     1      -5.592   0.605 -33.477  1.00  0.00     0.134 C 
BRANCH  31  32
HETATM   32  C   UNL     1      -6.614  -0.445 -33.918  1.00  0.00     0.058 C 
BRANCH  32  33
HETATM   33  C   UNL     1      -6.124  -1.846 -34.154  1.00  0.00    -0.057 A 
HETATM   34  C   UNL     1      -6.974  -2.847 -34.639  1.00  0.00     0.007 A 
HETATM   35  C   UNL     1      -6.488  -4.136 -34.869  1.00  0.00     0.001 A 
HETATM   36  C   UNL     1      -5.145  -4.429 -34.639  1.00  0.00     0.000 A 
HETATM   37  C   UNL     1      -4.286  -3.437 -34.175  1.00  0.00     0.001 A 
HETATM   38  C   UNL     1      -4.772  -2.153 -33.932  1.00  0.00     0.007 A 
ENDBRANCH  32  33
ENDBRANCH  31  32
ENDBRANCH   8  31
TORSDOF 9
ENDMDL
MODEL 9
REMARK VINA RESULT:      -9.0      3.889      7.629
REMARK  9 active torsions:
REMARK  status: ('A' for Active; 'I' for Inactive)
REMARK       I    between atoms: N_2  and  C_3 
REMARK    1  A    between atoms: N_2  and  C_28 
REMARK    2  A    between atoms: C_3  and  C_4 
REMARK    3  A    between atoms: C_6  and  N_7 
REMARK       I    between atoms: N_7  and  C_8 
REMARK    4  A    between atoms: C_8  and  C_9 
REMARK    5  A    between atoms: C_9  and  O_10 
REMARK    6  A    between atoms: N_17  and  C_18 
REMARK    7  A    between atoms: C_18  and  C_19 
REMARK    8  A    between atoms: C_19  and  C_20 
REMARK    9  A    between atoms: C_28  and  C_29 
ROOT
HETATM    1  C   UNL     1      -7.629   3.754 -31.135  1.00  0.00     0.036 C 
HETATM    2  C   UNL     1      -6.650   4.130 -32.058  1.00  0.00     0.049 C 
HETATM    3  C   UNL     1      -5.473   3.384 -32.243  1.00  0.00     0.065 C 
HETATM    4  C   UNL     1      -5.387   2.162 -31.543  1.00  0.00     0.091 C 
HETATM    5  C   UNL     1      -6.329   1.818 -30.563  1.00  0.00     0.088 C 
HETATM    6  N   UNL     1      -5.987   0.662 -29.915  1.00  0.00    -0.242 NA
HETATM    7  C   UNL     1      -4.908   0.241 -30.522  1.00  0.00     0.210 C 
HETATM    8  N   UNL     1      -4.550   1.059 -31.569  1.00  0.00    -0.337 N 
HETATM    9  C   UNL     1      -7.463   2.611 -30.353  1.00  0.00     0.051 C 
ENDROOT
BRANCH   1  10
HETATM   10  C   UNL     1      -8.922   4.474 -31.061  1.00  0.00     0.253 C 
HETATM   11  N   UNL     1      -9.731   4.588 -32.194  1.00  0.00    -0.350 N 
HETATM   12  C   UNL     1     -11.077   5.114 -31.993  1.00  0.00     0.153 C 
HETATM   13  O   UNL     1      -9.248   4.902 -29.953  1.00  0.00    -0.267 OA
BRANCH  11  14
HETATM   14  C   UNL     1      -9.212   4.607 -33.578  1.00  0.00     0.158 C 
BRANCH  14  15
HETATM   15  C   UNL     1      -9.640   3.408 -34.447  1.00  0.00     0.151 A 
HETATM   16  O   UNL     1      -9.723   2.213 -33.617  1.00  0.00    -0.343 OA
HETATM   17  C   UNL     1     -10.949   1.673 -33.867  1.00  0.00     0.075 A 
HETATM   18  C   UNL     1     -11.740   2.432 -34.707  1.00  0.00    -0.022 A 
HETATM   19  C   UNL     1     -11.389   0.483 -33.325  1.00  0.00     0.037 A 
HETATM   20  C   UNL     1     -11.012   3.656 -35.108  1.00  0.00     0.075 A 
HETATM   21  C   UNL     1     -13.022   2.022 -35.033  1.00  0.00     0.010 A 
HETATM   22  C   UNL     1     -13.489   0.818 -34.496  1.00  0.00     0.001 A 
HETATM   23  C   UNL     1     -12.678   0.050 -33.647  1.00  0.00     0.003 A 
ENDBRANCH  14  15
ENDBRANCH  11  14
ENDBRANCH   1  10
BRANCH   3  24
HETATM   24  N   UNL     1      -4.420   3.843 -33.054  1.00  0.00    -0.323 N 
HETATM   25  C   UNL     1      -3.196   4.333 -32.623  1.00  0.00     0.246 C 
HETATM   26  O   UNL     1      -2.843   4.507 -31.459  1.00  0.00    -0.271 OA
HETATM   27  H   UNL     1      -4.437   3.616 -34.039  1.00  0.00     0.169 HD
BRANCH  25  28
HETATM   28  C   UNL     1      -2.226   4.604 -33.779  1.00  0.00     0.270 C 
BRANCH  28  29
HETATM   29  O   UNL     1      -1.078   5.343 -33.363  1.00  0.00    -0.387 OA
HETATM   30  C   UNL     1      -1.203   6.722 -33.696  1.00  0.00     0.202 C 
ENDBRANCH  28  29
ENDBRANCH  25  28
ENDBRANCH   3  24
BRANCH   8  31
HETATM   31  C   UNL     1      -3.765   0.552 -32.678  1.00  0.00     0.134 C 
BRANCH  31  32
HETATM   32  C   UNL     1      -3.567  -0.960 -32.813  1.00  0.00     0.058 C 
BRANCH  32  33
HETATM   33  C   UNL     1      -4.608  -1.739 -33.568  1.00  0.00    -0.057 A 
HETATM   34  C   UNL     1      -4.377  -3.056 -33.983  1.00  0.00     0.007 A 
HETATM   35  C   UNL     1      -5.368  -3.765 -34.665  1.00  0.00     0.001 A 
HETATM   36  C   UNL     1      -6.604  -3.173 -34.919  1.00  0.00     0.000 A 
HETATM   37  C   UNL     1      -6.852  -1.871 -34.494  1.00  0.00     0.001 A 
HETATM   38  C   UNL     1      -5.859  -1.157 -33.824  1.00  0.00     0.007 A 
ENDBRANCH  32  33
ENDBRANCH  31  32
ENDBRANCH   8  31
TORSDOF 9
ENDMDL
MODEL 10
REMARK VINA RESULT:      -8.8      1.999      8.021
REMARK  9 active torsions:
REMARK  status: ('A' for Active; 'I' for Inactive)
REMARK       I    between atoms: N_2  and  C_3 
REMARK    1  A    between atoms: N_2  and  C_28 
REMARK    2  A    between atoms: C_3  and  C_4 
REMARK    3  A    between atoms: C_6  and  N_7 
REMARK       I    between atoms: N_7  and  C_8 
REMARK    4  A    between atoms: C_8  and  C_9 
REMARK    5  A    between atoms: C_9  and  O_10 
REMARK    6  A    between atoms: N_17  and  C_18 
REMARK    7  A    between atoms: C_18  and  C_19 
REMARK    8  A    between atoms: C_19  and  C_20 
REMARK    9  A    between atoms: C_28  and  C_29 
ROOT
HETATM    1  C   UNL     1      -4.338   4.787 -33.358  1.00  0.00     0.036 C 
HETATM    2  C   UNL     1      -4.194   4.904 -31.974  1.00  0.00     0.049 C 
HETATM    3  C   UNL     1      -5.113   4.331 -31.077  1.00  0.00     0.065 C 
HETATM    4  C   UNL     1      -6.120   3.520 -31.642  1.00  0.00     0.091 C 
HETATM    5  C   UNL     1      -6.312   3.461 -33.030  1.00  0.00     0.088 C 
HETATM    6  N   UNL     1      -7.419   2.725 -33.357  1.00  0.00    -0.242 NA
HETATM    7  C   UNL     1      -7.867   2.264 -32.219  1.00  0.00     0.210 C 
HETATM    8  N   UNL     1      -7.073   2.638 -31.160  1.00  0.00    -0.337 N 
HETATM    9  C   UNL     1      -5.417   4.091 -33.902  1.00  0.00     0.051 C 
ENDROOT
BRANCH   1  10
HETATM   10  C   UNL     1      -3.282   5.274 -34.277  1.00  0.00     0.253 C 
HETATM   11  N   UNL     1      -1.936   5.197 -33.908  1.00  0.00    -0.350 N 
HETATM   12  C   UNL     1      -0.951   5.490 -34.943  1.00  0.00     0.153 C 
HETATM   13  O   UNL     1      -3.658   5.686 -35.374  1.00  0.00    -0.267 OA
BRANCH  11  14
HETATM   14  C   UNL     1      -1.462   5.247 -32.509  1.00  0.00     0.158 C 
BRANCH  14  15
HETATM   15  C   UNL     1      -0.784   6.570 -32.101  1.00  0.00     0.151 A 
HETATM   16  O   UNL     1      -1.757   7.430 -31.440  1.00  0.00    -0.343 OA
HETATM   17  C   UNL     1      -1.173   7.822 -30.273  1.00  0.00     0.075 A 
HETATM   18  C   UNL     1       0.055   7.238 -30.033  1.00  0.00    -0.022 A 
HETATM   19  C   UNL     1      -1.748   8.708 -29.386  1.00  0.00     0.037 A 
HETATM   20  C   UNL     1       0.399   6.322 -31.142  1.00  0.00     0.075 A 
HETATM   21  C   UNL     1       0.758   7.522 -28.874  1.00  0.00     0.010 A 
HETATM   22  C   UNL     1       0.195   8.419 -27.960  1.00  0.00     0.001 A 
HETATM   23  C   UNL     1      -1.052   9.011 -28.214  1.00  0.00     0.003 A 
ENDBRANCH  14  15
ENDBRANCH  11  14
ENDBRANCH   1  10
BRANCH   3  24
HETATM   24  N   UNL     1      -5.058   4.579 -29.694  1.00  0.00    -0.323 N 
HETATM   25  C   UNL     1      -5.641   5.642 -29.019  1.00  0.00     0.246 C 
HETATM   26  O   UNL     1      -6.253   6.583 -29.520  1.00  0.00    -0.271 OA
HETATM   27  H   UNL     1      -4.760   3.832 -29.083  1.00  0.00     0.169 HD
BRANCH  25  28
HETATM   28  C   UNL     1      -5.509   5.521 -27.497  1.00  0.00     0.270 C 
BRANCH  28  29
HETATM   29  O   UNL     1      -5.475   6.794 -26.852  1.00  0.00    -0.387 OA
HETATM   30  C   UNL     1      -4.136   7.231 -26.641  1.00  0.00     0.202 C 
ENDBRANCH  28  29
ENDBRANCH  25  28
ENDBRANCH   3  24
BRANCH   8  31
HETATM   31  C   UNL     1      -7.035   1.852 -29.941  1.00  0.00     0.134 C 
BRANCH  31  32
HETATM   32  C   UNL     1      -5.867   0.887 -29.719  1.00  0.00     0.058 C 
BRANCH  32  33
HETATM   33  C   UNL     1      -5.211   0.290 -30.933  1.00  0.00    -0.057 A 
HETATM   34  C   UNL     1      -5.872  -0.646 -31.736  1.00  0.00     0.007 A 
HETATM   35  C   UNL     1      -5.247  -1.170 -32.870  1.00  0.00     0.001 A 
HETATM   36  C   UNL     1      -3.968  -0.747 -33.223  1.00  0.00     0.000 A 
HETATM   37  C   UNL     1      -3.308   0.199 -32.443  1.00  0.00     0.001 A 
HETATM   38  C   UNL     1      -3.925   0.713 -31.304  1.00  0.00     0.007 A 
ENDBRANCH  32  33
ENDBRANCH  31  32
ENDBRANCH   8  31
TORSDOF 9
ENDMDL
