MODEL 1
REMARK VINA RESULT:      -9.6      0.000      0.000
REMARK  8 active torsions:
REMARK  status: ('A' for Active; 'I' for Inactive)
REMARK    1  A    between atoms: C_3  and  C_4 
REMARK    2  A    between atoms: N_5  and  N_6 
REMARK    3  A    between atoms: C_17  and  C_18 
REMARK       I    between atoms: C_18  and  N_19 
REMARK    4  A    between atoms: N_19  and  C_20 
REMARK    5  A    between atoms: C_20  and  C_21 
REMARK    6  A    between atoms: C_21  and  C_22 
REMARK    7  A    between atoms: C_29  and  N_30 
REMARK    8  A    between atoms: C_31  and  O_32 
ROOT
HETATM    1  N   UNL     1      -4.464   1.643 -30.855  1.00  0.00    -0.202 N 
HETATM    2  C   UNL     1      -3.940   2.877 -31.196  1.00  0.00     0.183 A 
HETATM    3  C   UNL     1      -4.902   3.828 -30.864  1.00  0.00     0.124 A 
HETATM    4  N   UNL     1      -4.713   5.139 -31.162  1.00  0.00    -0.242 NA
HETATM    5  C   UNL     1      -3.522   5.435 -31.704  1.00  0.00     0.086 A 
HETATM    6  C   UNL     1      -2.546   4.448 -32.000  1.00  0.00     0.088 A 
HETATM    7  N   UNL     1      -2.748   3.137 -31.781  1.00  0.00    -0.225 NA
HETATM    8  C   UNL     1      -3.226   6.768 -31.969  1.00  0.00     0.034 A 
HETATM    9  C   UNL     1      -1.994   7.154 -32.501  1.00  0.00     0.002 A 
HETATM   10  C   UNL     1      -1.039   6.189 -32.782  1.00  0.00     0.002 A 
HETATM   11  C   UNL     1      -1.325   4.846 -32.533  1.00  0.00     0.034 A 
HETATM   12  C   UNL     1      -5.992   3.157 -30.231  1.00  0.00     0.099 C 
HETATM   13  C   UNL     1      -5.530   1.868 -29.987  1.00  0.00     0.122 C 
ENDROOT
BRANCH  12  14
HETATM   14  C   UNL     1      -7.329   3.684 -29.958  1.00  0.00     0.236 C 
HETATM   15  N   UNL     1      -8.339   2.728 -29.883  1.00  0.00    -0.258 NA
HETATM   16  H   UNL     1      -7.948   1.858 -29.548  1.00  0.00     0.130 HD
HETATM   17  O   UNL     1      -7.579   4.882 -29.884  1.00  0.00    -0.274 OA
BRANCH  15  18
HETATM   18  C   UNL     1      -9.038   2.398 -31.121  1.00  0.00     0.099 C 
BRANCH  18  19
HETATM   19  C   UNL     1      -8.950   0.948 -31.599  1.00  0.00     0.048 C 
BRANCH  19  20
HETATM   20  C   UNL     1      -8.293   0.897 -32.965  1.00  0.00    -0.083 C 
HETATM   21  C   UNL     1      -7.243   1.939 -33.271  1.00  0.00     0.034 C 
HETATM   22  C   UNL     1      -6.889   2.038 -34.759  1.00  0.00     0.005 C 
HETATM   23  C   UNL     1      -6.775   0.659 -35.403  1.00  0.00     0.004 C 
HETATM   24  C   UNL     1      -8.074  -0.129 -35.250  1.00  0.00     0.027 C 
HETATM   25  C   UNL     1      -8.660  -0.027 -33.873  1.00  0.00    -0.024 C 
ENDBRANCH  19  20
ENDBRANCH  18  19
ENDBRANCH  15  18
ENDBRANCH  12  14
BRANCH  13  26
HETATM   26  N   UNL     1      -6.022   0.849 -29.212  1.00  0.00    -0.286 NA
HETATM   27  H   UNL     1      -6.733   1.108 -28.527  1.00  0.00     0.125 HD
HETATM   28  H   UNL     1      -5.307   0.315 -28.710  1.00  0.00     0.125 HD
ENDBRANCH  13  26
BRANCH   1  29
HETATM   29  N   UNL     1      -4.153   0.359 -31.251  1.00  0.00    -0.176 NA
HETATM   30  C   UNL     1      -4.306   0.091 -32.509  1.00  0.00     0.153 C 
BRANCH  30  31
HETATM   31  C   UNL     1      -4.213  -1.308 -32.992  1.00  0.00     0.016 A 
HETATM   32  C   UNL     1      -5.082  -1.719 -34.008  1.00  0.00     0.016 A 
HETATM   33  C   UNL     1      -5.087  -3.055 -34.419  1.00  0.00     0.001 A 
HETATM   34  C   UNL     1      -4.230  -3.979 -33.818  1.00  0.00     0.003 A 
HETATM   35  C   UNL     1      -3.362  -3.572 -32.806  1.00  0.00     0.037 A 
HETATM   36  C   UNL     1      -3.356  -2.242 -32.394  1.00  0.00     0.077 A 
BRANCH  36  37
HETATM   37  O   UNL     1      -2.507  -1.922 -31.369  1.00  0.00    -0.360 OA
HETATM   38  H   UNL     1      -2.047  -1.099 -31.645  1.00  0.00     0.217 HD
ENDBRANCH  36  37
ENDBRANCH  30  31
ENDBRANCH   1  29
TORSDOF 8
ENDMDL
MODEL 2
REMARK VINA RESULT:      -9.3      2.643      7.754
REMARK  8 active torsions:
REMARK  status: ('A' for Active; 'I' for Inactive)
REMARK    1  A    between atoms: C_3  and  C_4 
REMARK    2  A    between atoms: N_5  and  N_6 
REMARK    3  A    between atoms: C_17  and  C_18 
REMARK       I    between atoms: C_18  and  N_19 
REMARK    4  A    between atoms: N_19  and  C_20 
REMARK    5  A    between atoms: C_20  and  C_21 
REMARK    6  A    between atoms: C_21  and  C_22 
REMARK    7  A    between atoms: C_29  and  N_30 
REMARK    8  A    between atoms: C_31  and  O_32 
ROOT
HETATM    1  N   UNL     1      -7.637   0.519 -32.492  1.00  0.00    -0.202 N 
HETATM    2  C   UNL     1      -6.936  -0.571 -32.974  1.00  0.00     0.183 A 
HETATM    3  C   UNL     1      -5.621  -0.428 -32.539  1.00  0.00     0.124 A 
HETATM    4  N   UNL     1      -4.661  -1.306 -32.929  1.00  0.00    -0.242 NA
HETATM    5  C   UNL     1      -5.097  -2.336 -33.671  1.00  0.00     0.086 A 
HETATM    6  C   UNL     1      -6.452  -2.473 -34.072  1.00  0.00     0.088 A 
HETATM    7  N   UNL     1      -7.399  -1.573 -33.758  1.00  0.00    -0.225 NA
HETATM    8  C   UNL     1      -4.186  -3.316 -34.047  1.00  0.00     0.034 A 
HETATM    9  C   UNL     1      -4.574  -4.432 -34.791  1.00  0.00     0.002 A 
HETATM   10  C   UNL     1      -5.900  -4.570 -35.174  1.00  0.00     0.002 A 
HETATM   11  C   UNL     1      -6.824  -3.588 -34.815  1.00  0.00     0.034 A 
HETATM   12  C   UNL     1      -5.551   0.728 -31.705  1.00  0.00     0.099 C 
HETATM   13  C   UNL     1      -6.875   1.088 -31.475  1.00  0.00     0.122 C 
ENDROOT
BRANCH  12  14
HETATM   14  C   UNL     1      -4.351   1.428 -31.245  1.00  0.00     0.236 C 
HETATM   15  N   UNL     1      -4.484   2.808 -31.113  1.00  0.00    -0.258 NA
HETATM   16  H   UNL     1      -5.443   3.028 -30.880  1.00  0.00     0.130 HD
HETATM   17  O   UNL     1      -3.273   0.872 -31.068  1.00  0.00    -0.274 OA
BRANCH  15  18
HETATM   18  C   UNL     1      -4.161   3.624 -32.278  1.00  0.00     0.099 C 
BRANCH  18  19
HETATM   19  C   UNL     1      -2.715   3.578 -32.776  1.00  0.00     0.048 C 
BRANCH  19  20
HETATM   20  C   UNL     1      -2.102   4.963 -32.703  1.00  0.00    -0.083 C 
HETATM   21  C   UNL     1      -2.707   6.038 -33.575  1.00  0.00     0.034 C 
HETATM   22  C   UNL     1      -1.830   7.289 -33.708  1.00  0.00     0.005 C 
HETATM   23  C   UNL     1      -1.205   7.682 -32.372  1.00  0.00     0.004 C 
HETATM   24  C   UNL     1      -0.366   6.542 -31.801  1.00  0.00     0.027 C 
HETATM   25  C   UNL     1      -1.040   5.207 -31.911  1.00  0.00    -0.024 C 
ENDBRANCH  19  20
ENDBRANCH  18  19
ENDBRANCH  15  18
ENDBRANCH  12  14
BRANCH  13  26
HETATM   26  N   UNL     1      -7.446   1.957 -30.581  1.00  0.00    -0.286 NA
HETATM   27  H   UNL     1      -7.654   1.578 -29.655  1.00  0.00     0.125 HD
HETATM   28  H   UNL     1      -8.304   2.406 -30.916  1.00  0.00     0.125 HD
ENDBRANCH  13  26
BRANCH   1  29
HETATM   29  N   UNL     1      -8.831   1.097 -32.869  1.00  0.00    -0.176 NA
HETATM   30  C   UNL     1      -9.839   0.296 -33.015  1.00  0.00     0.153 C 
BRANCH  30  31
HETATM   31  C   UNL     1     -11.098   0.783 -33.627  1.00  0.00     0.016 A 
HETATM   32  C   UNL     1     -12.273   0.061 -33.393  1.00  0.00     0.016 A 
HETATM   33  C   UNL     1     -13.458   0.437 -34.033  1.00  0.00     0.001 A 
HETATM   34  C   UNL     1     -13.470   1.527 -34.906  1.00  0.00     0.003 A 
HETATM   35  C   UNL     1     -12.301   2.249 -35.140  1.00  0.00     0.037 A 
HETATM   36  C   UNL     1     -11.120   1.876 -34.505  1.00  0.00     0.077 A 
BRANCH  36  37
HETATM   37  O   UNL     1     -10.003   2.605 -34.812  1.00  0.00    -0.360 OA
HETATM   38  H   UNL     1      -9.236   2.051 -34.548  1.00  0.00     0.217 HD
ENDBRANCH  36  37
ENDBRANCH  30  31
ENDBRANCH   1  29
TORSDOF 8
ENDMDL
MODEL 3
REMARK VINA RESULT:      -9.3      2.335      2.925
REMARK  8 active torsions:
REMARK  status: ('A' for Active; 'I' for Inactive)
REMARK    1  A    between atoms: C_3  and  C_4 
REMARK    2  A    between atoms: N_5  and  N_6 
REMARK    3  A    between atoms: C_17  and  C_18 
REMARK       I    between atoms: C_18  and  N_19 
REMARK    4  A    between atoms: N_19  and  C_20 
REMARK    5  A    between atoms: C_20  and  C_21 
REMARK    6  A    between atoms: C_21  and  C_22 
REMARK    7  A    between atoms: C_29  and  N_30 
REMARK    8  A    between atoms: C_31  and  O_32 
ROOT
HETATM    1  N   UNL     1      -5.204   0.781 -31.358  1.00  0.00    -0.202 N 
HETATM    2  C   UNL     1      -4.788   2.054 -31.702  1.00  0.00     0.183 A 
HETATM    3  C   UNL     1      -5.867   2.905 -31.473  1.00  0.00     0.124 A 
HETATM    4  N   UNL     1      -5.795   4.220 -31.802  1.00  0.00    -0.242 NA
HETATM    5  C   UNL     1      -4.604   4.628 -32.267  1.00  0.00     0.086 A 
HETATM    6  C   UNL     1      -3.511   3.744 -32.458  1.00  0.00     0.088 A 
HETATM    7  N   UNL     1      -3.589   2.425 -32.210  1.00  0.00    -0.225 NA
HETATM    8  C   UNL     1      -4.431   5.977 -32.556  1.00  0.00     0.034 A 
HETATM    9  C   UNL     1      -3.210   6.479 -33.012  1.00  0.00     0.002 A 
HETATM   10  C   UNL     1      -2.140   5.615 -33.190  1.00  0.00     0.002 A 
HETATM   11  C   UNL     1      -2.302   4.256 -32.916  1.00  0.00     0.034 A 
HETATM   12  C   UNL     1      -6.924   2.138 -30.898  1.00  0.00     0.099 C 
HETATM   13  C   UNL     1      -6.349   0.913 -30.576  1.00  0.00     0.122 C 
ENDROOT
BRANCH  12  14
HETATM   14  C   UNL     1      -8.326   2.525 -30.739  1.00  0.00     0.236 C 
HETATM   15  N   UNL     1      -9.252   1.627 -31.263  1.00  0.00    -0.258 NA
HETATM   16  H   UNL     1      -8.871   0.692 -31.216  1.00  0.00     0.130 HD
HETATM   17  O   UNL     1      -8.679   3.598 -30.262  1.00  0.00    -0.274 OA
BRANCH  15  18
HETATM   18  C   UNL     1      -9.657   1.820 -32.652  1.00  0.00     0.099 C 
BRANCH  18  19
HETATM   19  C   UNL     1     -10.412   0.669 -33.319  1.00  0.00     0.048 C 
BRANCH  19  20
HETATM   20  C   UNL     1     -11.885   1.014 -33.426  1.00  0.00    -0.083 C 
HETATM   21  C   UNL     1     -12.854  -0.129 -33.616  1.00  0.00     0.034 C 
HETATM   22  C   UNL     1     -14.252   0.318 -34.061  1.00  0.00     0.005 C 
HETATM   23  C   UNL     1     -14.711   1.563 -33.308  1.00  0.00     0.004 C 
HETATM   24  C   UNL     1     -13.732   2.717 -33.505  1.00  0.00     0.027 C 
HETATM   25  C   UNL     1     -12.298   2.295 -33.384  1.00  0.00    -0.024 C 
ENDBRANCH  19  20
ENDBRANCH  18  19
ENDBRANCH  15  18
ENDBRANCH  12  14
BRANCH  13  26
HETATM   26  N   UNL     1      -6.788  -0.132 -29.805  1.00  0.00    -0.286 NA
HETATM   27  H   UNL     1      -7.664  -0.569 -30.095  1.00  0.00     0.125 HD
HETATM   28  H   UNL     1      -6.882   0.087 -28.808  1.00  0.00     0.125 HD
ENDBRANCH  13  26
BRANCH   1  29
HETATM   29  N   UNL     1      -4.730  -0.472 -31.686  1.00  0.00    -0.176 NA
HETATM   30  C   UNL     1      -4.826  -0.817 -32.931  1.00  0.00     0.153 C 
BRANCH  30  31
HETATM   31  C   UNL     1      -4.553  -2.215 -33.343  1.00  0.00     0.016 A 
HETATM   32  C   UNL     1      -5.348  -2.779 -34.346  1.00  0.00     0.016 A 
HETATM   33  C   UNL     1      -5.181  -4.123 -34.691  1.00  0.00     0.001 A 
HETATM   34  C   UNL     1      -4.227  -4.904 -34.035  1.00  0.00     0.003 A 
HETATM   35  C   UNL     1      -3.433  -4.344 -33.036  1.00  0.00     0.037 A 
HETATM   36  C   UNL     1      -3.597  -3.006 -32.691  1.00  0.00     0.077 A 
BRANCH  36  37
HETATM   37  O   UNL     1      -2.811  -2.534 -31.674  1.00  0.00    -0.360 OA
HETATM   38  H   UNL     1      -1.886  -2.744 -31.928  1.00  0.00     0.217 HD
ENDBRANCH  36  37
ENDBRANCH  30  31
ENDBRANCH   1  29
TORSDOF 8
ENDMDL
MODEL 4
REMARK VINA RESULT:      -9.3      1.611      1.805
REMARK  8 active torsions:
REMARK  status: ('A' for Active; 'I' for Inactive)
REMARK    1  A    between atoms: C_3  and  C_4 
REMARK    2  A    between atoms: N_5  and  N_6 
REMARK    3  A    between atoms: C_17  and  C_18 
REMARK       I    between atoms: C_18  and  N_19 
REMARK    4  A    between atoms: N_19  and  C_20 
REMARK    5  A    between atoms: C_20  and  C_21 
REMARK    6  A    between atoms: C_21  and  C_22 
REMARK    7  A    between atoms: C_29  and  N_30 
REMARK    8  A    between atoms: C_31  and  O_32 
ROOT
HETATM    1  N   UNL     1      -4.620   1.416 -30.869  1.00  0.00    -0.202 N 
HETATM    2  C   UNL     1      -4.117   2.672 -31.151  1.00  0.00     0.183 A 
HETATM    3  C   UNL     1      -5.099   3.590 -30.785  1.00  0.00     0.124 A 
HETATM    4  N   UNL     1      -4.933   4.916 -31.024  1.00  0.00    -0.242 NA
HETATM    5  C   UNL     1      -3.743   5.259 -31.542  1.00  0.00     0.086 A 
HETATM    6  C   UNL     1      -2.747   4.303 -31.874  1.00  0.00     0.088 A 
HETATM    7  N   UNL     1      -2.926   2.981 -31.715  1.00  0.00    -0.225 NA
HETATM    8  C   UNL     1      -3.471   6.607 -31.746  1.00  0.00     0.034 A 
HETATM    9  C   UNL     1      -2.243   7.039 -32.251  1.00  0.00     0.002 A 
HETATM   10  C   UNL     1      -1.267   6.105 -32.566  1.00  0.00     0.002 A 
HETATM   11  C   UNL     1      -1.530   4.747 -32.379  1.00  0.00     0.034 A 
HETATM   12  C   UNL     1      -6.180   2.872 -30.192  1.00  0.00     0.099 C 
HETATM   13  C   UNL     1      -5.696   1.582 -30.001  1.00  0.00     0.122 C 
ENDROOT
BRANCH  12  14
HETATM   14  C   UNL     1      -7.529   3.361 -29.906  1.00  0.00     0.236 C 
HETATM   15  N   UNL     1      -8.561   2.504 -30.276  1.00  0.00    -0.258 NA
HETATM   16  H   UNL     1      -8.237   1.549 -30.218  1.00  0.00     0.130 HD
HETATM   17  O   UNL     1      -7.759   4.478 -29.455  1.00  0.00    -0.274 OA
BRANCH  15  18
HETATM   18  C   UNL     1      -9.105   2.656 -31.622  1.00  0.00     0.099 C 
BRANCH  18  19
HETATM   19  C   UNL     1      -9.411   1.372 -32.394  1.00  0.00     0.048 C 
BRANCH  19  20
HETATM   20  C   UNL     1     -10.499   1.634 -33.418  1.00  0.00    -0.083 C 
HETATM   21  C   UNL     1     -10.327   2.833 -34.322  1.00  0.00     0.034 C 
HETATM   22  C   UNL     1     -11.606   3.226 -35.071  1.00  0.00     0.005 C 
HETATM   23  C   UNL     1     -12.351   2.002 -35.595  1.00  0.00     0.004 C 
HETATM   24  C   UNL     1     -12.711   1.049 -34.459  1.00  0.00     0.027 C 
HETATM   25  C   UNL     1     -11.585   0.842 -33.490  1.00  0.00    -0.024 C 
ENDBRANCH  19  20
ENDBRANCH  18  19
ENDBRANCH  15  18
ENDBRANCH  12  14
BRANCH  13  26
HETATM   26  N   UNL     1      -6.175   0.520 -29.276  1.00  0.00    -0.286 NA
HETATM   27  H   UNL     1      -5.923   0.501 -28.287  1.00  0.00     0.125 HD
HETATM   28  H   UNL     1      -5.934  -0.398 -29.661  1.00  0.00     0.125 HD
ENDBRANCH  13  26
BRANCH   1  29
HETATM   29  N   UNL     1      -4.282   0.157 -31.320  1.00  0.00    -0.176 NA
HETATM   30  C   UNL     1      -4.487  -0.081 -32.577  1.00  0.00     0.153 C 
BRANCH  30  31
HETATM   31  C   UNL     1      -4.367  -1.461 -33.106  1.00  0.00     0.016 A 
HETATM   32  C   UNL     1      -5.231  -1.855 -34.133  1.00  0.00     0.016 A 
HETATM   33  C   UNL     1      -5.209  -3.177 -34.589  1.00  0.00     0.001 A 
HETATM   34  C   UNL     1      -4.331  -4.102 -34.020  1.00  0.00     0.003 A 
HETATM   35  C   UNL     1      -3.469  -3.711 -32.998  1.00  0.00     0.037 A 
HETATM   36  C   UNL     1      -3.489  -2.396 -32.542  1.00  0.00     0.077 A 
BRANCH  36  37
HETATM   37  O   UNL     1      -2.643  -2.093 -31.509  1.00  0.00    -0.360 OA
HETATM   38  H   UNL     1      -1.991  -2.825 -31.469  1.00  0.00     0.217 HD
ENDBRANCH  36  37
ENDBRANCH  30  31
ENDBRANCH   1  29
TORSDOF 8
ENDMDL
MODEL 5
REMARK VINA RESULT:      -9.0      2.291      5.892
REMARK  8 active torsions:
REMARK  status: ('A' for Active; 'I' for Inactive)
REMARK    1  A    between atoms: C_3  and  C_4 
REMARK    2  A    between atoms: N_5  and  N_6 
REMARK    3  A    between atoms: C_17  and  C_18 
REMARK       I    between atoms: C_18  and  N_19 
REMARK    4  A    between atoms: N_19  and  C_20 
REMARK    5  A    between atoms: C_20  and  C_21 
REMARK    6  A    between atoms: C_21  and  C_22 
REMARK    7  A    between atoms: C_29  and  N_30 
REMARK    8  A    between atoms: C_31  and  O_32 
ROOT
HETATM    1  N   UNL     1      -6.699   0.956 -32.782  1.00  0.00    -0.202 N 
HETATM    2  C   UNL     1      -8.003   1.415 -32.830  1.00  0.00     0.183 A 
HETATM    3  C   UNL     1      -8.016   2.653 -32.192  1.00  0.00     0.124 A 
HETATM    4  N   UNL     1      -9.182   3.322 -32.001  1.00  0.00    -0.242 NA
HETATM    5  C   UNL     1     -10.267   2.746 -32.542  1.00  0.00     0.086 A 
HETATM    6  C   UNL     1     -10.217   1.498 -33.217  1.00  0.00     0.088 A 
HETATM    7  N   UNL     1      -9.084   0.787 -33.348  1.00  0.00    -0.225 NA
HETATM    8  C   UNL     1     -11.486   3.409 -32.451  1.00  0.00     0.034 A 
HETATM    9  C   UNL     1     -12.649   2.885 -33.019  1.00  0.00     0.002 A 
HETATM   10  C   UNL     1     -12.597   1.670 -33.686  1.00  0.00     0.002 A 
HETATM   11  C   UNL     1     -11.383   0.987 -33.775  1.00  0.00     0.034 A 
HETATM   12  C   UNL     1      -6.676   2.982 -31.829  1.00  0.00     0.099 C 
HETATM   13  C   UNL     1      -5.884   2.044 -32.484  1.00  0.00     0.122 C 
ENDROOT
BRANCH  12  14
HETATM   14  C   UNL     1      -6.229   4.032 -30.914  1.00  0.00     0.236 C 
HETATM   15  N   UNL     1      -6.761   5.296 -31.156  1.00  0.00    -0.258 NA
HETATM   16  H   UNL     1      -7.681   5.196 -31.564  1.00  0.00     0.130 HD
HETATM   17  O   UNL     1      -5.381   3.853 -30.046  1.00  0.00    -0.274 OA
BRANCH  15  18
HETATM   18  C   UNL     1      -6.020   6.170 -32.059  1.00  0.00     0.099 C 
BRANCH  18  19
HETATM   19  C   UNL     1      -5.635   5.592 -33.422  1.00  0.00     0.048 C 
BRANCH  19  20
HETATM   20  C   UNL     1      -4.130   5.655 -33.600  1.00  0.00    -0.083 C 
HETATM   21  C   UNL     1      -3.574   5.282 -34.954  1.00  0.00     0.034 C 
HETATM   22  C   UNL     1      -2.061   5.035 -34.951  1.00  0.00     0.005 C 
HETATM   23  C   UNL     1      -1.323   6.068 -34.106  1.00  0.00     0.004 C 
HETATM   24  C   UNL     1      -1.832   6.066 -32.666  1.00  0.00     0.027 C 
HETATM   25  C   UNL     1      -3.328   6.002 -32.575  1.00  0.00    -0.024 C 
ENDBRANCH  19  20
ENDBRANCH  18  19
ENDBRANCH  15  18
ENDBRANCH  12  14
BRANCH  13  26
HETATM   26  N   UNL     1      -4.532   1.982 -32.709  1.00  0.00    -0.286 NA
HETATM   27  H   UNL     1      -4.171   1.084 -33.031  1.00  0.00     0.125 HD
HETATM   28  H   UNL     1      -3.957   2.264 -31.909  1.00  0.00     0.125 HD
ENDBRANCH  13  26
BRANCH   1  29
HETATM   29  N   UNL     1      -6.152  -0.303 -32.917  1.00  0.00    -0.176 NA
HETATM   30  C   UNL     1      -6.144  -0.803 -34.112  1.00  0.00     0.153 C 
BRANCH  30  31
HETATM   31  C   UNL     1      -5.785  -2.226 -34.325  1.00  0.00     0.016 A 
HETATM   32  C   UNL     1      -6.746  -3.077 -34.881  1.00  0.00     0.016 A 
HETATM   33  C   UNL     1      -6.474  -4.443 -35.005  1.00  0.00     0.001 A 
HETATM   34  C   UNL     1      -5.249  -4.958 -34.575  1.00  0.00     0.003 A 
HETATM   35  C   UNL     1      -4.290  -4.112 -34.022  1.00  0.00     0.037 A 
HETATM   36  C   UNL     1      -4.559  -2.752 -33.896  1.00  0.00     0.077 A 
BRANCH  36  37
HETATM   37  O   UNL     1      -3.587  -1.987 -33.308  1.00  0.00    -0.360 OA
HETATM   38  H   UNL     1      -2.988  -1.706 -34.033  1.00  0.00     0.217 HD
ENDBRANCH  36  37
ENDBRANCH  30  31
ENDBRANCH   1  29
TORSDOF 8
ENDMDL
MODEL 6
REMARK VINA RESULT:      -8.8      2.712      5.578
REMARK  8 active torsions:
REMARK  status: ('A' for Active; 'I' for Inactive)
REMARK    1  A    between atoms: C_3  and  C_4 
REMARK    2  A    between atoms: N_5  and  N_6 
REMARK    3  A    between atoms: C_17  and  C_18 
REMARK       I    between atoms: C_18  and  N_19 
REMARK    4  A    between atoms: N_19  and  C_20 
REMARK    5  A    between atoms: C_20  and  C_21 
REMARK    6  A    between atoms: C_21  and  C_22 
REMARK    7  A    between atoms: C_29  and  N_30 
REMARK    8  A    between atoms: C_31  and  O_32 
ROOT
HETATM    1  N   UNL     1      -5.153   2.774 -31.484  1.00  0.00    -0.202 N 
HETATM    2  C   UNL     1      -4.287   3.747 -31.948  1.00  0.00     0.183 A 
HETATM    3  C   UNL     1      -4.426   4.845 -31.103  1.00  0.00     0.124 A 
HETATM    4  N   UNL     1      -3.762   6.003 -31.355  1.00  0.00    -0.242 NA
HETATM    5  C   UNL     1      -2.923   5.964 -32.402  1.00  0.00     0.086 A 
HETATM    6  C   UNL     1      -2.777   4.817 -33.226  1.00  0.00     0.088 A 
HETATM    7  N   UNL     1      -3.483   3.690 -33.036  1.00  0.00    -0.225 NA
HETATM    8  C   UNL     1      -2.153   7.088 -32.678  1.00  0.00     0.034 A 
HETATM    9  C   UNL     1      -1.236   7.108 -33.731  1.00  0.00     0.002 A 
HETATM   10  C   UNL     1      -1.088   5.984 -34.530  1.00  0.00     0.002 A 
HETATM   11  C   UNL     1      -1.863   4.852 -34.273  1.00  0.00     0.034 A 
HETATM   12  C   UNL     1      -5.331   4.492 -30.059  1.00  0.00     0.099 C 
HETATM   13  C   UNL     1      -5.506   3.117 -30.181  1.00  0.00     0.122 C 
ENDROOT
BRANCH  12  14
HETATM   14  C   UNL     1      -5.990   5.385 -29.106  1.00  0.00     0.236 C 
HETATM   15  N   UNL     1      -5.468   6.674 -29.042  1.00  0.00    -0.258 NA
HETATM   16  H   UNL     1      -5.088   6.923 -29.945  1.00  0.00     0.130 HD
HETATM   17  O   UNL     1      -6.881   5.020 -28.346  1.00  0.00    -0.274 OA
BRANCH  15  18
HETATM   18  C   UNL     1      -4.396   6.913 -28.081  1.00  0.00     0.099 C 
BRANCH  18  19
HETATM   19  C   UNL     1      -3.424   8.051 -28.398  1.00  0.00     0.048 C 
BRANCH  19  20
HETATM   20  C   UNL     1      -1.995   7.559 -28.265  1.00  0.00    -0.083 C 
HETATM   21  C   UNL     1      -1.635   6.801 -27.009  1.00  0.00     0.034 C 
HETATM   22  C   UNL     1      -0.125   6.650 -26.794  1.00  0.00     0.005 C 
HETATM   23  C   UNL     1       0.598   6.314 -28.095  1.00  0.00     0.004 C 
HETATM   24  C   UNL     1       0.350   7.386 -29.154  1.00  0.00     0.027 C 
HETATM   25  C   UNL     1      -1.085   7.819 -29.223  1.00  0.00    -0.024 C 
ENDBRANCH  19  20
ENDBRANCH  18  19
ENDBRANCH  15  18
ENDBRANCH  12  14
BRANCH  13  26
HETATM   26  N   UNL     1      -6.065   2.185 -29.344  1.00  0.00    -0.286 NA
HETATM   27  H   UNL     1      -6.481   1.368 -29.794  1.00  0.00     0.125 HD
HETATM   28  H   UNL     1      -6.769   2.561 -28.702  1.00  0.00     0.125 HD
ENDBRANCH  13  26
BRANCH   1  29
HETATM   29  N   UNL     1      -5.704   1.659 -32.080  1.00  0.00    -0.176 NA
HETATM   30  C   UNL     1      -4.947   0.610 -32.152  1.00  0.00     0.153 C 
BRANCH  30  31
HETATM   31  C   UNL     1      -5.364  -0.558 -32.966  1.00  0.00     0.016 A 
HETATM   32  C   UNL     1      -4.370  -1.327 -33.580  1.00  0.00     0.016 A 
HETATM   33  C   UNL     1      -4.731  -2.376 -34.431  1.00  0.00     0.001 A 
HETATM   34  C   UNL     1      -6.078  -2.655 -34.671  1.00  0.00     0.003 A 
HETATM   35  C   UNL     1      -7.070  -1.890 -34.059  1.00  0.00     0.037 A 
HETATM   36  C   UNL     1      -6.713  -0.845 -33.212  1.00  0.00     0.077 A 
BRANCH  36  37
HETATM   37  O   UNL     1      -7.738  -0.112 -32.678  1.00  0.00    -0.360 OA
HETATM   38  H   UNL     1      -7.547   0.824 -32.900  1.00  0.00     0.217 HD
ENDBRANCH  36  37
ENDBRANCH  30  31
ENDBRANCH   1  29
TORSDOF 8
ENDMDL
MODEL 7
REMARK VINA RESULT:      -8.7      1.906      2.371
REMARK  8 active torsions:
REMARK  status: ('A' for Active; 'I' for Inactive)
REMARK    1  A    between atoms: C_3  and  C_4 
REMARK    2  A    between atoms: N_5  and  N_6 
REMARK    3  A    between atoms: C_17  and  C_18 
REMARK       I    between atoms: C_18  and  N_19 
REMARK    4  A    between atoms: N_19  and  C_20 
REMARK    5  A    between atoms: C_20  and  C_21 
REMARK    6  A    between atoms: C_21  and  C_22 
REMARK    7  A    between atoms: C_29  and  N_30 
REMARK    8  A    between atoms: C_31  and  O_32 
ROOT
HETATM    1  N   UNL     1      -4.482   1.879 -31.657  1.00  0.00    -0.202 N 
HETATM    2  C   UNL     1      -3.945   3.113 -31.972  1.00  0.00     0.183 A 
HETATM    3  C   UNL     1      -4.688   4.064 -31.277  1.00  0.00     0.124 A 
HETATM    4  N   UNL     1      -4.454   5.390 -31.451  1.00  0.00    -0.242 NA
HETATM    5  C   UNL     1      -3.421   5.687 -32.255  1.00  0.00     0.086 A 
HETATM    6  C   UNL     1      -2.658   4.694 -32.923  1.00  0.00     0.088 A 
HETATM    7  N   UNL     1      -2.925   3.381 -32.822  1.00  0.00    -0.225 NA
HETATM    8  C   UNL     1      -3.073   7.023 -32.423  1.00  0.00     0.034 A 
HETATM    9  C   UNL     1      -1.990   7.404 -33.218  1.00  0.00     0.002 A 
HETATM   10  C   UNL     1      -1.240   6.432 -33.863  1.00  0.00     0.002 A 
HETATM   11  C   UNL     1      -1.585   5.088 -33.714  1.00  0.00     0.034 A 
HETATM   12  C   UNL     1      -5.637   3.379 -30.461  1.00  0.00     0.099 C 
HETATM   13  C   UNL     1      -5.258   2.041 -30.512  1.00  0.00     0.122 C 
ENDROOT
BRANCH  12  14
HETATM   14  C   UNL     1      -6.798   3.943 -29.773  1.00  0.00     0.236 C 
HETATM   15  N   UNL     1      -7.890   3.087 -29.654  1.00  0.00    -0.258 NA
HETATM   16  H   UNL     1      -7.560   2.133 -29.606  1.00  0.00     0.130 HD
HETATM   17  O   UNL     1      -6.859   5.109 -29.399  1.00  0.00    -0.274 OA
BRANCH  15  18
HETATM   18  C   UNL     1      -8.878   3.113 -30.727  1.00  0.00     0.099 C 
BRANCH  18  19
HETATM   19  C   UNL     1      -8.780   2.012 -31.784  1.00  0.00     0.048 C 
BRANCH  19  20
HETATM   20  C   UNL     1      -9.705   2.329 -32.944  1.00  0.00    -0.083 C 
HETATM   21  C   UNL     1     -10.800   1.334 -33.251  1.00  0.00     0.034 C 
HETATM   22  C   UNL     1     -11.454   1.544 -34.622  1.00  0.00     0.005 C 
HETATM   23  C   UNL     1     -11.693   3.023 -34.911  1.00  0.00     0.004 C 
HETATM   24  C   UNL     1     -10.388   3.812 -34.855  1.00  0.00     0.027 C 
HETATM   25  C   UNL     1      -9.530   3.441 -33.682  1.00  0.00    -0.024 C 
ENDBRANCH  19  20
ENDBRANCH  18  19
ENDBRANCH  15  18
ENDBRANCH  12  14
BRANCH  13  26
HETATM   26  N   UNL     1      -5.631   0.953 -29.765  1.00  0.00    -0.286 NA
HETATM   27  H   UNL     1      -5.984   0.149 -30.286  1.00  0.00     0.125 HD
HETATM   28  H   UNL     1      -6.319   1.157 -29.033  1.00  0.00     0.125 HD
ENDBRANCH  13  26
BRANCH   1  29
HETATM   29  N   UNL     1      -4.413   0.649 -32.278  1.00  0.00    -0.176 NA
HETATM   30  C   UNL     1      -5.367   0.369 -33.109  1.00  0.00     0.153 C 
BRANCH  30  31
HETATM   31  C   UNL     1      -5.503  -1.003 -33.655  1.00  0.00     0.016 A 
HETATM   32  C   UNL     1      -4.339  -1.739 -33.900  1.00  0.00     0.016 A 
HETATM   33  C   UNL     1      -4.428  -2.997 -34.503  1.00  0.00     0.001 A 
HETATM   34  C   UNL     1      -5.672  -3.518 -34.864  1.00  0.00     0.003 A 
HETATM   35  C   UNL     1      -6.833  -2.787 -34.620  1.00  0.00     0.037 A 
HETATM   36  C   UNL     1      -6.748  -1.534 -34.020  1.00  0.00     0.077 A 
BRANCH  36  37
HETATM   37  O   UNL     1      -7.925  -0.856 -33.847  1.00  0.00    -0.360 OA
HETATM   38  H   UNL     1      -8.640  -1.503 -34.032  1.00  0.00     0.217 HD
ENDBRANCH  36  37
ENDBRANCH  30  31
ENDBRANCH   1  29
TORSDOF 8
ENDMDL
MODEL 8
REMARK VINA RESULT:      -8.5      2.837      3.273
REMARK  8 active torsions:
REMARK  status: ('A' for Active; 'I' for Inactive)
REMARK    1  A    between atoms: C_3  and  C_4 
REMARK    2  A    between atoms: N_5  and  N_6 
REMARK    3  A    between atoms: C_17  and  C_18 
REMARK       I    between atoms: C_18  and  N_19 
REMARK    4  A    between atoms: N_19  and  C_20 
REMARK    5  A    between atoms: C_20  and  C_21 
REMARK    6  A    between atoms: C_21  and  C_22 
REMARK    7  A    between atoms: C_29  and  N_30 
REMARK    8  A    between atoms: C_31  and  O_32 
ROOT
HETATM    1  N   UNL     1      -6.049   0.849 -32.143  1.00  0.00    -0.202 N 
HETATM    2  C   UNL     1      -5.449   2.079 -32.344  1.00  0.00     0.183 A 
HETATM    3  C   UNL     1      -6.463   3.033 -32.301  1.00  0.00     0.124 A 
HETATM    4  N   UNL     1      -6.197   4.340 -32.555  1.00  0.00    -0.242 NA
HETATM    5  C   UNL     1      -4.902   4.631 -32.753  1.00  0.00     0.086 A 
HETATM    6  C   UNL     1      -3.884   3.641 -32.757  1.00  0.00     0.088 A 
HETATM    7  N   UNL     1      -4.141   2.334 -32.584  1.00  0.00    -0.225 NA
HETATM    8  C   UNL     1      -4.542   5.960 -32.945  1.00  0.00     0.034 A 
HETATM    9  C   UNL     1      -3.210   6.341 -33.125  1.00  0.00     0.002 A 
HETATM   10  C   UNL     1      -2.217   5.374 -33.119  1.00  0.00     0.002 A 
HETATM   11  C   UNL     1      -2.563   4.034 -32.940  1.00  0.00     0.034 A 
HETATM   12  C   UNL     1      -7.685   2.369 -31.983  1.00  0.00     0.099 C 
HETATM   13  C   UNL     1      -7.311   1.084 -31.603  1.00  0.00     0.122 C 
ENDROOT
BRANCH  12  14
HETATM   14  C   UNL     1      -9.045   2.897 -32.094  1.00  0.00     0.236 C 
HETATM   15  N   UNL     1     -10.046   1.936 -32.207  1.00  0.00    -0.258 NA
HETATM   16  H   UNL     1      -9.758   1.097 -31.723  1.00  0.00     0.130 HD
HETATM   17  O   UNL     1      -9.299   4.094 -32.172  1.00  0.00    -0.274 OA
BRANCH  15  18
HETATM   18  C   UNL     1     -10.413   1.510 -33.554  1.00  0.00     0.099 C 
BRANCH  18  19
HETATM   19  C   UNL     1     -11.852   1.779 -33.997  1.00  0.00     0.048 C 
BRANCH  19  20
HETATM   20  C   UNL     1     -12.015   3.244 -34.353  1.00  0.00    -0.083 C 
HETATM   21  C   UNL     1     -10.983   3.856 -35.270  1.00  0.00     0.034 C 
HETATM   22  C   UNL     1     -11.015   5.388 -35.297  1.00  0.00     0.005 C 
HETATM   23  C   UNL     1     -12.444   5.921 -35.330  1.00  0.00     0.004 C 
HETATM   24  C   UNL     1     -13.243   5.426 -34.127  1.00  0.00     0.027 C 
HETATM   25  C   UNL     1     -13.028   3.970 -33.841  1.00  0.00    -0.024 C 
ENDBRANCH  19  20
ENDBRANCH  18  19
ENDBRANCH  15  18
ENDBRANCH  12  14
BRANCH  13  26
HETATM   26  N   UNL     1      -7.999   0.075 -30.979  1.00  0.00    -0.286 NA
HETATM   27  H   UNL     1      -7.541  -0.838 -30.962  1.00  0.00     0.125 HD
HETATM   28  H   UNL     1      -8.946  -0.076 -31.338  1.00  0.00     0.125 HD
ENDBRANCH  13  26
BRANCH   1  29
HETATM   29  N   UNL     1      -5.643  -0.439 -32.421  1.00  0.00    -0.176 NA
HETATM   30  C   UNL     1      -5.655  -0.792 -33.667  1.00  0.00     0.153 C 
BRANCH  30  31
HETATM   31  C   UNL     1      -5.452  -2.211 -34.045  1.00  0.00     0.016 A 
HETATM   32  C   UNL     1      -6.468  -2.861 -34.754  1.00  0.00     0.016 A 
HETATM   33  C   UNL     1      -6.351  -4.224 -35.042  1.00  0.00     0.001 A 
HETATM   34  C   UNL     1      -5.226  -4.937 -34.622  1.00  0.00     0.003 A 
HETATM   35  C   UNL     1      -4.212  -4.292 -33.916  1.00  0.00     0.037 A 
HETATM   36  C   UNL     1      -4.327  -2.935 -33.628  1.00  0.00     0.077 A 
BRANCH  36  37
HETATM   37  O   UNL     1      -3.312  -2.376 -32.897  1.00  0.00    -0.360 OA
HETATM   38  H   UNL     1      -2.481  -2.618 -33.359  1.00  0.00     0.217 HD
ENDBRANCH  36  37
ENDBRANCH  30  31
ENDBRANCH   1  29
TORSDOF 8
ENDMDL
MODEL 9
REMARK VINA RESULT:      -8.3      2.805      6.178
REMARK  8 active torsions:
REMARK  status: ('A' for Active; 'I' for Inactive)
REMARK    1  A    between atoms: C_3  and  C_4 
REMARK    2  A    between atoms: N_5  and  N_6 
REMARK    3  A    between atoms: C_17  and  C_18 
REMARK       I    between atoms: C_18  and  N_19 
REMARK    4  A    between atoms: N_19  and  C_20 
REMARK    5  A    between atoms: C_20  and  C_21 
REMARK    6  A    between atoms: C_21  and  C_22 
REMARK    7  A    between atoms: C_29  and  N_30 
REMARK    8  A    between atoms: C_31  and  O_32 
ROOT
HETATM    1  N   UNL     1      -7.559   2.342 -32.397  1.00  0.00    -0.202 N 
HETATM    2  C   UNL     1      -7.267   3.260 -31.405  1.00  0.00     0.183 A 
HETATM    3  C   UNL     1      -5.901   3.158 -31.152  1.00  0.00     0.124 A 
HETATM    4  N   UNL     1      -5.325   3.879 -30.156  1.00  0.00    -0.242 NA
HETATM    5  C   UNL     1      -6.143   4.733 -29.521  1.00  0.00     0.086 A 
HETATM    6  C   UNL     1      -7.526   4.839 -29.824  1.00  0.00     0.088 A 
HETATM    7  N   UNL     1      -8.127   4.079 -30.754  1.00  0.00    -0.225 NA
HETATM    8  C   UNL     1      -5.608   5.559 -28.539  1.00  0.00     0.034 A 
HETATM    9  C   UNL     1      -6.393   6.494 -27.860  1.00  0.00     0.002 A 
HETATM   10  C   UNL     1      -7.741   6.603 -28.164  1.00  0.00     0.002 A 
HETATM   11  C   UNL     1      -8.295   5.772 -29.139  1.00  0.00     0.034 A 
HETATM   12  C   UNL     1      -5.347   2.220 -32.072  1.00  0.00     0.099 C 
HETATM   13  C   UNL     1      -6.356   1.983 -33.000  1.00  0.00     0.122 C 
ENDROOT
BRANCH  12  14
HETATM   14  C   UNL     1      -4.029   1.587 -32.020  1.00  0.00     0.236 C 
HETATM   15  N   UNL     1      -3.852   0.511 -32.886  1.00  0.00    -0.258 NA
HETATM   16  H   UNL     1      -4.429   0.647 -33.705  1.00  0.00     0.130 HD
HETATM   17  O   UNL     1      -3.159   1.907 -31.217  1.00  0.00    -0.274 OA
BRANCH  15  18
HETATM   18  C   UNL     1      -4.188  -0.816 -32.380  1.00  0.00     0.099 C 
BRANCH  18  19
HETATM   19  C   UNL     1      -3.441  -2.000 -32.995  1.00  0.00     0.048 C 
BRANCH  19  20
HETATM   20  C   UNL     1      -4.416  -2.893 -33.738  1.00  0.00    -0.083 C 
HETATM   21  C   UNL     1      -5.675  -2.254 -34.275  1.00  0.00     0.034 C 
HETATM   22  C   UNL     1      -6.749  -3.265 -34.692  1.00  0.00     0.005 C 
HETATM   23  C   UNL     1      -6.146  -4.453 -35.435  1.00  0.00     0.004 C 
HETATM   24  C   UNL     1      -5.098  -5.162 -34.580  1.00  0.00     0.027 C 
HETATM   25  C   UNL     1      -4.174  -4.211 -33.880  1.00  0.00    -0.024 C 
ENDBRANCH  19  20
ENDBRANCH  18  19
ENDBRANCH  15  18
ENDBRANCH  12  14
BRANCH  13  26
HETATM   26  N   UNL     1      -6.350   1.368 -34.225  1.00  0.00    -0.286 NA
HETATM   27  H   UNL     1      -5.574   0.728 -34.403  1.00  0.00     0.125 HD
HETATM   28  H   UNL     1      -6.392   2.010 -35.022  1.00  0.00     0.125 HD
ENDBRANCH  13  26
BRANCH   1  29
HETATM   29  N   UNL     1      -8.738   1.750 -32.797  1.00  0.00    -0.176 NA
HETATM   30  C   UNL     1      -9.417   2.374 -33.708  1.00  0.00     0.153 C 
BRANCH  30  31
HETATM   31  C   UNL     1     -10.794   1.939 -34.043  1.00  0.00     0.016 A 
HETATM   32  C   UNL     1     -11.581   2.780 -34.837  1.00  0.00     0.016 A 
HETATM   33  C   UNL     1     -12.914   2.446 -35.092  1.00  0.00     0.001 A 
HETATM   34  C   UNL     1     -13.462   1.280 -34.555  1.00  0.00     0.003 A 
HETATM   35  C   UNL     1     -12.680   0.439 -33.764  1.00  0.00     0.037 A 
HETATM   36  C   UNL     1     -11.352   0.770 -33.509  1.00  0.00     0.077 A 
BRANCH  36  37
HETATM   37  O   UNL     1     -10.656  -0.081 -32.693  1.00  0.00    -0.360 OA
HETATM   38  H   UNL     1      -9.808   0.371 -32.491  1.00  0.00     0.217 HD
ENDBRANCH  36  37
ENDBRANCH  30  31
ENDBRANCH   1  29
TORSDOF 8
ENDMDL
MODEL 10
REMARK VINA RESULT:      -8.1      3.268      6.324
REMARK  8 active torsions:
REMARK  status: ('A' for Active; 'I' for Inactive)
REMARK    1  A    between atoms: C_3  and  C_4 
REMARK    2  A    between atoms: N_5  and  N_6 
REMARK    3  A    between atoms: C_17  and  C_18 
REMARK       I    between atoms: C_18  and  N_19 
REMARK    4  A    between atoms: N_19  and  C_20 
REMARK    5  A    between atoms: C_20  and  C_21 
REMARK    6  A    between atoms: C_21  and  C_22 
REMARK    7  A    between atoms: C_29  and  N_30 
REMARK    8  A    between atoms: C_31  and  O_32 
ROOT
HETATM    1  N   UNL     1      -6.748   4.262 -33.626  1.00  0.00    -0.202 N 
HETATM    2  C   UNL     1      -5.422   4.590 -33.415  1.00  0.00     0.183 A 
HETATM    3  C   UNL     1      -4.978   3.807 -32.352  1.00  0.00     0.124 A 
HETATM    4  N   UNL     1      -3.728   3.966 -31.848  1.00  0.00    -0.242 NA
HETATM    5  C   UNL     1      -2.956   4.849 -32.501  1.00  0.00     0.086 A 
HETATM    6  C   UNL     1      -3.425   5.608 -33.605  1.00  0.00     0.088 A 
HETATM    7  N   UNL     1      -4.684   5.518 -34.068  1.00  0.00    -0.225 NA
HETATM    8  C   UNL     1      -1.638   5.011 -32.090  1.00  0.00     0.034 A 
HETATM    9  C   UNL     1      -0.769   5.888 -32.743  1.00  0.00     0.002 A 
HETATM   10  C   UNL     1      -1.226   6.622 -33.827  1.00  0.00     0.002 A 
HETATM   11  C   UNL     1      -2.550   6.478 -34.244  1.00  0.00     0.034 A 
HETATM   12  C   UNL     1      -6.038   2.930 -31.972  1.00  0.00     0.099 C 
HETATM   13  C   UNL     1      -6.986   3.049 -32.984  1.00  0.00     0.122 C 
ENDROOT
BRANCH  12  14
HETATM   14  C   UNL     1      -6.142   2.128 -30.753  1.00  0.00     0.236 C 
HETATM   15  N   UNL     1      -5.016   1.369 -30.444  1.00  0.00    -0.258 NA
HETATM   16  H   UNL     1      -4.193   1.840 -30.792  1.00  0.00     0.130 HD
HETATM   17  O   UNL     1      -7.168   2.046 -30.086  1.00  0.00    -0.274 OA
BRANCH  15  18
HETATM   18  C   UNL     1      -4.955   0.014 -30.983  1.00  0.00     0.099 C 
BRANCH  18  19
HETATM   19  C   UNL     1      -4.178  -0.178 -32.286  1.00  0.00     0.048 C 
BRANCH  19  20
HETATM   20  C   UNL     1      -4.968  -1.066 -33.229  1.00  0.00    -0.083 C 
HETATM   21  C   UNL     1      -4.318  -2.354 -33.678  1.00  0.00     0.034 C 
HETATM   22  C   UNL     1      -5.013  -3.008 -34.877  1.00  0.00     0.005 C 
HETATM   23  C   UNL     1      -6.533  -2.949 -34.749  1.00  0.00     0.004 C 
HETATM   24  C   UNL     1      -7.018  -1.507 -34.615  1.00  0.00     0.027 C 
HETATM   25  C   UNL     1      -6.186  -0.696 -33.667  1.00  0.00    -0.024 C 
ENDBRANCH  19  20
ENDBRANCH  18  19
ENDBRANCH  15  18
ENDBRANCH  12  14
BRANCH  13  26
HETATM   26  N   UNL     1      -8.092   2.302 -33.296  1.00  0.00    -0.286 NA
HETATM   27  H   UNL     1      -8.992   2.690 -33.012  1.00  0.00     0.125 HD
HETATM   28  H   UNL     1      -8.063   1.337 -32.952  1.00  0.00     0.125 HD
ENDBRANCH  13  26
BRANCH   1  29
HETATM   29  N   UNL     1      -7.778   4.919 -34.267  1.00  0.00    -0.176 NA
HETATM   30  C   UNL     1      -8.567   5.622 -33.519  1.00  0.00     0.153 C 
BRANCH  30  31
HETATM   31  C   UNL     1      -9.823   6.181 -34.075  1.00  0.00     0.016 A 
HETATM   32  C   UNL     1     -10.665   5.329 -34.798  1.00  0.00     0.016 A 
HETATM   33  C   UNL     1     -11.808   5.845 -35.417  1.00  0.00     0.001 A 
HETATM   34  C   UNL     1     -12.108   7.205 -35.318  1.00  0.00     0.003 A 
HETATM   35  C   UNL     1     -11.271   8.056 -34.597  1.00  0.00     0.037 A 
HETATM   36  C   UNL     1     -10.133   7.544 -33.980  1.00  0.00     0.077 A 
BRANCH  36  37
HETATM   37  O   UNL     1      -9.336   8.444 -33.323  1.00  0.00    -0.360 OA
HETATM   38  H   UNL     1      -9.911   8.879 -32.657  1.00  0.00     0.217 HD
ENDBRANCH  36  37
ENDBRANCH  30  31
ENDBRANCH   1  29
TORSDOF 8
ENDMDL
