MODEL 1
REMARK VINA RESULT:      -8.2      0.000      0.000
REMARK  4 active torsions:
REMARK  status: ('A' for Active; 'I' for Inactive)
REMARK    1  A    between atoms: C_2  and  C_3 
REMARK    2  A    between atoms: C_4  and  N_5 
REMARK       I    between atoms: N_5  and  C_6 
REMARK       I    between atoms: C_6  and  N_7 
REMARK    3  A    between atoms: C_8  and  C_9 
REMARK    4  A    between atoms: C_21  and  C_22 
ROOT
HETATM    1  N   UNL     1      -5.320  -0.063 -33.214  1.00  0.00    -0.308 N 
HETATM    2  C   UNL     1      -5.993   0.299 -32.067  1.00  0.00     0.323 C 
HETATM    3  N   UNL     1      -5.701   1.575 -31.611  1.00  0.00    -0.325 N 
HETATM    4  C   UNL     1      -4.540   2.385 -31.984  1.00  0.00     0.126 C 
HETATM    5  C   UNL     1      -4.086   2.950 -30.628  1.00  0.00     0.032 C 
HETATM    6  C   UNL     1      -5.401   3.181 -29.896  1.00  0.00     0.022 C 
HETATM    7  C   UNL     1      -6.213   1.963 -30.303  1.00  0.00     0.128 C 
HETATM    8  O   UNL     1      -6.789  -0.424 -31.473  1.00  0.00    -0.247 OA
HETATM    9  H   UNL     1      -5.345   0.674 -33.902  1.00  0.00     0.170 HD
ENDROOT
BRANCH   1  10
HETATM   10  C   UNL     1      -5.351  -1.392 -33.712  1.00  0.00     0.049 A 
HETATM   11  C   UNL     1      -4.347  -2.300 -33.294  1.00  0.00    -0.031 A 
HETATM   12  C   UNL     1      -4.360  -3.618 -33.781  1.00  0.00     0.009 A 
HETATM   13  C   UNL     1      -5.342  -4.040 -34.668  1.00  0.00     0.001 A 
HETATM   14  C   UNL     1      -6.342  -3.158 -35.058  1.00  0.00     0.009 A 
HETATM   15  C   UNL     1      -6.386  -1.832 -34.575  1.00  0.00    -0.031 A 
BRANCH  11  16
HETATM   16  C   UNL     1      -3.210  -1.919 -32.370  1.00  0.00     0.036 C 
HETATM   17  C   UNL     1      -2.654  -3.122 -31.623  1.00  0.00     0.010 C 
ENDBRANCH  11  16
BRANCH  15  18
HETATM   18  C   UNL     1      -7.574  -0.999 -35.025  1.00  0.00     0.036 C 
HETATM   19  C   UNL     1      -7.244   0.384 -35.574  1.00  0.00     0.010 C 
ENDBRANCH  15  18
ENDBRANCH   1  10
BRANCH   4  20
HETATM   20  C   UNL     1      -4.886   3.468 -32.983  1.00  0.00     0.014 A 
HETATM   21  C   UNL     1      -6.146   3.877 -33.529  1.00  0.00     0.061 A 
HETATM   22  C   UNL     1      -7.515   3.356 -33.275  1.00  0.00     0.073 C 
HETATM   23  N   UNL     1      -6.012   4.893 -34.389  1.00  0.00    -0.179 NA
HETATM   24  N   UNL     1      -4.707   5.160 -34.391  1.00  0.00    -0.282 N 
HETATM   25  H   UNL     1      -4.377   5.930 -34.965  1.00  0.00     0.189 HD
HETATM   26  C   UNL     1      -3.977   4.330 -33.592  1.00  0.00     0.034 A 
HETATM   27  C   UNL     1      -2.506   4.482 -33.480  1.00  0.00     0.070 C 
ENDBRANCH   4  20
TORSDOF 4
ENDMDL
MODEL 2
REMARK VINA RESULT:      -8.1      0.208      2.647
REMARK  4 active torsions:
REMARK  status: ('A' for Active; 'I' for Inactive)
REMARK    1  A    between atoms: C_2  and  C_3 
REMARK    2  A    between atoms: C_4  and  N_5 
REMARK       I    between atoms: N_5  and  C_6 
REMARK       I    between atoms: C_6  and  N_7 
REMARK    3  A    between atoms: C_8  and  C_9 
REMARK    4  A    between atoms: C_21  and  C_22 
ROOT
HETATM    1  N   UNL     1      -5.466  -0.072 -33.195  1.00  0.00    -0.308 N 
HETATM    2  C   UNL     1      -6.071   0.272 -32.005  1.00  0.00     0.323 C 
HETATM    3  N   UNL     1      -5.774   1.550 -31.561  1.00  0.00    -0.325 N 
HETATM    4  C   UNL     1      -4.653   2.383 -32.001  1.00  0.00     0.126 C 
HETATM    5  C   UNL     1      -4.125   2.949 -30.673  1.00  0.00     0.032 C 
HETATM    6  C   UNL     1      -5.394   3.152 -29.857  1.00  0.00     0.022 C 
HETATM    7  C   UNL     1      -6.209   1.922 -30.220  1.00  0.00     0.128 C 
HETATM    8  O   UNL     1      -6.814  -0.470 -31.367  1.00  0.00    -0.247 OA
HETATM    9  H   UNL     1      -5.547   0.669 -33.876  1.00  0.00     0.170 HD
ENDROOT
BRANCH   1  10
HETATM   10  C   UNL     1      -5.504  -1.398 -33.699  1.00  0.00     0.049 A 
HETATM   11  C   UNL     1      -6.545  -1.760 -34.589  1.00  0.00    -0.031 A 
HETATM   12  C   UNL     1      -6.600  -3.070 -35.094  1.00  0.00     0.009 A 
HETATM   13  C   UNL     1      -5.650  -4.014 -34.730  1.00  0.00     0.001 A 
HETATM   14  C   UNL     1      -4.613  -3.653 -33.877  1.00  0.00     0.009 A 
HETATM   15  C   UNL     1      -4.500  -2.343 -33.365  1.00  0.00    -0.031 A 
BRANCH  11  16
HETATM   16  C   UNL     1      -7.652  -0.815 -35.005  1.00  0.00     0.036 C 
HETATM   17  C   UNL     1      -7.109   0.481 -35.589  1.00  0.00     0.010 C 
ENDBRANCH  11  16
BRANCH  15  18
HETATM   18  C   UNL     1      -3.280  -2.067 -32.505  1.00  0.00     0.036 C 
HETATM   19  C   UNL     1      -2.755  -3.249 -31.699  1.00  0.00     0.010 C 
ENDBRANCH  15  18
ENDBRANCH   1  10
BRANCH   4  20
HETATM   20  C   UNL     1      -5.081   3.465 -32.968  1.00  0.00     0.014 A 
HETATM   21  C   UNL     1      -6.378   3.832 -33.457  1.00  0.00     0.061 A 
HETATM   22  C   UNL     1      -7.714   3.255 -33.156  1.00  0.00     0.073 C 
HETATM   23  N   UNL     1      -6.319   4.864 -34.307  1.00  0.00    -0.179 NA
HETATM   24  N   UNL     1      -5.026   5.182 -34.357  1.00  0.00    -0.282 N 
HETATM   25  H   UNL     1      -4.750   5.972 -34.932  1.00  0.00     0.189 HD
HETATM   26  C   UNL     1      -4.232   4.370 -33.601  1.00  0.00     0.034 A 
HETATM   27  C   UNL     1      -2.765   4.578 -33.546  1.00  0.00     0.070 C 
ENDBRANCH   4  20
TORSDOF 4
ENDMDL
MODEL 3
REMARK VINA RESULT:      -7.9      2.897      4.803
REMARK  4 active torsions:
REMARK  status: ('A' for Active; 'I' for Inactive)
REMARK    1  A    between atoms: C_2  and  C_3 
REMARK    2  A    between atoms: C_4  and  N_5 
REMARK       I    between atoms: N_5  and  C_6 
REMARK       I    between atoms: C_6  and  N_7 
REMARK    3  A    between atoms: C_8  and  C_9 
REMARK    4  A    between atoms: C_21  and  C_22 
ROOT
HETATM    1  N   UNL     1      -7.024   1.329 -32.914  1.00  0.00    -0.308 N 
HETATM    2  C   UNL     1      -7.705   1.556 -31.738  1.00  0.00     0.323 C 
HETATM    3  N   UNL     1      -8.760   2.448 -31.850  1.00  0.00    -0.325 N 
HETATM    4  C   UNL     1      -8.975   3.404 -32.938  1.00  0.00     0.126 C 
HETATM    5  C   UNL     1      -9.372   4.680 -32.177  1.00  0.00     0.032 C 
HETATM    6  C   UNL     1     -10.184   4.143 -31.006  1.00  0.00     0.022 C 
HETATM    7  C   UNL     1      -9.406   2.896 -30.622  1.00  0.00     0.128 C 
HETATM    8  O   UNL     1      -7.425   1.030 -30.663  1.00  0.00    -0.247 OA
HETATM    9  H   UNL     1      -7.660   1.175 -33.683  1.00  0.00     0.170 HD
ENDROOT
BRANCH   1  10
HETATM   10  C   UNL     1      -5.808   0.598 -32.946  1.00  0.00     0.049 A 
HETATM   11  C   UNL     1      -5.826  -0.734 -33.428  1.00  0.00    -0.031 A 
HETATM   12  C   UNL     1      -4.630  -1.473 -33.462  1.00  0.00     0.009 A 
HETATM   13  C   UNL     1      -3.435  -0.916 -33.028  1.00  0.00     0.001 A 
HETATM   14  C   UNL     1      -3.413   0.400 -32.581  1.00  0.00     0.009 A 
HETATM   15  C   UNL     1      -4.581   1.190 -32.553  1.00  0.00    -0.031 A 
BRANCH  11  16
HETATM   16  C   UNL     1      -7.086  -1.443 -33.876  1.00  0.00     0.036 C 
HETATM   17  C   UNL     1      -6.783  -2.745 -34.601  1.00  0.00     0.010 C 
ENDBRANCH  11  16
BRANCH  15  18
HETATM   18  C   UNL     1      -4.399   2.632 -32.110  1.00  0.00     0.036 C 
HETATM   19  C   UNL     1      -3.071   3.279 -32.487  1.00  0.00     0.010 C 
ENDBRANCH  15  18
ENDBRANCH   1  10
BRANCH   4  20
HETATM   20  C   UNL     1     -10.042   2.946 -33.909  1.00  0.00     0.014 A 
HETATM   21  C   UNL     1     -10.733   1.697 -34.027  1.00  0.00     0.061 A 
HETATM   22  C   UNL     1     -10.613   0.455 -33.219  1.00  0.00     0.073 C 
HETATM   23  N   UNL     1     -11.617   1.707 -35.032  1.00  0.00    -0.179 NA
HETATM   24  N   UNL     1     -11.527   2.934 -35.544  1.00  0.00    -0.282 N 
HETATM   25  H   UNL     1     -12.141   3.177 -36.315  1.00  0.00     0.189 HD
HETATM   26  C   UNL     1     -10.588   3.714 -34.935  1.00  0.00     0.034 A 
HETATM   27  C   UNL     1     -10.351   5.108 -35.382  1.00  0.00     0.070 C 
ENDBRANCH   4  20
TORSDOF 4
ENDMDL
MODEL 4
REMARK VINA RESULT:      -7.8      4.616      7.186
REMARK  4 active torsions:
REMARK  status: ('A' for Active; 'I' for Inactive)
REMARK    1  A    between atoms: C_2  and  C_3 
REMARK    2  A    between atoms: C_4  and  N_5 
REMARK       I    between atoms: N_5  and  C_6 
REMARK       I    between atoms: C_6  and  N_7 
REMARK    3  A    between atoms: C_8  and  C_9 
REMARK    4  A    between atoms: C_21  and  C_22 
ROOT
HETATM    1  N   UNL     1      -9.396   1.790 -32.709  1.00  0.00    -0.308 N 
HETATM    2  C   UNL     1      -9.482   2.836 -33.603  1.00  0.00     0.323 C 
HETATM    3  N   UNL     1     -10.728   2.986 -34.189  1.00  0.00    -0.325 N 
HETATM    4  C   UNL     1     -11.790   1.979 -34.241  1.00  0.00     0.126 C 
HETATM    5  C   UNL     1     -12.273   2.087 -35.697  1.00  0.00     0.032 C 
HETATM    6  C   UNL     1     -12.151   3.577 -35.988  1.00  0.00     0.022 C 
HETATM    7  C   UNL     1     -10.852   3.936 -35.288  1.00  0.00     0.128 C 
HETATM    8  O   UNL     1      -8.551   3.588 -33.880  1.00  0.00    -0.247 OA
HETATM    9  H   UNL     1     -10.189   1.774 -32.085  1.00  0.00     0.170 HD
ENDROOT
BRANCH   1  10
HETATM   10  C   UNL     1      -8.155   1.372 -32.162  1.00  0.00     0.049 A 
HETATM   11  C   UNL     1      -7.696   1.981 -30.969  1.00  0.00    -0.031 A 
HETATM   12  C   UNL     1      -6.467   1.582 -30.416  1.00  0.00     0.009 A 
HETATM   13  C   UNL     1      -5.696   0.602 -31.026  1.00  0.00     0.001 A 
HETATM   14  C   UNL     1      -6.158  -0.015 -32.183  1.00  0.00     0.009 A 
HETATM   15  C   UNL     1      -7.398   0.332 -32.760  1.00  0.00    -0.031 A 
BRANCH  11  16
HETATM   16  C   UNL     1      -8.442   3.092 -30.259  1.00  0.00     0.036 C 
HETATM   17  C   UNL     1      -7.726   4.428 -30.380  1.00  0.00     0.010 C 
ENDBRANCH  11  16
BRANCH  15  18
HETATM   18  C   UNL     1      -7.813  -0.472 -33.980  1.00  0.00     0.036 C 
HETATM   19  C   UNL     1      -7.431   0.125 -35.330  1.00  0.00     0.010 C 
ENDBRANCH  15  18
ENDBRANCH   1  10
BRANCH   4  20
HETATM   20  C   UNL     1     -12.892   2.248 -33.239  1.00  0.00     0.014 A 
HETATM   21  C   UNL     1     -13.046   3.289 -32.266  1.00  0.00     0.061 A 
HETATM   22  C   UNL     1     -12.160   4.438 -31.944  1.00  0.00     0.073 C 
HETATM   23  N   UNL     1     -14.185   3.163 -31.574  1.00  0.00    -0.179 NA
HETATM   24  N   UNL     1     -14.773   2.085 -32.092  1.00  0.00    -0.282 N 
HETATM   25  H   UNL     1     -15.681   1.815 -31.728  1.00  0.00     0.189 HD
HETATM   26  C   UNL     1     -14.041   1.480 -33.071  1.00  0.00     0.034 A 
HETATM   27  C   UNL     1     -14.544   0.262 -33.753  1.00  0.00     0.070 C 
ENDBRANCH   4  20
TORSDOF 4
ENDMDL
MODEL 5
REMARK VINA RESULT:      -7.8      2.880      4.580
REMARK  4 active torsions:
REMARK  status: ('A' for Active; 'I' for Inactive)
REMARK    1  A    between atoms: C_2  and  C_3 
REMARK    2  A    between atoms: C_4  and  N_5 
REMARK       I    between atoms: N_5  and  C_6 
REMARK       I    between atoms: C_6  and  N_7 
REMARK    3  A    between atoms: C_8  and  C_9 
REMARK    4  A    between atoms: C_21  and  C_22 
ROOT
HETATM    1  N   UNL     1      -7.043   1.333 -32.998  1.00  0.00    -0.308 N 
HETATM    2  C   UNL     1      -7.727   1.519 -31.816  1.00  0.00     0.323 C 
HETATM    3  N   UNL     1      -8.763   2.437 -31.893  1.00  0.00    -0.325 N 
HETATM    4  C   UNL     1      -8.950   3.447 -32.936  1.00  0.00     0.126 C 
HETATM    5  C   UNL     1      -9.327   4.695 -32.119  1.00  0.00     0.032 C 
HETATM    6  C   UNL     1     -10.157   4.120 -30.979  1.00  0.00     0.022 C 
HETATM    7  C   UNL     1      -9.407   2.841 -30.649  1.00  0.00     0.128 C 
HETATM    8  O   UNL     1      -7.465   0.939 -30.765  1.00  0.00    -0.247 OA
HETATM    9  H   UNL     1      -7.677   1.228 -33.776  1.00  0.00     0.170 HD
ENDROOT
BRANCH   1  10
HETATM   10  C   UNL     1      -5.842   0.579 -33.057  1.00  0.00     0.049 A 
HETATM   11  C   UNL     1      -4.639   1.177 -32.607  1.00  0.00    -0.031 A 
HETATM   12  C   UNL     1      -3.440   0.446 -32.663  1.00  0.00     0.009 A 
HETATM   13  C   UNL     1      -3.419  -0.852 -33.155  1.00  0.00     0.001 A 
HETATM   14  C   UNL     1      -4.603  -1.448 -33.572  1.00  0.00     0.009 A 
HETATM   15  C   UNL     1      -5.836  -0.764 -33.511  1.00  0.00    -0.031 A 
BRANCH  11  16
HETATM   16  C   UNL     1      -4.554   2.601 -32.101  1.00  0.00     0.036 C 
HETATM   17  C   UNL     1      -3.218   3.247 -32.434  1.00  0.00     0.010 C 
ENDBRANCH  11  16
BRANCH  15  18
HETATM   18  C   UNL     1      -7.060  -1.560 -33.929  1.00  0.00     0.036 C 
HETATM   19  C   UNL     1      -6.784  -2.888 -34.625  1.00  0.00     0.010 C 
ENDBRANCH  15  18
ENDBRANCH   1  10
BRANCH   4  20
HETATM   20  C   UNL     1     -10.020   3.057 -33.933  1.00  0.00     0.014 A 
HETATM   21  C   UNL     1     -10.762   1.841 -34.090  1.00  0.00     0.061 A 
HETATM   22  C   UNL     1     -10.708   0.578 -33.310  1.00  0.00     0.073 C 
HETATM   23  N   UNL     1     -11.629   1.912 -35.108  1.00  0.00    -0.179 NA
HETATM   24  N   UNL     1     -11.478   3.145 -35.590  1.00  0.00    -0.282 N 
HETATM   25  H   UNL     1     -12.068   3.431 -36.365  1.00  0.00     0.189 HD
HETATM   26  C   UNL     1     -10.517   3.870 -34.949  1.00  0.00     0.034 A 
HETATM   27  C   UNL     1     -10.213   5.262 -35.361  1.00  0.00     0.070 C 
ENDBRANCH   4  20
TORSDOF 4
ENDMDL
MODEL 6
REMARK VINA RESULT:      -7.8      4.633      7.241
REMARK  4 active torsions:
REMARK  status: ('A' for Active; 'I' for Inactive)
REMARK    1  A    between atoms: C_2  and  C_3 
REMARK    2  A    between atoms: C_4  and  N_5 
REMARK       I    between atoms: N_5  and  C_6 
REMARK       I    between atoms: C_6  and  N_7 
REMARK    3  A    between atoms: C_8  and  C_9 
REMARK    4  A    between atoms: C_21  and  C_22 
ROOT
HETATM    1  N   UNL     1      -9.442   1.752 -32.697  1.00  0.00    -0.308 N 
HETATM    2  C   UNL     1      -9.509   2.809 -33.581  1.00  0.00     0.323 C 
HETATM    3  N   UNL     1     -10.746   2.974 -34.182  1.00  0.00    -0.325 N 
HETATM    4  C   UNL     1     -11.814   1.975 -34.258  1.00  0.00     0.126 C 
HETATM    5  C   UNL     1     -12.277   2.102 -35.719  1.00  0.00     0.032 C 
HETATM    6  C   UNL     1     -12.141   3.594 -35.993  1.00  0.00     0.022 C 
HETATM    7  C   UNL     1     -10.849   3.937 -35.272  1.00  0.00     0.128 C 
HETATM    8  O   UNL     1      -8.569   3.557 -33.837  1.00  0.00    -0.247 OA
HETATM    9  H   UNL     1     -10.243   1.736 -32.084  1.00  0.00     0.170 HD
ENDROOT
BRANCH   1  10
HETATM   10  C   UNL     1      -8.211   1.320 -32.138  1.00  0.00     0.049 A 
HETATM   11  C   UNL     1      -7.493   0.287 -32.789  1.00  0.00    -0.031 A 
HETATM   12  C   UNL     1      -6.274  -0.156 -32.246  1.00  0.00     0.009 A 
HETATM   13  C   UNL     1      -5.768   0.403 -31.081  1.00  0.00     0.001 A 
HETATM   14  C   UNL     1      -6.460   1.435 -30.456  1.00  0.00     0.009 A 
HETATM   15  C   UNL     1      -7.673   1.932 -30.978  1.00  0.00    -0.031 A 
BRANCH  11  16
HETATM   16  C   UNL     1      -7.987  -0.417 -34.035  1.00  0.00     0.036 C 
HETATM   17  C   UNL     1      -7.393   0.180 -35.301  1.00  0.00     0.010 C 
ENDBRANCH  11  16
BRANCH  15  18
HETATM   18  C   UNL     1      -8.284   3.109 -30.237  1.00  0.00     0.036 C 
HETATM   19  C   UNL     1      -7.577   4.447 -30.419  1.00  0.00     0.010 C 
ENDBRANCH  15  18
ENDBRANCH   1  10
BRANCH   4  20
HETATM   20  C   UNL     1     -12.927   2.241 -33.268  1.00  0.00     0.014 A 
HETATM   21  C   UNL     1     -13.082   3.267 -32.278  1.00  0.00     0.061 A 
HETATM   22  C   UNL     1     -12.185   4.397 -31.922  1.00  0.00     0.073 C 
HETATM   23  N   UNL     1     -14.232   3.144 -31.606  1.00  0.00    -0.179 NA
HETATM   24  N   UNL     1     -14.828   2.084 -32.153  1.00  0.00    -0.282 N 
HETATM   25  H   UNL     1     -15.745   1.820 -31.808  1.00  0.00     0.189 HD
HETATM   26  C   UNL     1     -14.090   1.487 -33.132  1.00  0.00     0.034 A 
HETATM   27  C   UNL     1     -14.599   0.289 -33.844  1.00  0.00     0.070 C 
ENDBRANCH   4  20
TORSDOF 4
ENDMDL
MODEL 7
REMARK VINA RESULT:      -7.3      4.933      9.005
REMARK  4 active torsions:
REMARK  status: ('A' for Active; 'I' for Inactive)
REMARK    1  A    between atoms: C_2  and  C_3 
REMARK    2  A    between atoms: C_4  and  N_5 
REMARK       I    between atoms: N_5  and  C_6 
REMARK       I    between atoms: C_6  and  N_7 
REMARK    3  A    between atoms: C_8  and  C_9 
REMARK    4  A    between atoms: C_21  and  C_22 
ROOT
HETATM    1  N   UNL     1      -1.875   6.934 -30.567  1.00  0.00    -0.308 N 
HETATM    2  C   UNL     1      -1.987   7.352 -31.876  1.00  0.00     0.323 C 
HETATM    3  N   UNL     1      -2.538   6.411 -32.731  1.00  0.00    -0.325 N 
HETATM    4  C   UNL     1      -2.655   4.973 -32.479  1.00  0.00     0.126 C 
HETATM    5  C   UNL     1      -2.211   4.369 -33.821  1.00  0.00     0.032 C 
HETATM    6  C   UNL     1      -2.760   5.357 -34.841  1.00  0.00     0.022 C 
HETATM    7  C   UNL     1      -2.509   6.692 -34.161  1.00  0.00     0.128 C 
HETATM    8  O   UNL     1      -1.635   8.456 -32.283  1.00  0.00    -0.247 OA
HETATM    9  H   UNL     1      -2.721   6.485 -30.251  1.00  0.00     0.170 HD
ENDROOT
BRANCH   1  10
HETATM   10  C   UNL     1      -1.164   7.690 -29.598  1.00  0.00     0.049 A 
HETATM   11  C   UNL     1       0.202   7.392 -29.370  1.00  0.00    -0.031 A 
HETATM   12  C   UNL     1       0.920   8.127 -28.411  1.00  0.00     0.009 A 
HETATM   13  C   UNL     1       0.308   9.139 -27.684  1.00  0.00     0.001 A 
HETATM   14  C   UNL     1      -1.025   9.449 -27.926  1.00  0.00     0.009 A 
HETATM   15  C   UNL     1      -1.780   8.757 -28.897  1.00  0.00    -0.031 A 
BRANCH  11  16
HETATM   16  C   UNL     1       0.943   6.277 -30.078  1.00  0.00     0.036 C 
HETATM   17  C   UNL     1       0.826   4.954 -29.337  1.00  0.00     0.010 C 
ENDBRANCH  11  16
BRANCH  15  18
HETATM   18  C   UNL     1      -3.202   9.248 -29.110  1.00  0.00     0.036 C 
HETATM   19  C   UNL     1      -3.355  10.465 -30.015  1.00  0.00     0.010 C 
ENDBRANCH  15  18
ENDBRANCH   1  10
BRANCH   4  20
HETATM   20  C   UNL     1      -4.060   4.566 -32.092  1.00  0.00     0.014 A 
HETATM   21  C   UNL     1      -5.277   5.321 -32.035  1.00  0.00     0.061 A 
HETATM   22  C   UNL     1      -5.532   6.752 -32.346  1.00  0.00     0.073 C 
HETATM   23  N   UNL     1      -6.313   4.571 -31.642  1.00  0.00    -0.179 NA
HETATM   24  N   UNL     1      -5.799   3.355 -31.468  1.00  0.00    -0.282 N 
HETATM   25  H   UNL     1      -6.425   2.605 -31.191  1.00  0.00     0.189 HD
HETATM   26  C   UNL     1      -4.456   3.291 -31.696  1.00  0.00     0.034 A 
HETATM   27  C   UNL     1      -3.718   2.012 -31.543  1.00  0.00     0.070 C 
ENDBRANCH   4  20
TORSDOF 4
ENDMDL
MODEL 8
REMARK VINA RESULT:      -7.1      3.883      8.149
REMARK  4 active torsions:
REMARK  status: ('A' for Active; 'I' for Inactive)
REMARK    1  A    between atoms: C_2  and  C_3 
REMARK    2  A    between atoms: C_4  and  N_5 
REMARK       I    between atoms: N_5  and  C_6 
REMARK       I    between atoms: C_6  and  N_7 
REMARK    3  A    between atoms: C_8  and  C_9 
REMARK    4  A    between atoms: C_21  and  C_22 
ROOT
HETATM    1  N   UNL     1      -3.109   5.719 -30.640  1.00  0.00    -0.308 N 
HETATM    2  C   UNL     1      -3.971   6.343 -31.517  1.00  0.00     0.323 C 
HETATM    3  N   UNL     1      -4.965   5.520 -32.024  1.00  0.00    -0.325 N 
HETATM    4  C   UNL     1      -4.964   4.056 -32.020  1.00  0.00     0.126 C 
HETATM    5  C   UNL     1      -5.445   3.725 -33.442  1.00  0.00     0.032 C 
HETATM    6  C   UNL     1      -6.458   4.826 -33.727  1.00  0.00     0.022 C 
HETATM    7  C   UNL     1      -5.793   6.042 -33.104  1.00  0.00     0.128 C 
HETATM    8  O   UNL     1      -3.892   7.524 -31.843  1.00  0.00    -0.247 OA
HETATM    9  H   UNL     1      -3.611   5.158 -29.969  1.00  0.00     0.170 HD
ENDROOT
BRANCH   1  10
HETATM   10  C   UNL     1      -1.928   6.353 -30.174  1.00  0.00     0.049 A 
HETATM   11  C   UNL     1      -0.765   6.306 -30.982  1.00  0.00    -0.031 A 
HETATM   12  C   UNL     1       0.415   6.924 -30.533  1.00  0.00     0.009 A 
HETATM   13  C   UNL     1       0.456   7.577 -29.309  1.00  0.00     0.001 A 
HETATM   14  C   UNL     1      -0.691   7.646 -28.528  1.00  0.00     0.009 A 
HETATM   15  C   UNL     1      -1.907   7.064 -28.948  1.00  0.00    -0.031 A 
BRANCH  11  16
HETATM   16  C   UNL     1      -0.699   5.577 -32.308  1.00  0.00     0.036 C 
HETATM   17  C   UNL     1      -0.885   6.519 -33.487  1.00  0.00     0.010 C 
ENDBRANCH  11  16
BRANCH  15  18
HETATM   18  C   UNL     1      -3.099   7.278 -28.031  1.00  0.00     0.036 C 
HETATM   19  C   UNL     1      -2.813   7.182 -26.537  1.00  0.00     0.010 C 
ENDBRANCH  15  18
ENDBRANCH   1  10
BRANCH   4  20
HETATM   20  C   UNL     1      -5.866   3.480 -30.949  1.00  0.00     0.014 A 
HETATM   21  C   UNL     1      -6.900   4.086 -30.164  1.00  0.00     0.061 A 
HETATM   22  C   UNL     1      -7.410   5.482 -30.164  1.00  0.00     0.073 C 
HETATM   23  N   UNL     1      -7.465   3.213 -29.322  1.00  0.00    -0.179 NA
HETATM   24  N   UNL     1      -6.839   2.062 -29.563  1.00  0.00    -0.282 N 
HETATM   25  H   UNL     1      -7.132   1.240 -29.045  1.00  0.00     0.189 HD
HETATM   26  C   UNL     1      -5.857   2.160 -30.505  1.00  0.00     0.034 A 
HETATM   27  C   UNL     1      -5.054   0.975 -30.892  1.00  0.00     0.070 C 
ENDBRANCH   4  20
TORSDOF 4
ENDMDL
MODEL 9
REMARK VINA RESULT:      -7.1      4.218      8.490
REMARK  4 active torsions:
REMARK  status: ('A' for Active; 'I' for Inactive)
REMARK    1  A    between atoms: C_2  and  C_3 
REMARK    2  A    between atoms: C_4  and  N_5 
REMARK       I    between atoms: N_5  and  C_6 
REMARK       I    between atoms: C_6  and  N_7 
REMARK    3  A    between atoms: C_8  and  C_9 
REMARK    4  A    between atoms: C_21  and  C_22 
ROOT
HETATM    1  N   UNL     1      -2.897   6.021 -30.253  1.00  0.00    -0.308 N 
HETATM    2  C   UNL     1      -3.502   6.442 -31.418  1.00  0.00     0.323 C 
HETATM    3  N   UNL     1      -4.403   5.535 -31.953  1.00  0.00    -0.325 N 
HETATM    4  C   UNL     1      -4.489   4.108 -31.636  1.00  0.00     0.126 C 
HETATM    5  C   UNL     1      -4.658   3.473 -33.026  1.00  0.00     0.032 C 
HETATM    6  C   UNL     1      -5.514   4.492 -33.767  1.00  0.00     0.022 C 
HETATM    7  C   UNL     1      -4.936   5.810 -33.282  1.00  0.00     0.128 C 
HETATM    8  O   UNL     1      -3.282   7.521 -31.963  1.00  0.00    -0.247 OA
HETATM    9  H   UNL     1      -3.568   5.627 -29.612  1.00  0.00     0.170 HD
ENDROOT
BRANCH   1  10
HETATM   10  C   UNL     1      -1.814   6.733 -29.673  1.00  0.00     0.049 A 
HETATM   11  C   UNL     1      -2.087   7.672 -28.647  1.00  0.00    -0.031 A 
HETATM   12  C   UNL     1      -1.027   8.388 -28.065  1.00  0.00     0.009 A 
HETATM   13  C   UNL     1       0.282   8.190 -28.484  1.00  0.00     0.001 A 
HETATM   14  C   UNL     1       0.553   7.251 -29.472  1.00  0.00     0.009 A 
HETATM   15  C   UNL     1      -0.474   6.488 -30.067  1.00  0.00    -0.031 A 
BRANCH  11  16
HETATM   16  C   UNL     1      -3.484   7.991 -28.158  1.00  0.00     0.036 C 
HETATM   17  C   UNL     1      -3.853   7.188 -26.920  1.00  0.00     0.010 C 
ENDBRANCH  11  16
BRANCH  15  18
HETATM   18  C   UNL     1      -0.029   5.448 -31.079  1.00  0.00     0.036 C 
HETATM   19  C   UNL     1       1.305   4.769 -30.791  1.00  0.00     0.010 C 
ENDBRANCH  15  18
ENDBRANCH   1  10
BRANCH   4  20
HETATM   20  C   UNL     1      -5.640   3.791 -30.706  1.00  0.00     0.014 A 
HETATM   21  C   UNL     1      -6.660   4.631 -30.150  1.00  0.00     0.061 A 
HETATM   22  C   UNL     1      -6.902   6.087 -30.323  1.00  0.00     0.073 C 
HETATM   23  N   UNL     1      -7.502   3.944 -29.368  1.00  0.00    -0.179 NA
HETATM   24  N   UNL     1      -7.064   2.688 -29.427  1.00  0.00    -0.282 N 
HETATM   25  H   UNL     1      -7.581   1.977 -28.919  1.00  0.00     0.189 HD
HETATM   26  C   UNL     1      -5.942   2.534 -30.188  1.00  0.00     0.034 A 
HETATM   27  C   UNL     1      -5.315   1.200 -30.357  1.00  0.00     0.070 C 
ENDBRANCH   4  20
TORSDOF 4
ENDMDL
MODEL 10
REMARK VINA RESULT:      -7.0     15.010     16.914
REMARK  4 active torsions:
REMARK  status: ('A' for Active; 'I' for Inactive)
REMARK    1  A    between atoms: C_2  and  C_3 
REMARK    2  A    between atoms: C_4  and  N_5 
REMARK       I    between atoms: N_5  and  C_6 
REMARK       I    between atoms: C_6  and  N_7 
REMARK    3  A    between atoms: C_8  and  C_9 
REMARK    4  A    between atoms: C_21  and  C_22 
ROOT
HETATM    1  N   UNL     1      -4.499 -14.323 -38.727  1.00  0.00    -0.308 N 
HETATM    2  C   UNL     1      -5.407 -13.286 -38.717  1.00  0.00     0.323 C 
HETATM    3  N   UNL     1      -6.667 -13.633 -38.256  1.00  0.00    -0.325 N 
HETATM    4  C   UNL     1      -7.206 -14.990 -38.144  1.00  0.00     0.126 C 
HETATM    5  C   UNL     1      -8.627 -14.825 -38.710  1.00  0.00     0.032 C 
HETATM    6  C   UNL     1      -9.027 -13.436 -38.230  1.00  0.00     0.022 C 
HETATM    7  C   UNL     1      -7.737 -12.653 -38.399  1.00  0.00     0.128 C 
HETATM    8  O   UNL     1      -5.154 -12.140 -39.082  1.00  0.00    -0.247 OA
HETATM    9  H   UNL     1      -4.531 -14.847 -37.865  1.00  0.00     0.170 HD
ENDROOT
BRANCH   1  10
HETATM   10  C   UNL     1      -3.226 -14.198 -39.341  1.00  0.00     0.049 A 
HETATM   11  C   UNL     1      -2.121 -13.805 -38.546  1.00  0.00    -0.031 A 
HETATM   12  C   UNL     1      -0.854 -13.672 -39.140  1.00  0.00     0.009 A 
HETATM   13  C   UNL     1      -0.672 -13.918 -40.494  1.00  0.00     0.001 A 
HETATM   14  C   UNL     1      -1.751 -14.329 -41.269  1.00  0.00     0.009 A 
HETATM   15  C   UNL     1      -3.036 -14.502 -40.713  1.00  0.00    -0.031 A 
BRANCH  11  16
HETATM   16  C   UNL     1      -2.230 -13.468 -37.074  1.00  0.00     0.036 C 
HETATM   17  C   UNL     1      -1.529 -14.497 -36.200  1.00  0.00     0.010 C 
ENDBRANCH  11  16
BRANCH  15  18
HETATM   18  C   UNL     1      -4.104 -15.026 -41.657  1.00  0.00     0.036 C 
HETATM   19  C   UNL     1      -4.926 -13.966 -42.383  1.00  0.00     0.010 C 
ENDBRANCH  15  18
ENDBRANCH   1  10
BRANCH   4  20
HETATM   20  C   UNL     1      -7.200 -15.499 -36.719  1.00  0.00     0.014 A 
HETATM   21  C   UNL     1      -6.728 -14.898 -35.507  1.00  0.00     0.061 A 
HETATM   22  C   UNL     1      -6.096 -13.573 -35.277  1.00  0.00     0.073 C 
HETATM   23  N   UNL     1      -6.918 -15.693 -34.447  1.00  0.00    -0.179 NA
HETATM   24  N   UNL     1      -7.518 -16.774 -34.943  1.00  0.00    -0.282 N 
HETATM   25  H   UNL     1      -7.785 -17.512 -34.299  1.00  0.00     0.189 HD
HETATM   26  C   UNL     1      -7.692 -16.731 -36.296  1.00  0.00     0.034 A 
HETATM   27  C   UNL     1      -8.339 -17.855 -37.015  1.00  0.00     0.070 C 
ENDBRANCH   4  20
TORSDOF 4
ENDMDL
