MODEL 1
REMARK VINA RESULT:      -8.2      0.000      0.000
REMARK  7 active torsions:
REMARK  status: ('A' for Active; 'I' for Inactive)
REMARK    1  A    between atoms: S_2  and  C_3 
REMARK    2  A    between atoms: C_6  and  C_7 
REMARK    3  A    between atoms: N_8  and  C_9 
REMARK    4  A    between atoms: C_9  and  C_10 
REMARK    5  A    between atoms: C_10  and  C_11 
REMARK    6  A    between atoms: C_24  and  C_25 
REMARK    7  A    between atoms: C_26  and  O_27 
ROOT
HETATM    1  C   UNL     1      -8.445   2.639 -32.673  1.00  0.00     0.159 A 
HETATM    2  N   UNL     1      -7.456   3.739 -32.606  1.00  0.00    -0.333 N 
HETATM    3  C   UNL     1      -7.646   4.745 -33.566  1.00  0.00     0.275 A 
HETATM    4  O   UNL     1      -6.953   5.730 -33.761  1.00  0.00    -0.266 OA
HETATM    5  C   UNL     1      -8.874   4.365 -34.231  1.00  0.00     0.155 A 
HETATM    6  C   UNL     1      -9.370   3.165 -33.708  1.00  0.00     0.034 A 
HETATM    7  N   UNL     1      -9.664   4.905 -35.152  1.00  0.00    -0.168 NA
HETATM    8  N   UNL     1     -10.681   4.012 -35.219  1.00  0.00    -0.276 N 
HETATM    9  H   UNL     1     -11.435   4.186 -35.877  1.00  0.00     0.189 HD
HETATM   10  C   UNL     1     -10.596   2.980 -34.297  1.00  0.00     0.074 A 
ENDROOT
BRANCH   1  11
HETATM   11  C   UNL     1      -7.860   1.351 -33.218  1.00  0.00    -0.031 A 
HETATM   12  C   UNL     1      -7.283   1.336 -34.497  1.00  0.00     0.011 A 
HETATM   13  C   UNL     1      -6.693   0.172 -35.005  1.00  0.00     0.019 A 
HETATM   14  C   UNL     1      -6.662  -0.999 -34.245  1.00  0.00    -0.000 A 
HETATM   15  C   UNL     1      -7.274  -1.011 -32.992  1.00  0.00     0.019 A 
HETATM   16  C   UNL     1      -7.866   0.148 -32.485  1.00  0.00     0.011 A 
BRANCH  14  17
HETATM   17  S   UNL     1      -5.867  -2.451 -34.908  1.00  0.00    -0.134 SA
HETATM   18  C   UNL     1      -7.075  -3.715 -34.418  1.00  0.00     0.095 C 
ENDBRANCH  14  17
ENDBRANCH   1  11
BRANCH   2  19
HETATM   19  C   UNL     1      -6.404   3.773 -31.602  1.00  0.00     0.132 C 
BRANCH  19  20
HETATM   20  C   UNL     1      -5.031   3.421 -32.190  1.00  0.00     0.058 C 
BRANCH  20  21
HETATM   21  C   UNL     1      -4.608   2.001 -31.906  1.00  0.00    -0.057 A 
HETATM   22  C   UNL     1      -5.016   1.348 -30.735  1.00  0.00     0.007 A 
HETATM   23  C   UNL     1      -4.638   0.027 -30.493  1.00  0.00     0.001 A 
HETATM   24  C   UNL     1      -3.853  -0.658 -31.419  1.00  0.00     0.000 A 
HETATM   25  C   UNL     1      -3.445  -0.020 -32.589  1.00  0.00     0.001 A 
HETATM   26  C   UNL     1      -3.820   1.301 -32.831  1.00  0.00     0.007 A 
ENDBRANCH  20  21
ENDBRANCH  19  20
ENDBRANCH   2  19
BRANCH  10  27
HETATM   27  C   UNL     1     -11.665   2.004 -34.116  1.00  0.00     0.026 A 
HETATM   28  C   UNL     1     -12.998   2.303 -34.442  1.00  0.00     0.078 A 
HETATM   29  C   UNL     1     -14.004   1.346 -34.328  1.00  0.00     0.037 A 
HETATM   30  C   UNL     1     -13.698   0.075 -33.850  1.00  0.00     0.003 A 
HETATM   31  C   UNL     1     -12.385  -0.238 -33.503  1.00  0.00     0.001 A 
HETATM   32  C   UNL     1     -11.373   0.718 -33.645  1.00  0.00     0.016 A 
BRANCH  28  33
HETATM   33  O   UNL     1     -13.387   3.543 -34.876  1.00  0.00    -0.360 OA
HETATM   34  H   UNL     1     -12.585   4.047 -35.100  1.00  0.00     0.217 HD
ENDBRANCH  28  33
ENDBRANCH  10  27
TORSDOF 7
ENDMDL
MODEL 2
REMARK VINA RESULT:      -8.1      3.421      6.309
REMARK  7 active torsions:
REMARK  status: ('A' for Active; 'I' for Inactive)
REMARK    1  A    between atoms: S_2  and  C_3 
REMARK    2  A    between atoms: C_6  and  C_7 
REMARK    3  A    between atoms: N_8  and  C_9 
REMARK    4  A    between atoms: C_9  and  C_10 
REMARK    5  A    between atoms: C_10  and  C_11 
REMARK    6  A    between atoms: C_24  and  C_25 
REMARK    7  A    between atoms: C_26  and  O_27 
ROOT
HETATM    1  C   UNL     1      -5.974   2.027 -33.478  1.00  0.00     0.159 A 
HETATM    2  N   UNL     1      -5.567   3.266 -32.776  1.00  0.00    -0.333 N 
HETATM    3  C   UNL     1      -4.958   3.050 -31.529  1.00  0.00     0.275 A 
HETATM    4  O   UNL     1      -4.576   3.890 -30.731  1.00  0.00    -0.266 OA
HETATM    5  C   UNL     1      -4.848   1.610 -31.440  1.00  0.00     0.155 A 
HETATM    6  C   UNL     1      -5.402   1.000 -32.572  1.00  0.00     0.034 A 
HETATM    7  N   UNL     1      -4.299   0.748 -30.591  1.00  0.00    -0.168 NA
HETATM    8  N   UNL     1      -4.525  -0.441 -31.202  1.00  0.00    -0.276 N 
HETATM    9  H   UNL     1      -4.207  -1.289 -30.742  1.00  0.00     0.189 HD
HETATM   10  C   UNL     1      -5.113  -0.338 -32.453  1.00  0.00     0.074 A 
ENDROOT
BRANCH   1  11
HETATM   11  C   UNL     1      -7.475   1.820 -33.490  1.00  0.00    -0.031 A 
HETATM   12  C   UNL     1      -8.102   1.345 -34.652  1.00  0.00     0.011 A 
HETATM   13  C   UNL     1      -9.480   1.098 -34.675  1.00  0.00     0.019 A 
HETATM   14  C   UNL     1     -10.260   1.317 -33.538  1.00  0.00    -0.000 A 
HETATM   15  C   UNL     1      -9.658   1.833 -32.392  1.00  0.00     0.019 A 
HETATM   16  C   UNL     1      -8.283   2.083 -32.367  1.00  0.00     0.011 A 
BRANCH  14  17
HETATM   17  S   UNL     1     -12.005   0.955 -33.591  1.00  0.00    -0.134 SA
HETATM   18  C   UNL     1     -12.411   1.628 -35.228  1.00  0.00     0.095 C 
ENDBRANCH  14  17
ENDBRANCH   1  11
BRANCH   2  19
HETATM   19  C   UNL     1      -5.762   4.584 -33.359  1.00  0.00     0.132 C 
BRANCH  19  20
HETATM   20  C   UNL     1      -4.846   4.825 -34.566  1.00  0.00     0.058 C 
BRANCH  20  21
HETATM   21  C   UNL     1      -3.530   5.466 -34.197  1.00  0.00    -0.057 A 
HETATM   22  C   UNL     1      -2.364   5.183 -34.919  1.00  0.00     0.007 A 
HETATM   23  C   UNL     1      -1.157   5.798 -34.584  1.00  0.00     0.001 A 
HETATM   24  C   UNL     1      -1.104   6.706 -33.527  1.00  0.00     0.000 A 
HETATM   25  C   UNL     1      -2.259   6.999 -32.805  1.00  0.00     0.001 A 
HETATM   26  C   UNL     1      -3.466   6.382 -33.137  1.00  0.00     0.007 A 
ENDBRANCH  20  21
ENDBRANCH  19  20
ENDBRANCH   2  19
BRANCH  10  27
HETATM   27  C   UNL     1      -5.302  -1.492 -33.325  1.00  0.00     0.026 A 
HETATM   28  C   UNL     1      -4.342  -2.513 -33.414  1.00  0.00     0.078 A 
HETATM   29  C   UNL     1      -4.557  -3.643 -34.199  1.00  0.00     0.037 A 
HETATM   30  C   UNL     1      -5.730  -3.757 -34.941  1.00  0.00     0.003 A 
HETATM   31  C   UNL     1      -6.688  -2.746 -34.883  1.00  0.00     0.001 A 
HETATM   32  C   UNL     1      -6.479  -1.625 -34.072  1.00  0.00     0.016 A 
BRANCH  28  33
HETATM   33  O   UNL     1      -3.145  -2.454 -32.751  1.00  0.00    -0.360 OA
HETATM   34  H   UNL     1      -3.333  -2.315 -31.805  1.00  0.00     0.217 HD
ENDBRANCH  28  33
ENDBRANCH  10  27
TORSDOF 7
ENDMDL
MODEL 3
REMARK VINA RESULT:      -7.8      4.334      6.481
REMARK  7 active torsions:
REMARK  status: ('A' for Active; 'I' for Inactive)
REMARK    1  A    between atoms: S_2  and  C_3 
REMARK    2  A    between atoms: C_6  and  C_7 
REMARK    3  A    between atoms: N_8  and  C_9 
REMARK    4  A    between atoms: C_9  and  C_10 
REMARK    5  A    between atoms: C_10  and  C_11 
REMARK    6  A    between atoms: C_24  and  C_25 
REMARK    7  A    between atoms: C_26  and  O_27 
ROOT
HETATM    1  C   UNL     1      -6.301   1.971 -32.745  1.00  0.00     0.159 A 
HETATM    2  N   UNL     1      -5.759   0.602 -32.915  1.00  0.00    -0.333 N 
HETATM    3  C   UNL     1      -5.485  -0.063 -31.709  1.00  0.00     0.275 A 
HETATM    4  O   UNL     1      -4.993  -1.170 -31.564  1.00  0.00    -0.266 OA
HETATM    5  C   UNL     1      -5.966   0.846 -30.692  1.00  0.00     0.155 A 
HETATM    6  C   UNL     1      -6.471   2.017 -31.272  1.00  0.00     0.034 A 
HETATM    7  N   UNL     1      -6.103   0.811 -29.371  1.00  0.00    -0.168 NA
HETATM    8  N   UNL     1      -6.701   1.999 -29.111  1.00  0.00    -0.276 N 
HETATM    9  H   UNL     1      -6.911   2.234 -28.145  1.00  0.00     0.189 HD
HETATM   10  C   UNL     1      -7.029   2.733 -30.241  1.00  0.00     0.074 A 
ENDROOT
BRANCH   1  11
HETATM   11  C   UNL     1      -5.302   3.051 -33.109  1.00  0.00    -0.031 A 
HETATM   12  C   UNL     1      -5.669   4.061 -34.011  1.00  0.00     0.011 A 
HETATM   13  C   UNL     1      -4.783   5.099 -34.327  1.00  0.00     0.019 A 
HETATM   14  C   UNL     1      -3.514   5.151 -33.746  1.00  0.00    -0.000 A 
HETATM   15  C   UNL     1      -3.120   4.128 -32.885  1.00  0.00     0.019 A 
HETATM   16  C   UNL     1      -4.001   3.090 -32.571  1.00  0.00     0.011 A 
BRANCH  14  17
HETATM   17  S   UNL     1      -2.426   6.507 -34.141  1.00  0.00    -0.134 SA
HETATM   18  C   UNL     1      -1.017   5.586 -34.820  1.00  0.00     0.095 C 
ENDBRANCH  14  17
ENDBRANCH   1  11
BRANCH   2  19
HETATM   19  C   UNL     1      -5.564   0.005 -34.226  1.00  0.00     0.132 C 
BRANCH  19  20
HETATM   20  C   UNL     1      -6.602  -1.085 -34.526  1.00  0.00     0.058 C 
BRANCH  20  21
HETATM   21  C   UNL     1      -6.012  -2.473 -34.566  1.00  0.00    -0.057 A 
HETATM   22  C   UNL     1      -4.660  -2.690 -34.271  1.00  0.00     0.007 A 
HETATM   23  C   UNL     1      -4.130  -3.981 -34.289  1.00  0.00     0.001 A 
HETATM   24  C   UNL     1      -4.945  -5.069 -34.597  1.00  0.00     0.000 A 
HETATM   25  C   UNL     1      -6.293  -4.865 -34.887  1.00  0.00     0.001 A 
HETATM   26  C   UNL     1      -6.824  -3.575 -34.873  1.00  0.00     0.007 A 
ENDBRANCH  20  21
ENDBRANCH  19  20
ENDBRANCH   2  19
BRANCH  10  27
HETATM   27  C   UNL     1      -7.805   3.966 -30.174  1.00  0.00     0.026 A 
HETATM   28  C   UNL     1      -7.584   4.922 -29.168  1.00  0.00     0.078 A 
HETATM   29  C   UNL     1      -8.283   6.126 -29.147  1.00  0.00     0.037 A 
HETATM   30  C   UNL     1      -9.246   6.384 -30.119  1.00  0.00     0.003 A 
HETATM   31  C   UNL     1      -9.495   5.441 -31.115  1.00  0.00     0.001 A 
HETATM   32  C   UNL     1      -8.771   4.244 -31.148  1.00  0.00     0.016 A 
BRANCH  28  33
HETATM   33  O   UNL     1      -6.686   4.723 -28.152  1.00  0.00    -0.360 OA
HETATM   34  H   UNL     1      -6.067   4.025 -28.431  1.00  0.00     0.217 HD
ENDBRANCH  28  33
ENDBRANCH  10  27
TORSDOF 7
ENDMDL
MODEL 4
REMARK VINA RESULT:      -7.8      3.241      6.396
REMARK  7 active torsions:
REMARK  status: ('A' for Active; 'I' for Inactive)
REMARK    1  A    between atoms: S_2  and  C_3 
REMARK    2  A    between atoms: C_6  and  C_7 
REMARK    3  A    between atoms: N_8  and  C_9 
REMARK    4  A    between atoms: C_9  and  C_10 
REMARK    5  A    between atoms: C_10  and  C_11 
REMARK    6  A    between atoms: C_24  and  C_25 
REMARK    7  A    between atoms: C_26  and  O_27 
ROOT
HETATM    1  C   UNL     1      -7.056   1.061 -32.161  1.00  0.00     0.159 A 
HETATM    2  N   UNL     1      -8.282   1.848 -32.428  1.00  0.00    -0.333 N 
HETATM    3  C   UNL     1      -8.807   1.678 -33.719  1.00  0.00     0.275 A 
HETATM    4  O   UNL     1      -9.772   2.239 -34.210  1.00  0.00    -0.266 OA
HETATM    5  C   UNL     1      -7.970   0.653 -34.304  1.00  0.00     0.155 A 
HETATM    6  C   UNL     1      -6.968   0.260 -33.407  1.00  0.00     0.034 A 
HETATM    7  N   UNL     1      -7.963  -0.039 -35.438  1.00  0.00    -0.168 NA
HETATM    8  N   UNL     1      -6.920  -0.884 -35.254  1.00  0.00    -0.276 N 
HETATM    9  H   UNL     1      -6.685  -1.531 -36.001  1.00  0.00     0.189 HD
HETATM   10  C   UNL     1      -6.335  -0.806 -33.999  1.00  0.00     0.074 A 
ENDROOT
BRANCH   1  11
HETATM   11  C   UNL     1      -5.806   1.916 -32.098  1.00  0.00    -0.031 A 
HETATM   12  C   UNL     1      -5.501   2.780 -33.161  1.00  0.00     0.011 A 
HETATM   13  C   UNL     1      -4.379   3.617 -33.107  1.00  0.00     0.019 A 
HETATM   14  C   UNL     1      -3.541   3.611 -31.990  1.00  0.00    -0.000 A 
HETATM   15  C   UNL     1      -3.807   2.723 -30.948  1.00  0.00     0.019 A 
HETATM   16  C   UNL     1      -4.923   1.885 -31.001  1.00  0.00     0.011 A 
BRANCH  14  17
HETATM   17  S   UNL     1      -2.144   4.718 -31.938  1.00  0.00    -0.134 SA
HETATM   18  C   UNL     1      -1.851   4.929 -33.717  1.00  0.00     0.095 C 
ENDBRANCH  14  17
ENDBRANCH   1  11
BRANCH   2  19
HETATM   19  C   UNL     1      -8.892   2.695 -31.416  1.00  0.00     0.132 C 
BRANCH  19  20
HETATM   20  C   UNL     1      -8.706   4.187 -31.719  1.00  0.00     0.058 C 
BRANCH  20  21
HETATM   21  C   UNL     1      -7.558   4.810 -30.964  1.00  0.00    -0.057 A 
HETATM   22  C   UNL     1      -7.208   4.358 -29.686  1.00  0.00     0.007 A 
HETATM   23  C   UNL     1      -6.130   4.926 -29.005  1.00  0.00     0.001 A 
HETATM   24  C   UNL     1      -5.389   5.948 -29.595  1.00  0.00     0.000 A 
HETATM   25  C   UNL     1      -5.725   6.403 -30.869  1.00  0.00     0.001 A 
HETATM   26  C   UNL     1      -6.804   5.838 -31.550  1.00  0.00     0.007 A 
ENDBRANCH  20  21
ENDBRANCH  19  20
ENDBRANCH   2  19
BRANCH  10  27
HETATM   27  C   UNL     1      -5.297  -1.732 -33.562  1.00  0.00     0.026 A 
HETATM   28  C   UNL     1      -5.084  -2.960 -34.209  1.00  0.00     0.078 A 
HETATM   29  C   UNL     1      -4.050  -3.811 -33.828  1.00  0.00     0.037 A 
HETATM   30  C   UNL     1      -3.225  -3.462 -32.762  1.00  0.00     0.003 A 
HETATM   31  C   UNL     1      -3.430  -2.257 -32.093  1.00  0.00     0.001 A 
HETATM   32  C   UNL     1      -4.454  -1.393 -32.497  1.00  0.00     0.016 A 
BRANCH  28  33
HETATM   33  O   UNL     1      -5.881  -3.395 -35.236  1.00  0.00    -0.360 OA
HETATM   34  H   UNL     1      -6.769  -3.017 -35.108  1.00  0.00     0.217 HD
ENDBRANCH  28  33
ENDBRANCH  10  27
TORSDOF 7
ENDMDL
MODEL 5
REMARK VINA RESULT:      -7.7      3.094      7.143
REMARK  7 active torsions:
REMARK  status: ('A' for Active; 'I' for Inactive)
REMARK    1  A    between atoms: S_2  and  C_3 
REMARK    2  A    between atoms: C_6  and  C_7 
REMARK    3  A    between atoms: N_8  and  C_9 
REMARK    4  A    between atoms: C_9  and  C_10 
REMARK    5  A    between atoms: C_10  and  C_11 
REMARK    6  A    between atoms: C_24  and  C_25 
REMARK    7  A    between atoms: C_26  and  O_27 
ROOT
HETATM    1  C   UNL     1      -6.417   4.841 -31.690  1.00  0.00     0.159 A 
HETATM    2  N   UNL     1      -7.468   4.982 -30.655  1.00  0.00    -0.333 N 
HETATM    3  C   UNL     1      -6.997   5.441 -29.415  1.00  0.00     0.275 A 
HETATM    4  O   UNL     1      -7.636   5.598 -28.388  1.00  0.00    -0.266 OA
HETATM    5  C   UNL     1      -5.599   5.727 -29.656  1.00  0.00     0.155 A 
HETATM    6  C   UNL     1      -5.251   5.416 -30.976  1.00  0.00     0.034 A 
HETATM    7  N   UNL     1      -4.604   6.266 -28.961  1.00  0.00    -0.168 NA
HETATM    8  N   UNL     1      -3.596   6.284 -29.866  1.00  0.00    -0.276 N 
HETATM    9  H   UNL     1      -2.692   6.646 -29.577  1.00  0.00     0.189 HD
HETATM   10  C   UNL     1      -3.961   5.861 -31.136  1.00  0.00     0.074 A 
ENDROOT
BRANCH   1  11
HETATM   11  C   UNL     1      -6.079   3.395 -31.996  1.00  0.00    -0.031 A 
HETATM   12  C   UNL     1      -6.206   2.915 -33.309  1.00  0.00     0.011 A 
HETATM   13  C   UNL     1      -5.854   1.598 -33.628  1.00  0.00     0.019 A 
HETATM   14  C   UNL     1      -5.366   0.734 -32.645  1.00  0.00    -0.000 A 
HETATM   15  C   UNL     1      -5.281   1.184 -31.328  1.00  0.00     0.019 A 
HETATM   16  C   UNL     1      -5.634   2.497 -31.007  1.00  0.00     0.011 A 
BRANCH  14  17
HETATM   17  S   UNL     1      -4.891  -0.925 -33.095  1.00  0.00    -0.134 SA
HETATM   18  C   UNL     1      -3.500  -1.169 -31.953  1.00  0.00     0.095 C 
ENDBRANCH  14  17
ENDBRANCH   1  11
BRANCH   2  19
HETATM   19  C   UNL     1      -8.866   4.695 -30.930  1.00  0.00     0.132 C 
BRANCH  19  20
HETATM   20  C   UNL     1      -9.257   3.270 -30.519  1.00  0.00     0.058 C 
BRANCH  20  21
HETATM   21  C   UNL     1      -9.391   2.328 -31.690  1.00  0.00    -0.057 A 
HETATM   22  C   UNL     1      -9.870   2.781 -32.927  1.00  0.00     0.007 A 
HETATM   23  C   UNL     1      -9.969   1.907 -34.010  1.00  0.00     0.001 A 
HETATM   24  C   UNL     1      -9.587   0.573 -33.871  1.00  0.00     0.000 A 
HETATM   25  C   UNL     1      -9.105   0.113 -32.647  1.00  0.00     0.001 A 
HETATM   26  C   UNL     1      -9.008   0.985 -31.563  1.00  0.00     0.007 A 
ENDBRANCH  20  21
ENDBRANCH  19  20
ENDBRANCH   2  19
BRANCH  10  27
HETATM   27  C   UNL     1      -3.057   5.944 -32.277  1.00  0.00     0.026 A 
HETATM   28  C   UNL     1      -2.458   7.157 -32.656  1.00  0.00     0.078 A 
HETATM   29  C   UNL     1      -1.547   7.219 -33.706  1.00  0.00     0.037 A 
HETATM   30  C   UNL     1      -1.241   6.066 -34.425  1.00  0.00     0.003 A 
HETATM   31  C   UNL     1      -1.837   4.855 -34.079  1.00  0.00     0.001 A 
HETATM   32  C   UNL     1      -2.733   4.793 -33.005  1.00  0.00     0.016 A 
BRANCH  28  33
HETATM   33  O   UNL     1      -2.742   8.342 -32.028  1.00  0.00    -0.360 OA
HETATM   34  H   UNL     1      -3.707   8.466 -32.042  1.00  0.00     0.217 HD
ENDBRANCH  28  33
ENDBRANCH  10  27
TORSDOF 7
ENDMDL
MODEL 6
REMARK VINA RESULT:      -7.7      3.009      6.463
REMARK  7 active torsions:
REMARK  status: ('A' for Active; 'I' for Inactive)
REMARK    1  A    between atoms: S_2  and  C_3 
REMARK    2  A    between atoms: C_6  and  C_7 
REMARK    3  A    between atoms: N_8  and  C_9 
REMARK    4  A    between atoms: C_9  and  C_10 
REMARK    5  A    between atoms: C_10  and  C_11 
REMARK    6  A    between atoms: C_24  and  C_25 
REMARK    7  A    between atoms: C_26  and  O_27 
ROOT
HETATM    1  C   UNL     1      -5.985   1.592 -33.472  1.00  0.00     0.159 A 
HETATM    2  N   UNL     1      -5.551   2.810 -32.749  1.00  0.00    -0.333 N 
HETATM    3  C   UNL     1      -4.893   2.558 -31.535  1.00  0.00     0.275 A 
HETATM    4  O   UNL     1      -4.480   3.373 -30.727  1.00  0.00    -0.266 OA
HETATM    5  C   UNL     1      -4.781   1.115 -31.493  1.00  0.00     0.155 A 
HETATM    6  C   UNL     1      -5.379   0.539 -32.620  1.00  0.00     0.034 A 
HETATM    7  N   UNL     1      -4.199   0.229 -30.692  1.00  0.00    -0.168 NA
HETATM    8  N   UNL     1      -4.449  -0.941 -31.329  1.00  0.00    -0.276 N 
HETATM    9  H   UNL     1      -4.114  -1.803 -30.908  1.00  0.00     0.189 HD
HETATM   10  C   UNL     1      -5.086  -0.802 -32.553  1.00  0.00     0.074 A 
ENDROOT
BRANCH   1  11
HETATM   11  C   UNL     1      -7.485   1.384 -33.431  1.00  0.00    -0.031 A 
HETATM   12  C   UNL     1      -8.241   1.540 -34.603  1.00  0.00     0.011 A 
HETATM   13  C   UNL     1      -9.621   1.306 -34.605  1.00  0.00     0.019 A 
HETATM   14  C   UNL     1     -10.276   0.909 -33.437  1.00  0.00    -0.000 A 
HETATM   15  C   UNL     1      -9.545   0.797 -32.255  1.00  0.00     0.019 A 
HETATM   16  C   UNL     1      -8.168   1.032 -32.250  1.00  0.00     0.011 A 
BRANCH  14  17
HETATM   17  S   UNL     1     -12.028   0.582 -33.484  1.00  0.00    -0.134 SA
HETATM   18  C   UNL     1     -12.472   1.489 -34.993  1.00  0.00     0.095 C 
ENDBRANCH  14  17
ENDBRANCH   1  11
BRANCH   2  19
HETATM   19  C   UNL     1      -5.767   4.145 -33.284  1.00  0.00     0.132 C 
BRANCH  19  20
HETATM   20  C   UNL     1      -6.694   4.983 -32.394  1.00  0.00     0.058 C 
BRANCH  20  21
HETATM   21  C   UNL     1      -8.153   4.842 -32.752  1.00  0.00    -0.057 A 
HETATM   22  C   UNL     1      -9.103   4.506 -31.780  1.00  0.00     0.007 A 
HETATM   23  C   UNL     1     -10.454   4.400 -32.118  1.00  0.00     0.001 A 
HETATM   24  C   UNL     1     -10.868   4.632 -33.428  1.00  0.00     0.000 A 
HETATM   25  C   UNL     1      -9.931   4.971 -34.403  1.00  0.00     0.001 A 
HETATM   26  C   UNL     1      -8.581   5.075 -34.067  1.00  0.00     0.007 A 
ENDBRANCH  20  21
ENDBRANCH  19  20
ENDBRANCH   2  19
BRANCH  10  27
HETATM   27  C   UNL     1      -5.309  -1.929 -33.451  1.00  0.00     0.026 A 
HETATM   28  C   UNL     1      -4.408  -3.003 -33.523  1.00  0.00     0.078 A 
HETATM   29  C   UNL     1      -4.658  -4.107 -34.334  1.00  0.00     0.037 A 
HETATM   30  C   UNL     1      -5.808  -4.140 -35.120  1.00  0.00     0.003 A 
HETATM   31  C   UNL     1      -6.707  -3.076 -35.079  1.00  0.00     0.001 A 
HETATM   32  C   UNL     1      -6.463  -1.982 -34.242  1.00  0.00     0.016 A 
BRANCH  28  33
HETATM   33  O   UNL     1      -3.234  -3.025 -32.816  1.00  0.00    -0.360 OA
HETATM   34  H   UNL     1      -3.126  -3.917 -32.442  1.00  0.00     0.217 HD
ENDBRANCH  28  33
ENDBRANCH  10  27
TORSDOF 7
ENDMDL
MODEL 7
REMARK VINA RESULT:      -7.6      4.833      9.093
REMARK  7 active torsions:
REMARK  status: ('A' for Active; 'I' for Inactive)
REMARK    1  A    between atoms: S_2  and  C_3 
REMARK    2  A    between atoms: C_6  and  C_7 
REMARK    3  A    between atoms: N_8  and  C_9 
REMARK    4  A    between atoms: C_9  and  C_10 
REMARK    5  A    between atoms: C_10  and  C_11 
REMARK    6  A    between atoms: C_24  and  C_25 
REMARK    7  A    between atoms: C_26  and  O_27 
ROOT
HETATM    1  C   UNL     1      -3.985   4.883 -32.119  1.00  0.00     0.159 A 
HETATM    2  N   UNL     1      -4.495   4.631 -33.486  1.00  0.00    -0.333 N 
HETATM    3  C   UNL     1      -3.810   5.325 -34.496  1.00  0.00     0.275 A 
HETATM    4  O   UNL     1      -4.054   5.335 -35.691  1.00  0.00    -0.266 OA
HETATM    5  C   UNL     1      -2.726   5.980 -33.794  1.00  0.00     0.155 A 
HETATM    6  C   UNL     1      -2.791   5.712 -32.421  1.00  0.00     0.034 A 
HETATM    7  N   UNL     1      -1.668   6.704 -34.141  1.00  0.00    -0.168 NA
HETATM    8  N   UNL     1      -1.055   6.907 -32.949  1.00  0.00    -0.276 N 
HETATM    9  H   UNL     1      -0.203   7.460 -32.931  1.00  0.00     0.189 HD
HETATM   10  C   UNL     1      -1.648   6.250 -31.882  1.00  0.00     0.074 A 
ENDROOT
BRANCH   1  11
HETATM   11  C   UNL     1      -4.918   5.741 -31.288  1.00  0.00    -0.031 A 
HETATM   12  C   UNL     1      -5.430   5.241 -30.080  1.00  0.00     0.011 A 
HETATM   13  C   UNL     1      -6.256   6.030 -29.270  1.00  0.00     0.019 A 
HETATM   14  C   UNL     1      -6.584   7.334 -29.645  1.00  0.00    -0.000 A 
HETATM   15  C   UNL     1      -6.121   7.825 -30.865  1.00  0.00     0.019 A 
HETATM   16  C   UNL     1      -5.300   7.039 -31.677  1.00  0.00     0.011 A 
BRANCH  14  17
HETATM   17  S   UNL     1      -7.606   8.323 -28.570  1.00  0.00    -0.134 SA
HETATM   18  C   UNL     1      -8.757   7.050 -27.979  1.00  0.00     0.095 C 
ENDBRANCH  14  17
ENDBRANCH   1  11
BRANCH   2  19
HETATM   19  C   UNL     1      -5.594   3.714 -33.744  1.00  0.00     0.132 C 
BRANCH  19  20
HETATM   20  C   UNL     1      -5.521   2.460 -32.863  1.00  0.00     0.058 C 
BRANCH  20  21
HETATM   21  C   UNL     1      -5.985   1.209 -33.568  1.00  0.00    -0.057 A 
HETATM   22  C   UNL     1      -5.551  -0.056 -33.151  1.00  0.00     0.007 A 
HETATM   23  C   UNL     1      -6.003  -1.208 -33.795  1.00  0.00     0.001 A 
HETATM   24  C   UNL     1      -6.898  -1.109 -34.860  1.00  0.00     0.000 A 
HETATM   25  C   UNL     1      -7.340   0.144 -35.280  1.00  0.00     0.001 A 
HETATM   26  C   UNL     1      -6.887   1.296 -34.639  1.00  0.00     0.007 A 
ENDBRANCH  20  21
ENDBRANCH  19  20
ENDBRANCH   2  19
BRANCH  10  27
HETATM   27  C   UNL     1      -1.054   6.228 -30.550  1.00  0.00     0.026 A 
HETATM   28  C   UNL     1       0.107   5.488 -30.274  1.00  0.00     0.078 A 
HETATM   29  C   UNL     1       0.706   5.522 -29.017  1.00  0.00     0.037 A 
HETATM   30  C   UNL     1       0.130   6.275 -27.997  1.00  0.00     0.003 A 
HETATM   31  C   UNL     1      -1.033   7.001 -28.244  1.00  0.00     0.001 A 
HETATM   32  C   UNL     1      -1.616   6.985 -29.515  1.00  0.00     0.016 A 
BRANCH  28  33
HETATM   33  O   UNL     1       0.708   4.688 -31.210  1.00  0.00    -0.360 OA
HETATM   34  H   UNL     1       1.290   4.064 -30.742  1.00  0.00     0.217 HD
ENDBRANCH  28  33
ENDBRANCH  10  27
TORSDOF 7
ENDMDL
MODEL 8
REMARK VINA RESULT:      -7.6      3.492      6.202
REMARK  7 active torsions:
REMARK  status: ('A' for Active; 'I' for Inactive)
REMARK    1  A    between atoms: S_2  and  C_3 
REMARK    2  A    between atoms: C_6  and  C_7 
REMARK    3  A    between atoms: N_8  and  C_9 
REMARK    4  A    between atoms: C_9  and  C_10 
REMARK    5  A    between atoms: C_10  and  C_11 
REMARK    6  A    between atoms: C_24  and  C_25 
REMARK    7  A    between atoms: C_26  and  O_27 
ROOT
HETATM    1  C   UNL     1      -6.532   2.190 -30.953  1.00  0.00     0.159 A 
HETATM    2  N   UNL     1      -7.618   3.007 -30.365  1.00  0.00    -0.333 N 
HETATM    3  C   UNL     1      -8.896   2.720 -30.872  1.00  0.00     0.275 A 
HETATM    4  O   UNL     1      -9.948   3.273 -30.599  1.00  0.00    -0.266 OA
HETATM    5  C   UNL     1      -8.676   1.591 -31.751  1.00  0.00     0.155 A 
HETATM    6  C   UNL     1      -7.319   1.249 -31.788  1.00  0.00     0.034 A 
HETATM    7  N   UNL     1      -9.446   0.776 -32.464  1.00  0.00    -0.168 NA
HETATM    8  N   UNL     1      -8.544  -0.098 -32.974  1.00  0.00    -0.276 N 
HETATM    9  H   UNL     1      -8.879  -0.838 -33.584  1.00  0.00     0.189 HD
HETATM   10  C   UNL     1      -7.247   0.090 -32.522  1.00  0.00     0.074 A 
ENDROOT
BRANCH   1  11
HETATM   11  C   UNL     1      -5.643   2.978 -31.894  1.00  0.00    -0.031 A 
HETATM   12  C   UNL     1      -6.209   3.636 -32.996  1.00  0.00     0.011 A 
HETATM   13  C   UNL     1      -5.418   4.411 -33.854  1.00  0.00     0.019 A 
HETATM   14  C   UNL     1      -4.047   4.547 -33.627  1.00  0.00    -0.000 A 
HETATM   15  C   UNL     1      -3.464   3.859 -32.563  1.00  0.00     0.019 A 
HETATM   16  C   UNL     1      -4.251   3.083 -31.708  1.00  0.00     0.011 A 
BRANCH  14  17
HETATM   17  S   UNL     1      -3.077   5.573 -34.717  1.00  0.00    -0.134 SA
HETATM   18  C   UNL     1      -1.569   5.742 -33.720  1.00  0.00     0.095 C 
ENDBRANCH  14  17
ENDBRANCH   1  11
BRANCH   2  19
HETATM   19  C   UNL     1      -7.368   3.995 -29.328  1.00  0.00     0.132 C 
BRANCH  19  20
HETATM   20  C   UNL     1      -7.548   5.430 -29.839  1.00  0.00     0.058 C 
BRANCH  20  21
HETATM   21  C   UNL     1      -6.247   6.094 -30.221  1.00  0.00    -0.057 A 
HETATM   22  C   UNL     1      -5.073   5.843 -29.501  1.00  0.00     0.007 A 
HETATM   23  C   UNL     1      -3.870   6.444 -29.875  1.00  0.00     0.001 A 
HETATM   24  C   UNL     1      -3.828   7.299 -30.975  1.00  0.00     0.000 A 
HETATM   25  C   UNL     1      -4.990   7.553 -31.702  1.00  0.00     0.001 A 
HETATM   26  C   UNL     1      -6.193   6.954 -31.327  1.00  0.00     0.007 A 
ENDBRANCH  20  21
ENDBRANCH  19  20
ENDBRANCH   2  19
BRANCH  10  27
HETATM   27  C   UNL     1      -6.166  -0.835 -32.842  1.00  0.00     0.026 A 
HETATM   28  C   UNL     1      -6.174  -1.598 -34.022  1.00  0.00     0.078 A 
HETATM   29  C   UNL     1      -5.109  -2.431 -34.353  1.00  0.00     0.037 A 
HETATM   30  C   UNL     1      -4.023  -2.543 -33.488  1.00  0.00     0.003 A 
HETATM   31  C   UNL     1      -4.003  -1.811 -32.303  1.00  0.00     0.001 A 
HETATM   32  C   UNL     1      -5.064  -0.955 -31.987  1.00  0.00     0.016 A 
BRANCH  28  33
HETATM   33  O   UNL     1      -7.224  -1.577 -34.902  1.00  0.00    -0.360 OA
HETATM   34  H   UNL     1      -6.934  -2.009 -35.725  1.00  0.00     0.217 HD
ENDBRANCH  28  33
ENDBRANCH  10  27
TORSDOF 7
ENDMDL
MODEL 9
REMARK VINA RESULT:      -7.6      2.255      7.043
REMARK  7 active torsions:
REMARK  status: ('A' for Active; 'I' for Inactive)
REMARK    1  A    between atoms: S_2  and  C_3 
REMARK    2  A    between atoms: C_6  and  C_7 
REMARK    3  A    between atoms: N_8  and  C_9 
REMARK    4  A    between atoms: C_9  and  C_10 
REMARK    5  A    between atoms: C_10  and  C_11 
REMARK    6  A    between atoms: C_24  and  C_25 
REMARK    7  A    between atoms: C_26  and  O_27 
ROOT
HETATM    1  C   UNL     1      -7.702   3.218 -33.164  1.00  0.00     0.159 A 
HETATM    2  N   UNL     1      -8.956   3.175 -32.377  1.00  0.00    -0.333 N 
HETATM    3  C   UNL     1      -8.793   3.468 -31.014  1.00  0.00     0.275 A 
HETATM    4  O   UNL     1      -9.645   3.455 -30.141  1.00  0.00    -0.266 OA
HETATM    5  C   UNL     1      -7.396   3.832 -30.900  1.00  0.00     0.155 A 
HETATM    6  C   UNL     1      -6.754   3.724 -32.140  1.00  0.00     0.034 A 
HETATM    7  N   UNL     1      -6.610   4.299 -29.937  1.00  0.00    -0.168 NA
HETATM    8  N   UNL     1      -5.434   4.479 -30.588  1.00  0.00    -0.276 N 
HETATM    9  H   UNL     1      -4.638   4.826 -30.061  1.00  0.00     0.189 HD
HETATM   10  C   UNL     1      -5.491   4.229 -31.950  1.00  0.00     0.074 A 
ENDROOT
BRANCH   1  11
HETATM   11  C   UNL     1      -7.215   1.843 -33.575  1.00  0.00    -0.031 A 
HETATM   12  C   UNL     1      -6.730   0.957 -32.600  1.00  0.00     0.011 A 
HETATM   13  C   UNL     1      -6.320  -0.337 -32.946  1.00  0.00     0.019 A 
HETATM   14  C   UNL     1      -6.387  -0.774 -34.270  1.00  0.00    -0.000 A 
HETATM   15  C   UNL     1      -6.821   0.113 -35.255  1.00  0.00     0.019 A 
HETATM   16  C   UNL     1      -7.229   1.405 -34.913  1.00  0.00     0.011 A 
BRANCH  14  17
HETATM   17  S   UNL     1      -5.893  -2.440 -34.668  1.00  0.00    -0.134 SA
HETATM   18  C   UNL     1      -4.311  -2.513 -33.781  1.00  0.00     0.095 C 
ENDBRANCH  14  17
ENDBRANCH   1  11
BRANCH   2  19
HETATM   19  C   UNL     1     -10.243   2.884 -32.988  1.00  0.00     0.132 C 
BRANCH  19  20
HETATM   20  C   UNL     1     -10.464   1.378 -33.185  1.00  0.00     0.058 C 
BRANCH  20  21
HETATM   21  C   UNL     1     -11.892   1.025 -33.517  1.00  0.00    -0.057 A 
HETATM   22  C   UNL     1     -12.773   1.988 -34.024  1.00  0.00     0.007 A 
HETATM   23  C   UNL     1     -14.087   1.645 -34.349  1.00  0.00     0.001 A 
HETATM   24  C   UNL     1     -14.532   0.336 -34.175  1.00  0.00     0.000 A 
HETATM   25  C   UNL     1     -13.663  -0.632 -33.675  1.00  0.00     0.001 A 
HETATM   26  C   UNL     1     -12.351  -0.290 -33.347  1.00  0.00     0.007 A 
ENDBRANCH  20  21
ENDBRANCH  19  20
ENDBRANCH   2  19
BRANCH  10  27
HETATM   27  C   UNL     1      -4.371   4.505 -32.843  1.00  0.00     0.026 A 
HETATM   28  C   UNL     1      -3.042   4.269 -32.452  1.00  0.00     0.078 A 
HETATM   29  C   UNL     1      -1.982   4.473 -33.331  1.00  0.00     0.037 A 
HETATM   30  C   UNL     1      -2.229   4.953 -34.615  1.00  0.00     0.003 A 
HETATM   31  C   UNL     1      -3.538   5.212 -35.017  1.00  0.00     0.001 A 
HETATM   32  C   UNL     1      -4.603   4.980 -34.140  1.00  0.00     0.016 A 
BRANCH  28  33
HETATM   33  O   UNL     1      -2.713   3.840 -31.193  1.00  0.00    -0.360 OA
HETATM   34  H   UNL     1      -3.409   4.142 -30.582  1.00  0.00     0.217 HD
ENDBRANCH  28  33
ENDBRANCH  10  27
TORSDOF 7
ENDMDL
MODEL 10
REMARK VINA RESULT:      -7.5      3.213      5.488
REMARK  7 active torsions:
REMARK  status: ('A' for Active; 'I' for Inactive)
REMARK    1  A    between atoms: S_2  and  C_3 
REMARK    2  A    between atoms: C_6  and  C_7 
REMARK    3  A    between atoms: N_8  and  C_9 
REMARK    4  A    between atoms: C_9  and  C_10 
REMARK    5  A    between atoms: C_10  and  C_11 
REMARK    6  A    between atoms: C_24  and  C_25 
REMARK    7  A    between atoms: C_26  and  O_27 
ROOT
HETATM    1  C   UNL     1      -6.773   2.047 -33.371  1.00  0.00     0.159 A 
HETATM    2  N   UNL     1      -6.377   0.845 -32.602  1.00  0.00    -0.333 N 
HETATM    3  C   UNL     1      -6.970   0.750 -31.333  1.00  0.00     0.275 A 
HETATM    4  O   UNL     1      -6.782  -0.106 -30.484  1.00  0.00    -0.266 OA
HETATM    5  C   UNL     1      -7.886   1.870 -31.292  1.00  0.00     0.155 A 
HETATM    6  C   UNL     1      -7.810   2.616 -32.475  1.00  0.00     0.034 A 
HETATM    7  N   UNL     1      -8.811   2.312 -30.448  1.00  0.00    -0.168 NA
HETATM    8  N   UNL     1      -9.324   3.375 -31.114  1.00  0.00    -0.276 N 
HETATM    9  H   UNL     1     -10.061   3.915 -30.670  1.00  0.00     0.189 HD
HETATM   10  C   UNL     1      -8.813   3.551 -32.391  1.00  0.00     0.074 A 
ENDROOT
BRANCH   1  11
HETATM   11  C   UNL     1      -5.664   3.076 -33.472  1.00  0.00    -0.031 A 
HETATM   12  C   UNL     1      -4.530   2.957 -32.654  1.00  0.00     0.011 A 
HETATM   13  C   UNL     1      -3.470   3.866 -32.761  1.00  0.00     0.019 A 
HETATM   14  C   UNL     1      -3.518   4.908 -33.689  1.00  0.00    -0.000 A 
HETATM   15  C   UNL     1      -4.659   5.065 -34.474  1.00  0.00     0.019 A 
HETATM   16  C   UNL     1      -5.720   4.161 -34.367  1.00  0.00     0.011 A 
BRANCH  14  17
HETATM   17  S   UNL     1      -2.133   6.023 -33.825  1.00  0.00    -0.134 SA
HETATM   18  C   UNL     1      -1.087   5.382 -32.488  1.00  0.00     0.095 C 
ENDBRANCH  14  17
ENDBRANCH   1  11
BRANCH   2  19
HETATM   19  C   UNL     1      -5.474  -0.157 -33.144  1.00  0.00     0.132 C 
BRANCH  19  20
HETATM   20  C   UNL     1      -6.070  -0.877 -34.362  1.00  0.00     0.058 C 
BRANCH  20  21
HETATM   21  C   UNL     1      -5.701  -2.338 -34.429  1.00  0.00    -0.057 A 
HETATM   22  C   UNL     1      -4.426  -2.778 -34.050  1.00  0.00     0.007 A 
HETATM   23  C   UNL     1      -4.103  -4.135 -34.094  1.00  0.00     0.001 A 
HETATM   24  C   UNL     1      -5.051  -5.067 -34.513  1.00  0.00     0.000 A 
HETATM   25  C   UNL     1      -6.324  -4.642 -34.888  1.00  0.00     0.001 A 
HETATM   26  C   UNL     1      -6.648  -3.285 -34.846  1.00  0.00     0.007 A 
ENDBRANCH  20  21
ENDBRANCH  19  20
ENDBRANCH   2  19
BRANCH  10  27
HETATM   27  C   UNL     1      -9.341   4.548 -33.315  1.00  0.00     0.026 A 
HETATM   28  C   UNL     1      -9.966   4.180 -34.517  1.00  0.00     0.078 A 
HETATM   29  C   UNL     1     -10.525   5.132 -35.365  1.00  0.00     0.037 A 
HETATM   30  C   UNL     1     -10.440   6.483 -35.038  1.00  0.00     0.003 A 
HETATM   31  C   UNL     1      -9.808   6.873 -33.859  1.00  0.00     0.001 A 
HETATM   32  C   UNL     1      -9.270   5.910 -32.998  1.00  0.00     0.016 A 
BRANCH  28  33
HETATM   33  O   UNL     1     -10.051   2.876 -34.931  1.00  0.00    -0.360 OA
HETATM   34  H   UNL     1      -9.167   2.476 -34.844  1.00  0.00     0.217 HD
ENDBRANCH  28  33
ENDBRANCH  10  27
TORSDOF 7
ENDMDL
