MODEL 1
REMARK VINA RESULT:      -9.0      0.000      0.000
REMARK  6 active torsions:
REMARK  status: ('A' for Active; 'I' for Inactive)
REMARK    1  A    between atoms: N_4  and  C_5 
REMARK    2  A    between atoms: C_13  and  C_14 
REMARK       I    between atoms: C_14  and  N_15 
REMARK    3  A    between atoms: N_15  and  C_16 
REMARK    4  A    between atoms: C_16  and  C_17 
REMARK    5  A    between atoms: C_17  and  O_18 
REMARK    6  A    between atoms: C_17  and  C_19 
ROOT
HETATM    1  C   UNL     1      -2.326   4.174 -31.977  1.00  0.00     0.257 C 
HETATM    2  N   UNL     1      -2.950   3.068 -31.456  1.00  0.00    -0.354 N 
HETATM    3  O   UNL     1      -2.111   4.290 -33.180  1.00  0.00    -0.267 OA
HETATM    4  H   UNL     1      -3.264   3.086 -30.492  1.00  0.00     0.162 HD
ENDROOT
BRANCH   1   5
HETATM    5  C   UNL     1      -1.967   5.220 -31.028  1.00  0.00     0.098 C 
HETATM    6  C   UNL     1      -2.821   6.247 -30.542  1.00  0.00     0.070 C 
HETATM    7  C   UNL     1      -4.252   6.481 -30.871  1.00  0.00     0.073 C 
HETATM    8  N   UNL     1      -2.194   7.081 -29.708  1.00  0.00    -0.170 NA
HETATM    9  N   UNL     1      -0.943   6.561 -29.547  1.00  0.00    -0.221 N 
HETATM   10  C   UNL     1      -0.759   5.501 -30.422  1.00  0.00     0.145 C 
HETATM   11 CL   UNL     1       0.786   4.832 -30.738  1.00  0.00    -0.061 Cl
BRANCH   9  12
HETATM   12  C   UNL     1      -0.095   7.135 -28.549  1.00  0.00     0.060 A 
HETATM   13  C   UNL     1       0.860   8.116 -28.839  1.00  0.00     0.031 A 
HETATM   14  C   UNL     1       1.677   8.630 -27.827  1.00  0.00     0.002 A 
HETATM   15  C   UNL     1       1.559   8.164 -26.520  1.00  0.00     0.000 A 
HETATM   16  C   UNL     1       0.630   7.171 -26.221  1.00  0.00     0.002 A 
HETATM   17  C   UNL     1      -0.186   6.654 -27.229  1.00  0.00     0.031 A 
ENDBRANCH   9  12
ENDBRANCH   1   5
BRANCH   2  18
HETATM   18  C   UNL     1      -3.541   2.052 -32.311  1.00  0.00     0.159 C 
BRANCH  18  19
HETATM   19  C   UNL     1      -3.763   0.713 -31.585  1.00  0.00     0.169 C 
BRANCH  19  20
HETATM   20  O   UNL     1      -2.553   0.330 -30.922  1.00  0.00    -0.389 OA
HETATM   21  H   UNL     1      -2.795  -0.348 -30.266  1.00  0.00     0.210 HD
ENDBRANCH  19  20
BRANCH  19  22
HETATM   22  C   UNL     1      -4.253  -0.391 -32.503  1.00  0.00    -0.025 A 
HETATM   23  C   UNL     1      -3.642  -1.655 -32.535  1.00  0.00     0.053 A 
HETATM   24  C   UNL     1      -4.112  -2.644 -33.398  1.00  0.00     0.138 A 
HETATM   25  F   UNL     1      -3.510  -3.843 -33.388  1.00  0.00    -0.204 F 
HETATM   26  C   UNL     1      -5.185  -2.394 -34.248  1.00  0.00     0.072 A 
HETATM   27 CL   UNL     1      -5.771  -3.612 -35.311  1.00  0.00    -0.081 Cl
HETATM   28  C   UNL     1      -5.795  -1.140 -34.238  1.00  0.00     0.028 A 
HETATM   29  C   UNL     1      -5.331  -0.145 -33.371  1.00  0.00     0.012 A 
ENDBRANCH  19  22
ENDBRANCH  18  19
ENDBRANCH   2  18
TORSDOF 6
ENDMDL
MODEL 2
REMARK VINA RESULT:      -8.8      6.432      9.640
REMARK  6 active torsions:
REMARK  status: ('A' for Active; 'I' for Inactive)
REMARK    1  A    between atoms: N_4  and  C_5 
REMARK    2  A    between atoms: C_13  and  C_14 
REMARK       I    between atoms: C_14  and  N_15 
REMARK    3  A    between atoms: N_15  and  C_16 
REMARK    4  A    between atoms: C_16  and  C_17 
REMARK    5  A    between atoms: C_17  and  O_18 
REMARK    6  A    between atoms: C_17  and  C_19 
ROOT
HETATM    1  C   UNL     1      -7.493   1.979 -33.877  1.00  0.00     0.257 C 
HETATM    2  N   UNL     1      -6.777   1.929 -32.707  1.00  0.00    -0.354 N 
HETATM    3  O   UNL     1      -6.978   1.724 -34.963  1.00  0.00    -0.267 OA
HETATM    4  H   UNL     1      -7.273   1.974 -31.823  1.00  0.00     0.162 HD
ENDROOT
BRANCH   1   5
HETATM    5  C   UNL     1      -8.905   2.315 -33.757  1.00  0.00     0.098 C 
HETATM    6  C   UNL     1      -9.478   3.609 -33.881  1.00  0.00     0.070 C 
HETATM    7  C   UNL     1      -8.786   4.894 -34.168  1.00  0.00     0.073 C 
HETATM    8  N   UNL     1     -10.799   3.605 -33.684  1.00  0.00    -0.170 NA
HETATM    9  N   UNL     1     -11.139   2.293 -33.528  1.00  0.00    -0.221 N 
HETATM   10  C   UNL     1      -9.992   1.516 -33.462  1.00  0.00     0.145 C 
HETATM   11 CL   UNL     1     -10.019  -0.114 -32.937  1.00  0.00    -0.061 Cl
BRANCH   9  12
HETATM   12  C   UNL     1     -12.527   1.953 -33.494  1.00  0.00     0.060 A 
HETATM   13  C   UNL     1     -13.084   0.966 -34.316  1.00  0.00     0.031 A 
HETATM   14  C   UNL     1     -14.454   0.685 -34.256  1.00  0.00     0.002 A 
HETATM   15  C   UNL     1     -15.281   1.392 -33.387  1.00  0.00     0.000 A 
HETATM   16  C   UNL     1     -14.745   2.393 -32.582  1.00  0.00     0.002 A 
HETATM   17  C   UNL     1     -13.379   2.677 -32.640  1.00  0.00     0.031 A 
ENDBRANCH   9  12
ENDBRANCH   1   5
BRANCH   2  18
HETATM   18  C   UNL     1      -5.421   1.410 -32.663  1.00  0.00     0.159 C 
BRANCH  18  19
HETATM   19  C   UNL     1      -5.323   0.044 -31.960  1.00  0.00     0.169 C 
BRANCH  19  20
HETATM   20  O   UNL     1      -4.072  -0.041 -31.267  1.00  0.00    -0.389 OA
HETATM   21  H   UNL     1      -3.515   0.683 -31.605  1.00  0.00     0.210 HD
ENDBRANCH  19  20
BRANCH  19  22
HETATM   22  C   UNL     1      -5.502  -1.129 -32.904  1.00  0.00    -0.025 A 
HETATM   23  C   UNL     1      -4.432  -1.966 -33.260  1.00  0.00     0.053 A 
HETATM   24  C   UNL     1      -4.630  -3.029 -34.138  1.00  0.00     0.138 A 
HETATM   25  F   UNL     1      -3.585  -3.814 -34.442  1.00  0.00    -0.204 F 
HETATM   26  C   UNL     1      -5.887  -3.276 -34.684  1.00  0.00     0.072 A 
HETATM   27 CL   UNL     1      -6.137  -4.590 -35.766  1.00  0.00    -0.081 Cl
HETATM   28  C   UNL     1      -6.958  -2.448 -34.352  1.00  0.00     0.028 A 
HETATM   29  C   UNL     1      -6.766  -1.380 -33.467  1.00  0.00     0.012 A 
ENDBRANCH  19  22
ENDBRANCH  18  19
ENDBRANCH   2  18
TORSDOF 6
ENDMDL
MODEL 3
REMARK VINA RESULT:      -8.7      4.720      9.695
REMARK  6 active torsions:
REMARK  status: ('A' for Active; 'I' for Inactive)
REMARK    1  A    between atoms: N_4  and  C_5 
REMARK    2  A    between atoms: C_13  and  C_14 
REMARK       I    between atoms: C_14  and  N_15 
REMARK    3  A    between atoms: N_15  and  C_16 
REMARK    4  A    between atoms: C_16  and  C_17 
REMARK    5  A    between atoms: C_17  and  O_18 
REMARK    6  A    between atoms: C_17  and  C_19 
ROOT
HETATM    1  C   UNL     1      -7.491   2.425 -31.977  1.00  0.00     0.257 C 
HETATM    2  N   UNL     1      -6.637   3.487 -31.813  1.00  0.00    -0.354 N 
HETATM    3  O   UNL     1      -8.710   2.567 -31.977  1.00  0.00    -0.267 OA
HETATM    4  H   UNL     1      -5.647   3.358 -31.991  1.00  0.00     0.162 HD
ENDROOT
BRANCH   1   5
HETATM    5  C   UNL     1      -6.869   1.124 -32.189  1.00  0.00     0.098 C 
HETATM    6  C   UNL     1      -6.172   0.354 -31.219  1.00  0.00     0.070 C 
HETATM    7  C   UNL     1      -5.930   0.684 -29.789  1.00  0.00     0.073 C 
HETATM    8  N   UNL     1      -5.683  -0.782 -31.723  1.00  0.00    -0.170 NA
HETATM    9  N   UNL     1      -6.135  -0.833 -33.009  1.00  0.00    -0.221 N 
HETATM   10  C   UNL     1      -6.760   0.361 -33.334  1.00  0.00     0.145 C 
HETATM   11 CL   UNL     1      -7.147   0.782 -34.949  1.00  0.00    -0.061 Cl
BRANCH   9  12
HETATM   12  C   UNL     1      -5.934  -2.039 -33.750  1.00  0.00     0.060 A 
HETATM   13  C   UNL     1      -6.989  -2.763 -34.318  1.00  0.00     0.031 A 
HETATM   14  C   UNL     1      -6.737  -3.949 -35.017  1.00  0.00     0.002 A 
HETATM   15  C   UNL     1      -5.437  -4.430 -35.146  1.00  0.00     0.000 A 
HETATM   16  C   UNL     1      -4.381  -3.733 -34.566  1.00  0.00     0.002 A 
HETATM   17  C   UNL     1      -4.628  -2.550 -33.865  1.00  0.00     0.031 A 
ENDBRANCH   9  12
ENDBRANCH   1   5
BRANCH   2  18
HETATM   18  C   UNL     1      -7.119   4.858 -31.799  1.00  0.00     0.159 C 
BRANCH  18  19
HETATM   19  C   UNL     1      -6.757   5.634 -33.078  1.00  0.00     0.169 C 
BRANCH  19  20
HETATM   20  O   UNL     1      -7.266   4.930 -34.217  1.00  0.00    -0.389 OA
HETATM   21  H   UNL     1      -6.512   4.785 -34.816  1.00  0.00     0.210 HD
ENDBRANCH  19  20
BRANCH  19  22
HETATM   22  C   UNL     1      -5.269   5.893 -33.220  1.00  0.00    -0.025 A 
HETATM   23  C   UNL     1      -4.515   5.334 -34.264  1.00  0.00     0.053 A 
HETATM   24  C   UNL     1      -3.147   5.585 -34.358  1.00  0.00     0.138 A 
HETATM   25  F   UNL     1      -2.464   5.043 -35.378  1.00  0.00    -0.204 F 
HETATM   26  C   UNL     1      -2.504   6.385 -33.418  1.00  0.00     0.072 A 
HETATM   27 CL   UNL     1      -0.817   6.700 -33.533  1.00  0.00    -0.081 Cl
HETATM   28  C   UNL     1      -3.236   6.938 -32.368  1.00  0.00     0.028 A 
HETATM   29  C   UNL     1      -4.610   6.693 -32.270  1.00  0.00     0.012 A 
ENDBRANCH  19  22
ENDBRANCH  18  19
ENDBRANCH   2  18
TORSDOF 6
ENDMDL
MODEL 4
REMARK VINA RESULT:      -8.6      2.949      3.920
REMARK  6 active torsions:
REMARK  status: ('A' for Active; 'I' for Inactive)
REMARK    1  A    between atoms: N_4  and  C_5 
REMARK    2  A    between atoms: C_13  and  C_14 
REMARK       I    between atoms: C_14  and  N_15 
REMARK    3  A    between atoms: N_15  and  C_16 
REMARK    4  A    between atoms: C_16  and  C_17 
REMARK    5  A    between atoms: C_17  and  O_18 
REMARK    6  A    between atoms: C_17  and  C_19 
ROOT
HETATM    1  C   UNL     1      -5.947   2.231 -31.486  1.00  0.00     0.257 C 
HETATM    2  N   UNL     1      -6.692   2.244 -32.639  1.00  0.00    -0.354 N 
HETATM    3  O   UNL     1      -5.969   1.279 -30.711  1.00  0.00    -0.267 OA
HETATM    4  H   UNL     1      -6.517   2.962 -33.333  1.00  0.00     0.162 HD
ENDROOT
BRANCH   1   5
HETATM    5  C   UNL     1      -5.100   3.393 -31.252  1.00  0.00     0.098 C 
HETATM    6  C   UNL     1      -5.391   4.491 -30.397  1.00  0.00     0.070 C 
HETATM    7  C   UNL     1      -6.596   4.699 -29.551  1.00  0.00     0.073 C 
HETATM    8  N   UNL     1      -4.434   5.423 -30.418  1.00  0.00    -0.170 NA
HETATM    9  N   UNL     1      -3.447   4.912 -31.208  1.00  0.00    -0.221 N 
HETATM   10  C   UNL     1      -3.882   3.737 -31.803  1.00  0.00     0.145 C 
HETATM   11 CL   UNL     1      -3.045   3.006 -33.107  1.00  0.00    -0.061 Cl
BRANCH   9  12
HETATM   12  C   UNL     1      -2.197   5.605 -31.263  1.00  0.00     0.060 A 
HETATM   13  C   UNL     1      -2.078   6.910 -31.755  1.00  0.00     0.031 A 
HETATM   14  C   UNL     1      -0.827   7.536 -31.804  1.00  0.00     0.002 A 
HETATM   15  C   UNL     1       0.315   6.865 -31.376  1.00  0.00     0.000 A 
HETATM   16  C   UNL     1       0.214   5.558 -30.907  1.00  0.00     0.002 A 
HETATM   17  C   UNL     1      -1.032   4.929 -30.858  1.00  0.00     0.031 A 
ENDBRANCH   9  12
ENDBRANCH   1   5
BRANCH   2  18
HETATM   18  C   UNL     1      -7.416   1.068 -33.092  1.00  0.00     0.159 C 
BRANCH  18  19
HETATM   19  C   UNL     1      -6.930   0.554 -34.459  1.00  0.00     0.169 C 
BRANCH  19  20
HETATM   20  O   UNL     1      -8.055   0.392 -35.329  1.00  0.00    -0.389 OA
HETATM   21  H   UNL     1      -7.736   0.563 -36.234  1.00  0.00     0.210 HD
ENDBRANCH  19  20
BRANCH  19  22
HETATM   22  C   UNL     1      -6.126  -0.729 -34.364  1.00  0.00    -0.025 A 
HETATM   23  C   UNL     1      -6.533  -1.909 -35.008  1.00  0.00     0.053 A 
HETATM   24  C   UNL     1      -5.776  -3.073 -34.891  1.00  0.00     0.138 A 
HETATM   25  F   UNL     1      -6.191  -4.176 -35.534  1.00  0.00    -0.204 F 
HETATM   26  C   UNL     1      -4.612  -3.091 -34.129  1.00  0.00     0.072 A 
HETATM   27 CL   UNL     1      -3.672  -4.525 -33.986  1.00  0.00    -0.081 Cl
HETATM   28  C   UNL     1      -4.200  -1.932 -33.473  1.00  0.00     0.028 A 
HETATM   29  C   UNL     1      -4.954  -0.758 -33.589  1.00  0.00     0.012 A 
ENDBRANCH  19  22
ENDBRANCH  18  19
ENDBRANCH   2  18
TORSDOF 6
ENDMDL
MODEL 5
REMARK VINA RESULT:      -8.6      4.105      9.895
REMARK  6 active torsions:
REMARK  status: ('A' for Active; 'I' for Inactive)
REMARK    1  A    between atoms: N_4  and  C_5 
REMARK    2  A    between atoms: C_13  and  C_14 
REMARK       I    between atoms: C_14  and  N_15 
REMARK    3  A    between atoms: N_15  and  C_16 
REMARK    4  A    between atoms: C_16  and  C_17 
REMARK    5  A    between atoms: C_17  and  O_18 
REMARK    6  A    between atoms: C_17  and  C_19 
ROOT
HETATM    1  C   UNL     1      -6.232   2.704 -33.198  1.00  0.00     0.257 C 
HETATM    2  N   UNL     1      -5.383   3.682 -33.653  1.00  0.00    -0.354 N 
HETATM    3  O   UNL     1      -7.354   2.966 -32.773  1.00  0.00    -0.267 OA
HETATM    4  H   UNL     1      -4.543   3.414 -34.154  1.00  0.00     0.162 HD
ENDROOT
BRANCH   1   5
HETATM    5  C   UNL     1      -5.744   1.334 -33.285  1.00  0.00     0.098 C 
HETATM    6  C   UNL     1      -4.682   0.768 -32.530  1.00  0.00     0.070 C 
HETATM    7  C   UNL     1      -3.847   1.424 -31.487  1.00  0.00     0.073 C 
HETATM    8  N   UNL     1      -4.443  -0.504 -32.857  1.00  0.00    -0.170 NA
HETATM    9  N   UNL     1      -5.408  -0.834 -33.763  1.00  0.00    -0.221 N 
HETATM   10  C   UNL     1      -6.132   0.297 -34.110  1.00  0.00     0.145 C 
HETATM   11 CL   UNL     1      -7.189   0.331 -35.457  1.00  0.00    -0.061 Cl
BRANCH   9  12
HETATM   12  C   UNL     1      -5.530  -2.203 -34.155  1.00  0.00     0.060 A 
HETATM   13  C   UNL     1      -6.740  -2.765 -34.578  1.00  0.00     0.031 A 
HETATM   14  C   UNL     1      -6.808  -4.117 -34.933  1.00  0.00     0.002 A 
HETATM   15  C   UNL     1      -5.675  -4.923 -34.857  1.00  0.00     0.000 A 
HETATM   16  C   UNL     1      -4.471  -4.384 -34.415  1.00  0.00     0.002 A 
HETATM   17  C   UNL     1      -4.399  -3.036 -34.058  1.00  0.00     0.031 A 
ENDBRANCH   9  12
ENDBRANCH   1   5
BRANCH   2  18
HETATM   18  C   UNL     1      -5.821   5.059 -33.813  1.00  0.00     0.159 C 
BRANCH  18  19
HETATM   19  C   UNL     1      -5.566   5.919 -32.562  1.00  0.00     0.169 C 
BRANCH  19  20
HETATM   20  O   UNL     1      -6.277   7.155 -32.687  1.00  0.00    -0.389 OA
HETATM   21  H   UNL     1      -6.960   7.018 -33.369  1.00  0.00     0.210 HD
ENDBRANCH  19  20
BRANCH  19  22
HETATM   22  C   UNL     1      -4.092   6.164 -32.296  1.00  0.00    -0.025 A 
HETATM   23  C   UNL     1      -3.182   6.415 -33.335  1.00  0.00     0.053 A 
HETATM   24  C   UNL     1      -1.833   6.627 -33.055  1.00  0.00     0.138 A 
HETATM   25  F   UNL     1      -0.998   6.877 -34.074  1.00  0.00    -0.204 F 
HETATM   26  C   UNL     1      -1.364   6.584 -31.745  1.00  0.00     0.072 A 
HETATM   27 CL   UNL     1       0.299   6.848 -31.395  1.00  0.00    -0.081 Cl
HETATM   28  C   UNL     1      -2.252   6.323 -30.703  1.00  0.00     0.028 A 
HETATM   29  C   UNL     1      -3.608   6.114 -30.977  1.00  0.00     0.012 A 
ENDBRANCH  19  22
ENDBRANCH  18  19
ENDBRANCH   2  18
TORSDOF 6
ENDMDL
MODEL 6
REMARK VINA RESULT:      -8.5      7.291     10.537
REMARK  6 active torsions:
REMARK  status: ('A' for Active; 'I' for Inactive)
REMARK    1  A    between atoms: N_4  and  C_5 
REMARK    2  A    between atoms: C_13  and  C_14 
REMARK       I    between atoms: C_14  and  N_15 
REMARK    3  A    between atoms: N_15  and  C_16 
REMARK    4  A    between atoms: C_16  and  C_17 
REMARK    5  A    between atoms: C_17  and  O_18 
REMARK    6  A    between atoms: C_17  and  C_19 
ROOT
HETATM    1  C   UNL     1      -8.406   1.896 -32.558  1.00  0.00     0.257 C 
HETATM    2  N   UNL     1      -8.318   2.830 -33.561  1.00  0.00    -0.354 N 
HETATM    3  O   UNL     1      -9.209   2.010 -31.636  1.00  0.00    -0.267 OA
HETATM    4  H   UNL     1      -7.772   2.616 -34.388  1.00  0.00     0.162 HD
ENDROOT
BRANCH   1   5
HETATM    5  C   UNL     1      -7.521   0.745 -32.668  1.00  0.00     0.098 C 
HETATM    6  C   UNL     1      -6.588   0.302 -31.692  1.00  0.00     0.070 C 
HETATM    7  C   UNL     1      -6.313   0.890 -30.354  1.00  0.00     0.073 C 
HETATM    8  N   UNL     1      -5.892  -0.765 -32.096  1.00  0.00    -0.170 NA
HETATM    9  N   UNL     1      -6.424  -1.108 -33.305  1.00  0.00    -0.221 N 
HETATM   10  C   UNL     1      -7.332  -0.142 -33.710  1.00  0.00     0.145 C 
HETATM   11 CL   UNL     1      -7.936  -0.066 -35.311  1.00  0.00    -0.061 Cl
BRANCH   9  12
HETATM   12  C   UNL     1      -6.011  -2.341 -33.900  1.00  0.00     0.060 A 
HETATM   13  C   UNL     1      -6.912  -3.236 -34.489  1.00  0.00     0.031 A 
HETATM   14  C   UNL     1      -6.456  -4.438 -35.042  1.00  0.00     0.002 A 
HETATM   15  C   UNL     1      -5.103  -4.765 -35.001  1.00  0.00     0.000 A 
HETATM   16  C   UNL     1      -4.199  -3.895 -34.397  1.00  0.00     0.002 A 
HETATM   17  C   UNL     1      -4.650  -2.695 -33.843  1.00  0.00     0.031 A 
ENDBRANCH   9  12
ENDBRANCH   1   5
BRANCH   2  18
HETATM   18  C   UNL     1      -9.279   3.914 -33.681  1.00  0.00     0.159 C 
BRANCH  18  19
HETATM   19  C   UNL     1     -10.382   3.625 -34.716  1.00  0.00     0.169 C 
BRANCH  19  20
HETATM   20  O   UNL     1     -10.565   4.779 -35.544  1.00  0.00    -0.389 OA
HETATM   21  H   UNL     1      -9.675   5.113 -35.759  1.00  0.00     0.210 HD
ENDBRANCH  19  20
BRANCH  19  22
HETATM   22  C   UNL     1     -11.694   3.194 -34.087  1.00  0.00    -0.025 A 
HETATM   23  C   UNL     1     -12.549   2.273 -34.713  1.00  0.00     0.053 A 
HETATM   24  C   UNL     1     -13.752   1.907 -34.112  1.00  0.00     0.138 A 
HETATM   25  F   UNL     1     -14.535   1.013 -34.736  1.00  0.00    -0.204 F 
HETATM   26  C   UNL     1     -14.130   2.451 -32.888  1.00  0.00     0.072 A 
HETATM   27 CL   UNL     1     -15.611   1.998 -32.141  1.00  0.00    -0.081 Cl
HETATM   28  C   UNL     1     -13.298   3.376 -32.259  1.00  0.00     0.028 A 
HETATM   29  C   UNL     1     -12.087   3.745 -32.855  1.00  0.00     0.012 A 
ENDBRANCH  19  22
ENDBRANCH  18  19
ENDBRANCH   2  18
TORSDOF 6
ENDMDL
MODEL 7
REMARK VINA RESULT:      -8.4      3.214      9.842
REMARK  6 active torsions:
REMARK  status: ('A' for Active; 'I' for Inactive)
REMARK    1  A    between atoms: N_4  and  C_5 
REMARK    2  A    between atoms: C_13  and  C_14 
REMARK       I    between atoms: C_14  and  N_15 
REMARK    3  A    between atoms: N_15  and  C_16 
REMARK    4  A    between atoms: C_16  and  C_17 
REMARK    5  A    between atoms: C_17  and  O_18 
REMARK    6  A    between atoms: C_17  and  C_19 
ROOT
HETATM    1  C   UNL     1      -4.710   2.606 -31.659  1.00  0.00     0.257 C 
HETATM    2  N   UNL     1      -4.059   3.587 -32.365  1.00  0.00    -0.354 N 
HETATM    3  O   UNL     1      -4.866   2.677 -30.443  1.00  0.00    -0.267 OA
HETATM    4  H   UNL     1      -4.102   3.579 -33.378  1.00  0.00     0.162 HD
ENDROOT
BRANCH   1   5
HETATM    5  C   UNL     1      -5.241   1.495 -32.438  1.00  0.00     0.098 C 
HETATM    6  C   UNL     1      -6.269   1.565 -33.416  1.00  0.00     0.070 C 
HETATM    7  C   UNL     1      -7.018   2.767 -33.874  1.00  0.00     0.073 C 
HETATM    8  N   UNL     1      -6.564   0.371 -33.936  1.00  0.00    -0.170 NA
HETATM    9  N   UNL     1      -5.666  -0.496 -33.384  1.00  0.00    -0.221 N 
HETATM   10  C   UNL     1      -4.935   0.149 -32.399  1.00  0.00     0.145 C 
HETATM   11 CL   UNL     1      -3.964  -0.702 -31.273  1.00  0.00    -0.061 Cl
BRANCH   9  12
HETATM   12  C   UNL     1      -5.608  -1.829 -33.900  1.00  0.00     0.060 A 
HETATM   13  C   UNL     1      -4.406  -2.531 -34.048  1.00  0.00     0.031 A 
HETATM   14  C   UNL     1      -4.404  -3.827 -34.575  1.00  0.00     0.002 A 
HETATM   15  C   UNL     1      -5.595  -4.429 -34.972  1.00  0.00     0.000 A 
HETATM   16  C   UNL     1      -6.794  -3.733 -34.854  1.00  0.00     0.002 A 
HETATM   17  C   UNL     1      -6.801  -2.439 -34.329  1.00  0.00     0.031 A 
ENDBRANCH   9  12
ENDBRANCH   1   5
BRANCH   2  18
HETATM   18  C   UNL     1      -3.665   4.840 -31.743  1.00  0.00     0.159 C 
BRANCH  18  19
HETATM   19  C   UNL     1      -2.336   5.390 -32.292  1.00  0.00     0.169 C 
BRANCH  19  20
HETATM   20  O   UNL     1      -1.671   4.362 -33.035  1.00  0.00    -0.389 OA
HETATM   21  H   UNL     1      -2.308   3.631 -33.132  1.00  0.00     0.210 HD
ENDBRANCH  19  20
BRANCH  19  22
HETATM   22  C   UNL     1      -1.431   5.953 -31.213  1.00  0.00    -0.025 A 
HETATM   23  C   UNL     1      -0.478   5.159 -30.555  1.00  0.00     0.053 A 
HETATM   24  C   UNL     1       0.331   5.707 -29.561  1.00  0.00     0.138 A 
HETATM   25  F   UNL     1       1.239   4.918 -28.966  1.00  0.00    -0.204 F 
HETATM   26  C   UNL     1       0.204   7.044 -29.197  1.00  0.00     0.072 A 
HETATM   27 CL   UNL     1       1.204   7.725 -27.974  1.00  0.00    -0.081 Cl
HETATM   28  C   UNL     1      -0.746   7.844 -29.832  1.00  0.00     0.028 A 
HETATM   29  C   UNL     1      -1.558   7.301 -30.834  1.00  0.00     0.012 A 
ENDBRANCH  19  22
ENDBRANCH  18  19
ENDBRANCH   2  18
TORSDOF 6
ENDMDL
MODEL 8
REMARK VINA RESULT:      -8.3      4.285      9.019
REMARK  6 active torsions:
REMARK  status: ('A' for Active; 'I' for Inactive)
REMARK    1  A    between atoms: N_4  and  C_5 
REMARK    2  A    between atoms: C_13  and  C_14 
REMARK       I    between atoms: C_14  and  N_15 
REMARK    3  A    between atoms: N_15  and  C_16 
REMARK    4  A    between atoms: C_16  and  C_17 
REMARK    5  A    between atoms: C_17  and  O_18 
REMARK    6  A    between atoms: C_17  and  C_19 
ROOT
HETATM    1  C   UNL     1      -6.624   3.215 -30.986  1.00  0.00     0.257 C 
HETATM    2  N   UNL     1      -5.433   3.524 -30.376  1.00  0.00    -0.354 N 
HETATM    3  O   UNL     1      -7.673   3.775 -30.681  1.00  0.00    -0.267 OA
HETATM    4  H   UNL     1      -4.569   3.171 -30.772  1.00  0.00     0.162 HD
ENDROOT
BRANCH   1   5
HETATM    5  C   UNL     1      -6.567   2.213 -32.043  1.00  0.00     0.098 C 
HETATM    6  C   UNL     1      -6.683   2.453 -33.439  1.00  0.00     0.070 C 
HETATM    7  C   UNL     1      -6.873   3.755 -34.133  1.00  0.00     0.073 C 
HETATM    8  N   UNL     1      -6.627   1.328 -34.157  1.00  0.00    -0.170 NA
HETATM    9  N   UNL     1      -6.370   0.335 -33.257  1.00  0.00    -0.221 N 
HETATM   10  C   UNL     1      -6.439   0.841 -31.968  1.00  0.00     0.145 C 
HETATM   11 CL   UNL     1      -6.507  -0.174 -30.589  1.00  0.00    -0.061 Cl
BRANCH   9  12
HETATM   12  C   UNL     1      -6.059  -0.968 -33.758  1.00  0.00     0.060 A 
HETATM   13  C   UNL     1      -7.035  -1.838 -34.260  1.00  0.00     0.031 A 
HETATM   14  C   UNL     1      -6.679  -3.110 -34.721  1.00  0.00     0.002 A 
HETATM   15  C   UNL     1      -5.352  -3.532 -34.674  1.00  0.00     0.000 A 
HETATM   16  C   UNL     1      -4.376  -2.686 -34.154  1.00  0.00     0.002 A 
HETATM   17  C   UNL     1      -4.727  -1.416 -33.692  1.00  0.00     0.031 A 
ENDBRANCH   9  12
ENDBRANCH   1   5
BRANCH   2  18
HETATM   18  C   UNL     1      -5.315   4.644 -29.457  1.00  0.00     0.159 C 
BRANCH  18  19
HETATM   19  C   UNL     1      -4.951   5.962 -30.163  1.00  0.00     0.169 C 
BRANCH  19  20
HETATM   20  O   UNL     1      -6.152   6.630 -30.563  1.00  0.00    -0.389 OA
HETATM   21  H   UNL     1      -5.941   7.125 -31.375  1.00  0.00     0.210 HD
ENDBRANCH  19  20
BRANCH  19  22
HETATM   22  C   UNL     1      -4.016   5.771 -31.342  1.00  0.00    -0.025 A 
HETATM   23  C   UNL     1      -2.677   5.386 -31.173  1.00  0.00     0.053 A 
HETATM   24  C   UNL     1      -1.843   5.229 -32.279  1.00  0.00     0.138 A 
HETATM   25  F   UNL     1      -0.573   4.846 -32.075  1.00  0.00    -0.204 F 
HETATM   26  C   UNL     1      -2.318   5.460 -33.566  1.00  0.00     0.072 A 
HETATM   27 CL   UNL     1      -1.293   5.263 -34.934  1.00  0.00    -0.081 Cl
HETATM   28  C   UNL     1      -3.642   5.855 -33.752  1.00  0.00     0.028 A 
HETATM   29  C   UNL     1      -4.486   6.011 -32.646  1.00  0.00     0.012 A 
ENDBRANCH  19  22
ENDBRANCH  18  19
ENDBRANCH   2  18
TORSDOF 6
ENDMDL
MODEL 9
REMARK VINA RESULT:      -8.2      5.697      9.367
REMARK  6 active torsions:
REMARK  status: ('A' for Active; 'I' for Inactive)
REMARK    1  A    between atoms: N_4  and  C_5 
REMARK    2  A    between atoms: C_13  and  C_14 
REMARK       I    between atoms: C_14  and  N_15 
REMARK    3  A    between atoms: N_15  and  C_16 
REMARK    4  A    between atoms: C_16  and  C_17 
REMARK    5  A    between atoms: C_17  and  O_18 
REMARK    6  A    between atoms: C_17  and  C_19 
ROOT
HETATM    1  C   UNL     1      -6.649   2.434 -33.518  1.00  0.00     0.257 C 
HETATM    2  N   UNL     1      -7.898   2.252 -32.978  1.00  0.00    -0.354 N 
HETATM    3  O   UNL     1      -6.353   3.452 -34.137  1.00  0.00    -0.267 OA
HETATM    4  H   UNL     1      -8.051   1.486 -32.332  1.00  0.00     0.162 HD
ENDROOT
BRANCH   1   5
HETATM    5  C   UNL     1      -5.683   1.369 -33.284  1.00  0.00     0.098 C 
HETATM    6  C   UNL     1      -4.494   1.464 -32.512  1.00  0.00     0.070 C 
HETATM    7  C   UNL     1      -3.975   2.644 -31.769  1.00  0.00     0.073 C 
HETATM    8  N   UNL     1      -3.792   0.327 -32.511  1.00  0.00    -0.170 NA
HETATM    9  N   UNL     1      -4.556  -0.571 -33.198  1.00  0.00    -0.221 N 
HETATM   10  C   UNL     1      -5.647   0.074 -33.761  1.00  0.00     0.145 C 
HETATM   11 CL   UNL     1      -6.626  -0.661 -34.959  1.00  0.00    -0.061 Cl
BRANCH   9  12
HETATM   12  C   UNL     1      -4.152  -1.942 -33.196  1.00  0.00     0.060 A 
HETATM   13  C   UNL     1      -4.484  -2.830 -34.227  1.00  0.00     0.031 A 
HETATM   14  C   UNL     1      -4.079  -4.168 -34.167  1.00  0.00     0.002 A 
HETATM   15  C   UNL     1      -3.351  -4.636 -33.076  1.00  0.00     0.000 A 
HETATM   16  C   UNL     1      -3.035  -3.771 -32.033  1.00  0.00     0.002 A 
HETATM   17  C   UNL     1      -3.438  -2.435 -32.088  1.00  0.00     0.031 A 
ENDBRANCH   9  12
ENDBRANCH   1   5
BRANCH   2  18
HETATM   18  C   UNL     1      -8.885   3.319 -32.962  1.00  0.00     0.159 C 
BRANCH  18  19
HETATM   19  C   UNL     1      -9.820   3.290 -34.184  1.00  0.00     0.169 C 
BRANCH  19  20
HETATM   20  O   UNL     1      -9.834   4.584 -34.798  1.00  0.00    -0.389 OA
HETATM   21  H   UNL     1     -10.394   4.512 -35.591  1.00  0.00     0.210 HD
ENDBRANCH  19  20
BRANCH  19  22
HETATM   22  C   UNL     1     -11.227   2.832 -33.850  1.00  0.00    -0.025 A 
HETATM   23  C   UNL     1     -11.608   1.483 -33.934  1.00  0.00     0.053 A 
HETATM   24  C   UNL     1     -12.912   1.098 -33.629  1.00  0.00     0.138 A 
HETATM   25  F   UNL     1     -13.233  -0.202 -33.708  1.00  0.00    -0.204 F 
HETATM   26  C   UNL     1     -13.861   2.042 -33.246  1.00  0.00     0.072 A 
HETATM   27 CL   UNL     1     -15.471   1.571 -32.865  1.00  0.00    -0.081 Cl
HETATM   28  C   UNL     1     -13.503   3.387 -33.170  1.00  0.00     0.028 A 
HETATM   29  C   UNL     1     -12.194   3.780 -33.471  1.00  0.00     0.012 A 
ENDBRANCH  19  22
ENDBRANCH  18  19
ENDBRANCH   2  18
TORSDOF 6
ENDMDL
MODEL 10
REMARK VINA RESULT:      -8.2      2.798      3.818
REMARK  6 active torsions:
REMARK  status: ('A' for Active; 'I' for Inactive)
REMARK    1  A    between atoms: N_4  and  C_5 
REMARK    2  A    between atoms: C_13  and  C_14 
REMARK       I    between atoms: C_14  and  N_15 
REMARK    3  A    between atoms: N_15  and  C_16 
REMARK    4  A    between atoms: C_16  and  C_17 
REMARK    5  A    between atoms: C_17  and  O_18 
REMARK    6  A    between atoms: C_17  and  C_19 
ROOT
HETATM    1  C   UNL     1      -5.755   3.482 -33.523  1.00  0.00     0.257 C 
HETATM    2  N   UNL     1      -5.730   2.135 -33.261  1.00  0.00    -0.354 N 
HETATM    3  O   UNL     1      -6.715   4.019 -34.067  1.00  0.00    -0.267 OA
HETATM    4  H   UNL     1      -5.004   1.761 -32.660  1.00  0.00     0.162 HD
ENDROOT
BRANCH   1   5
HETATM    5  C   UNL     1      -4.595   4.246 -33.084  1.00  0.00     0.098 C 
HETATM    6  C   UNL     1      -3.713   4.992 -33.913  1.00  0.00     0.070 C 
HETATM    7  C   UNL     1      -3.775   5.173 -35.388  1.00  0.00     0.073 C 
HETATM    8  N   UNL     1      -2.719   5.557 -33.224  1.00  0.00    -0.170 NA
HETATM    9  N   UNL     1      -2.982   5.281 -31.914  1.00  0.00    -0.221 N 
HETATM   10  C   UNL     1      -4.049   4.401 -31.825  1.00  0.00     0.145 C 
HETATM   11 CL   UNL     1      -4.439   3.577 -30.375  1.00  0.00    -0.061 Cl
BRANCH   9  12
HETATM   12  C   UNL     1      -2.189   5.926 -30.914  1.00  0.00     0.060 A 
HETATM   13  C   UNL     1      -2.734   6.799 -29.964  1.00  0.00     0.031 A 
HETATM   14  C   UNL     1      -1.910   7.419 -29.018  1.00  0.00     0.002 A 
HETATM   15  C   UNL     1      -0.537   7.186 -29.018  1.00  0.00     0.000 A 
HETATM   16  C   UNL     1       0.021   6.339 -29.971  1.00  0.00     0.002 A 
HETATM   17  C   UNL     1      -0.797   5.719 -30.918  1.00  0.00     0.031 A 
ENDBRANCH   9  12
ENDBRANCH   1   5
BRANCH   2  18
HETATM   18  C   UNL     1      -6.902   1.298 -33.459  1.00  0.00     0.159 C 
BRANCH  18  19
HETATM   19  C   UNL     1      -6.842   0.481 -34.762  1.00  0.00     0.169 C 
BRANCH  19  20
HETATM   20  O   UNL     1      -8.158   0.381 -35.317  1.00  0.00    -0.389 OA
HETATM   21  H   UNL     1      -8.158  -0.399 -35.901  1.00  0.00     0.210 HD
ENDBRANCH  19  20
BRANCH  19  22
HETATM   22  C   UNL     1      -6.223  -0.892 -34.579  1.00  0.00    -0.025 A 
HETATM   23  C   UNL     1      -6.877  -2.062 -34.999  1.00  0.00     0.053 A 
HETATM   24  C   UNL     1      -6.284  -3.309 -34.806  1.00  0.00     0.138 A 
HETATM   25  F   UNL     1      -6.934  -4.402 -35.234  1.00  0.00    -0.204 F 
HETATM   26  C   UNL     1      -5.041  -3.417 -34.189  1.00  0.00     0.072 A 
HETATM   27 CL   UNL     1      -4.304  -4.953 -33.953  1.00  0.00    -0.081 Cl
HETATM   28  C   UNL     1      -4.384  -2.266 -33.755  1.00  0.00     0.028 A 
HETATM   29  C   UNL     1      -4.973  -1.011 -33.949  1.00  0.00     0.012 A 
ENDBRANCH  19  22
ENDBRANCH  18  19
ENDBRANCH   2  18
TORSDOF 6
ENDMDL
