MODEL 1
REMARK VINA RESULT:      -9.2      0.000      0.000
REMARK  3 active torsions:
REMARK  status: ('A' for Active; 'I' for Inactive)
REMARK    1  A    between atoms: C_4  and  C_5 
REMARK    2  A    between atoms: C_12  and  N_13 
REMARK       I    between atoms: N_13  and  C_14 
REMARK    3  A    between atoms: C_14  and  C_15 
ROOT
HETATM    1  C   UNL     1      -5.644  -3.550 -35.303  1.00  0.00     0.048 C 
HETATM    2  C   UNL     1      -5.732  -2.321 -34.448  1.00  0.00    -0.060 A 
HETATM    3  C   UNL     1      -6.864  -1.506 -34.483  1.00  0.00     0.023 A 
HETATM    4  C   UNL     1      -6.964  -0.376 -33.655  1.00  0.00     0.020 A 
HETATM    5  C   UNL     1      -5.906  -0.049 -32.769  1.00  0.00     0.053 A 
HETATM    6  C   UNL     1      -4.795  -0.910 -32.673  1.00  0.00    -0.034 A 
HETATM    7  C   UNL     1      -3.737  -0.832 -31.604  1.00  0.00     0.050 C 
HETATM    8  C   UNL     1      -4.713  -2.019 -33.541  1.00  0.00     0.015 A 
ENDROOT
BRANCH   5   9
HETATM    9  N   UNL     1      -6.116   1.022 -31.880  1.00  0.00    -0.322 N 
HETATM   10  C   UNL     1      -5.441   2.190 -31.673  1.00  0.00     0.278 C 
HETATM   11  O   UNL     1      -5.775   2.849 -30.676  1.00  0.00    -0.268 OA
HETATM   12  H   UNL     1      -6.979   0.990 -31.345  1.00  0.00     0.169 HD
BRANCH  10  13
HETATM   13  C   UNL     1      -4.434   2.787 -32.695  1.00  0.00     0.366 C 
HETATM   14  O   UNL     1      -4.796   3.873 -33.546  1.00  0.00    -0.308 OA
HETATM   15  C   UNL     1      -3.659   4.616 -33.531  1.00  0.00     0.106 A 
HETATM   16  C   UNL     1      -2.760   4.164 -32.595  1.00  0.00     0.106 A 
HETATM   17  C   UNL     1      -3.385   5.699 -34.338  1.00  0.00     0.040 A 
HETATM   18  O   UNL     1      -3.227   3.075 -31.930  1.00  0.00    -0.308 OA
HETATM   19  C   UNL     1      -1.541   4.776 -32.400  1.00  0.00     0.040 A 
HETATM   20  C   UNL     1      -1.232   5.873 -33.211  1.00  0.00     0.003 A 
HETATM   21  C   UNL     1      -2.148   6.329 -34.177  1.00  0.00     0.003 A 
ENDBRANCH  10  13
ENDBRANCH   5   9
BRANCH   4  22
HETATM   22  C   UNL     1      -8.177   0.437 -33.761  1.00  0.00     0.064 A 
HETATM   23  N   UNL     1      -8.221   1.654 -34.395  1.00  0.00    -0.277 N 
HETATM   24  H   UNL     1      -7.460   2.143 -34.854  1.00  0.00     0.189 HD
HETATM   25  N   UNL     1      -9.434   2.232 -34.375  1.00  0.00    -0.179 NA
HETATM   26  C   UNL     1     -10.205   1.351 -33.728  1.00  0.00     0.053 A 
HETATM   27  C   UNL     1     -11.645   1.625 -33.506  1.00  0.00     0.072 C 
HETATM   28  C   UNL     1      -9.470   0.209 -33.337  1.00  0.00     0.060 A 
ENDBRANCH   4  22
TORSDOF 3
ENDMDL
MODEL 2
REMARK VINA RESULT:      -8.7      1.811      2.649
REMARK  3 active torsions:
REMARK  status: ('A' for Active; 'I' for Inactive)
REMARK    1  A    between atoms: C_4  and  C_5 
REMARK    2  A    between atoms: C_12  and  N_13 
REMARK       I    between atoms: N_13  and  C_14 
REMARK    3  A    between atoms: C_14  and  C_15 
ROOT
HETATM    1  C   UNL     1      -5.493  -1.982 -34.210  1.00  0.00     0.048 C 
HETATM    2  C   UNL     1      -6.233  -0.957 -33.401  1.00  0.00    -0.060 A 
HETATM    3  C   UNL     1      -7.388  -0.353 -33.897  1.00  0.00     0.023 A 
HETATM    4  C   UNL     1      -8.103   0.577 -33.126  1.00  0.00     0.020 A 
HETATM    5  C   UNL     1      -7.653   0.917 -31.825  1.00  0.00     0.053 A 
HETATM    6  C   UNL     1      -6.531   0.254 -31.288  1.00  0.00    -0.034 A 
HETATM    7  C   UNL     1      -6.103   0.319 -29.845  1.00  0.00     0.050 C 
HETATM    8  C   UNL     1      -5.819  -0.652 -32.101  1.00  0.00     0.015 A 
ENDROOT
BRANCH   5   9
HETATM    9  N   UNL     1      -8.476   1.761 -31.056  1.00  0.00    -0.322 N 
HETATM   10  C   UNL     1      -8.286   3.011 -30.543  1.00  0.00     0.278 C 
HETATM   11  O   UNL     1      -9.145   3.414 -29.743  1.00  0.00    -0.268 OA
HETATM   12  H   UNL     1      -9.432   1.444 -30.922  1.00  0.00     0.169 HD
BRANCH  10  13
HETATM   13  C   UNL     1      -7.173   3.977 -31.037  1.00  0.00     0.366 C 
HETATM   14  O   UNL     1      -5.794   3.707 -30.791  1.00  0.00    -0.308 OA
HETATM   15  C   UNL     1      -5.233   4.087 -31.969  1.00  0.00     0.106 A 
HETATM   16  C   UNL     1      -6.179   4.355 -32.928  1.00  0.00     0.106 A 
HETATM   17  C   UNL     1      -3.884   4.211 -32.224  1.00  0.00     0.040 A 
HETATM   18  O   UNL     1      -7.441   4.189 -32.454  1.00  0.00    -0.308 OA
HETATM   19  C   UNL     1      -5.834   4.748 -34.203  1.00  0.00     0.040 A 
HETATM   20  C   UNL     1      -4.473   4.891 -34.489  1.00  0.00     0.003 A 
HETATM   21  C   UNL     1      -3.504   4.627 -33.502  1.00  0.00     0.003 A 
ENDBRANCH  10  13
ENDBRANCH   5   9
BRANCH   4  22
HETATM   22  C   UNL     1      -9.297   1.178 -33.723  1.00  0.00     0.064 A 
HETATM   23  N   UNL     1      -9.292   2.381 -34.384  1.00  0.00    -0.277 N 
HETATM   24  H   UNL     1      -8.502   2.998 -34.544  1.00  0.00     0.189 HD
HETATM   25  N   UNL     1     -10.496   2.747 -34.853  1.00  0.00    -0.179 NA
HETATM   26  C   UNL     1     -11.303   1.739 -34.505  1.00  0.00     0.053 A 
HETATM   27  C   UNL     1     -12.742   1.765 -34.859  1.00  0.00     0.072 C 
HETATM   28  C   UNL     1     -10.600   0.730 -33.810  1.00  0.00     0.060 A 
ENDBRANCH   4  22
TORSDOF 3
ENDMDL
MODEL 3
REMARK VINA RESULT:      -8.6     15.495     17.260
REMARK  3 active torsions:
REMARK  status: ('A' for Active; 'I' for Inactive)
REMARK    1  A    between atoms: C_4  and  C_5 
REMARK    2  A    between atoms: C_12  and  N_13 
REMARK       I    between atoms: N_13  and  C_14 
REMARK    3  A    between atoms: C_14  and  C_15 
ROOT
HETATM    1  C   UNL     1     -10.472 -13.476 -39.883  1.00  0.00     0.048 C 
HETATM    2  C   UNL     1      -9.131 -13.141 -39.301  1.00  0.00    -0.060 A 
HETATM    3  C   UNL     1      -8.791 -13.545 -38.010  1.00  0.00     0.023 A 
HETATM    4  C   UNL     1      -7.523 -13.266 -37.477  1.00  0.00     0.020 A 
HETATM    5  C   UNL     1      -6.566 -12.563 -38.253  1.00  0.00     0.053 A 
HETATM    6  C   UNL     1      -6.874 -12.220 -39.585  1.00  0.00    -0.034 A 
HETATM    7  C   UNL     1      -5.878 -11.715 -40.595  1.00  0.00     0.050 C 
HETATM    8  C   UNL     1      -8.169 -12.488 -40.077  1.00  0.00     0.015 A 
ENDROOT
BRANCH   5   9
HETATM    9  N   UNL     1      -5.274 -12.420 -37.712  1.00  0.00    -0.322 N 
HETATM   10  C   UNL     1      -4.170 -13.222 -37.744  1.00  0.00     0.278 C 
HETATM   11  O   UNL     1      -3.229 -12.892 -37.006  1.00  0.00    -0.268 OA
HETATM   12  H   UNL     1      -5.067 -11.517 -37.295  1.00  0.00     0.169 HD
BRANCH  10  13
HETATM   13  C   UNL     1      -3.988 -14.384 -38.760  1.00  0.00     0.366 C 
HETATM   14  O   UNL     1      -5.111 -15.070 -39.310  1.00  0.00    -0.308 OA
HETATM   15  C   UNL     1      -4.718 -15.236 -40.600  1.00  0.00     0.106 A 
HETATM   16  C   UNL     1      -3.572 -14.534 -40.884  1.00  0.00     0.106 A 
HETATM   17  C   UNL     1      -5.352 -16.007 -41.550  1.00  0.00     0.040 A 
HETATM   18  O   UNL     1      -3.108 -13.862 -39.798  1.00  0.00    -0.308 OA
HETATM   19  C   UNL     1      -2.999 -14.549 -42.137  1.00  0.00     0.040 A 
HETATM   20  C   UNL     1      -3.615 -15.330 -43.119  1.00  0.00     0.003 A 
HETATM   21  C   UNL     1      -4.783 -16.058 -42.826  1.00  0.00     0.003 A 
ENDBRANCH  10  13
ENDBRANCH   5   9
BRANCH   4  22
HETATM   22  C   UNL     1      -7.248 -13.710 -36.109  1.00  0.00     0.064 A 
HETATM   23  N   UNL     1      -7.429 -12.918 -35.004  1.00  0.00    -0.277 N 
HETATM   24  H   UNL     1      -7.758 -11.958 -34.975  1.00  0.00     0.189 HD
HETATM   25  N   UNL     1      -7.115 -13.522 -33.846  1.00  0.00    -0.179 NA
HETATM   26  C   UNL     1      -6.742 -14.753 -34.211  1.00  0.00     0.053 A 
HETATM   27  C   UNL     1      -6.322 -15.749 -33.196  1.00  0.00     0.072 C 
HETATM   28  C   UNL     1      -6.820 -14.924 -35.611  1.00  0.00     0.060 A 
ENDBRANCH   4  22
TORSDOF 3
ENDMDL
MODEL 4
REMARK VINA RESULT:      -8.4      2.066      5.887
REMARK  3 active torsions:
REMARK  status: ('A' for Active; 'I' for Inactive)
REMARK    1  A    between atoms: C_4  and  C_5 
REMARK    2  A    between atoms: C_12  and  N_13 
REMARK       I    between atoms: N_13  and  C_14 
REMARK    3  A    between atoms: C_14  and  C_15 
ROOT
HETATM    1  C   UNL     1      -3.746   5.476 -35.061  1.00  0.00     0.048 C 
HETATM    2  C   UNL     1      -4.356   4.527 -34.071  1.00  0.00    -0.060 A 
HETATM    3  C   UNL     1      -5.688   4.130 -34.191  1.00  0.00     0.023 A 
HETATM    4  C   UNL     1      -6.250   3.213 -33.288  1.00  0.00     0.020 A 
HETATM    5  C   UNL     1      -5.463   2.679 -32.236  1.00  0.00     0.053 A 
HETATM    6  C   UNL     1      -4.097   3.016 -32.155  1.00  0.00    -0.034 A 
HETATM    7  C   UNL     1      -3.093   2.333 -31.265  1.00  0.00     0.050 C 
HETATM    8  C   UNL     1      -3.574   3.964 -33.060  1.00  0.00     0.015 A 
ENDROOT
BRANCH   5   9
HETATM    9  N   UNL     1      -6.045   1.675 -31.439  1.00  0.00    -0.322 N 
HETATM   10  C   UNL     1      -6.329   0.362 -31.676  1.00  0.00     0.278 C 
HETATM   11  O   UNL     1      -7.018  -0.215 -30.822  1.00  0.00    -0.268 OA
HETATM   12  H   UNL     1      -6.208   1.922 -30.467  1.00  0.00     0.169 HD
BRANCH  10  13
HETATM   13  C   UNL     1      -5.698  -0.451 -32.842  1.00  0.00     0.366 C 
HETATM   14  O   UNL     1      -4.615  -1.352 -32.617  1.00  0.00    -0.308 OA
HETATM   15  C   UNL     1      -4.954  -2.386 -33.429  1.00  0.00     0.106 A 
HETATM   16  C   UNL     1      -6.223  -2.247 -33.938  1.00  0.00     0.106 A 
HETATM   17  C   UNL     1      -4.159  -3.467 -33.744  1.00  0.00     0.040 A 
HETATM   18  O   UNL     1      -6.815  -1.101 -33.514  1.00  0.00    -0.308 OA
HETATM   19  C   UNL     1      -6.777  -3.187 -34.780  1.00  0.00     0.040 A 
HETATM   20  C   UNL     1      -5.991  -4.290 -35.124  1.00  0.00     0.003 A 
HETATM   21  C   UNL     1      -4.687  -4.427 -34.612  1.00  0.00     0.003 A 
ENDBRANCH  10  13
ENDBRANCH   5   9
BRANCH   4  22
HETATM   22  C   UNL     1      -7.658   2.857 -33.471  1.00  0.00     0.064 A 
HETATM   23  N   UNL     1      -8.084   1.844 -34.293  1.00  0.00    -0.277 N 
HETATM   24  H   UNL     1      -7.516   1.229 -34.866  1.00  0.00     0.189 HD
HETATM   25  N   UNL     1      -9.418   1.687 -34.315  1.00  0.00    -0.179 NA
HETATM   26  C   UNL     1      -9.869   2.613 -33.461  1.00  0.00     0.053 A 
HETATM   27  C   UNL     1     -11.321   2.755 -33.198  1.00  0.00     0.072 C 
HETATM   28  C   UNL     1      -8.810   3.359 -32.899  1.00  0.00     0.060 A 
ENDBRANCH   4  22
TORSDOF 3
ENDMDL
MODEL 5
REMARK VINA RESULT:      -8.3      2.814      6.881
REMARK  3 active torsions:
REMARK  status: ('A' for Active; 'I' for Inactive)
REMARK    1  A    between atoms: C_4  and  C_5 
REMARK    2  A    between atoms: C_12  and  N_13 
REMARK       I    between atoms: N_13  and  C_14 
REMARK    3  A    between atoms: C_14  and  C_15 
ROOT
HETATM    1  C   UNL     1      -8.619   4.669 -31.195  1.00  0.00     0.048 C 
HETATM    2  C   UNL     1      -7.381   3.821 -31.161  1.00  0.00    -0.060 A 
HETATM    3  C   UNL     1      -6.173   4.299 -31.669  1.00  0.00     0.023 A 
HETATM    4  C   UNL     1      -5.006   3.522 -31.603  1.00  0.00     0.020 A 
HETATM    5  C   UNL     1      -5.044   2.231 -31.016  1.00  0.00     0.053 A 
HETATM    6  C   UNL     1      -6.242   1.774 -30.432  1.00  0.00    -0.034 A 
HETATM    7  C   UNL     1      -6.361   0.555 -29.555  1.00  0.00     0.050 C 
HETATM    8  C   UNL     1      -7.403   2.567 -30.543  1.00  0.00     0.015 A 
ENDROOT
BRANCH   5   9
HETATM    9  N   UNL     1      -3.820   1.551 -30.870  1.00  0.00    -0.322 N 
HETATM   10  C   UNL     1      -3.299   0.453 -31.490  1.00  0.00     0.278 C 
HETATM   11  O   UNL     1      -2.259  -0.013 -31.001  1.00  0.00    -0.268 OA
HETATM   12  H   UNL     1      -3.138   1.995 -30.262  1.00  0.00     0.169 HD
BRANCH  10  13
HETATM   13  C   UNL     1      -3.842  -0.106 -32.835  1.00  0.00     0.366 C 
HETATM   14  O   UNL     1      -3.309  -1.297 -33.412  1.00  0.00    -0.308 OA
HETATM   15  C   UNL     1      -4.436  -1.896 -33.879  1.00  0.00     0.106 A 
HETATM   16  C   UNL     1      -5.575  -1.260 -33.446  1.00  0.00     0.106 A 
HETATM   17  C   UNL     1      -4.488  -3.004 -34.695  1.00  0.00     0.040 A 
HETATM   18  O   UNL     1      -5.288  -0.181 -32.672  1.00  0.00    -0.308 OA
HETATM   19  C   UNL     1      -6.832  -1.704 -33.791  1.00  0.00     0.040 A 
HETATM   20  C   UNL     1      -6.917  -2.822 -34.626  1.00  0.00     0.003 A 
HETATM   21  C   UNL     1      -5.750  -3.466 -35.078  1.00  0.00     0.003 A 
ENDBRANCH  10  13
ENDBRANCH   5   9
BRANCH   4  22
HETATM   22  C   UNL     1      -3.781   4.088 -32.172  1.00  0.00     0.064 A 
HETATM   23  N   UNL     1      -2.658   4.360 -31.433  1.00  0.00    -0.277 N 
HETATM   24  H   UNL     1      -2.520   4.221 -30.438  1.00  0.00     0.189 HD
HETATM   25  N   UNL     1      -1.648   4.877 -32.153  1.00  0.00    -0.179 NA
HETATM   26  C   UNL     1      -2.124   4.918 -33.402  1.00  0.00     0.053 A 
HETATM   27  C   UNL     1      -1.288   5.429 -34.514  1.00  0.00     0.072 C 
HETATM   28  C   UNL     1      -3.446   4.424 -33.468  1.00  0.00     0.060 A 
ENDBRANCH   4  22
TORSDOF 3
ENDMDL
MODEL 6
REMARK VINA RESULT:      -8.1      2.127      4.088
REMARK  3 active torsions:
REMARK  status: ('A' for Active; 'I' for Inactive)
REMARK    1  A    between atoms: C_4  and  C_5 
REMARK    2  A    between atoms: C_12  and  N_13 
REMARK       I    between atoms: N_13  and  C_14 
REMARK    3  A    between atoms: C_14  and  C_15 
ROOT
HETATM    1  C   UNL     1     -10.502   1.736 -34.177  1.00  0.00     0.048 C 
HETATM    2  C   UNL     1      -9.324   1.191 -33.424  1.00  0.00    -0.060 A 
HETATM    3  C   UNL     1      -8.565   0.143 -33.945  1.00  0.00     0.023 A 
HETATM    4  C   UNL     1      -7.440  -0.343 -33.259  1.00  0.00     0.020 A 
HETATM    5  C   UNL     1      -7.062   0.231 -32.019  1.00  0.00     0.053 A 
HETATM    6  C   UNL     1      -7.777   1.340 -31.524  1.00  0.00    -0.034 A 
HETATM    7  C   UNL     1      -7.336   2.204 -30.372  1.00  0.00     0.050 C 
HETATM    8  C   UNL     1      -8.921   1.782 -32.223  1.00  0.00     0.015 A 
ENDROOT
BRANCH   5   9
HETATM    9  N   UNL     1      -5.859  -0.215 -31.440  1.00  0.00    -0.322 N 
HETATM   10  C   UNL     1      -4.562   0.177 -31.599  1.00  0.00     0.278 C 
HETATM   11  O   UNL     1      -3.700  -0.546 -31.076  1.00  0.00    -0.268 OA
HETATM   12  H   UNL     1      -5.954  -0.891 -30.688  1.00  0.00     0.169 HD
BRANCH  10  13
HETATM   13  C   UNL     1      -4.152   1.535 -32.235  1.00  0.00     0.366 C 
HETATM   14  O   UNL     1      -4.933   2.137 -33.266  1.00  0.00    -0.308 OA
HETATM   15  C   UNL     1      -4.882   3.447 -32.910  1.00  0.00     0.106 A 
HETATM   16  C   UNL     1      -4.319   3.623 -31.669  1.00  0.00     0.106 A 
HETATM   17  C   UNL     1      -5.322   4.512 -33.666  1.00  0.00     0.040 A 
HETATM   18  O   UNL     1      -3.939   2.443 -31.115  1.00  0.00    -0.308 OA
HETATM   19  C   UNL     1      -4.176   4.872 -31.105  1.00  0.00     0.040 A 
HETATM   20  C   UNL     1      -4.605   5.972 -31.852  1.00  0.00     0.003 A 
HETATM   21  C   UNL     1      -5.172   5.793 -33.128  1.00  0.00     0.003 A 
ENDBRANCH  10  13
ENDBRANCH   5   9
BRANCH   4  22
HETATM   22  C   UNL     1      -6.704  -1.455 -33.864  1.00  0.00     0.064 A 
HETATM   23  N   UNL     1      -5.399  -1.365 -34.276  1.00  0.00    -0.277 N 
HETATM   24  H   UNL     1      -4.786  -0.558 -34.228  1.00  0.00     0.189 HD
HETATM   25  N   UNL     1      -4.918  -2.503 -34.805  1.00  0.00    -0.179 NA
HETATM   26  C   UNL     1      -5.937  -3.364 -34.710  1.00  0.00     0.053 A 
HETATM   27  C   UNL     1      -5.795  -4.760 -35.188  1.00  0.00     0.072 C 
HETATM   28  C   UNL     1      -7.070  -2.761 -34.118  1.00  0.00     0.060 A 
ENDBRANCH   4  22
TORSDOF 3
ENDMDL
MODEL 7
REMARK VINA RESULT:      -8.1      2.887      6.488
REMARK  3 active torsions:
REMARK  status: ('A' for Active; 'I' for Inactive)
REMARK    1  A    between atoms: C_4  and  C_5 
REMARK    2  A    between atoms: C_12  and  N_13 
REMARK       I    between atoms: N_13  and  C_14 
REMARK    3  A    between atoms: C_14  and  C_15 
ROOT
HETATM    1  C   UNL     1     -12.122   3.526 -35.996  1.00  0.00     0.048 C 
HETATM    2  C   UNL     1     -11.071   3.085 -35.021  1.00  0.00    -0.060 A 
HETATM    3  C   UNL     1     -10.049   3.950 -34.631  1.00  0.00     0.023 A 
HETATM    4  C   UNL     1      -9.087   3.552 -33.689  1.00  0.00     0.020 A 
HETATM    5  C   UNL     1      -9.143   2.254 -33.122  1.00  0.00     0.053 A 
HETATM    6  C   UNL     1     -10.216   1.401 -33.453  1.00  0.00    -0.034 A 
HETATM    7  C   UNL     1     -10.545   0.116 -32.740  1.00  0.00     0.050 C 
HETATM    8  C   UNL     1     -11.147   1.822 -34.426  1.00  0.00     0.015 A 
ENDROOT
BRANCH   5   9
HETATM    9  N   UNL     1      -8.226   1.955 -32.097  1.00  0.00    -0.322 N 
HETATM   10  C   UNL     1      -7.234   1.024 -31.993  1.00  0.00     0.278 C 
HETATM   11  O   UNL     1      -6.717   0.894 -30.873  1.00  0.00    -0.268 OA
HETATM   12  H   UNL     1      -8.215   2.601 -31.312  1.00  0.00     0.169 HD
BRANCH  10  13
HETATM   13  C   UNL     1      -6.635   0.275 -33.216  1.00  0.00     0.366 C 
HETATM   14  O   UNL     1      -5.264  -0.120 -33.245  1.00  0.00    -0.308 OA
HETATM   15  C   UNL     1      -5.351  -1.346 -33.824  1.00  0.00     0.106 A 
HETATM   16  C   UNL     1      -6.653  -1.769 -33.941  1.00  0.00     0.106 A 
HETATM   17  C   UNL     1      -4.294  -2.113 -34.264  1.00  0.00     0.040 A 
HETATM   18  O   UNL     1      -7.529  -0.848 -33.464  1.00  0.00    -0.308 OA
HETATM   19  C   UNL     1      -6.974  -2.991 -34.492  1.00  0.00     0.040 A 
HETATM   20  C   UNL     1      -5.924  -3.788 -34.955  1.00  0.00     0.003 A 
HETATM   21  C   UNL     1      -4.591  -3.349 -34.845  1.00  0.00     0.003 A 
ENDBRANCH  10  13
ENDBRANCH   5   9
BRANCH   4  22
HETATM   22  C   UNL     1      -8.038   4.513 -33.343  1.00  0.00     0.064 A 
HETATM   23  N   UNL     1      -6.795   4.522 -33.924  1.00  0.00    -0.277 N 
HETATM   24  H   UNL     1      -6.439   3.895 -34.638  1.00  0.00     0.189 HD
HETATM   25  N   UNL     1      -5.985   5.487 -33.459  1.00  0.00    -0.179 NA
HETATM   26  C   UNL     1      -6.736   6.140 -32.565  1.00  0.00     0.053 A 
HETATM   27  C   UNL     1      -6.191   7.303 -31.824  1.00  0.00     0.072 C 
HETATM   28  C   UNL     1      -8.028   5.579 -32.465  1.00  0.00     0.060 A 
ENDBRANCH   4  22
TORSDOF 3
ENDMDL
MODEL 8
REMARK VINA RESULT:      -8.0      2.482      5.894
REMARK  3 active torsions:
REMARK  status: ('A' for Active; 'I' for Inactive)
REMARK    1  A    between atoms: C_4  and  C_5 
REMARK    2  A    between atoms: C_12  and  N_13 
REMARK       I    between atoms: N_13  and  C_14 
REMARK    3  A    between atoms: C_14  and  C_15 
ROOT
HETATM    1  C   UNL     1      -3.413  -1.373 -33.297  1.00  0.00     0.048 C 
HETATM    2  C   UNL     1      -3.762  -0.173 -32.466  1.00  0.00    -0.060 A 
HETATM    3  C   UNL     1      -3.402   1.110 -32.877  1.00  0.00     0.023 A 
HETATM    4  C   UNL     1      -3.760   2.237 -32.120  1.00  0.00     0.020 A 
HETATM    5  C   UNL     1      -4.496   2.080 -30.918  1.00  0.00     0.053 A 
HETATM    6  C   UNL     1      -4.930   0.794 -30.537  1.00  0.00    -0.034 A 
HETATM    7  C   UNL     1      -5.927   0.511 -29.445  1.00  0.00     0.050 C 
HETATM    8  C   UNL     1      -4.526  -0.319 -31.305  1.00  0.00     0.015 A 
ENDROOT
BRANCH   5   9
HETATM    9  N   UNL     1      -4.930   3.250 -30.268  1.00  0.00    -0.322 N 
HETATM   10  C   UNL     1      -5.957   4.114 -30.518  1.00  0.00     0.278 C 
HETATM   11  O   UNL     1      -5.963   5.166 -29.860  1.00  0.00    -0.268 OA
HETATM   12  H   UNL     1      -4.468   3.464 -29.389  1.00  0.00     0.169 HD
BRANCH  10  13
HETATM   13  C   UNL     1      -7.164   3.764 -31.432  1.00  0.00     0.366 C 
HETATM   14  O   UNL     1      -6.983   3.449 -32.811  1.00  0.00    -0.308 OA
HETATM   15  C   UNL     1      -7.870   2.432 -32.972  1.00  0.00     0.106 A 
HETATM   16  C   UNL     1      -8.388   2.006 -31.773  1.00  0.00     0.106 A 
HETATM   17  C   UNL     1      -8.244   1.862 -34.170  1.00  0.00     0.040 A 
HETATM   18  O   UNL     1      -7.897   2.719 -30.727  1.00  0.00    -0.308 OA
HETATM   19  C   UNL     1      -9.300   0.976 -31.699  1.00  0.00     0.040 A 
HETATM   20  C   UNL     1      -9.706   0.384 -32.899  1.00  0.00     0.003 A 
HETATM   21  C   UNL     1      -9.183   0.828 -34.128  1.00  0.00     0.003 A 
ENDBRANCH  10  13
ENDBRANCH   5   9
BRANCH   4  22
HETATM   22  C   UNL     1      -3.332   3.548 -32.611  1.00  0.00     0.064 A 
HETATM   23  N   UNL     1      -4.076   4.315 -33.472  1.00  0.00    -0.277 N 
HETATM   24  H   UNL     1      -4.980   4.096 -33.875  1.00  0.00     0.189 HD
HETATM   25  N   UNL     1      -3.496   5.483 -33.795  1.00  0.00    -0.179 NA
HETATM   26  C   UNL     1      -2.352   5.483 -33.103  1.00  0.00     0.053 A 
HETATM   27  C   UNL     1      -1.416   6.630 -33.188  1.00  0.00     0.072 C 
HETATM   28  C   UNL     1      -2.210   4.304 -32.339  1.00  0.00     0.060 A 
ENDBRANCH   4  22
TORSDOF 3
ENDMDL
MODEL 9
REMARK VINA RESULT:      -7.9      2.491      6.730
REMARK  3 active torsions:
REMARK  status: ('A' for Active; 'I' for Inactive)
REMARK    1  A    between atoms: C_4  and  C_5 
REMARK    2  A    between atoms: C_12  and  N_13 
REMARK       I    between atoms: N_13  and  C_14 
REMARK    3  A    between atoms: C_14  and  C_15 
ROOT
HETATM    1  C   UNL     1      -7.373   5.306 -29.067  1.00  0.00     0.048 C 
HETATM    2  C   UNL     1      -6.652   4.303 -29.918  1.00  0.00    -0.060 A 
HETATM    3  C   UNL     1      -5.847   4.715 -30.981  1.00  0.00     0.023 A 
HETATM    4  C   UNL     1      -5.141   3.780 -31.755  1.00  0.00     0.020 A 
HETATM    5  C   UNL     1      -5.241   2.396 -31.463  1.00  0.00     0.053 A 
HETATM    6  C   UNL     1      -5.990   1.979 -30.344  1.00  0.00    -0.034 A 
HETATM    7  C   UNL     1      -5.971   0.588 -29.766  1.00  0.00     0.050 C 
HETATM    8  C   UNL     1      -6.711   2.942 -29.607  1.00  0.00     0.015 A 
ENDROOT
BRANCH   5   9
HETATM    9  N   UNL     1      -4.418   1.519 -32.194  1.00  0.00    -0.322 N 
HETATM   10  C   UNL     1      -4.695   0.444 -32.987  1.00  0.00     0.278 C 
HETATM   11  O   UNL     1      -3.724  -0.239 -33.347  1.00  0.00    -0.268 OA
HETATM   12  H   UNL     1      -3.433   1.767 -32.232  1.00  0.00     0.169 HD
BRANCH  10  13
HETATM   13  C   UNL     1      -6.105   0.159 -33.576  1.00  0.00     0.366 C 
HETATM   14  O   UNL     1      -7.108  -0.505 -32.810  1.00  0.00    -0.308 OA
HETATM   15  C   UNL     1      -8.220   0.193 -33.160  1.00  0.00     0.106 A 
HETATM   16  C   UNL     1      -7.914   1.315 -33.893  1.00  0.00     0.106 A 
HETATM   17  C   UNL     1      -9.520  -0.140 -32.850  1.00  0.00     0.040 A 
HETATM   18  O   UNL     1      -6.576   1.436 -34.097  1.00  0.00    -0.308 OA
HETATM   19  C   UNL     1      -8.888   2.177 -34.346  1.00  0.00     0.040 A 
HETATM   20  C   UNL     1     -10.218   1.860 -34.054  1.00  0.00     0.003 A 
HETATM   21  C   UNL     1     -10.532   0.705 -33.313  1.00  0.00     0.003 A 
ENDBRANCH  10  13
ENDBRANCH   5   9
BRANCH   4  22
HETATM   22  C   UNL     1      -4.330   4.290 -32.862  1.00  0.00     0.064 A 
HETATM   23  N   UNL     1      -4.862   4.810 -34.015  1.00  0.00    -0.277 N 
HETATM   24  H   UNL     1      -5.842   4.909 -34.257  1.00  0.00     0.189 HD
HETATM   25  N   UNL     1      -3.939   5.219 -34.901  1.00  0.00    -0.179 NA
HETATM   26  C   UNL     1      -2.773   4.978 -34.293  1.00  0.00     0.053 A 
HETATM   27  C   UNL     1      -1.490   5.308 -34.958  1.00  0.00     0.072 C 
HETATM   28  C   UNL     1      -2.964   4.411 -33.013  1.00  0.00     0.060 A 
ENDBRANCH   4  22
TORSDOF 3
ENDMDL
MODEL 10
REMARK VINA RESULT:      -7.9      3.079      5.673
REMARK  3 active torsions:
REMARK  status: ('A' for Active; 'I' for Inactive)
REMARK    1  A    between atoms: C_4  and  C_5 
REMARK    2  A    between atoms: C_12  and  N_13 
REMARK       I    between atoms: N_13  and  C_14 
REMARK    3  A    between atoms: C_14  and  C_15 
ROOT
HETATM    1  C   UNL     1      -8.980   3.214 -30.338  1.00  0.00     0.048 C 
HETATM    2  C   UNL     1      -7.640   3.359 -30.996  1.00  0.00    -0.060 A 
HETATM    3  C   UNL     1      -6.737   2.295 -31.022  1.00  0.00     0.023 A 
HETATM    4  C   UNL     1      -5.498   2.416 -31.670  1.00  0.00     0.020 A 
HETATM    5  C   UNL     1      -5.147   3.632 -32.310  1.00  0.00     0.053 A 
HETATM    6  C   UNL     1      -6.085   4.684 -32.355  1.00  0.00    -0.034 A 
HETATM    7  C   UNL     1      -5.954   5.916 -33.212  1.00  0.00     0.050 C 
HETATM    8  C   UNL     1      -7.307   4.539 -31.666  1.00  0.00     0.015 A 
ENDROOT
BRANCH   5   9
HETATM    9  N   UNL     1      -3.947   3.653 -33.045  1.00  0.00    -0.322 N 
HETATM   10  C   UNL     1      -2.726   4.209 -32.796  1.00  0.00     0.278 C 
HETATM   11  O   UNL     1      -1.919   4.207 -33.738  1.00  0.00    -0.268 OA
HETATM   12  H   UNL     1      -3.930   3.073 -33.879  1.00  0.00     0.169 HD
BRANCH  10  13
HETATM   13  C   UNL     1      -2.269   4.668 -31.383  1.00  0.00     0.366 C 
HETATM   14  O   UNL     1      -0.932   4.459 -30.933  1.00  0.00    -0.308 OA
HETATM   15  C   UNL     1      -0.686   5.623 -30.276  1.00  0.00     0.106 A 
HETATM   16  C   UNL     1      -1.678   6.551 -30.482  1.00  0.00     0.106 A 
HETATM   17  C   UNL     1       0.407   5.892 -29.481  1.00  0.00     0.040 A 
HETATM   18  O   UNL     1      -2.666   6.066 -31.278  1.00  0.00    -0.308 OA
HETATM   19  C   UNL     1      -1.629   7.807 -29.918  1.00  0.00     0.040 A 
HETATM   20  C   UNL     1      -0.537   8.106 -29.100  1.00  0.00     0.003 A 
HETATM   21  C   UNL     1       0.474   7.152 -28.880  1.00  0.00     0.003 A 
ENDBRANCH  10  13
ENDBRANCH   5   9
BRANCH   4  22
HETATM   22  C   UNL     1      -4.601   1.260 -31.640  1.00  0.00     0.064 A 
HETATM   23  N   UNL     1      -3.366   1.274 -31.041  1.00  0.00    -0.277 N 
HETATM   24  H   UNL     1      -2.918   2.047 -30.560  1.00  0.00     0.189 HD
HETATM   25  N   UNL     1      -2.707   0.107 -31.130  1.00  0.00    -0.179 NA
HETATM   26  C   UNL     1      -3.551  -0.696 -31.788  1.00  0.00     0.053 A 
HETATM   27  C   UNL     1      -3.185  -2.102 -32.082  1.00  0.00     0.072 C 
HETATM   28  C   UNL     1      -4.751  -0.027 -32.116  1.00  0.00     0.060 A 
ENDBRANCH   4  22
TORSDOF 3
ENDMDL
