MODEL 1
REMARK VINA RESULT:      -8.3      0.000      0.000
REMARK  3 active torsions:
REMARK  status: ('A' for Active; 'I' for Inactive)
REMARK    1  A    between atoms: C_9  and  C_10 
REMARK    2  A    between atoms: C_16  and  C_17 
REMARK       I    between atoms: C_17  and  N_18 
REMARK    3  A    between atoms: N_18  and  C_19 
ROOT
HETATM    1  C   UNL     1      -3.498   1.980 -32.279  1.00  0.00     0.070 C 
HETATM    2  C   UNL     1      -4.911   2.362 -31.914  1.00  0.00     0.037 C 
HETATM    3  N   UNL     1      -5.116   3.713 -31.645  1.00  0.00    -0.191 N 
HETATM    4  C   UNL     1      -6.257   4.187 -31.103  1.00  0.00     0.735 A 
HETATM    5  N   UNL     1      -7.310   3.338 -30.913  1.00  0.00    -0.092 N 
HETATM    6  N   UNL     1      -8.318   3.977 -30.300  1.00  0.00     0.012 NA
HETATM    7  N   UNL     1      -7.884   5.227 -30.163  1.00  0.00     0.033 NA
HETATM    8  N   UNL     1      -6.601   5.371 -30.658  1.00  0.00     0.030 NA
HETATM    9  C   UNL     1      -7.315   1.923 -31.275  1.00  0.00     0.199 C 
HETATM   10  C   UNL     1      -5.938   1.488 -31.774  1.00  0.00     0.062 C 
HETATM   11  H   UNL     1      -4.307   4.330 -31.682  1.00  0.00     0.184 HD
ENDROOT
BRANCH  10  12
HETATM   12  C   UNL     1      -5.819   0.018 -31.980  1.00  0.00     0.256 C 
HETATM   13  N   UNL     1      -5.766  -0.344 -33.307  1.00  0.00    -0.323 N 
HETATM   14  H   UNL     1      -5.809   0.398 -33.993  1.00  0.00     0.169 HD
HETATM   15  O   UNL     1      -5.843  -0.709 -30.997  1.00  0.00    -0.267 OA
BRANCH  13  16
HETATM   16  C   UNL     1      -5.667  -1.650 -33.833  1.00  0.00     0.035 A 
HETATM   17  C   UNL     1      -4.467  -2.355 -33.950  1.00  0.00     0.029 A 
HETATM   18  C   UNL     1      -4.455  -3.647 -34.486  1.00  0.00     0.002 A 
HETATM   19  C   UNL     1      -5.639  -4.240 -34.916  1.00  0.00     0.000 A 
HETATM   20  C   UNL     1      -6.840  -3.546 -34.805  1.00  0.00     0.002 A 
HETATM   21  C   UNL     1      -6.854  -2.258 -34.262  1.00  0.00     0.029 A 
ENDBRANCH  13  16
ENDBRANCH  10  12
BRANCH   9  22
HETATM   22  C   UNL     1      -8.408   1.639 -32.290  1.00  0.00    -0.011 A 
HETATM   23  C   UNL     1      -8.544   2.457 -33.410  1.00  0.00     0.125 A 
HETATM   24  N   UNL     1      -9.493   2.293 -34.359  1.00  0.00    -0.272 NA
HETATM   25  C   UNL     1     -10.352   1.266 -34.193  1.00  0.00     0.116 A 
HETATM   26  C   UNL     1     -10.314   0.401 -33.114  1.00  0.00     0.020 A 
HETATM   27  C   UNL     1      -9.331   0.594 -32.147  1.00  0.00     0.012 A 
ENDBRANCH   9  22
TORSDOF 3
ENDMDL
MODEL 2
REMARK VINA RESULT:      -8.2      1.543      3.938
REMARK  3 active torsions:
REMARK  status: ('A' for Active; 'I' for Inactive)
REMARK    1  A    between atoms: C_9  and  C_10 
REMARK    2  A    between atoms: C_16  and  C_17 
REMARK       I    between atoms: C_17  and  N_18 
REMARK    3  A    between atoms: N_18  and  C_19 
ROOT
HETATM    1  C   UNL     1     -10.452   0.039 -33.051  1.00  0.00     0.070 C 
HETATM    2  C   UNL     1      -9.577   1.260 -33.190  1.00  0.00     0.037 C 
HETATM    3  N   UNL     1     -10.247   2.451 -33.456  1.00  0.00    -0.191 N 
HETATM    4  C   UNL     1      -9.610   3.585 -33.816  1.00  0.00     0.735 A 
HETATM    5  N   UNL     1      -8.244   3.616 -33.809  1.00  0.00    -0.092 N 
HETATM    6  N   UNL     1      -7.804   4.799 -34.265  1.00  0.00     0.012 NA
HETATM    7  N   UNL     1      -8.912   5.496 -34.503  1.00  0.00     0.033 NA
HETATM    8  N   UNL     1     -10.044   4.751 -34.229  1.00  0.00     0.030 NA
HETATM    9  C   UNL     1      -7.388   2.501 -33.415  1.00  0.00     0.199 C 
HETATM   10  C   UNL     1      -8.221   1.251 -33.137  1.00  0.00     0.062 C 
HETATM   11  H   UNL     1     -11.258   2.409 -33.567  1.00  0.00     0.184 HD
ENDROOT
BRANCH  10  12
HETATM   12  C   UNL     1      -7.401   0.029 -32.916  1.00  0.00     0.256 C 
HETATM   13  N   UNL     1      -7.061  -0.618 -34.082  1.00  0.00    -0.323 N 
HETATM   14  H   UNL     1      -7.389  -0.215 -34.950  1.00  0.00     0.169 HD
HETATM   15  O   UNL     1      -7.166  -0.312 -31.765  1.00  0.00    -0.267 OA
BRANCH  13  16
HETATM   16  C   UNL     1      -6.306  -1.804 -34.213  1.00  0.00     0.035 A 
HETATM   17  C   UNL     1      -4.939  -1.892 -33.943  1.00  0.00     0.029 A 
HETATM   18  C   UNL     1      -4.264  -3.106 -34.100  1.00  0.00     0.002 A 
HETATM   19  C   UNL     1      -4.946  -4.239 -34.537  1.00  0.00     0.000 A 
HETATM   20  C   UNL     1      -6.308  -4.162 -34.810  1.00  0.00     0.002 A 
HETATM   21  C   UNL     1      -6.986  -2.950 -34.645  1.00  0.00     0.029 A 
ENDBRANCH  13  16
ENDBRANCH  10  12
BRANCH   9  22
HETATM   22  C   UNL     1      -6.525   2.889 -32.228  1.00  0.00    -0.011 A 
HETATM   23  C   UNL     1      -7.124   3.253 -31.023  1.00  0.00     0.125 A 
HETATM   24  N   UNL     1      -6.441   3.627 -29.918  1.00  0.00    -0.272 NA
HETATM   25  C   UNL     1      -5.095   3.642 -30.008  1.00  0.00     0.116 A 
HETATM   26  C   UNL     1      -4.399   3.310 -31.157  1.00  0.00     0.020 A 
HETATM   27  C   UNL     1      -5.125   2.934 -32.284  1.00  0.00     0.012 A 
ENDBRANCH   9  22
TORSDOF 3
ENDMDL
MODEL 3
REMARK VINA RESULT:      -7.8      2.413      4.120
REMARK  3 active torsions:
REMARK  status: ('A' for Active; 'I' for Inactive)
REMARK    1  A    between atoms: C_9  and  C_10 
REMARK    2  A    between atoms: C_16  and  C_17 
REMARK       I    between atoms: C_17  and  N_18 
REMARK    3  A    between atoms: N_18  and  C_19 
ROOT
HETATM    1  C   UNL     1      -5.843   1.139 -29.725  1.00  0.00     0.070 C 
HETATM    2  C   UNL     1      -5.659   2.532 -30.275  1.00  0.00     0.037 C 
HETATM    3  N   UNL     1      -5.453   3.530 -29.325  1.00  0.00    -0.191 N 
HETATM    4  C   UNL     1      -5.482   4.845 -29.626  1.00  0.00     0.735 A 
HETATM    5  N   UNL     1      -5.600   5.230 -30.932  1.00  0.00    -0.092 N 
HETATM    6  N   UNL     1      -5.684   6.566 -31.016  1.00  0.00     0.012 NA
HETATM    7  N   UNL     1      -5.569   6.986 -29.759  1.00  0.00     0.033 NA
HETATM    8  N   UNL     1      -5.444   5.924 -28.883  1.00  0.00     0.030 NA
HETATM    9  C   UNL     1      -5.680   4.313 -32.066  1.00  0.00     0.199 C 
HETATM   10  C   UNL     1      -5.747   2.864 -31.587  1.00  0.00     0.062 C 
HETATM   11  H   UNL     1      -5.471   3.258 -28.344  1.00  0.00     0.184 HD
ENDROOT
BRANCH  10  12
HETATM   12  C   UNL     1      -6.021   1.891 -32.679  1.00  0.00     0.256 C 
HETATM   13  N   UNL     1      -5.523   0.633 -32.426  1.00  0.00    -0.323 N 
HETATM   14  H   UNL     1      -5.036   0.493 -31.551  1.00  0.00     0.169 HD
HETATM   15  O   UNL     1      -6.583   2.294 -33.688  1.00  0.00    -0.267 OA
BRANCH  13  16
HETATM   16  C   UNL     1      -5.604  -0.502 -33.262  1.00  0.00     0.035 A 
HETATM   17  C   UNL     1      -6.793  -0.980 -33.815  1.00  0.00     0.029 A 
HETATM   18  C   UNL     1      -6.786  -2.116 -34.632  1.00  0.00     0.002 A 
HETATM   19  C   UNL     1      -5.595  -2.785 -34.896  1.00  0.00     0.000 A 
HETATM   20  C   UNL     1      -4.404  -2.318 -34.348  1.00  0.00     0.002 A 
HETATM   21  C   UNL     1      -4.408  -1.178 -33.538  1.00  0.00     0.029 A 
ENDBRANCH  13  16
ENDBRANCH  10  12
BRANCH   9  22
HETATM   22  C   UNL     1      -4.523   4.549 -33.020  1.00  0.00    -0.011 A 
HETATM   23  C   UNL     1      -4.758   5.116 -34.271  1.00  0.00     0.125 A 
HETATM   24  N   UNL     1      -3.796   5.351 -35.191  1.00  0.00    -0.272 NA
HETATM   25  C   UNL     1      -2.535   5.008 -34.858  1.00  0.00     0.116 A 
HETATM   26  C   UNL     1      -2.191   4.429 -33.648  1.00  0.00     0.020 A 
HETATM   27  C   UNL     1      -3.201   4.192 -32.719  1.00  0.00     0.012 A 
ENDBRANCH   9  22
TORSDOF 3
ENDMDL
MODEL 4
REMARK VINA RESULT:      -7.8      1.857      2.029
REMARK  3 active torsions:
REMARK  status: ('A' for Active; 'I' for Inactive)
REMARK    1  A    between atoms: C_9  and  C_10 
REMARK    2  A    between atoms: C_16  and  C_17 
REMARK       I    between atoms: C_17  and  N_18 
REMARK    3  A    between atoms: N_18  and  C_19 
ROOT
HETATM    1  C   UNL     1      -5.357   3.782 -34.157  1.00  0.00     0.070 C 
HETATM    2  C   UNL     1      -6.641   3.574 -33.393  1.00  0.00     0.037 C 
HETATM    3  N   UNL     1      -7.036   4.636 -32.584  1.00  0.00    -0.191 N 
HETATM    4  C   UNL     1      -8.033   4.538 -31.681  1.00  0.00     0.735 A 
HETATM    5  N   UNL     1      -8.776   3.393 -31.627  1.00  0.00    -0.092 N 
HETATM    6  N   UNL     1      -9.664   3.462 -30.622  1.00  0.00     0.012 NA
HETATM    7  N   UNL     1      -9.483   4.672 -30.101  1.00  0.00     0.033 NA
HETATM    8  N   UNL     1      -8.469   5.353 -30.750  1.00  0.00     0.030 NA
HETATM    9  C   UNL     1      -8.591   2.239 -32.502  1.00  0.00     0.199 C 
HETATM   10  C   UNL     1      -7.370   2.430 -33.399  1.00  0.00     0.062 C 
HETATM   11  H   UNL     1      -6.425   5.450 -32.542  1.00  0.00     0.184 HD
ENDROOT
BRANCH  10  12
HETATM   12  C   UNL     1      -7.012   1.215 -34.180  1.00  0.00     0.256 C 
HETATM   13  N   UNL     1      -6.530   0.188 -33.400  1.00  0.00    -0.323 N 
HETATM   14  H   UNL     1      -6.468   0.351 -32.404  1.00  0.00     0.169 HD
HETATM   15  O   UNL     1      -7.113   1.257 -35.398  1.00  0.00    -0.267 OA
BRANCH  13  16
HETATM   16  C   UNL     1      -6.094  -1.083 -33.834  1.00  0.00     0.035 A 
HETATM   17  C   UNL     1      -4.760  -1.492 -33.837  1.00  0.00     0.029 A 
HETATM   18  C   UNL     1      -4.412  -2.770 -34.286  1.00  0.00     0.002 A 
HETATM   19  C   UNL     1      -5.393  -3.645 -34.743  1.00  0.00     0.000 A 
HETATM   20  C   UNL     1      -6.727  -3.247 -34.746  1.00  0.00     0.002 A 
HETATM   21  C   UNL     1      -7.076  -1.973 -34.290  1.00  0.00     0.029 A 
ENDBRANCH  13  16
ENDBRANCH  10  12
BRANCH   9  22
HETATM   22  C   UNL     1      -9.854   1.973 -33.302  1.00  0.00    -0.011 A 
HETATM   23  C   UNL     1     -10.306   2.919 -34.221  1.00  0.00     0.125 A 
HETATM   24  N   UNL     1     -11.424   2.778 -34.967  1.00  0.00    -0.272 NA
HETATM   25  C   UNL     1     -12.133   1.643 -34.798  1.00  0.00     0.116 A 
HETATM   26  C   UNL     1     -11.781   0.644 -33.907  1.00  0.00     0.020 A 
HETATM   27  C   UNL     1     -10.628   0.816 -33.145  1.00  0.00     0.012 A 
ENDBRANCH   9  22
TORSDOF 3
ENDMDL
MODEL 5
REMARK VINA RESULT:      -7.7      2.104      3.345
REMARK  3 active torsions:
REMARK  status: ('A' for Active; 'I' for Inactive)
REMARK    1  A    between atoms: C_9  and  C_10 
REMARK    2  A    between atoms: C_16  and  C_17 
REMARK       I    between atoms: C_17  and  N_18 
REMARK    3  A    between atoms: N_18  and  C_19 
ROOT
HETATM    1  C   UNL     1      -5.881   0.449 -29.369  1.00  0.00     0.070 C 
HETATM    2  C   UNL     1      -6.295   1.663 -30.163  1.00  0.00     0.037 C 
HETATM    3  N   UNL     1      -6.977   2.644 -29.447  1.00  0.00    -0.191 N 
HETATM    4  C   UNL     1      -7.598   3.685 -30.039  1.00  0.00     0.735 A 
HETATM    5  N   UNL     1      -7.463   3.865 -31.387  1.00  0.00    -0.092 N 
HETATM    6  N   UNL     1      -8.210   4.903 -31.793  1.00  0.00     0.012 NA
HETATM    7  N   UNL     1      -8.760   5.375 -30.678  1.00  0.00     0.033 NA
HETATM    8  N   UNL     1      -8.388   4.624 -29.578  1.00  0.00     0.030 NA
HETATM    9  C   UNL     1      -6.664   3.015 -32.264  1.00  0.00     0.199 C 
HETATM   10  C   UNL     1      -6.105   1.818 -31.497  1.00  0.00     0.062 C 
HETATM   11  H   UNL     1      -7.172   2.461 -28.464  1.00  0.00     0.184 HD
ENDROOT
BRANCH  10  12
HETATM   12  C   UNL     1      -5.441   0.812 -32.369  1.00  0.00     0.256 C 
HETATM   13  N   UNL     1      -6.261  -0.240 -32.711  1.00  0.00    -0.323 N 
HETATM   14  H   UNL     1      -7.206  -0.228 -32.350  1.00  0.00     0.169 HD
HETATM   15  O   UNL     1      -4.259   0.970 -32.641  1.00  0.00    -0.267 OA
BRANCH  13  16
HETATM   16  C   UNL     1      -5.931  -1.355 -33.510  1.00  0.00     0.035 A 
HETATM   17  C   UNL     1      -4.627  -1.801 -33.729  1.00  0.00     0.029 A 
HETATM   18  C   UNL     1      -4.386  -2.916 -34.539  1.00  0.00     0.002 A 
HETATM   19  C   UNL     1      -5.445  -3.589 -35.141  1.00  0.00     0.000 A 
HETATM   20  C   UNL     1      -6.750  -3.153 -34.930  1.00  0.00     0.002 A 
HETATM   21  C   UNL     1      -6.992  -2.044 -34.114  1.00  0.00     0.029 A 
ENDBRANCH  13  16
ENDBRANCH  10  12
BRANCH   9  22
HETATM   22  C   UNL     1      -5.570   3.826 -32.936  1.00  0.00    -0.011 A 
HETATM   23  C   UNL     1      -5.662   4.126 -34.293  1.00  0.00     0.125 A 
HETATM   24  N   UNL     1      -4.734   4.829 -34.980  1.00  0.00    -0.272 NA
HETATM   25  C   UNL     1      -3.658   5.259 -34.289  1.00  0.00     0.116 A 
HETATM   26  C   UNL     1      -3.461   5.008 -32.942  1.00  0.00     0.020 A 
HETATM   27  C   UNL     1      -4.429   4.277 -32.259  1.00  0.00     0.012 A 
ENDBRANCH   9  22
TORSDOF 3
ENDMDL
MODEL 6
REMARK VINA RESULT:      -7.6      1.580      2.014
REMARK  3 active torsions:
REMARK  status: ('A' for Active; 'I' for Inactive)
REMARK    1  A    between atoms: C_9  and  C_10 
REMARK    2  A    between atoms: C_16  and  C_17 
REMARK       I    between atoms: C_17  and  N_18 
REMARK    3  A    between atoms: N_18  and  C_19 
ROOT
HETATM    1  C   UNL     1      -3.363   2.328 -32.328  1.00  0.00     0.070 C 
HETATM    2  C   UNL     1      -4.721   2.795 -31.868  1.00  0.00     0.037 C 
HETATM    3  N   UNL     1      -4.715   3.758 -30.861  1.00  0.00    -0.191 N 
HETATM    4  C   UNL     1      -5.827   4.127 -30.193  1.00  0.00     0.735 A 
HETATM    5  N   UNL     1      -7.039   3.632 -30.587  1.00  0.00    -0.092 N 
HETATM    6  N   UNL     1      -8.005   4.056 -29.758  1.00  0.00     0.012 NA
HETATM    7  N   UNL     1      -7.377   4.845 -28.891  1.00  0.00     0.033 NA
HETATM    8  N   UNL     1      -6.019   4.896 -29.150  1.00  0.00     0.030 NA
HETATM    9  C   UNL     1      -7.241   2.727 -31.715  1.00  0.00     0.199 C 
HETATM   10  C   UNL     1      -5.903   2.302 -32.315  1.00  0.00     0.062 C 
HETATM   11  H   UNL     1      -3.811   4.049 -30.493  1.00  0.00     0.184 HD
ENDROOT
BRANCH  10  12
HETATM   12  C   UNL     1      -6.027   1.234 -33.345  1.00  0.00     0.256 C 
HETATM   13  N   UNL     1      -5.772  -0.026 -32.856  1.00  0.00    -0.323 N 
HETATM   14  H   UNL     1      -5.534  -0.105 -31.876  1.00  0.00     0.169 HD
HETATM   15  O   UNL     1      -6.272   1.565 -34.497  1.00  0.00    -0.267 OA
BRANCH  13  16
HETATM   16  C   UNL     1      -5.793  -1.242 -33.573  1.00  0.00     0.035 A 
HETATM   17  C   UNL     1      -6.960  -1.861 -34.025  1.00  0.00     0.029 A 
HETATM   18  C   UNL     1      -6.895  -3.068 -34.728  1.00  0.00     0.002 A 
HETATM   19  C   UNL     1      -5.664  -3.670 -34.977  1.00  0.00     0.000 A 
HETATM   20  C   UNL     1      -4.495  -3.062 -34.530  1.00  0.00     0.002 A 
HETATM   21  C   UNL     1      -4.559  -1.851 -33.835  1.00  0.00     0.029 A 
ENDBRANCH  13  16
ENDBRANCH  10  12
BRANCH   9  22
HETATM   22  C   UNL     1      -8.156   3.364 -32.747  1.00  0.00    -0.011 A 
HETATM   23  C   UNL     1      -7.772   4.543 -33.382  1.00  0.00     0.125 A 
HETATM   24  N   UNL     1      -8.523   5.190 -34.301  1.00  0.00    -0.272 NA
HETATM   25  C   UNL     1      -9.716   4.642 -34.610  1.00  0.00     0.116 A 
HETATM   26  C   UNL     1     -10.200   3.481 -34.032  1.00  0.00     0.020 A 
HETATM   27  C   UNL     1      -9.410   2.837 -33.084  1.00  0.00     0.012 A 
ENDBRANCH   9  22
TORSDOF 3
ENDMDL
MODEL 7
REMARK VINA RESULT:      -7.6     15.718     18.219
REMARK  3 active torsions:
REMARK  status: ('A' for Active; 'I' for Inactive)
REMARK    1  A    between atoms: C_9  and  C_10 
REMARK    2  A    between atoms: C_16  and  C_17 
REMARK       I    between atoms: C_17  and  N_18 
REMARK    3  A    between atoms: N_18  and  C_19 
ROOT
HETATM    1  C   UNL     1      -1.659 -14.644 -35.665  1.00  0.00     0.070 C 
HETATM    2  C   UNL     1      -0.958 -14.764 -36.995  1.00  0.00     0.037 C 
HETATM    3  N   UNL     1       0.211 -15.521 -36.991  1.00  0.00    -0.191 N 
HETATM    4  C   UNL     1       1.065 -15.556 -38.034  1.00  0.00     0.735 A 
HETATM    5  N   UNL     1       0.728 -14.921 -39.196  1.00  0.00    -0.092 N 
HETATM    6  N   UNL     1       1.733 -15.008 -40.081  1.00  0.00     0.012 NA
HETATM    7  N   UNL     1       2.658 -15.736 -39.463  1.00  0.00     0.033 NA
HETATM    8  N   UNL     1       2.255 -16.083 -38.187  1.00  0.00     0.030 NA
HETATM    9  C   UNL     1      -0.524 -14.204 -39.420  1.00  0.00     0.199 C 
HETATM   10  C   UNL     1      -1.351 -14.146 -38.137  1.00  0.00     0.062 C 
HETATM   11  H   UNL     1       0.520 -15.906 -36.100  1.00  0.00     0.184 HD
ENDROOT
BRANCH  10  12
HETATM   12  C   UNL     1      -2.549 -13.269 -38.243  1.00  0.00     0.256 C 
HETATM   13  N   UNL     1      -3.718 -13.965 -38.450  1.00  0.00    -0.323 N 
HETATM   14  H   UNL     1      -3.655 -14.973 -38.507  1.00  0.00     0.169 HD
HETATM   15  O   UNL     1      -2.386 -12.057 -38.201  1.00  0.00    -0.267 OA
BRANCH  13  16
HETATM   16  C   UNL     1      -5.015 -13.430 -38.605  1.00  0.00     0.035 A 
HETATM   17  C   UNL     1      -5.993 -13.454 -37.610  1.00  0.00     0.029 A 
HETATM   18  C   UNL     1      -7.257 -12.903 -37.846  1.00  0.00     0.002 A 
HETATM   19  C   UNL     1      -7.555 -12.332 -39.079  1.00  0.00     0.000 A 
HETATM   20  C   UNL     1      -6.588 -12.303 -40.079  1.00  0.00     0.002 A 
HETATM   21  C   UNL     1      -5.322 -12.846 -39.841  1.00  0.00     0.029 A 
ENDBRANCH  13  16
ENDBRANCH  10  12
BRANCH   9  22
HETATM   22  C   UNL     1      -1.294 -14.829 -40.569  1.00  0.00    -0.011 A 
HETATM   23  C   UNL     1      -2.078 -14.028 -41.397  1.00  0.00     0.125 A 
HETATM   24  N   UNL     1      -2.808 -14.493 -42.435  1.00  0.00    -0.272 NA
HETATM   25  C   UNL     1      -2.761 -15.821 -42.668  1.00  0.00     0.116 A 
HETATM   26  C   UNL     1      -2.025 -16.709 -41.902  1.00  0.00     0.020 A 
HETATM   27  C   UNL     1      -1.286 -16.205 -40.835  1.00  0.00     0.012 A 
ENDBRANCH   9  22
TORSDOF 3
ENDMDL
MODEL 8
REMARK VINA RESULT:      -7.5      2.441      5.602
REMARK  3 active torsions:
REMARK  status: ('A' for Active; 'I' for Inactive)
REMARK    1  A    between atoms: C_9  and  C_10 
REMARK    2  A    between atoms: C_16  and  C_17 
REMARK       I    between atoms: C_17  and  N_18 
REMARK    3  A    between atoms: N_18  and  C_19 
ROOT
HETATM    1  C   UNL     1      -8.563   4.763 -30.336  1.00  0.00     0.070 C 
HETATM    2  C   UNL     1      -7.745   4.406 -31.552  1.00  0.00     0.037 C 
HETATM    3  N   UNL     1      -6.632   5.211 -31.783  1.00  0.00    -0.191 N 
HETATM    4  C   UNL     1      -5.920   5.165 -32.928  1.00  0.00     0.735 A 
HETATM    5  N   UNL     1      -6.217   4.214 -33.863  1.00  0.00    -0.092 N 
HETATM    6  N   UNL     1      -5.452   4.379 -34.953  1.00  0.00     0.012 NA
HETATM    7  N   UNL     1      -4.662   5.406 -34.652  1.00  0.00     0.033 NA
HETATM    8  N   UNL     1      -4.944   5.905 -33.394  1.00  0.00     0.030 NA
HETATM    9  C   UNL     1      -7.257   3.199 -33.717  1.00  0.00     0.199 C 
HETATM   10  C   UNL     1      -8.057   3.425 -32.435  1.00  0.00     0.062 C 
HETATM   11  H   UNL     1      -6.471   5.987 -31.145  1.00  0.00     0.184 HD
ENDROOT
BRANCH  10  12
HETATM   12  C   UNL     1      -9.251   2.544 -32.319  1.00  0.00     0.256 C 
HETATM   13  N   UNL     1     -10.277   2.902 -33.163  1.00  0.00    -0.323 N 
HETATM   14  H   UNL     1     -10.127   3.702 -33.764  1.00  0.00     0.169 HD
HETATM   15  O   UNL     1      -9.238   1.658 -31.475  1.00  0.00    -0.267 OA
BRANCH  13  16
HETATM   16  C   UNL     1     -11.539   2.281 -33.286  1.00  0.00     0.035 A 
HETATM   17  C   UNL     1     -11.726   0.980 -33.755  1.00  0.00     0.029 A 
HETATM   18  C   UNL     1     -13.013   0.440 -33.849  1.00  0.00     0.002 A 
HETATM   19  C   UNL     1     -14.121   1.198 -33.482  1.00  0.00     0.000 A 
HETATM   20  C   UNL     1     -13.946   2.496 -33.014  1.00  0.00     0.002 A 
HETATM   21  C   UNL     1     -12.660   3.034 -32.912  1.00  0.00     0.029 A 
ENDBRANCH  13  16
ENDBRANCH  10  12
BRANCH   9  22
HETATM   22  C   UNL     1      -6.651   1.808 -33.777  1.00  0.00    -0.011 A 
HETATM   23  C   UNL     1      -5.644   1.450 -32.883  1.00  0.00     0.125 A 
HETATM   24  N   UNL     1      -5.036   0.243 -32.868  1.00  0.00    -0.272 NA
HETATM   25  C   UNL     1      -5.445  -0.659 -33.785  1.00  0.00     0.116 A 
HETATM   26  C   UNL     1      -6.428  -0.405 -34.725  1.00  0.00     0.020 A 
HETATM   27  C   UNL     1      -7.035   0.848 -34.723  1.00  0.00     0.012 A 
ENDBRANCH   9  22
TORSDOF 3
ENDMDL
MODEL 9
REMARK VINA RESULT:      -7.5      2.751      6.155
REMARK  3 active torsions:
REMARK  status: ('A' for Active; 'I' for Inactive)
REMARK    1  A    between atoms: C_9  and  C_10 
REMARK    2  A    between atoms: C_16  and  C_17 
REMARK       I    between atoms: C_17  and  N_18 
REMARK    3  A    between atoms: N_18  and  C_19 
ROOT
HETATM    1  C   UNL     1      -2.753   0.009 -31.221  1.00  0.00     0.070 C 
HETATM    2  C   UNL     1      -3.996   0.243 -32.044  1.00  0.00     0.037 C 
HETATM    3  N   UNL     1      -4.614  -0.904 -32.537  1.00  0.00    -0.191 N 
HETATM    4  C   UNL     1      -5.601  -0.867 -33.456  1.00  0.00     0.735 A 
HETATM    5  N   UNL     1      -6.109   0.341 -33.843  1.00  0.00    -0.092 N 
HETATM    6  N   UNL     1      -7.023   0.172 -34.810  1.00  0.00     0.012 NA
HETATM    7  N   UNL     1      -7.096  -1.147 -34.972  1.00  0.00     0.033 NA
HETATM    8  N   UNL     1      -6.214  -1.805 -34.135  1.00  0.00     0.030 NA
HETATM    9  C   UNL     1      -5.677   1.633 -33.317  1.00  0.00     0.199 C 
HETATM   10  C   UNL     1      -4.489   1.463 -32.372  1.00  0.00     0.062 C 
HETATM   11  H   UNL     1      -4.173  -1.800 -32.337  1.00  0.00     0.184 HD
ENDROOT
BRANCH  10  12
HETATM   12  C   UNL     1      -3.878   2.753 -31.950  1.00  0.00     0.256 C 
HETATM   13  N   UNL     1      -2.991   3.263 -32.870  1.00  0.00    -0.323 N 
HETATM   14  H   UNL     1      -2.844   2.733 -33.718  1.00  0.00     0.169 HD
HETATM   15  O   UNL     1      -4.159   3.193 -30.843  1.00  0.00    -0.267 OA
BRANCH  13  16
HETATM   16  C   UNL     1      -2.241   4.455 -32.764  1.00  0.00     0.035 A 
HETATM   17  C   UNL     1      -1.496   4.811 -31.639  1.00  0.00     0.029 A 
HETATM   18  C   UNL     1      -0.782   6.014 -31.614  1.00  0.00     0.002 A 
HETATM   19  C   UNL     1      -0.814   6.872 -32.710  1.00  0.00     0.000 A 
HETATM   20  C   UNL     1      -1.555   6.528 -33.836  1.00  0.00     0.002 A 
HETATM   21  C   UNL     1      -2.262   5.322 -33.864  1.00  0.00     0.029 A 
ENDBRANCH  13  16
ENDBRANCH  10  12
BRANCH   9  22
HETATM   22  C   UNL     1      -6.839   2.350 -32.653  1.00  0.00    -0.011 A 
HETATM   23  C   UNL     1      -7.301   3.556 -33.175  1.00  0.00     0.125 A 
HETATM   24  N   UNL     1      -8.318   4.273 -32.647  1.00  0.00    -0.272 NA
HETATM   25  C   UNL     1      -8.910   3.771 -31.544  1.00  0.00     0.116 A 
HETATM   26  C   UNL     1      -8.525   2.588 -30.937  1.00  0.00     0.020 A 
HETATM   27  C   UNL     1      -7.471   1.871 -31.497  1.00  0.00     0.012 A 
ENDBRANCH   9  22
TORSDOF 3
ENDMDL
MODEL 10
REMARK VINA RESULT:      -7.2      2.403      5.436
REMARK  3 active torsions:
REMARK  status: ('A' for Active; 'I' for Inactive)
REMARK    1  A    between atoms: C_9  and  C_10 
REMARK    2  A    between atoms: C_16  and  C_17 
REMARK       I    between atoms: C_17  and  N_18 
REMARK    3  A    between atoms: N_18  and  C_19 
ROOT
HETATM    1  C   UNL     1      -6.240   5.003 -29.300  1.00  0.00     0.070 C 
HETATM    2  C   UNL     1      -5.277   4.471 -30.333  1.00  0.00     0.037 C 
HETATM    3  N   UNL     1      -4.059   5.140 -30.418  1.00  0.00    -0.191 N 
HETATM    4  C   UNL     1      -3.177   4.934 -31.419  1.00  0.00     0.735 A 
HETATM    5  N   UNL     1      -3.421   3.946 -32.331  1.00  0.00    -0.092 N 
HETATM    6  N   UNL     1      -2.473   3.948 -33.281  1.00  0.00     0.012 NA
HETATM    7  N   UNL     1      -1.634   4.911 -32.912  1.00  0.00     0.033 NA
HETATM    8  N   UNL     1      -2.062   5.534 -31.754  1.00  0.00     0.030 NA
HETATM    9  C   UNL     1      -4.577   3.054 -32.304  1.00  0.00     0.199 C 
HETATM   10  C   UNL     1      -5.546   3.459 -31.195  1.00  0.00     0.062 C 
HETATM   11  H   UNL     1      -3.919   5.945 -29.810  1.00  0.00     0.184 HD
ENDROOT
BRANCH  10  12
HETATM   12  C   UNL     1      -6.834   2.713 -31.232  1.00  0.00     0.256 C 
HETATM   13  N   UNL     1      -7.513   2.856 -32.421  1.00  0.00    -0.323 N 
HETATM   14  H   UNL     1      -7.086   3.434 -33.133  1.00  0.00     0.169 HD
HETATM   15  O   UNL     1      -7.189   2.117 -30.225  1.00  0.00    -0.267 OA
BRANCH  13  16
HETATM   16  C   UNL     1      -8.759   2.291 -32.766  1.00  0.00     0.035 A 
HETATM   17  C   UNL     1      -8.947   0.942 -33.074  1.00  0.00     0.029 A 
HETATM   18  C   UNL     1     -10.217   0.462 -33.410  1.00  0.00     0.002 A 
HETATM   19  C   UNL     1     -11.307   1.327 -33.448  1.00  0.00     0.000 A 
HETATM   20  C   UNL     1     -11.132   2.674 -33.144  1.00  0.00     0.002 A 
HETATM   21  C   UNL     1      -9.864   3.152 -32.801  1.00  0.00     0.029 A 
ENDBRANCH  13  16
ENDBRANCH  10  12
BRANCH   9  22
HETATM   22  C   UNL     1      -4.128   1.610 -32.173  1.00  0.00    -0.011 A 
HETATM   23  C   UNL     1      -3.186   1.259 -31.209  1.00  0.00     0.125 A 
HETATM   24  N   UNL     1      -2.716   0.005 -31.027  1.00  0.00    -0.272 NA
HETATM   25  C   UNL     1      -3.203  -0.954 -31.841  1.00  0.00     0.116 A 
HETATM   26  C   UNL     1      -4.132  -0.715 -32.838  1.00  0.00     0.020 A 
HETATM   27  C   UNL     1      -4.597   0.586 -33.009  1.00  0.00     0.012 A 
ENDBRANCH   9  22
TORSDOF 3
ENDMDL
