MODEL 1
REMARK VINA RESULT:      -9.2      0.000      0.000
REMARK  8 active torsions:
REMARK  status: ('A' for Active; 'I' for Inactive)
REMARK    1  A    between atoms: C_3  and  O_4 
REMARK    2  A    between atoms: C_11  and  C_12 
REMARK    3  A    between atoms: C_12  and  C_13 
REMARK    4  A    between atoms: C_13  and  S_14 
REMARK    5  A    between atoms: S_14  and  C_15 
REMARK    6  A    between atoms: N_16  and  C_17 
REMARK    7  A    between atoms: C_17  and  C_18 
REMARK    8  A    between atoms: C_24  and  C_25 
ROOT
HETATM    1  C   UNL     1      -5.325   4.638 -33.775  1.00  0.00     0.192 A 
HETATM    2  N   UNL     1      -4.455   4.795 -32.728  1.00  0.00    -0.303 N 
HETATM    3  C   UNL     1      -3.383   5.502 -33.242  1.00  0.00     0.166 A 
HETATM    4  N   UNL     1      -3.632   5.760 -34.515  1.00  0.00    -0.128 NA
HETATM    5  N   UNL     1      -4.837   5.204 -34.851  1.00  0.00    -0.122 NA
ENDROOT
BRANCH   1   6
HETATM    6  S   UNL     1      -6.837   3.805 -33.679  1.00  0.00    -0.082 SA
BRANCH   6   7
HETATM    7  C   UNL     1      -6.352   2.200 -34.377  1.00  0.00     0.166 C 
BRANCH   7   8
HETATM    8  C   UNL     1      -6.950   1.034 -33.610  1.00  0.00     0.169 C 
HETATM    9  O   UNL     1      -7.757   1.163 -32.690  1.00  0.00    -0.291 OA
BRANCH   8  10
HETATM   10  C   UNL     1      -6.507  -0.347 -33.985  1.00  0.00     0.011 A 
HETATM   11  C   UNL     1      -7.144  -1.087 -34.989  1.00  0.00     0.017 A 
HETATM   12  C   UNL     1      -6.726  -2.384 -35.309  1.00  0.00     0.031 A 
HETATM   13  C   UNL     1      -5.646  -2.913 -34.596  1.00  0.00     0.045 A 
HETATM   14  N   UNL     1      -5.034  -4.139 -34.693  1.00  0.00    -0.336 N 
HETATM   15  C   UNL     1      -4.975  -2.205 -33.600  1.00  0.00     0.002 A 
HETATM   16  C   UNL     1      -3.999  -4.232 -33.805  1.00  0.00     0.147 A 
HETATM   17  H   UNL     1      -5.297  -4.876 -35.330  1.00  0.00     0.168 HD
HETATM   18  C   UNL     1      -3.927  -3.046 -33.100  1.00  0.00     0.001 A 
HETATM   19  C   UNL     1      -2.956  -2.682 -32.035  1.00  0.00     0.054 C 
HETATM   20  C   UNL     1      -5.414  -0.900 -33.295  1.00  0.00     0.029 A 
BRANCH  16  21
HETATM   21  O   UNL     1      -3.288  -5.349 -33.765  1.00  0.00    -0.346 OA
HETATM   22  H   UNL     1      -3.912  -6.091 -33.682  1.00  0.00     0.219 HD
ENDBRANCH  16  21
ENDBRANCH   8  10
ENDBRANCH   7   8
ENDBRANCH   6   7
ENDBRANCH   1   6
BRANCH   2  23
HETATM   23  C   UNL     1      -4.694   4.456 -31.334  1.00  0.00     0.171 C 
BRANCH  23  24
HETATM   24  C   UNL     1      -4.538   2.987 -31.011  1.00  0.00    -0.040 A 
HETATM   25  C   UNL     1      -3.442   2.218 -31.431  1.00  0.00     0.009 A 
HETATM   26  C   UNL     1      -3.364   0.858 -31.124  1.00  0.00     0.001 A 
HETATM   27  C   UNL     1      -4.388   0.241 -30.410  1.00  0.00     0.000 A 
HETATM   28  C   UNL     1      -5.493   0.982 -30.005  1.00  0.00     0.001 A 
HETATM   29  C   UNL     1      -5.570   2.344 -30.307  1.00  0.00     0.009 A 
ENDBRANCH  23  24
ENDBRANCH   2  23
BRANCH   3  30
HETATM   30  C   UNL     1      -2.205   5.974 -32.525  1.00  0.00     0.029 A 
HETATM   31  C   UNL     1      -2.064   7.280 -32.069  1.00  0.00     0.131 A 
HETATM   32  N   UNL     1      -0.982   7.742 -31.394  1.00  0.00    -0.272 NA
HETATM   33  C   UNL     1      -0.008   6.849 -31.123  1.00  0.00     0.116 A 
HETATM   34  C   UNL     1      -0.061   5.519 -31.501  1.00  0.00     0.020 A 
HETATM   35  C   UNL     1      -1.177   5.080 -32.210  1.00  0.00     0.018 A 
ENDBRANCH   3  30
TORSDOF 8
ENDMDL
MODEL 2
REMARK VINA RESULT:      -8.9      2.875      7.619
REMARK  8 active torsions:
REMARK  status: ('A' for Active; 'I' for Inactive)
REMARK    1  A    between atoms: C_3  and  O_4 
REMARK    2  A    between atoms: C_11  and  C_12 
REMARK    3  A    between atoms: C_12  and  C_13 
REMARK    4  A    between atoms: C_13  and  S_14 
REMARK    5  A    between atoms: S_14  and  C_15 
REMARK    6  A    between atoms: N_16  and  C_17 
REMARK    7  A    between atoms: C_17  and  C_18 
REMARK    8  A    between atoms: C_24  and  C_25 
ROOT
HETATM    1  C   UNL     1      -8.573   1.150 -33.335  1.00  0.00     0.192 A 
HETATM    2  N   UNL     1      -7.662   0.188 -32.987  1.00  0.00    -0.303 N 
HETATM    3  C   UNL     1      -7.448  -0.550 -34.137  1.00  0.00     0.166 A 
HETATM    4  N   UNL     1      -8.180  -0.026 -35.106  1.00  0.00    -0.128 NA
HETATM    5  N   UNL     1      -8.895   1.025 -34.599  1.00  0.00    -0.122 NA
ENDROOT
BRANCH   1   6
HETATM    6  S   UNL     1      -9.203   2.343 -32.254  1.00  0.00    -0.082 SA
BRANCH   6   7
HETATM    7  C   UNL     1      -8.676   3.853 -33.117  1.00  0.00     0.166 C 
BRANCH   7   8
HETATM    8  C   UNL     1      -7.634   4.630 -32.333  1.00  0.00     0.169 C 
HETATM    9  O   UNL     1      -7.805   5.037 -31.185  1.00  0.00    -0.291 OA
BRANCH   8  10
HETATM   10  C   UNL     1      -6.335   4.935 -33.015  1.00  0.00     0.011 A 
HETATM   11  C   UNL     1      -5.953   4.308 -34.207  1.00  0.00     0.017 A 
HETATM   12  C   UNL     1      -4.725   4.595 -34.815  1.00  0.00     0.031 A 
HETATM   13  C   UNL     1      -3.896   5.534 -34.194  1.00  0.00     0.045 A 
HETATM   14  N   UNL     1      -2.656   6.000 -34.558  1.00  0.00    -0.336 N 
HETATM   15  C   UNL     1      -4.245   6.192 -33.016  1.00  0.00     0.002 A 
HETATM   16  C   UNL     1      -2.210   6.931 -33.662  1.00  0.00     0.147 A 
HETATM   17  H   UNL     1      -2.137   5.709 -35.372  1.00  0.00     0.168 HD
HETATM   18  C   UNL     1      -3.171   7.081 -32.681  1.00  0.00     0.001 A 
HETATM   19  C   UNL     1      -3.131   7.989 -31.504  1.00  0.00     0.054 C 
HETATM   20  C   UNL     1      -5.487   5.887 -32.421  1.00  0.00     0.029 A 
BRANCH  16  21
HETATM   21  O   UNL     1      -1.029   7.496 -33.860  1.00  0.00    -0.346 OA
HETATM   22  H   UNL     1      -0.977   7.747 -34.799  1.00  0.00     0.219 HD
ENDBRANCH  16  21
ENDBRANCH   8  10
ENDBRANCH   7   8
ENDBRANCH   6   7
ENDBRANCH   1   6
BRANCH   2  23
HETATM   23  C   UNL     1      -6.938   0.083 -31.731  1.00  0.00     0.171 C 
BRANCH  23  24
HETATM   24  C   UNL     1      -5.836   1.104 -31.555  1.00  0.00    -0.040 A 
HETATM   25  C   UNL     1      -4.703   1.164 -32.382  1.00  0.00     0.009 A 
HETATM   26  C   UNL     1      -3.703   2.113 -32.155  1.00  0.00     0.001 A 
HETATM   27  C   UNL     1      -3.811   3.003 -31.090  1.00  0.00     0.000 A 
HETATM   28  C   UNL     1      -4.916   2.943 -30.247  1.00  0.00     0.001 A 
HETATM   29  C   UNL     1      -5.919   1.998 -30.474  1.00  0.00     0.009 A 
ENDBRANCH  23  24
ENDBRANCH   2  23
BRANCH   3  30
HETATM   30  C   UNL     1      -6.524  -1.663 -34.319  1.00  0.00     0.029 A 
HETATM   31  C   UNL     1      -5.146  -1.537 -34.192  1.00  0.00     0.131 A 
HETATM   32  N   UNL     1      -4.266  -2.558 -34.348  1.00  0.00    -0.272 NA
HETATM   33  C   UNL     1      -4.787  -3.775 -34.606  1.00  0.00     0.116 A 
HETATM   34  C   UNL     1      -6.145  -4.019 -34.720  1.00  0.00     0.020 A 
HETATM   35  C   UNL     1      -7.021  -2.946 -34.572  1.00  0.00     0.018 A 
ENDBRANCH   3  30
TORSDOF 8
ENDMDL
MODEL 3
REMARK VINA RESULT:      -8.8      3.949      7.817
REMARK  8 active torsions:
REMARK  status: ('A' for Active; 'I' for Inactive)
REMARK    1  A    between atoms: C_3  and  O_4 
REMARK    2  A    between atoms: C_11  and  C_12 
REMARK    3  A    between atoms: C_12  and  C_13 
REMARK    4  A    between atoms: C_13  and  S_14 
REMARK    5  A    between atoms: S_14  and  C_15 
REMARK    6  A    between atoms: N_16  and  C_17 
REMARK    7  A    between atoms: C_17  and  C_18 
REMARK    8  A    between atoms: C_24  and  C_25 
ROOT
HETATM    1  C   UNL     1      -4.278   1.220 -31.156  1.00  0.00     0.192 A 
HETATM    2  N   UNL     1      -4.806   0.046 -31.625  1.00  0.00    -0.303 N 
HETATM    3  C   UNL     1      -3.730  -0.674 -32.114  1.00  0.00     0.166 A 
HETATM    4  N   UNL     1      -2.633   0.039 -31.915  1.00  0.00    -0.128 NA
HETATM    5  N   UNL     1      -2.979   1.228 -31.333  1.00  0.00    -0.122 NA
ENDROOT
BRANCH   1   6
HETATM    6  S   UNL     1      -5.200   2.497 -30.444  1.00  0.00    -0.082 SA
BRANCH   6   7
HETATM    7  C   UNL     1      -5.663   3.416 -31.941  1.00  0.00     0.166 C 
BRANCH   7   8
HETATM    8  C   UNL     1      -6.655   4.527 -31.650  1.00  0.00     0.169 C 
HETATM    9  O   UNL     1      -6.329   5.682 -31.378  1.00  0.00    -0.291 OA
BRANCH   8  10
HETATM   10  C   UNL     1      -8.113   4.182 -31.674  1.00  0.00     0.011 A 
HETATM   11  C   UNL     1      -8.805   3.789 -30.521  1.00  0.00     0.017 A 
HETATM   12  C   UNL     1     -10.163   3.453 -30.571  1.00  0.00     0.031 A 
HETATM   13  C   UNL     1     -10.806   3.528 -31.810  1.00  0.00     0.045 A 
HETATM   14  N   UNL     1     -12.109   3.258 -32.151  1.00  0.00    -0.336 N 
HETATM   15  C   UNL     1     -10.158   3.928 -32.977  1.00  0.00     0.002 A 
HETATM   16  C   UNL     1     -12.314   3.478 -33.484  1.00  0.00     0.147 A 
HETATM   17  H   UNL     1     -12.828   2.945 -31.516  1.00  0.00     0.168 HD
HETATM   18  C   UNL     1     -11.120   3.896 -34.040  1.00  0.00     0.001 A 
HETATM   19  C   UNL     1     -10.860   4.262 -35.458  1.00  0.00     0.054 C 
HETATM   20  C   UNL     1      -8.791   4.263 -32.903  1.00  0.00     0.029 A 
BRANCH  16  21
HETATM   21  O   UNL     1     -13.521   3.274 -33.990  1.00  0.00    -0.346 OA
HETATM   22  H   UNL     1     -14.006   2.702 -33.370  1.00  0.00     0.219 HD
ENDBRANCH  16  21
ENDBRANCH   8  10
ENDBRANCH   7   8
ENDBRANCH   6   7
ENDBRANCH   1   6
BRANCH   2  23
HETATM   23  C   UNL     1      -6.174  -0.420 -31.472  1.00  0.00     0.171 C 
BRANCH  23  24
HETATM   24  C   UNL     1      -7.112   0.012 -32.577  1.00  0.00    -0.040 A 
HETATM   25  C   UNL     1      -6.669   0.462 -33.830  1.00  0.00     0.009 A 
HETATM   26  C   UNL     1      -7.582   0.874 -34.804  1.00  0.00     0.001 A 
HETATM   27  C   UNL     1      -8.948   0.861 -34.534  1.00  0.00     0.000 A 
HETATM   28  C   UNL     1      -9.404   0.440 -33.289  1.00  0.00     0.001 A 
HETATM   29  C   UNL     1      -8.493   0.023 -32.316  1.00  0.00     0.009 A 
ENDBRANCH  23  24
ENDBRANCH   2  23
BRANCH   3  30
HETATM   30  C   UNL     1      -3.743  -2.017 -32.679  1.00  0.00     0.029 A 
HETATM   31  C   UNL     1      -3.189  -3.119 -32.036  1.00  0.00     0.131 A 
HETATM   32  N   UNL     1      -3.195  -4.380 -32.536  1.00  0.00    -0.272 NA
HETATM   33  C   UNL     1      -3.818  -4.561 -33.720  1.00  0.00     0.116 A 
HETATM   34  C   UNL     1      -4.430  -3.541 -34.428  1.00  0.00     0.020 A 
HETATM   35  C   UNL     1      -4.390  -2.255 -33.896  1.00  0.00     0.018 A 
ENDBRANCH   3  30
TORSDOF 8
ENDMDL
MODEL 4
REMARK VINA RESULT:      -8.8      3.483      6.264
REMARK  8 active torsions:
REMARK  status: ('A' for Active; 'I' for Inactive)
REMARK    1  A    between atoms: C_3  and  O_4 
REMARK    2  A    between atoms: C_11  and  C_12 
REMARK    3  A    between atoms: C_12  and  C_13 
REMARK    4  A    between atoms: C_13  and  S_14 
REMARK    5  A    between atoms: S_14  and  C_15 
REMARK    6  A    between atoms: N_16  and  C_17 
REMARK    7  A    between atoms: C_17  and  C_18 
REMARK    8  A    between atoms: C_24  and  C_25 
ROOT
HETATM    1  C   UNL     1      -7.726   4.889 -32.981  1.00  0.00     0.192 A 
HETATM    2  N   UNL     1      -8.754   4.185 -32.410  1.00  0.00    -0.303 N 
HETATM    3  C   UNL     1      -9.632   3.910 -33.443  1.00  0.00     0.166 A 
HETATM    4  N   UNL     1      -9.126   4.409 -34.559  1.00  0.00    -0.128 NA
HETATM    5  N   UNL     1      -7.944   5.035 -34.265  1.00  0.00    -0.122 NA
ENDROOT
BRANCH   1   6
HETATM    6  S   UNL     1      -6.354   5.495 -32.123  1.00  0.00    -0.082 SA
BRANCH   6   7
HETATM    7  C   UNL     1      -5.020   4.723 -33.086  1.00  0.00     0.166 C 
BRANCH   7   8
HETATM    8  C   UNL     1      -4.207   3.743 -32.260  1.00  0.00     0.169 C 
HETATM    9  O   UNL     1      -3.450   4.078 -31.350  1.00  0.00    -0.291 OA
BRANCH   8  10
HETATM   10  C   UNL     1      -4.321   2.287 -32.597  1.00  0.00     0.011 A 
HETATM   11  C   UNL     1      -3.385   1.344 -32.154  1.00  0.00     0.017 A 
HETATM   12  C   UNL     1      -3.502  -0.008 -32.498  1.00  0.00     0.031 A 
HETATM   13  C   UNL     1      -4.588  -0.385 -33.293  1.00  0.00     0.045 A 
HETATM   14  N   UNL     1      -4.946  -1.620 -33.777  1.00  0.00    -0.336 N 
HETATM   15  C   UNL     1      -5.549   0.518 -33.741  1.00  0.00     0.002 A 
HETATM   16  C   UNL     1      -6.098  -1.535 -34.507  1.00  0.00     0.147 A 
HETATM   17  H   UNL     1      -4.442  -2.479 -33.620  1.00  0.00     0.168 HD
HETATM   18  C   UNL     1      -6.510  -0.216 -34.513  1.00  0.00     0.001 A 
HETATM   19  C   UNL     1      -7.715   0.355 -35.171  1.00  0.00     0.054 C 
HETATM   20  C   UNL     1      -5.412   1.875 -33.383  1.00  0.00     0.029 A 
BRANCH  16  21
HETATM   21  O   UNL     1      -6.598  -2.636 -35.048  1.00  0.00    -0.346 OA
HETATM   22  H   UNL     1      -6.245  -3.394 -34.548  1.00  0.00     0.219 HD
ENDBRANCH  16  21
ENDBRANCH   8  10
ENDBRANCH   7   8
ENDBRANCH   6   7
ENDBRANCH   1   6
BRANCH   2  23
HETATM   23  C   UNL     1      -8.814   3.676 -31.049  1.00  0.00     0.171 C 
BRANCH  23  24
HETATM   24  C   UNL     1      -8.018   2.412 -30.817  1.00  0.00    -0.040 A 
HETATM   25  C   UNL     1      -8.378   1.166 -31.353  1.00  0.00     0.009 A 
HETATM   26  C   UNL     1      -7.618   0.025 -31.081  1.00  0.00     0.001 A 
HETATM   27  C   UNL     1      -6.499   0.110 -30.257  1.00  0.00     0.000 A 
HETATM   28  C   UNL     1      -6.140   1.332 -29.699  1.00  0.00     0.001 A 
HETATM   29  C   UNL     1      -6.896   2.474 -29.973  1.00  0.00     0.009 A 
ENDBRANCH  23  24
ENDBRANCH   2  23
BRANCH   3  30
HETATM   30  C   UNL     1     -10.867   3.138 -33.377  1.00  0.00     0.029 A 
HETATM   31  C   UNL     1     -12.061   3.654 -32.887  1.00  0.00     0.131 A 
HETATM   32  N   UNL     1     -13.225   2.959 -32.821  1.00  0.00    -0.272 NA
HETATM   33  C   UNL     1     -13.208   1.699 -33.304  1.00  0.00     0.116 A 
HETATM   34  C   UNL     1     -12.083   1.100 -33.843  1.00  0.00     0.020 A 
HETATM   35  C   UNL     1     -10.900   1.834 -33.879  1.00  0.00     0.018 A 
ENDBRANCH   3  30
TORSDOF 8
ENDMDL
MODEL 5
REMARK VINA RESULT:      -8.6      2.968      5.367
REMARK  8 active torsions:
REMARK  status: ('A' for Active; 'I' for Inactive)
REMARK    1  A    between atoms: C_3  and  O_4 
REMARK    2  A    between atoms: C_11  and  C_12 
REMARK    3  A    between atoms: C_12  and  C_13 
REMARK    4  A    between atoms: C_13  and  S_14 
REMARK    5  A    between atoms: S_14  and  C_15 
REMARK    6  A    between atoms: N_16  and  C_17 
REMARK    7  A    between atoms: C_17  and  C_18 
REMARK    8  A    between atoms: C_24  and  C_25 
ROOT
HETATM    1  C   UNL     1      -1.827   5.395 -31.236  1.00  0.00     0.192 A 
HETATM    2  N   UNL     1      -1.775   6.117 -30.073  1.00  0.00    -0.303 N 
HETATM    3  C   UNL     1      -0.439   6.141 -29.713  1.00  0.00     0.166 A 
HETATM    4  N   UNL     1       0.248   5.486 -30.634  1.00  0.00    -0.128 NA
HETATM    5  N   UNL     1      -0.623   5.005 -31.575  1.00  0.00    -0.122 NA
ENDROOT
BRANCH   1   6
HETATM    6  S   UNL     1      -3.276   5.049 -32.114  1.00  0.00    -0.082 SA
BRANCH   6   7
HETATM    7  C   UNL     1      -2.977   3.306 -32.531  1.00  0.00     0.166 C 
BRANCH   7   8
HETATM    8  C   UNL     1      -3.818   2.362 -31.692  1.00  0.00     0.169 C 
HETATM    9  O   UNL     1      -4.371   2.688 -30.642  1.00  0.00    -0.291 OA
BRANCH   8  10
HETATM   10  C   UNL     1      -3.957   0.947 -32.164  1.00  0.00     0.011 A 
HETATM   11  C   UNL     1      -3.076  -0.064 -31.761  1.00  0.00     0.017 A 
HETATM   12  C   UNL     1      -3.214  -1.375 -32.232  1.00  0.00     0.031 A 
HETATM   13  C   UNL     1      -4.265  -1.642 -33.113  1.00  0.00     0.045 A 
HETATM   14  N   UNL     1      -4.633  -2.816 -33.726  1.00  0.00    -0.336 N 
HETATM   15  C   UNL     1      -5.172  -0.669 -33.527  1.00  0.00     0.002 A 
HETATM   16  C   UNL     1      -5.740  -2.626 -34.504  1.00  0.00     0.147 A 
HETATM   17  H   UNL     1      -4.164  -3.703 -33.621  1.00  0.00     0.168 HD
HETATM   18  C   UNL     1      -6.110  -1.298 -34.411  1.00  0.00     0.001 A 
HETATM   19  C   UNL     1      -7.260  -0.629 -35.077  1.00  0.00     0.054 C 
HETATM   20  C   UNL     1      -5.015   0.645 -33.040  1.00  0.00     0.029 A 
BRANCH  16  21
HETATM   21  O   UNL     1      -6.241  -3.657 -35.168  1.00  0.00    -0.346 OA
HETATM   22  H   UNL     1      -7.191  -3.488 -35.298  1.00  0.00     0.219 HD
ENDBRANCH  16  21
ENDBRANCH   8  10
ENDBRANCH   7   8
ENDBRANCH   6   7
ENDBRANCH   1   6
BRANCH   2  23
HETATM   23  C   UNL     1      -2.863   6.857 -29.454  1.00  0.00     0.171 C 
BRANCH  23  24
HETATM   24  C   UNL     1      -2.674   8.357 -29.442  1.00  0.00    -0.040 A 
HETATM   25  C   UNL     1      -2.520   9.124 -30.607  1.00  0.00     0.009 A 
HETATM   26  C   UNL     1      -2.322  10.505 -30.533  1.00  0.00     0.001 A 
HETATM   27  C   UNL     1      -2.256  11.137 -29.294  1.00  0.00     0.000 A 
HETATM   28  C   UNL     1      -2.383  10.390 -28.128  1.00  0.00     0.001 A 
HETATM   29  C   UNL     1      -2.586   9.010 -28.200  1.00  0.00     0.009 A 
ENDBRANCH  23  24
ENDBRANCH   2  23
BRANCH   3  30
HETATM   30  C   UNL     1       0.161   6.825 -28.575  1.00  0.00     0.029 A 
HETATM   31  C   UNL     1       0.032   6.379 -27.264  1.00  0.00     0.131 A 
HETATM   32  N   UNL     1       0.587   6.994 -26.189  1.00  0.00    -0.272 NA
HETATM   33  C   UNL     1       1.340   8.086 -26.435  1.00  0.00     0.116 A 
HETATM   34  C   UNL     1       1.560   8.596 -27.702  1.00  0.00     0.020 A 
HETATM   35  C   UNL     1       0.962   7.953 -28.783  1.00  0.00     0.018 A 
ENDBRANCH   3  30
TORSDOF 8
ENDMDL
MODEL 6
REMARK VINA RESULT:      -8.5      3.591      6.140
REMARK  8 active torsions:
REMARK  status: ('A' for Active; 'I' for Inactive)
REMARK    1  A    between atoms: C_3  and  O_4 
REMARK    2  A    between atoms: C_11  and  C_12 
REMARK    3  A    between atoms: C_12  and  C_13 
REMARK    4  A    between atoms: C_13  and  S_14 
REMARK    5  A    between atoms: S_14  and  C_15 
REMARK    6  A    between atoms: N_16  and  C_17 
REMARK    7  A    between atoms: C_17  and  C_18 
REMARK    8  A    between atoms: C_24  and  C_25 
ROOT
HETATM    1  C   UNL     1      -6.751   5.139 -31.630  1.00  0.00     0.192 A 
HETATM    2  N   UNL     1      -7.823   4.587 -32.281  1.00  0.00    -0.303 N 
HETATM    3  C   UNL     1      -8.940   5.196 -31.737  1.00  0.00     0.166 A 
HETATM    4  N   UNL     1      -8.532   6.074 -30.835  1.00  0.00    -0.128 NA
HETATM    5  N   UNL     1      -7.166   6.024 -30.756  1.00  0.00    -0.122 NA
ENDROOT
BRANCH   1   6
HETATM    6  S   UNL     1      -5.101   4.717 -31.922  1.00  0.00    -0.082 SA
BRANCH   6   7
HETATM    7  C   UNL     1      -5.038   3.108 -31.080  1.00  0.00     0.166 C 
BRANCH   7   8
HETATM    8  C   UNL     1      -3.756   2.352 -31.378  1.00  0.00     0.169 C 
HETATM    9  O   UNL     1      -2.632   2.827 -31.227  1.00  0.00    -0.291 OA
BRANCH   8  10
HETATM   10  C   UNL     1      -3.879   0.958 -31.911  1.00  0.00     0.011 A 
HETATM   11  C   UNL     1      -3.027  -0.075 -31.500  1.00  0.00     0.017 A 
HETATM   12  C   UNL     1      -3.148  -1.367 -32.026  1.00  0.00     0.031 A 
HETATM   13  C   UNL     1      -4.152  -1.591 -32.973  1.00  0.00     0.045 A 
HETATM   14  N   UNL     1      -4.493  -2.738 -33.648  1.00  0.00    -0.336 N 
HETATM   15  C   UNL     1      -5.029  -0.596 -33.398  1.00  0.00     0.002 A 
HETATM   16  C   UNL     1      -5.555  -2.510 -34.477  1.00  0.00     0.147 A 
HETATM   17  H   UNL     1      -4.037  -3.632 -33.553  1.00  0.00     0.168 HD
HETATM   18  C   UNL     1      -5.922  -1.183 -34.354  1.00  0.00     0.001 A 
HETATM   19  C   UNL     1      -7.029  -0.480 -35.055  1.00  0.00     0.054 C 
HETATM   20  C   UNL     1      -4.890   0.698 -32.854  1.00  0.00     0.029 A 
BRANCH  16  21
HETATM   21  O   UNL     1      -6.027  -3.510 -35.205  1.00  0.00    -0.346 OA
HETATM   22  H   UNL     1      -6.852  -3.814 -34.787  1.00  0.00     0.219 HD
ENDBRANCH  16  21
ENDBRANCH   8  10
ENDBRANCH   7   8
ENDBRANCH   6   7
ENDBRANCH   1   6
BRANCH   2  23
HETATM   23  C   UNL     1      -7.783   3.692 -33.427  1.00  0.00     0.171 C 
BRANCH  23  24
HETATM   24  C   UNL     1      -8.577   2.417 -33.253  1.00  0.00    -0.040 A 
HETATM   25  C   UNL     1      -9.630   2.043 -34.102  1.00  0.00     0.009 A 
HETATM   26  C   UNL     1     -10.346   0.864 -33.877  1.00  0.00     0.001 A 
HETATM   27  C   UNL     1     -10.032   0.052 -32.790  1.00  0.00     0.000 A 
HETATM   28  C   UNL     1      -9.007   0.418 -31.925  1.00  0.00     0.001 A 
HETATM   29  C   UNL     1      -8.287   1.593 -32.151  1.00  0.00     0.009 A 
ENDBRANCH  23  24
ENDBRANCH   2  23
BRANCH   3  30
HETATM   30  C   UNL     1     -10.333   5.001 -32.120  1.00  0.00     0.029 A 
HETATM   31  C   UNL     1     -10.909   5.607 -33.230  1.00  0.00     0.131 A 
HETATM   32  N   UNL     1     -12.200   5.436 -33.611  1.00  0.00    -0.272 NA
HETATM   33  C   UNL     1     -12.944   4.587 -32.872  1.00  0.00     0.116 A 
HETATM   34  C   UNL     1     -12.462   3.907 -31.767  1.00  0.00     0.020 A 
HETATM   35  C   UNL     1     -11.137   4.119 -31.391  1.00  0.00     0.018 A 
ENDBRANCH   3  30
TORSDOF 8
ENDMDL
MODEL 7
REMARK VINA RESULT:      -8.4      1.628      2.682
REMARK  8 active torsions:
REMARK  status: ('A' for Active; 'I' for Inactive)
REMARK    1  A    between atoms: C_3  and  O_4 
REMARK    2  A    between atoms: C_11  and  C_12 
REMARK    3  A    between atoms: C_12  and  C_13 
REMARK    4  A    between atoms: C_13  and  S_14 
REMARK    5  A    between atoms: S_14  and  C_15 
REMARK    6  A    between atoms: N_16  and  C_17 
REMARK    7  A    between atoms: C_17  and  C_18 
REMARK    8  A    between atoms: C_24  and  C_25 
ROOT
HETATM    1  C   UNL     1      -5.921   4.176 -33.273  1.00  0.00     0.192 A 
HETATM    2  N   UNL     1      -4.841   4.395 -32.459  1.00  0.00    -0.303 N 
HETATM    3  C   UNL     1      -3.987   5.203 -33.188  1.00  0.00     0.166 A 
HETATM    4  N   UNL     1      -4.556   5.457 -34.355  1.00  0.00    -0.128 NA
HETATM    5  N   UNL     1      -5.755   4.800 -34.414  1.00  0.00    -0.122 NA
ENDROOT
BRANCH   1   6
HETATM    6  S   UNL     1      -7.291   3.210 -32.850  1.00  0.00    -0.082 SA
BRANCH   6   7
HETATM    7  C   UNL     1      -7.380   2.140 -34.317  1.00  0.00     0.166 C 
BRANCH   7   8
HETATM    8  C   UNL     1      -7.754   0.712 -33.965  1.00  0.00     0.169 C 
HETATM    9  O   UNL     1      -8.912   0.329 -33.801  1.00  0.00    -0.291 OA
BRANCH   8  10
HETATM   10  C   UNL     1      -6.642  -0.275 -33.784  1.00  0.00     0.011 A 
HETATM   11  C   UNL     1      -5.479   0.036 -33.067  1.00  0.00     0.017 A 
HETATM   12  C   UNL     1      -4.443  -0.896 -32.928  1.00  0.00     0.031 A 
HETATM   13  C   UNL     1      -4.612  -2.149 -33.524  1.00  0.00     0.045 A 
HETATM   14  N   UNL     1      -3.775  -3.238 -33.552  1.00  0.00    -0.336 N 
HETATM   15  C   UNL     1      -5.759  -2.503 -34.233  1.00  0.00     0.002 A 
HETATM   16  C   UNL     1      -4.349  -4.268 -34.243  1.00  0.00     0.147 A 
HETATM   17  H   UNL     1      -2.864  -3.287 -33.123  1.00  0.00     0.168 HD
HETATM   18  C   UNL     1      -5.589  -3.853 -34.688  1.00  0.00     0.001 A 
HETATM   19  C   UNL     1      -6.579  -4.635 -35.474  1.00  0.00     0.054 C 
HETATM   20  C   UNL     1      -6.790  -1.549 -34.359  1.00  0.00     0.029 A 
BRANCH  16  21
HETATM   21  O   UNL     1      -3.683  -5.407 -34.366  1.00  0.00    -0.346 OA
HETATM   22  H   UNL     1      -4.301  -6.072 -34.716  1.00  0.00     0.219 HD
ENDBRANCH  16  21
ENDBRANCH   8  10
ENDBRANCH   7   8
ENDBRANCH   6   7
ENDBRANCH   1   6
BRANCH   2  23
HETATM   23  C   UNL     1      -4.709   4.015 -31.062  1.00  0.00     0.171 C 
BRANCH  23  24
HETATM   24  C   UNL     1      -5.359   4.972 -30.088  1.00  0.00    -0.040 A 
HETATM   25  C   UNL     1      -4.865   6.259 -29.826  1.00  0.00     0.009 A 
HETATM   26  C   UNL     1      -5.493   7.089 -28.894  1.00  0.00     0.001 A 
HETATM   27  C   UNL     1      -6.612   6.640 -28.198  1.00  0.00     0.000 A 
HETATM   28  C   UNL     1      -7.102   5.359 -28.428  1.00  0.00     0.001 A 
HETATM   29  C   UNL     1      -6.479   4.529 -29.362  1.00  0.00     0.009 A 
ENDBRANCH  23  24
ENDBRANCH   2  23
BRANCH   3  30
HETATM   30  C   UNL     1      -2.715   5.769 -32.756  1.00  0.00     0.029 A 
HETATM   31  C   UNL     1      -2.483   7.136 -32.661  1.00  0.00     0.131 A 
HETATM   32  N   UNL     1      -1.312   7.687 -32.254  1.00  0.00    -0.272 NA
HETATM   33  C   UNL     1      -0.334   6.834 -31.887  1.00  0.00     0.116 A 
HETATM   34  C   UNL     1      -0.469   5.456 -31.912  1.00  0.00     0.020 A 
HETATM   35  C   UNL     1      -1.678   4.922 -32.351  1.00  0.00     0.018 A 
ENDBRANCH   3  30
TORSDOF 8
ENDMDL
MODEL 8
REMARK VINA RESULT:      -8.4      2.306      3.778
REMARK  8 active torsions:
REMARK  status: ('A' for Active; 'I' for Inactive)
REMARK    1  A    between atoms: C_3  and  O_4 
REMARK    2  A    between atoms: C_11  and  C_12 
REMARK    3  A    between atoms: C_12  and  C_13 
REMARK    4  A    between atoms: C_13  and  S_14 
REMARK    5  A    between atoms: S_14  and  C_15 
REMARK    6  A    between atoms: N_16  and  C_17 
REMARK    7  A    between atoms: C_17  and  C_18 
REMARK    8  A    between atoms: C_24  and  C_25 
ROOT
HETATM    1  C   UNL     1      -7.055   4.568 -32.447  1.00  0.00     0.192 A 
HETATM    2  N   UNL     1      -6.019   4.642 -31.554  1.00  0.00    -0.303 N 
HETATM    3  C   UNL     1      -6.408   5.578 -30.613  1.00  0.00     0.166 A 
HETATM    4  N   UNL     1      -7.618   6.006 -30.933  1.00  0.00    -0.128 NA
HETATM    5  N   UNL     1      -8.013   5.388 -32.088  1.00  0.00    -0.122 NA
ENDROOT
BRANCH   1   6
HETATM    6  S   UNL     1      -7.080   3.548 -33.842  1.00  0.00    -0.082 SA
BRANCH   6   7
HETATM    7  C   UNL     1      -7.761   2.032 -33.105  1.00  0.00     0.166 C 
BRANCH   7   8
HETATM    8  C   UNL     1      -7.702   0.853 -34.058  1.00  0.00     0.169 C 
HETATM    9  O   UNL     1      -8.513   0.665 -34.964  1.00  0.00    -0.291 OA
BRANCH   8  10
HETATM   10  C   UNL     1      -6.605  -0.148 -33.860  1.00  0.00     0.011 A 
HETATM   11  C   UNL     1      -5.430   0.161 -33.164  1.00  0.00     0.017 A 
HETATM   12  C   UNL     1      -4.410  -0.785 -33.009  1.00  0.00     0.031 A 
HETATM   13  C   UNL     1      -4.607  -2.051 -33.568  1.00  0.00     0.045 A 
HETATM   14  N   UNL     1      -3.790  -3.155 -33.573  1.00  0.00    -0.336 N 
HETATM   15  C   UNL     1      -5.767  -2.404 -34.255  1.00  0.00     0.002 A 
HETATM   16  C   UNL     1      -4.389  -4.194 -34.229  1.00  0.00     0.147 A 
HETATM   17  H   UNL     1      -2.875  -3.209 -33.152  1.00  0.00     0.168 HD
HETATM   18  C   UNL     1      -5.626  -3.769 -34.673  1.00  0.00     0.001 A 
HETATM   19  C   UNL     1      -6.638  -4.555 -35.427  1.00  0.00     0.054 C 
HETATM   20  C   UNL     1      -6.782  -1.436 -34.398  1.00  0.00     0.029 A 
BRANCH  16  21
HETATM   21  O   UNL     1      -3.745  -5.347 -34.326  1.00  0.00    -0.346 OA
HETATM   22  H   UNL     1      -3.841  -5.810 -33.475  1.00  0.00     0.219 HD
ENDBRANCH  16  21
ENDBRANCH   8  10
ENDBRANCH   7   8
ENDBRANCH   6   7
ENDBRANCH   1   6
BRANCH   2  23
HETATM   23  C   UNL     1      -4.846   3.784 -31.504  1.00  0.00     0.171 C 
BRANCH  23  24
HETATM   24  C   UNL     1      -3.624   4.353 -32.189  1.00  0.00    -0.040 A 
HETATM   25  C   UNL     1      -3.599   4.717 -33.544  1.00  0.00     0.009 A 
HETATM   26  C   UNL     1      -2.432   5.212 -34.130  1.00  0.00     0.001 A 
HETATM   27  C   UNL     1      -1.268   5.335 -33.376  1.00  0.00     0.000 A 
HETATM   28  C   UNL     1      -1.267   4.958 -32.037  1.00  0.00     0.001 A 
HETATM   29  C   UNL     1      -2.434   4.467 -31.449  1.00  0.00     0.009 A 
ENDBRANCH  23  24
ENDBRANCH   2  23
BRANCH   3  30
HETATM   30  C   UNL     1      -5.683   5.989 -29.417  1.00  0.00     0.029 A 
HETATM   31  C   UNL     1      -6.013   5.551 -28.139  1.00  0.00     0.131 A 
HETATM   32  N   UNL     1      -5.350   5.913 -27.012  1.00  0.00    -0.272 NA
HETATM   33  C   UNL     1      -4.280   6.721 -27.168  1.00  0.00     0.116 A 
HETATM   34  C   UNL     1      -3.846   7.188 -28.397  1.00  0.00     0.020 A 
HETATM   35  C   UNL     1      -4.559   6.814 -29.533  1.00  0.00     0.018 A 
ENDBRANCH   3  30
TORSDOF 8
ENDMDL
MODEL 9
REMARK VINA RESULT:      -8.4      3.650      9.037
REMARK  8 active torsions:
REMARK  status: ('A' for Active; 'I' for Inactive)
REMARK    1  A    between atoms: C_3  and  O_4 
REMARK    2  A    between atoms: C_11  and  C_12 
REMARK    3  A    between atoms: C_12  and  C_13 
REMARK    4  A    between atoms: C_13  and  S_14 
REMARK    5  A    between atoms: S_14  and  C_15 
REMARK    6  A    between atoms: N_16  and  C_17 
REMARK    7  A    between atoms: C_17  and  C_18 
REMARK    8  A    between atoms: C_24  and  C_25 
ROOT
HETATM    1  C   UNL     1      -5.517   2.564 -31.121  1.00  0.00     0.192 A 
HETATM    2  N   UNL     1      -6.332   2.082 -32.111  1.00  0.00    -0.303 N 
HETATM    3  C   UNL     1      -7.605   2.072 -31.569  1.00  0.00     0.166 A 
HETATM    4  N   UNL     1      -7.532   2.546 -30.336  1.00  0.00    -0.128 NA
HETATM    5  N   UNL     1      -6.224   2.837 -30.052  1.00  0.00    -0.122 NA
ENDROOT
BRANCH   1   6
HETATM    6  S   UNL     1      -3.807   2.771 -31.270  1.00  0.00    -0.082 SA
BRANCH   6   7
HETATM    7  C   UNL     1      -3.756   4.456 -31.949  1.00  0.00     0.166 C 
BRANCH   7   8
HETATM    8  C   UNL     1      -2.378   4.827 -32.464  1.00  0.00     0.169 C 
HETATM    9  O   UNL     1      -1.944   4.487 -33.563  1.00  0.00    -0.291 OA
BRANCH   8  10
HETATM   10  C   UNL     1      -1.493   5.634 -31.564  1.00  0.00     0.011 A 
HETATM   11  C   UNL     1      -0.110   5.729 -31.767  1.00  0.00     0.017 A 
HETATM   12  C   UNL     1       0.700   6.474 -30.901  1.00  0.00     0.031 A 
HETATM   13  C   UNL     1       0.080   7.123 -29.830  1.00  0.00     0.045 A 
HETATM   14  N   UNL     1       0.617   7.907 -28.838  1.00  0.00    -0.336 N 
HETATM   15  C   UNL     1      -1.293   7.067 -29.601  1.00  0.00     0.002 A 
HETATM   16  C   UNL     1      -0.361   8.354 -27.995  1.00  0.00     0.147 A 
HETATM   17  H   UNL     1       1.595   8.134 -28.735  1.00  0.00     0.168 HD
HETATM   18  C   UNL     1      -1.571   7.852 -28.433  1.00  0.00     0.001 A 
HETATM   19  C   UNL     1      -2.915   8.076 -27.838  1.00  0.00     0.054 C 
HETATM   20  C   UNL     1      -2.090   6.312 -30.486  1.00  0.00     0.029 A 
BRANCH  16  21
HETATM   21  O   UNL     1      -0.025   9.134 -26.978  1.00  0.00    -0.346 OA
HETATM   22  H   UNL     1       0.106  10.033 -27.328  1.00  0.00     0.219 HD
ENDBRANCH  16  21
ENDBRANCH   8  10
ENDBRANCH   7   8
ENDBRANCH   6   7
ENDBRANCH   1   6
BRANCH   2  23
HETATM   23  C   UNL     1      -5.966   1.817 -33.493  1.00  0.00     0.171 C 
BRANCH  23  24
HETATM   24  C   UNL     1      -5.893   0.350 -33.852  1.00  0.00    -0.040 A 
HETATM   25  C   UNL     1      -6.803  -0.278 -34.716  1.00  0.00     0.009 A 
HETATM   26  C   UNL     1      -6.701  -1.645 -34.990  1.00  0.00     0.001 A 
HETATM   27  C   UNL     1      -5.701  -2.406 -34.391  1.00  0.00     0.000 A 
HETATM   28  C   UNL     1      -4.804  -1.805 -33.514  1.00  0.00     0.001 A 
HETATM   29  C   UNL     1      -4.901  -0.439 -33.243  1.00  0.00     0.009 A 
ENDBRANCH  23  24
ENDBRANCH   2  23
BRANCH   3  30
HETATM   30  C   UNL     1      -8.848   1.694 -32.229  1.00  0.00     0.029 A 
HETATM   31  C   UNL     1      -9.640   2.595 -32.932  1.00  0.00     0.131 A 
HETATM   32  N   UNL     1     -10.797   2.267 -33.561  1.00  0.00    -0.272 NA
HETATM   33  C   UNL     1     -11.164   0.969 -33.521  1.00  0.00     0.116 A 
HETATM   34  C   UNL     1     -10.433  -0.015 -32.878  1.00  0.00     0.020 A 
HETATM   35  C   UNL     1      -9.260   0.357 -32.226  1.00  0.00     0.018 A 
ENDBRANCH   3  30
TORSDOF 8
ENDMDL
MODEL 10
REMARK VINA RESULT:      -8.4     16.231     18.593
REMARK  8 active torsions:
REMARK  status: ('A' for Active; 'I' for Inactive)
REMARK    1  A    between atoms: C_3  and  O_4 
REMARK    2  A    between atoms: C_11  and  C_12 
REMARK    3  A    between atoms: C_12  and  C_13 
REMARK    4  A    between atoms: C_13  and  S_14 
REMARK    5  A    between atoms: S_14  and  C_15 
REMARK    6  A    between atoms: N_16  and  C_17 
REMARK    7  A    between atoms: C_17  and  C_18 
REMARK    8  A    between atoms: C_24  and  C_25 
ROOT
HETATM    1  C   UNL     1      -6.041 -14.595 -36.911  1.00  0.00     0.192 A 
HETATM    2  N   UNL     1      -6.819 -14.907 -37.995  1.00  0.00    -0.303 N 
HETATM    3  C   UNL     1      -7.884 -14.024 -37.951  1.00  0.00     0.166 A 
HETATM    4  N   UNL     1      -7.716 -13.228 -36.909  1.00  0.00    -0.128 NA
HETATM    5  N   UNL     1      -6.575 -13.597 -36.250  1.00  0.00    -0.122 NA
ENDROOT
BRANCH   1   6
HETATM    6  S   UNL     1      -4.578 -15.411 -36.485  1.00  0.00    -0.082 SA
BRANCH   6   7
HETATM    7  C   UNL     1      -3.567 -13.989 -35.976  1.00  0.00     0.166 C 
BRANCH   7   8
HETATM    8  C   UNL     1      -3.169 -13.117 -37.152  1.00  0.00     0.169 C 
HETATM    9  O   UNL     1      -3.752 -12.079 -37.463  1.00  0.00    -0.291 OA
BRANCH   8  10
HETATM   10  C   UNL     1      -2.012 -13.566 -37.992  1.00  0.00     0.011 A 
HETATM   11  C   UNL     1      -1.883 -13.204 -39.338  1.00  0.00     0.017 A 
HETATM   12  C   UNL     1      -0.803 -13.652 -40.108  1.00  0.00     0.031 A 
HETATM   13  C   UNL     1       0.144 -14.470 -39.486  1.00  0.00     0.045 A 
HETATM   14  N   UNL     1       1.284 -15.049 -39.989  1.00  0.00    -0.336 N 
HETATM   15  C   UNL     1       0.061 -14.842 -38.145  1.00  0.00     0.002 A 
HETATM   16  C   UNL     1       1.928 -15.765 -39.020  1.00  0.00     0.147 A 
HETATM   17  H   UNL     1       1.615 -14.962 -40.938  1.00  0.00     0.168 HD
HETATM   18  C   UNL     1       1.198 -15.665 -37.851  1.00  0.00     0.001 A 
HETATM   19  C   UNL     1       1.513 -16.271 -36.530  1.00  0.00     0.054 C 
HETATM   20  C   UNL     1      -1.035 -14.378 -37.388  1.00  0.00     0.029 A 
BRANCH  16  21
HETATM   21  O   UNL     1       3.056 -16.389 -39.326  1.00  0.00    -0.346 OA
HETATM   22  H   UNL     1       3.761 -16.007 -38.774  1.00  0.00     0.219 HD
ENDBRANCH  16  21
ENDBRANCH   8  10
ENDBRANCH   7   8
ENDBRANCH   6   7
ENDBRANCH   1   6
BRANCH   2  23
HETATM   23  C   UNL     1      -6.497 -15.839 -39.063  1.00  0.00     0.171 C 
BRANCH  23  24
HETATM   24  C   UNL     1      -5.575 -15.281 -40.125  1.00  0.00    -0.040 A 
HETATM   25  C   UNL     1      -5.829 -14.086 -40.815  1.00  0.00     0.009 A 
HETATM   26  C   UNL     1      -4.954 -13.634 -41.806  1.00  0.00     0.001 A 
HETATM   27  C   UNL     1      -3.824 -14.377 -42.134  1.00  0.00     0.000 A 
HETATM   28  C   UNL     1      -3.567 -15.575 -41.476  1.00  0.00     0.001 A 
HETATM   29  C   UNL     1      -4.438 -16.027 -40.482  1.00  0.00     0.009 A 
ENDBRANCH  23  24
ENDBRANCH   2  23
BRANCH   3  30
HETATM   30  C   UNL     1      -8.975 -13.901 -38.910  1.00  0.00     0.029 A 
HETATM   31  C   UNL     1      -9.709 -14.988 -39.371  1.00  0.00     0.131 A 
HETATM   32  N   UNL     1     -10.733 -14.899 -40.257  1.00  0.00    -0.272 NA
HETATM   33  C   UNL     1     -11.068 -13.661 -40.677  1.00  0.00     0.116 A 
HETATM   34  C   UNL     1     -10.425 -12.510 -40.258  1.00  0.00     0.020 A 
HETATM   35  C   UNL     1      -9.365 -12.636 -39.362  1.00  0.00     0.018 A 
ENDBRANCH   3  30
TORSDOF 8
ENDMDL
