MODEL 1
REMARK VINA RESULT:      -8.2      0.000      0.000
REMARK  4 active torsions:
REMARK  status: ('A' for Active; 'I' for Inactive)
REMARK    1  A    between atoms: C_2  and  C_3 
REMARK    2  A    between atoms: C_5  and  C_6 
REMARK       I    between atoms: C_6  and  N_7 
REMARK    3  A    between atoms: N_7  and  C_8 
REMARK    4  A    between atoms: C_10  and  C_11 
ROOT
HETATM    1  C   UNL     1      -7.450  -0.130 -34.030  1.00  0.00     0.035 A 
HETATM    2  C   UNL     1      -7.068  -1.449 -34.291  1.00  0.00     0.042 A 
HETATM    3  C   UNL     1      -5.753  -1.886 -34.048  1.00  0.00    -0.021 A 
HETATM    4  C   UNL     1      -4.817  -0.968 -33.555  1.00  0.00     0.012 A 
HETATM    5  C   UNL     1      -5.188   0.351 -33.297  1.00  0.00     0.003 A 
HETATM    6  C   UNL     1      -6.499   0.766 -33.529  1.00  0.00     0.029 A 
ENDROOT
BRANCH   1   7
HETATM    7  N   UNL     1      -8.754   0.365 -34.223  1.00  0.00    -0.321 N 
HETATM    8  C   UNL     1      -9.788   0.455 -33.308  1.00  0.00     0.279 C 
HETATM    9  O   UNL     1      -9.750   0.061 -32.147  1.00  0.00    -0.265 OA
HETATM   10  H   UNL     1      -8.986   0.708 -35.150  1.00  0.00     0.169 HD
BRANCH   8  11
HETATM   11  C   UNL     1     -10.974   1.080 -33.868  1.00  0.00     0.143 A 
HETATM   12  O   UNL     1     -12.204   0.513 -33.642  1.00  0.00    -0.310 OA
HETATM   13  C   UNL     1     -13.125   1.275 -34.299  1.00  0.00     0.053 A 
HETATM   14  C   UNL     1     -12.507   2.334 -34.926  1.00  0.00     0.036 A 
HETATM   15  C   UNL     1     -11.124   2.207 -34.653  1.00  0.00     0.045 A 
BRANCH  13  16
HETATM   16  C   UNL     1     -14.536   0.823 -34.218  1.00  0.00     0.060 C 
HETATM   17  C   UNL     1     -15.285   1.544 -33.109  1.00  0.00     0.012 C 
ENDBRANCH  13  16
ENDBRANCH   8  11
ENDBRANCH   1   7
BRANCH   3  18
HETATM   18  C   UNL     1      -5.360  -3.264 -34.296  1.00  0.00     0.010 A 
HETATM   19  C   UNL     1      -6.043  -4.325 -34.938  1.00  0.00     0.152 A 
HETATM   20  N   UNL     1      -5.326  -5.452 -34.988  1.00  0.00    -0.187 NA
HETATM   21  N   UNL     1      -4.180  -5.120 -34.373  1.00  0.00    -0.289 N 
HETATM   22  H   UNL     1      -3.459  -5.827 -34.284  1.00  0.00     0.188 HD
HETATM   23  C   UNL     1      -4.147  -3.824 -33.947  1.00  0.00     0.123 A 
ENDBRANCH   3  18
TORSDOF 4
ENDMDL
MODEL 2
REMARK VINA RESULT:      -7.9      1.381      2.192
REMARK  4 active torsions:
REMARK  status: ('A' for Active; 'I' for Inactive)
REMARK    1  A    between atoms: C_2  and  C_3 
REMARK    2  A    between atoms: C_5  and  C_6 
REMARK       I    between atoms: C_6  and  N_7 
REMARK    3  A    between atoms: N_7  and  C_8 
REMARK    4  A    between atoms: C_10  and  C_11 
ROOT
HETATM    1  C   UNL     1      -7.442   0.257 -34.286  1.00  0.00     0.035 A 
HETATM    2  C   UNL     1      -7.195  -1.087 -34.582  1.00  0.00     0.042 A 
HETATM    3  C   UNL     1      -5.976  -1.695 -34.232  1.00  0.00    -0.021 A 
HETATM    4  C   UNL     1      -4.995  -0.924 -33.596  1.00  0.00     0.012 A 
HETATM    5  C   UNL     1      -5.230   0.419 -33.303  1.00  0.00     0.003 A 
HETATM    6  C   UNL     1      -6.450   1.005 -33.643  1.00  0.00     0.029 A 
ENDROOT
BRANCH   1   7
HETATM    7  N   UNL     1      -8.649   0.920 -34.583  1.00  0.00    -0.321 N 
HETATM    8  C   UNL     1      -9.848   0.877 -33.894  1.00  0.00     0.279 C 
HETATM    9  O   UNL     1     -10.079   0.194 -32.902  1.00  0.00    -0.265 OA
HETATM   10  H   UNL     1      -8.660   1.513 -35.406  1.00  0.00     0.169 HD
BRANCH   8  11
HETATM   11  C   UNL     1     -10.856   1.746 -34.478  1.00  0.00     0.143 A 
HETATM   12  O   UNL     1     -10.599   3.090 -34.595  1.00  0.00    -0.310 OA
HETATM   13  C   UNL     1     -11.709   3.666 -35.140  1.00  0.00     0.053 A 
HETATM   14  C   UNL     1     -12.666   2.708 -35.393  1.00  0.00     0.036 A 
HETATM   15  C   UNL     1     -12.119   1.475 -34.965  1.00  0.00     0.045 A 
BRANCH  13  16
HETATM   16  C   UNL     1     -11.667   5.137 -35.328  1.00  0.00     0.060 C 
HETATM   17  C   UNL     1     -10.235   5.650 -35.359  1.00  0.00     0.012 C 
ENDBRANCH  13  16
ENDBRANCH   8  11
ENDBRANCH   1   7
BRANCH   3  18
HETATM   18  C   UNL     1      -5.727  -3.100 -34.515  1.00  0.00     0.010 A 
HETATM   19  C   UNL     1      -6.527  -4.076 -35.156  1.00  0.00     0.152 A 
HETATM   20  N   UNL     1      -5.926  -5.266 -35.247  1.00  0.00    -0.187 NA
HETATM   21  N   UNL     1      -4.736  -5.059 -34.661  1.00  0.00    -0.289 N 
HETATM   22  H   UNL     1      -4.085  -5.835 -34.606  1.00  0.00     0.188 HD
HETATM   23  C   UNL     1      -4.565  -3.782 -34.214  1.00  0.00     0.123 A 
ENDBRANCH   3  18
TORSDOF 4
ENDMDL
MODEL 3
REMARK VINA RESULT:      -7.8      2.742      8.027
REMARK  4 active torsions:
REMARK  status: ('A' for Active; 'I' for Inactive)
REMARK    1  A    between atoms: C_2  and  C_3 
REMARK    2  A    between atoms: C_5  and  C_6 
REMARK       I    between atoms: C_6  and  N_7 
REMARK    3  A    between atoms: N_7  and  C_8 
REMARK    4  A    between atoms: C_10  and  C_11 
ROOT
HETATM    1  C   UNL     1      -8.451   0.012 -33.050  1.00  0.00     0.035 A 
HETATM    2  C   UNL     1      -9.660   0.408 -33.628  1.00  0.00     0.042 A 
HETATM    3  C   UNL     1     -10.316   1.580 -33.211  1.00  0.00    -0.021 A 
HETATM    4  C   UNL     1      -9.747   2.343 -32.184  1.00  0.00     0.012 A 
HETATM    5  C   UNL     1      -8.543   1.953 -31.596  1.00  0.00     0.003 A 
HETATM    6  C   UNL     1      -7.897   0.796 -32.031  1.00  0.00     0.029 A 
ENDROOT
BRANCH   1   7
HETATM    7  N   UNL     1      -7.729  -1.132 -33.438  1.00  0.00    -0.321 N 
HETATM    8  C   UNL     1      -6.883  -1.292 -34.522  1.00  0.00     0.279 C 
HETATM    9  O   UNL     1      -6.651  -0.445 -35.378  1.00  0.00    -0.265 OA
HETATM   10  H   UNL     1      -7.828  -1.960 -32.859  1.00  0.00     0.169 HD
BRANCH   8  11
HETATM   11  C   UNL     1      -6.271  -2.610 -34.560  1.00  0.00     0.143 A 
HETATM   12  O   UNL     1      -5.070  -2.813 -33.928  1.00  0.00    -0.310 OA
HETATM   13  C   UNL     1      -4.715  -4.112 -34.145  1.00  0.00     0.053 A 
HETATM   14  C   UNL     1      -5.682  -4.751 -34.889  1.00  0.00     0.036 A 
HETATM   15  C   UNL     1      -6.680  -3.785 -35.159  1.00  0.00     0.045 A 
BRANCH  13  16
HETATM   16  C   UNL     1      -3.417  -4.548 -33.573  1.00  0.00     0.060 C 
HETATM   17  C   UNL     1      -3.110  -3.815 -32.276  1.00  0.00     0.012 C 
ENDBRANCH  13  16
ENDBRANCH   8  11
ENDBRANCH   1   7
BRANCH   3  18
HETATM   18  C   UNL     1     -11.562   2.007 -33.829  1.00  0.00     0.010 A 
HETATM   19  C   UNL     1     -12.226   1.552 -34.993  1.00  0.00     0.152 A 
HETATM   20  N   UNL     1     -13.378   2.191 -35.220  1.00  0.00    -0.187 NA
HETATM   21  N   UNL     1     -13.456   3.063 -34.202  1.00  0.00    -0.289 N 
HETATM   22  H   UNL     1     -14.262   3.676 -34.154  1.00  0.00     0.188 HD
HETATM   23  C   UNL     1     -12.400   2.989 -33.341  1.00  0.00     0.123 A 
ENDBRANCH   3  18
TORSDOF 4
ENDMDL
MODEL 4
REMARK VINA RESULT:      -7.7      4.172      7.405
REMARK  4 active torsions:
REMARK  status: ('A' for Active; 'I' for Inactive)
REMARK    1  A    between atoms: C_2  and  C_3 
REMARK    2  A    between atoms: C_5  and  C_6 
REMARK       I    between atoms: C_6  and  N_7 
REMARK    3  A    between atoms: N_7  and  C_8 
REMARK    4  A    between atoms: C_10  and  C_11 
ROOT
HETATM    1  C   UNL     1      -5.708   0.847 -33.324  1.00  0.00     0.035 A 
HETATM    2  C   UNL     1      -5.350  -0.452 -33.695  1.00  0.00     0.042 A 
HETATM    3  C   UNL     1      -6.326  -1.443 -33.904  1.00  0.00    -0.021 A 
HETATM    4  C   UNL     1      -7.674  -1.113 -33.715  1.00  0.00     0.012 A 
HETATM    5  C   UNL     1      -8.040   0.179 -33.339  1.00  0.00     0.003 A 
HETATM    6  C   UNL     1      -7.062   1.155 -33.150  1.00  0.00     0.029 A 
ENDROOT
BRANCH   1   7
HETATM    7  N   UNL     1      -4.785   1.892 -33.126  1.00  0.00    -0.321 N 
HETATM    8  C   UNL     1      -3.930   2.096 -32.058  1.00  0.00     0.279 C 
HETATM    9  O   UNL     1      -3.867   1.400 -31.050  1.00  0.00    -0.265 OA
HETATM   10  H   UNL     1      -4.723   2.598 -33.852  1.00  0.00     0.169 HD
BRANCH   8  11
HETATM   11  C   UNL     1      -3.081   3.262 -32.240  1.00  0.00     0.143 A 
HETATM   12  O   UNL     1      -2.160   3.582 -31.273  1.00  0.00    -0.310 OA
HETATM   13  C   UNL     1      -1.530   4.721 -31.679  1.00  0.00     0.053 A 
HETATM   14  C   UNL     1      -2.018   5.125 -32.903  1.00  0.00     0.036 A 
HETATM   15  C   UNL     1      -3.017   4.190 -33.261  1.00  0.00     0.045 A 
BRANCH  13  16
HETATM   16  C   UNL     1      -0.505   5.274 -30.760  1.00  0.00     0.060 C 
HETATM   17  C   UNL     1       0.115   6.544 -31.323  1.00  0.00     0.012 C 
ENDBRANCH  13  16
ENDBRANCH   8  11
ENDBRANCH   1   7
BRANCH   3  18
HETATM   18  C   UNL     1      -5.957  -2.789 -34.314  1.00  0.00     0.010 A 
HETATM   19  C   UNL     1      -6.724  -3.828 -34.895  1.00  0.00     0.152 A 
HETATM   20  N   UNL     1      -6.005  -4.925 -35.152  1.00  0.00    -0.187 NA
HETATM   21  N   UNL     1      -4.773  -4.596 -34.733  1.00  0.00    -0.289 N 
HETATM   22  H   UNL     1      -4.034  -5.284 -34.825  1.00  0.00     0.188 HD
HETATM   23  C   UNL     1      -4.690  -3.330 -34.230  1.00  0.00     0.123 A 
ENDBRANCH   3  18
TORSDOF 4
ENDMDL
MODEL 5
REMARK VINA RESULT:      -7.6      2.710      7.811
REMARK  4 active torsions:
REMARK  status: ('A' for Active; 'I' for Inactive)
REMARK    1  A    between atoms: C_2  and  C_3 
REMARK    2  A    between atoms: C_5  and  C_6 
REMARK       I    between atoms: C_6  and  N_7 
REMARK    3  A    between atoms: N_7  and  C_8 
REMARK    4  A    between atoms: C_10  and  C_11 
ROOT
HETATM    1  C   UNL     1      -9.017   1.170 -33.236  1.00  0.00     0.035 A 
HETATM    2  C   UNL     1     -10.294   0.676 -33.521  1.00  0.00     0.042 A 
HETATM    3  C   UNL     1     -11.421   1.516 -33.488  1.00  0.00    -0.021 A 
HETATM    4  C   UNL     1     -11.250   2.863 -33.143  1.00  0.00     0.012 A 
HETATM    5  C   UNL     1      -9.981   3.363 -32.852  1.00  0.00     0.003 A 
HETATM    6  C   UNL     1      -8.870   2.521 -32.902  1.00  0.00     0.029 A 
ENDROOT
BRANCH   1   7
HETATM    7  N   UNL     1      -7.845   0.391 -33.278  1.00  0.00    -0.321 N 
HETATM    8  C   UNL     1      -7.064   0.066 -34.373  1.00  0.00     0.279 C 
HETATM    9  O   UNL     1      -7.300   0.375 -35.536  1.00  0.00    -0.265 OA
HETATM   10  H   UNL     1      -7.510   0.011 -32.399  1.00  0.00     0.169 HD
BRANCH   8  11
HETATM   11  C   UNL     1      -5.892  -0.713 -34.009  1.00  0.00     0.143 A 
HETATM   12  O   UNL     1      -5.786  -2.012 -34.441  1.00  0.00    -0.310 OA
HETATM   13  C   UNL     1      -4.621  -2.510 -33.936  1.00  0.00     0.053 A 
HETATM   14  C   UNL     1      -3.968  -1.543 -33.204  1.00  0.00     0.036 A 
HETATM   15  C   UNL     1      -4.786  -0.389 -33.247  1.00  0.00     0.045 A 
BRANCH  13  16
HETATM   16  C   UNL     1      -4.315  -3.926 -34.253  1.00  0.00     0.060 C 
HETATM   17  C   UNL     1      -5.549  -4.661 -34.753  1.00  0.00     0.012 C 
ENDBRANCH  13  16
ENDBRANCH   8  11
ENDBRANCH   1   7
BRANCH   3  18
HETATM   18  C   UNL     1     -12.747   1.010 -33.809  1.00  0.00     0.010 A 
HETATM   19  C   UNL     1     -13.868   1.645 -34.395  1.00  0.00     0.152 A 
HETATM   20  N   UNL     1     -14.911   0.824 -34.549  1.00  0.00    -0.187 NA
HETATM   21  N   UNL     1     -14.464  -0.343 -34.058  1.00  0.00    -0.289 N 
HETATM   22  H   UNL     1     -15.090  -1.140 -34.065  1.00  0.00     0.188 HD
HETATM   23  C   UNL     1     -13.177  -0.286 -33.609  1.00  0.00     0.123 A 
ENDBRANCH   3  18
TORSDOF 4
ENDMDL
MODEL 6
REMARK VINA RESULT:      -7.6      3.828      6.809
REMARK  4 active torsions:
REMARK  status: ('A' for Active; 'I' for Inactive)
REMARK    1  A    between atoms: C_2  and  C_3 
REMARK    2  A    between atoms: C_5  and  C_6 
REMARK       I    between atoms: C_6  and  N_7 
REMARK    3  A    between atoms: N_7  and  C_8 
REMARK    4  A    between atoms: C_10  and  C_11 
ROOT
HETATM    1  C   UNL     1      -5.880   0.756 -33.823  1.00  0.00     0.035 A 
HETATM    2  C   UNL     1      -5.382  -0.550 -33.817  1.00  0.00     0.042 A 
HETATM    3  C   UNL     1      -6.100  -1.604 -34.409  1.00  0.00    -0.021 A 
HETATM    4  C   UNL     1      -7.343  -1.330 -34.994  1.00  0.00     0.012 A 
HETATM    5  C   UNL     1      -7.851  -0.031 -35.000  1.00  0.00     0.003 A 
HETATM    6  C   UNL     1      -7.120   1.007 -34.421  1.00  0.00     0.029 A 
ENDROOT
BRANCH   1   7
HETATM    7  N   UNL     1      -5.202   1.861 -33.274  1.00  0.00    -0.321 N 
HETATM    8  C   UNL     1      -4.725   2.026 -31.985  1.00  0.00     0.279 C 
HETATM    9  O   UNL     1      -4.862   1.228 -31.064  1.00  0.00    -0.265 OA
HETATM   10  H   UNL     1      -5.028   2.649 -33.888  1.00  0.00     0.169 HD
BRANCH   8  11
HETATM   11  C   UNL     1      -4.023   3.287 -31.810  1.00  0.00     0.143 A 
HETATM   12  O   UNL     1      -2.860   3.512 -32.505  1.00  0.00    -0.310 OA
HETATM   13  C   UNL     1      -2.401   4.741 -32.135  1.00  0.00     0.053 A 
HETATM   14  C   UNL     1      -3.264   5.317 -31.228  1.00  0.00     0.036 A 
HETATM   15  C   UNL     1      -4.303   4.381 -31.016  1.00  0.00     0.045 A 
BRANCH  13  16
HETATM   16  C   UNL     1      -1.123   5.182 -32.745  1.00  0.00     0.060 C 
HETATM   17  C   UNL     1      -1.333   5.686 -34.164  1.00  0.00     0.012 C 
ENDBRANCH  13  16
ENDBRANCH   8  11
ENDBRANCH   1   7
BRANCH   3  18
HETATM   18  C   UNL     1      -5.572  -2.960 -34.426  1.00  0.00     0.010 A 
HETATM   19  C   UNL     1      -6.159  -4.182 -34.832  1.00  0.00     0.152 A 
HETATM   20  N   UNL     1      -5.330  -5.223 -34.715  1.00  0.00    -0.187 NA
HETATM   21  N   UNL     1      -4.205  -4.673 -34.229  1.00  0.00    -0.289 N 
HETATM   22  H   UNL     1      -3.411  -5.278 -34.052  1.00  0.00     0.188 HD
HETATM   23  C   UNL     1      -4.296  -3.324 -34.045  1.00  0.00     0.123 A 
ENDBRANCH   3  18
TORSDOF 4
ENDMDL
MODEL 7
REMARK VINA RESULT:      -7.6      6.046      8.837
REMARK  4 active torsions:
REMARK  status: ('A' for Active; 'I' for Inactive)
REMARK    1  A    between atoms: C_2  and  C_3 
REMARK    2  A    between atoms: C_5  and  C_6 
REMARK       I    between atoms: C_6  and  N_7 
REMARK    3  A    between atoms: N_7  and  C_8 
REMARK    4  A    between atoms: C_10  and  C_11 
ROOT
HETATM    1  C   UNL     1      -3.979   2.287 -32.030  1.00  0.00     0.035 A 
HETATM    2  C   UNL     1      -3.178   3.262 -32.631  1.00  0.00     0.042 A 
HETATM    3  C   UNL     1      -3.225   4.603 -32.207  1.00  0.00    -0.021 A 
HETATM    4  C   UNL     1      -4.108   4.955 -31.178  1.00  0.00     0.012 A 
HETATM    5  C   UNL     1      -4.915   3.990 -30.577  1.00  0.00     0.003 A 
HETATM    6  C   UNL     1      -4.847   2.662 -30.999  1.00  0.00     0.029 A 
ENDROOT
BRANCH   1   7
HETATM    7  N   UNL     1      -3.962   0.925 -32.386  1.00  0.00    -0.321 N 
HETATM    8  C   UNL     1      -3.217  -0.102 -31.833  1.00  0.00     0.279 C 
HETATM    9  O   UNL     1      -2.386   0.019 -30.940  1.00  0.00    -0.265 OA
HETATM   10  H   UNL     1      -4.570   0.638 -33.146  1.00  0.00     0.169 HD
BRANCH   8  11
HETATM   11  C   UNL     1      -3.517  -1.392 -32.434  1.00  0.00     0.143 A 
HETATM   12  O   UNL     1      -4.302  -1.444 -33.559  1.00  0.00    -0.310 OA
HETATM   13  C   UNL     1      -4.446  -2.759 -33.888  1.00  0.00     0.053 A 
HETATM   14  C   UNL     1      -3.748  -3.551 -33.003  1.00  0.00     0.036 A 
HETATM   15  C   UNL     1      -3.154  -2.672 -32.066  1.00  0.00     0.045 A 
BRANCH  13  16
HETATM   16  C   UNL     1      -5.294  -3.057 -35.068  1.00  0.00     0.060 C 
HETATM   17  C   UNL     1      -6.006  -4.392 -34.915  1.00  0.00     0.012 C 
ENDBRANCH  13  16
ENDBRANCH   8  11
ENDBRANCH   1   7
BRANCH   3  18
HETATM   18  C   UNL     1      -2.374   5.615 -32.814  1.00  0.00     0.010 A 
HETATM   19  C   UNL     1      -1.762   5.672 -34.089  1.00  0.00     0.152 A 
HETATM   20  N   UNL     1      -1.066   6.797 -34.283  1.00  0.00    -0.187 NA
HETATM   21  N   UNL     1      -1.225   7.465 -33.129  1.00  0.00    -0.289 N 
HETATM   22  H   UNL     1      -0.779   8.370 -33.032  1.00  0.00     0.188 HD
HETATM   23  C   UNL     1      -2.003   6.805 -32.223  1.00  0.00     0.123 A 
ENDBRANCH   3  18
TORSDOF 4
ENDMDL
MODEL 8
REMARK VINA RESULT:      -7.3      5.007      8.095
REMARK  4 active torsions:
REMARK  status: ('A' for Active; 'I' for Inactive)
REMARK    1  A    between atoms: C_2  and  C_3 
REMARK    2  A    between atoms: C_5  and  C_6 
REMARK       I    between atoms: C_6  and  N_7 
REMARK    3  A    between atoms: N_7  and  C_8 
REMARK    4  A    between atoms: C_10  and  C_11 
ROOT
HETATM    1  C   UNL     1      -4.289   1.709 -32.126  1.00  0.00     0.035 A 
HETATM    2  C   UNL     1      -4.548   0.643 -32.992  1.00  0.00     0.042 A 
HETATM    3  C   UNL     1      -5.401  -0.410 -32.613  1.00  0.00    -0.021 A 
HETATM    4  C   UNL     1      -5.976  -0.387 -31.336  1.00  0.00     0.012 A 
HETATM    5  C   UNL     1      -5.717   0.670 -30.463  1.00  0.00     0.003 A 
HETATM    6  C   UNL     1      -4.881   1.714 -30.858  1.00  0.00     0.029 A 
ENDROOT
BRANCH   1   7
HETATM    7  N   UNL     1      -3.469   2.806 -32.452  1.00  0.00    -0.321 N 
HETATM    8  C   UNL     1      -3.819   3.987 -33.085  1.00  0.00     0.279 C 
HETATM    9  O   UNL     1      -4.931   4.260 -33.523  1.00  0.00    -0.265 OA
HETATM   10  H   UNL     1      -2.489   2.744 -32.196  1.00  0.00     0.169 HD
BRANCH   8  11
HETATM   11  C   UNL     1      -2.703   4.911 -33.194  1.00  0.00     0.143 A 
HETATM   12  O   UNL     1      -1.913   5.145 -32.095  1.00  0.00    -0.310 OA
HETATM   13  C   UNL     1      -0.973   6.062 -32.463  1.00  0.00     0.053 A 
HETATM   14  C   UNL     1      -1.135   6.404 -33.788  1.00  0.00     0.036 A 
HETATM   15  C   UNL     1      -2.249   5.667 -34.257  1.00  0.00     0.045 A 
BRANCH  13  16
HETATM   16  C   UNL     1      -0.022   6.494 -31.411  1.00  0.00     0.060 C 
HETATM   17  C   UNL     1       0.721   5.307 -30.816  1.00  0.00     0.012 C 
ENDBRANCH  13  16
ENDBRANCH   8  11
ENDBRANCH   1   7
BRANCH   3  18
HETATM   18  C   UNL     1      -5.692  -1.508 -33.522  1.00  0.00     0.010 A 
HETATM   19  C   UNL     1      -4.842  -2.462 -34.130  1.00  0.00     0.152 A 
HETATM   20  N   UNL     1      -5.503  -3.337 -34.895  1.00  0.00    -0.187 NA
HETATM   21  N   UNL     1      -6.783  -2.945 -34.782  1.00  0.00    -0.289 N 
HETATM   22  H   UNL     1      -7.492  -3.467 -35.284  1.00  0.00     0.188 HD
HETATM   23  C   UNL     1      -6.949  -1.862 -33.970  1.00  0.00     0.123 A 
ENDBRANCH   3  18
TORSDOF 4
ENDMDL
MODEL 9
REMARK VINA RESULT:      -7.2     13.123     15.224
REMARK  4 active torsions:
REMARK  status: ('A' for Active; 'I' for Inactive)
REMARK    1  A    between atoms: C_2  and  C_3 
REMARK    2  A    between atoms: C_5  and  C_6 
REMARK       I    between atoms: C_6  and  N_7 
REMARK    3  A    between atoms: N_7  and  C_8 
REMARK    4  A    between atoms: C_10  and  C_11 
ROOT
HETATM    1  C   UNL     1      -6.957 -13.745 -36.932  1.00  0.00     0.035 A 
HETATM    2  C   UNL     1      -8.171 -13.668 -37.621  1.00  0.00     0.042 A 
HETATM    3  C   UNL     1      -8.258 -13.024 -38.868  1.00  0.00    -0.021 A 
HETATM    4  C   UNL     1      -7.107 -12.438 -39.408  1.00  0.00     0.012 A 
HETATM    5  C   UNL     1      -5.892 -12.505 -38.725  1.00  0.00     0.003 A 
HETATM    6  C   UNL     1      -5.818 -13.159 -37.495  1.00  0.00     0.029 A 
ENDROOT
BRANCH   1   7
HETATM    7  N   UNL     1      -6.793 -14.397 -35.695  1.00  0.00    -0.321 N 
HETATM    8  C   UNL     1      -7.072 -13.921 -34.425  1.00  0.00     0.279 C 
HETATM    9  O   UNL     1      -7.478 -12.795 -34.158  1.00  0.00    -0.265 OA
HETATM   10  H   UNL     1      -6.425 -15.342 -35.715  1.00  0.00     0.169 HD
BRANCH   8  11
HETATM   11  C   UNL     1      -6.825 -14.913 -33.393  1.00  0.00     0.143 A 
HETATM   12  O   UNL     1      -5.890 -14.655 -32.421  1.00  0.00    -0.310 OA
HETATM   13  C   UNL     1      -5.839 -15.751 -31.611  1.00  0.00     0.053 A 
HETATM   14  C   UNL     1      -6.742 -16.700 -32.036  1.00  0.00     0.036 A 
HETATM   15  C   UNL     1      -7.373 -16.163 -33.183  1.00  0.00     0.045 A 
BRANCH  13  16
HETATM   16  C   UNL     1      -4.860 -15.705 -30.497  1.00  0.00     0.060 C 
HETATM   17  C   UNL     1      -3.432 -15.806 -31.012  1.00  0.00     0.012 C 
ENDBRANCH  13  16
ENDBRANCH   8  11
ENDBRANCH   1   7
BRANCH   3  18
HETATM   18  C   UNL     1      -9.515 -12.965 -39.598  1.00  0.00     0.010 A 
HETATM   19  C   UNL     1     -10.476 -13.966 -39.880  1.00  0.00     0.152 A 
HETATM   20  N   UNL     1     -11.524 -13.504 -40.568  1.00  0.00    -0.187 NA
HETATM   21  N   UNL     1     -11.239 -12.202 -40.735  1.00  0.00    -0.289 N 
HETATM   22  H   UNL     1     -11.901 -11.625 -41.241  1.00  0.00     0.188 HD
HETATM   23  C   UNL     1     -10.054 -11.830 -40.169  1.00  0.00     0.123 A 
ENDBRANCH   3  18
TORSDOF 4
ENDMDL
MODEL 10
REMARK VINA RESULT:      -7.1      1.805      2.437
REMARK  4 active torsions:
REMARK  status: ('A' for Active; 'I' for Inactive)
REMARK    1  A    between atoms: C_2  and  C_3 
REMARK    2  A    between atoms: C_5  and  C_6 
REMARK       I    between atoms: C_6  and  N_7 
REMARK    3  A    between atoms: N_7  and  C_8 
REMARK    4  A    between atoms: C_10  and  C_11 
ROOT
HETATM    1  C   UNL     1      -6.407   0.529 -33.673  1.00  0.00     0.035 A 
HETATM    2  C   UNL     1      -6.558  -0.780 -34.141  1.00  0.00     0.042 A 
HETATM    3  C   UNL     1      -5.539  -1.734 -33.968  1.00  0.00    -0.021 A 
HETATM    4  C   UNL     1      -4.352  -1.348 -33.334  1.00  0.00     0.012 A 
HETATM    5  C   UNL     1      -4.191  -0.042 -32.869  1.00  0.00     0.003 A 
HETATM    6  C   UNL     1      -5.216   0.889 -33.034  1.00  0.00     0.029 A 
ENDROOT
BRANCH   1   7
HETATM    7  N   UNL     1      -7.396   1.525 -33.788  1.00  0.00    -0.321 N 
HETATM    8  C   UNL     1      -8.389   1.863 -32.885  1.00  0.00     0.279 C 
HETATM    9  O   UNL     1      -8.606   1.299 -31.818  1.00  0.00    -0.265 OA
HETATM   10  H   UNL     1      -7.397   2.080 -34.637  1.00  0.00     0.169 HD
BRANCH   8  11
HETATM   11  C   UNL     1      -9.188   2.990 -33.335  1.00  0.00     0.143 A 
HETATM   12  O   UNL     1     -10.150   2.793 -34.294  1.00  0.00    -0.310 OA
HETATM   13  C   UNL     1     -10.720   4.005 -34.548  1.00  0.00     0.053 A 
HETATM   14  C   UNL     1     -10.153   4.974 -33.750  1.00  0.00     0.036 A 
HETATM   15  C   UNL     1      -9.166   4.323 -32.973  1.00  0.00     0.045 A 
BRANCH  13  16
HETATM   16  C   UNL     1     -11.776   4.035 -35.590  1.00  0.00     0.060 C 
HETATM   17  C   UNL     1     -12.472   2.688 -35.711  1.00  0.00     0.012 C 
ENDBRANCH  13  16
ENDBRANCH   8  11
ENDBRANCH   1   7
BRANCH   3  18
HETATM   18  C   UNL     1      -5.703  -3.103 -34.432  1.00  0.00     0.010 A 
HETATM   19  C   UNL     1      -4.807  -4.199 -34.432  1.00  0.00     0.152 A 
HETATM   20  N   UNL     1      -5.349  -5.315 -34.931  1.00  0.00    -0.187 NA
HETATM   21  N   UNL     1      -6.596  -4.938 -35.256  1.00  0.00    -0.289 N 
HETATM   22  H   UNL     1      -7.216  -5.629 -35.663  1.00  0.00     0.188 HD
HETATM   23  C   UNL     1      -6.859  -3.630 -34.973  1.00  0.00     0.123 A 
ENDBRANCH   3  18
TORSDOF 4
ENDMDL
