MODEL 1
REMARK VINA RESULT:     -10.4      0.000      0.000
REMARK  7 active torsions:
REMARK  status: ('A' for Active; 'I' for Inactive)
REMARK    1  A    between atoms: C_4  and  C_5 
REMARK    2  A    between atoms: C_5  and  C_6 
REMARK    3  A    between atoms: C_6  and  N_7 
REMARK       I    between atoms: N_7  and  C_8 
REMARK    4  A    between atoms: C_8  and  C_9 
REMARK    5  A    between atoms: C_10  and  N_11 
REMARK    6  A    between atoms: N_12  and  N_13 
REMARK    7  A    between atoms: C_14  and  C_15 
ROOT
HETATM    1  C   UNL     1      -5.151   4.116 -33.117  1.00  0.00     0.104 C 
HETATM    2  C   UNL     1      -4.428   3.202 -32.367  1.00  0.00     0.123 C 
HETATM    3  N   UNL     1      -5.124   1.992 -32.375  1.00  0.00    -0.202 N 
HETATM    4  C   UNL     1      -6.418   2.265 -32.780  1.00  0.00     0.183 A 
HETATM    5  C   UNL     1      -6.432   3.551 -33.316  1.00  0.00     0.124 A 
HETATM    6  N   UNL     1      -7.555   4.078 -33.865  1.00  0.00    -0.242 NA
HETATM    7  C   UNL     1      -8.647   3.296 -33.761  1.00  0.00     0.086 A 
HETATM    8  C   UNL     1      -8.612   1.994 -33.193  1.00  0.00     0.088 A 
HETATM    9  N   UNL     1      -7.485   1.434 -32.729  1.00  0.00    -0.225 NA
HETATM   10  C   UNL     1      -9.866   3.792 -34.210  1.00  0.00     0.034 A 
HETATM   11  C   UNL     1     -11.046   3.053 -34.099  1.00  0.00     0.002 A 
HETATM   12  C   UNL     1     -11.008   1.785 -33.537  1.00  0.00     0.002 A 
HETATM   13  C   UNL     1      -9.791   1.267 -33.096  1.00  0.00     0.034 A 
ENDROOT
BRANCH   1  14
HETATM   14  C   UNL     1      -4.628   5.409 -33.496  1.00  0.00     0.257 C 
HETATM   15  N   UNL     1      -3.615   5.346 -34.441  1.00  0.00    -0.356 N 
HETATM   16  H   UNL     1      -3.355   4.416 -34.745  1.00  0.00     0.162 HD
HETATM   17  O   UNL     1      -4.911   6.430 -32.877  1.00  0.00    -0.267 OA
BRANCH  15  18
HETATM   18  C   UNL     1      -2.556   6.334 -34.338  1.00  0.00     0.127 C 
BRANCH  18  19
HETATM   19  C   UNL     1      -1.218   5.762 -33.870  1.00  0.00     0.058 C 
BRANCH  19  20
HETATM   20  C   UNL     1      -0.933   6.169 -32.441  1.00  0.00    -0.057 A 
HETATM   21  C   UNL     1      -1.475   7.350 -31.913  1.00  0.00     0.007 A 
HETATM   22  C   UNL     1      -1.159   7.755 -30.615  1.00  0.00     0.001 A 
HETATM   23  C   UNL     1      -0.298   6.988 -29.832  1.00  0.00     0.000 A 
HETATM   24  C   UNL     1       0.242   5.809 -30.345  1.00  0.00     0.001 A 
HETATM   25  C   UNL     1      -0.077   5.400 -31.641  1.00  0.00     0.007 A 
ENDBRANCH  19  20
ENDBRANCH  18  19
ENDBRANCH  15  18
ENDBRANCH   1  14
BRANCH   2  26
HETATM   26  N   UNL     1      -3.229   3.367 -31.733  1.00  0.00    -0.286 NA
HETATM   27  H   UNL     1      -2.556   2.599 -31.836  1.00  0.00     0.125 HD
HETATM   28  H   UNL     1      -2.752   4.262 -31.857  1.00  0.00     0.125 HD
ENDBRANCH   2  26
BRANCH   3  29
HETATM   29  N   UNL     1      -4.666   0.744 -32.026  1.00  0.00    -0.176 NA
HETATM   30  C   UNL     1      -4.529  -0.063 -33.025  1.00  0.00     0.153 C 
BRANCH  30  31
HETATM   31  C   UNL     1      -4.021  -1.401 -32.824  1.00  0.00     0.011 A 
HETATM   32  C   UNL     1      -4.442  -2.579 -33.518  1.00  0.00     0.004 A 
HETATM   33  C   UNL     1      -3.731  -3.653 -32.986  1.00  0.00     0.043 A 
HETATM   34  C   UNL     1      -5.356  -2.827 -34.566  1.00  0.00     0.014 A 
HETATM   35  C   UNL     1      -3.898  -4.967 -33.436  1.00  0.00     0.030 A 
HETATM   36  N   UNL     1      -2.904  -3.145 -32.008  1.00  0.00    -0.364 N 
HETATM   37  C   UNL     1      -4.806  -5.186 -34.477  1.00  0.00     0.002 A 
HETATM   38  C   UNL     1      -5.524  -4.132 -35.038  1.00  0.00     0.001 A 
HETATM   39  H   UNL     1      -2.274  -3.699 -31.445  1.00  0.00     0.165 HD
HETATM   40  C   UNL     1      -3.055  -1.788 -31.917  1.00  0.00     0.102 A 
ENDBRANCH  30  31
ENDBRANCH   3  29
TORSDOF 7
ENDMDL
MODEL 2
REMARK VINA RESULT:     -10.3      1.892      6.173
REMARK  7 active torsions:
REMARK  status: ('A' for Active; 'I' for Inactive)
REMARK    1  A    between atoms: C_4  and  C_5 
REMARK    2  A    between atoms: C_5  and  C_6 
REMARK    3  A    between atoms: C_6  and  N_7 
REMARK       I    between atoms: N_7  and  C_8 
REMARK    4  A    between atoms: C_8  and  C_9 
REMARK    5  A    between atoms: C_10  and  N_11 
REMARK    6  A    between atoms: N_12  and  N_13 
REMARK    7  A    between atoms: C_14  and  C_15 
ROOT
HETATM    1  C   UNL     1      -5.176   2.068 -32.612  1.00  0.00     0.104 C 
HETATM    2  C   UNL     1      -6.355   2.774 -32.797  1.00  0.00     0.123 C 
HETATM    3  N   UNL     1      -7.384   1.850 -32.991  1.00  0.00    -0.202 N 
HETATM    4  C   UNL     1      -6.795   0.639 -33.309  1.00  0.00     0.183 A 
HETATM    5  C   UNL     1      -5.439   0.736 -33.003  1.00  0.00     0.124 A 
HETATM    6  N   UNL     1      -4.604  -0.326 -33.142  1.00  0.00    -0.242 NA
HETATM    7  C   UNL     1      -5.178  -1.421 -33.676  1.00  0.00     0.086 A 
HETATM    8  C   UNL     1      -6.561  -1.488 -33.997  1.00  0.00     0.088 A 
HETATM    9  N   UNL     1      -7.408  -0.472 -33.779  1.00  0.00    -0.225 NA
HETATM   10  C   UNL     1      -4.379  -2.526 -33.946  1.00  0.00     0.034 A 
HETATM   11  C   UNL     1      -4.898  -3.682 -34.535  1.00  0.00     0.002 A 
HETATM   12  C   UNL     1      -6.247  -3.741 -34.852  1.00  0.00     0.002 A 
HETATM   13  C   UNL     1      -7.065  -2.647 -34.575  1.00  0.00     0.034 A 
ENDROOT
BRANCH   1  14
HETATM   14  C   UNL     1      -3.947   2.694 -32.180  1.00  0.00     0.257 C 
HETATM   15  N   UNL     1      -3.652   3.869 -32.855  1.00  0.00    -0.356 N 
HETATM   16  H   UNL     1      -4.316   4.145 -33.568  1.00  0.00     0.162 HD
HETATM   17  O   UNL     1      -3.151   2.119 -31.446  1.00  0.00    -0.267 OA
BRANCH  15  18
HETATM   18  C   UNL     1      -2.251   4.152 -33.104  1.00  0.00     0.127 C 
BRANCH  18  19
HETATM   19  C   UNL     1      -1.928   5.643 -33.203  1.00  0.00     0.058 C 
BRANCH  19  20
HETATM   20  C   UNL     1      -1.155   6.105 -31.988  1.00  0.00    -0.057 A 
HETATM   21  C   UNL     1      -0.080   5.351 -31.495  1.00  0.00     0.007 A 
HETATM   22  C   UNL     1       0.590   5.748 -30.336  1.00  0.00     0.001 A 
HETATM   23  C   UNL     1       0.194   6.898 -29.657  1.00  0.00     0.000 A 
HETATM   24  C   UNL     1      -0.869   7.659 -30.141  1.00  0.00     0.001 A 
HETATM   25  C   UNL     1      -1.538   7.267 -31.302  1.00  0.00     0.007 A 
ENDBRANCH  19  20
ENDBRANCH  18  19
ENDBRANCH  15  18
ENDBRANCH   1  14
BRANCH   2  26
HETATM   26  N   UNL     1      -6.563   4.124 -32.775  1.00  0.00    -0.286 NA
HETATM   27  H   UNL     1      -7.542   4.429 -32.734  1.00  0.00     0.125 HD
HETATM   28  H   UNL     1      -6.004   4.674 -32.120  1.00  0.00     0.125 HD
ENDBRANCH   2  26
BRANCH   3  29
HETATM   29  N   UNL     1      -8.740   2.059 -32.920  1.00  0.00    -0.176 NA
HETATM   30  C   UNL     1      -9.277   2.405 -34.044  1.00  0.00     0.153 C 
BRANCH  30  31
HETATM   31  C   UNL     1     -10.702   2.627 -34.140  1.00  0.00     0.011 A 
HETATM   32  C   UNL     1     -11.724   1.642 -33.962  1.00  0.00     0.004 A 
HETATM   33  C   UNL     1     -12.949   2.269 -34.186  1.00  0.00     0.043 A 
HETATM   34  C   UNL     1     -11.720   0.274 -33.613  1.00  0.00     0.014 A 
HETATM   35  C   UNL     1     -14.171   1.593 -34.095  1.00  0.00     0.030 A 
HETATM   36  N   UNL     1     -12.680   3.587 -34.485  1.00  0.00    -0.364 N 
HETATM   37  C   UNL     1     -14.139   0.240 -33.744  1.00  0.00     0.002 A 
HETATM   38  C   UNL     1     -12.933  -0.412 -33.502  1.00  0.00     0.001 A 
HETATM   39  H   UNL     1     -13.382   4.280 -34.700  1.00  0.00     0.165 HD
HETATM   40  C   UNL     1     -11.332   3.817 -34.439  1.00  0.00     0.102 A 
ENDBRANCH  30  31
ENDBRANCH   3  29
TORSDOF 7
ENDMDL
MODEL 3
REMARK VINA RESULT:     -10.1      2.470      8.983
REMARK  7 active torsions:
REMARK  status: ('A' for Active; 'I' for Inactive)
REMARK    1  A    between atoms: C_4  and  C_5 
REMARK    2  A    between atoms: C_5  and  C_6 
REMARK    3  A    between atoms: C_6  and  N_7 
REMARK       I    between atoms: N_7  and  C_8 
REMARK    4  A    between atoms: C_8  and  C_9 
REMARK    5  A    between atoms: C_10  and  N_11 
REMARK    6  A    between atoms: N_12  and  N_13 
REMARK    7  A    between atoms: C_14  and  C_15 
ROOT
HETATM    1  C   UNL     1      -8.173   0.773 -33.299  1.00  0.00     0.104 C 
HETATM    2  C   UNL     1      -7.536   1.622 -32.408  1.00  0.00     0.123 C 
HETATM    3  N   UNL     1      -6.178   1.298 -32.402  1.00  0.00    -0.202 N 
HETATM    4  C   UNL     1      -6.052   0.041 -32.966  1.00  0.00     0.183 A 
HETATM    5  C   UNL     1      -7.257  -0.263 -33.595  1.00  0.00     0.124 A 
HETATM    6  N   UNL     1      -7.418  -1.410 -34.302  1.00  0.00    -0.242 NA
HETATM    7  C   UNL     1      -6.361  -2.243 -34.261  1.00  0.00     0.086 A 
HETATM    8  C   UNL     1      -5.148  -1.918 -33.596  1.00  0.00     0.088 A 
HETATM    9  N   UNL     1      -4.953  -0.748 -32.970  1.00  0.00    -0.225 NA
HETATM   10  C   UNL     1      -6.469  -3.485 -34.877  1.00  0.00     0.034 A 
HETATM   11  C   UNL     1      -5.428  -4.416 -34.841  1.00  0.00     0.002 A 
HETATM   12  C   UNL     1      -4.247  -4.097 -34.185  1.00  0.00     0.002 A 
HETATM   13  C   UNL     1      -4.118  -2.850 -33.575  1.00  0.00     0.034 A 
ENDROOT
BRANCH   1  14
HETATM   14  C   UNL     1      -9.546   0.957 -33.714  1.00  0.00     0.257 C 
HETATM   15  N   UNL     1      -9.715   1.967 -34.650  1.00  0.00    -0.356 N 
HETATM   16  H   UNL     1      -8.873   2.458 -34.923  1.00  0.00     0.162 HD
HETATM   17  O   UNL     1     -10.478   0.417 -33.128  1.00  0.00    -0.267 OA
BRANCH  15  18
HETATM   18  C   UNL     1     -10.940   2.740 -34.571  1.00  0.00     0.127 C 
BRANCH  18  19
HETATM   19  C   UNL     1     -12.136   2.077 -35.253  1.00  0.00     0.058 C 
BRANCH  19  20
HETATM   20  C   UNL     1     -13.343   2.079 -34.341  1.00  0.00    -0.057 A 
HETATM   21  C   UNL     1     -13.463   3.032 -33.319  1.00  0.00     0.007 A 
HETATM   22  C   UNL     1     -14.547   2.992 -32.439  1.00  0.00     0.001 A 
HETATM   23  C   UNL     1     -15.518   2.001 -32.568  1.00  0.00     0.000 A 
HETATM   24  C   UNL     1     -15.411   1.053 -33.584  1.00  0.00     0.001 A 
HETATM   25  C   UNL     1     -14.332   1.094 -34.468  1.00  0.00     0.007 A 
ENDBRANCH  19  20
ENDBRANCH  18  19
ENDBRANCH  15  18
ENDBRANCH   1  14
BRANCH   2  26
HETATM   26  N   UNL     1      -8.062   2.637 -31.660  1.00  0.00    -0.286 NA
HETATM   27  H   UNL     1      -8.517   3.394 -32.184  1.00  0.00     0.125 HD
HETATM   28  H   UNL     1      -8.641   2.377 -30.859  1.00  0.00     0.125 HD
ENDBRANCH   2  26
BRANCH   3  29
HETATM   29  N   UNL     1      -5.129   2.039 -31.912  1.00  0.00    -0.176 NA
HETATM   30  C   UNL     1      -4.907   3.132 -32.566  1.00  0.00     0.153 C 
BRANCH  30  31
HETATM   31  C   UNL     1      -3.860   4.036 -32.150  1.00  0.00     0.011 A 
HETATM   32  C   UNL     1      -2.903   4.671 -33.004  1.00  0.00     0.004 A 
HETATM   33  C   UNL     1      -2.053   5.420 -32.191  1.00  0.00     0.043 A 
HETATM   34  C   UNL     1      -2.692   4.690 -34.399  1.00  0.00     0.014 A 
HETATM   35  C   UNL     1      -0.992   6.175 -32.702  1.00  0.00     0.030 A 
HETATM   36  N   UNL     1      -2.482   5.250 -30.893  1.00  0.00    -0.364 N 
HETATM   37  C   UNL     1      -0.806   6.179 -34.088  1.00  0.00     0.002 A 
HETATM   38  C   UNL     1      -1.645   5.451 -34.927  1.00  0.00     0.001 A 
HETATM   39  H   UNL     1      -2.046   5.673 -30.086  1.00  0.00     0.165 HD
HETATM   40  C   UNL     1      -3.581   4.436 -30.860  1.00  0.00     0.102 A 
ENDBRANCH  30  31
ENDBRANCH   3  29
TORSDOF 7
ENDMDL
MODEL 4
REMARK VINA RESULT:     -10.1      1.411      2.272
REMARK  7 active torsions:
REMARK  status: ('A' for Active; 'I' for Inactive)
REMARK    1  A    between atoms: C_4  and  C_5 
REMARK    2  A    between atoms: C_5  and  C_6 
REMARK    3  A    between atoms: C_6  and  N_7 
REMARK       I    between atoms: N_7  and  C_8 
REMARK    4  A    between atoms: C_8  and  C_9 
REMARK    5  A    between atoms: C_10  and  N_11 
REMARK    6  A    between atoms: N_12  and  N_13 
REMARK    7  A    between atoms: C_14  and  C_15 
ROOT
HETATM    1  C   UNL     1      -6.769   3.568 -33.625  1.00  0.00     0.104 C 
HETATM    2  C   UNL     1      -6.178   2.432 -33.095  1.00  0.00     0.123 C 
HETATM    3  N   UNL     1      -7.011   1.345 -33.371  1.00  0.00    -0.202 N 
HETATM    4  C   UNL     1      -8.253   1.854 -33.706  1.00  0.00     0.183 A 
HETATM    5  C   UNL     1      -8.101   3.218 -33.944  1.00  0.00     0.124 A 
HETATM    6  N   UNL     1      -9.140   3.985 -34.364  1.00  0.00    -0.242 NA
HETATM    7  C   UNL     1     -10.317   3.336 -34.437  1.00  0.00     0.086 A 
HETATM    8  C   UNL     1     -10.450   1.946 -34.171  1.00  0.00     0.088 A 
HETATM    9  N   UNL     1      -9.410   1.167 -33.842  1.00  0.00    -0.225 NA
HETATM   10  C   UNL     1     -11.457   4.061 -34.766  1.00  0.00     0.034 A 
HETATM   11  C   UNL     1     -12.718   3.463 -34.822  1.00  0.00     0.002 A 
HETATM   12  C   UNL     1     -12.845   2.107 -34.555  1.00  0.00     0.002 A 
HETATM   13  C   UNL     1     -11.709   1.362 -34.238  1.00  0.00     0.034 A 
ENDROOT
BRANCH   1  14
HETATM   14  C   UNL     1      -6.088   4.840 -33.707  1.00  0.00     0.257 C 
HETATM   15  N   UNL     1      -5.010   4.840 -34.579  1.00  0.00    -0.356 N 
HETATM   16  H   UNL     1      -4.820   3.961 -35.043  1.00  0.00     0.162 HD
HETATM   17  O   UNL     1      -6.318   5.751 -32.919  1.00  0.00    -0.267 OA
BRANCH  15  18
HETATM   18  C   UNL     1      -3.870   5.662 -34.218  1.00  0.00     0.127 C 
BRANCH  18  19
HETATM   19  C   UNL     1      -2.547   4.897 -34.164  1.00  0.00     0.058 C 
BRANCH  19  20
HETATM   20  C   UNL     1      -1.672   5.420 -33.047  1.00  0.00    -0.057 A 
HETATM   21  C   UNL     1      -1.521   4.693 -31.857  1.00  0.00     0.007 A 
HETATM   22  C   UNL     1      -0.763   5.208 -30.804  1.00  0.00     0.001 A 
HETATM   23  C   UNL     1      -0.151   6.454 -30.926  1.00  0.00     0.000 A 
HETATM   24  C   UNL     1      -0.289   7.183 -32.106  1.00  0.00     0.001 A 
HETATM   25  C   UNL     1      -1.042   6.667 -33.162  1.00  0.00     0.007 A 
ENDBRANCH  19  20
ENDBRANCH  18  19
ENDBRANCH  15  18
ENDBRANCH   1  14
BRANCH   2  26
HETATM   26  N   UNL     1      -4.986   2.307 -32.439  1.00  0.00    -0.286 NA
HETATM   27  H   UNL     1      -4.658   3.141 -31.939  1.00  0.00     0.125 HD
HETATM   28  H   UNL     1      -4.858   1.481 -31.851  1.00  0.00     0.125 HD
ENDBRANCH   2  26
BRANCH   3  29
HETATM   29  N   UNL     1      -6.711   0.006 -33.307  1.00  0.00    -0.176 NA
HETATM   30  C   UNL     1      -6.171  -0.464 -34.383  1.00  0.00     0.153 C 
BRANCH  30  31
HETATM   31  C   UNL     1      -5.766  -1.849 -34.457  1.00  0.00     0.011 A 
HETATM   32  C   UNL     1      -4.763  -2.480 -33.655  1.00  0.00     0.004 A 
HETATM   33  C   UNL     1      -4.660  -3.803 -34.083  1.00  0.00     0.043 A 
HETATM   34  C   UNL     1      -3.942  -2.050 -32.590  1.00  0.00     0.014 A 
HETATM   35  C   UNL     1      -3.765  -4.714 -33.511  1.00  0.00     0.030 A 
HETATM   36  N   UNL     1      -5.570  -3.970 -35.104  1.00  0.00    -0.364 N 
HETATM   37  C   UNL     1      -2.966  -4.263 -32.455  1.00  0.00     0.002 A 
HETATM   38  C   UNL     1      -3.054  -2.952 -31.997  1.00  0.00     0.001 A 
HETATM   39  H   UNL     1      -5.710  -4.832 -35.611  1.00  0.00     0.165 HD
HETATM   40  C   UNL     1      -6.256  -2.806 -35.322  1.00  0.00     0.102 A 
ENDBRANCH  30  31
ENDBRANCH   3  29
TORSDOF 7
ENDMDL
MODEL 5
REMARK VINA RESULT:      -9.9      1.969      8.279
REMARK  7 active torsions:
REMARK  status: ('A' for Active; 'I' for Inactive)
REMARK    1  A    between atoms: C_4  and  C_5 
REMARK    2  A    between atoms: C_5  and  C_6 
REMARK    3  A    between atoms: C_6  and  N_7 
REMARK       I    between atoms: N_7  and  C_8 
REMARK    4  A    between atoms: C_8  and  C_9 
REMARK    5  A    between atoms: C_10  and  N_11 
REMARK    6  A    between atoms: N_12  and  N_13 
REMARK    7  A    between atoms: C_14  and  C_15 
ROOT
HETATM    1  C   UNL     1      -8.132   1.534 -32.500  1.00  0.00     0.104 C 
HETATM    2  C   UNL     1      -7.199   2.451 -32.040  1.00  0.00     0.123 C 
HETATM    3  N   UNL     1      -5.965   2.131 -32.610  1.00  0.00    -0.202 N 
HETATM    4  C   UNL     1      -6.055   0.835 -33.084  1.00  0.00     0.183 A 
HETATM    5  C   UNL     1      -7.402   0.481 -33.097  1.00  0.00     0.124 A 
HETATM    6  N   UNL     1      -7.816  -0.717 -33.582  1.00  0.00    -0.242 NA
HETATM    7  C   UNL     1      -6.818  -1.543 -33.953  1.00  0.00     0.086 A 
HETATM    8  C   UNL     1      -5.449  -1.165 -33.914  1.00  0.00     0.088 A 
HETATM    9  N   UNL     1      -5.041   0.050 -33.518  1.00  0.00    -0.225 NA
HETATM   10  C   UNL     1      -7.141  -2.829 -34.372  1.00  0.00     0.034 A 
HETATM   11  C   UNL     1      -6.157  -3.752 -34.735  1.00  0.00     0.002 A 
HETATM   12  C   UNL     1      -4.821  -3.381 -34.688  1.00  0.00     0.002 A 
HETATM   13  C   UNL     1      -4.481  -2.091 -34.284  1.00  0.00     0.034 A 
ENDROOT
BRANCH   1  14
HETATM   14  C   UNL     1      -9.552   1.684 -32.280  1.00  0.00     0.257 C 
HETATM   15  N   UNL     1     -10.319   0.709 -32.901  1.00  0.00    -0.356 N 
HETATM   16  H   UNL     1      -9.804   0.021 -33.437  1.00  0.00     0.162 HD
HETATM   17  O   UNL     1     -10.027   2.696 -31.777  1.00  0.00    -0.267 OA
BRANCH  15  18
HETATM   18  C   UNL     1     -11.616   1.115 -33.410  1.00  0.00     0.127 C 
BRANCH  18  19
HETATM   19  C   UNL     1     -11.588   1.605 -34.858  1.00  0.00     0.058 C 
BRANCH  19  20
HETATM   20  C   UNL     1     -11.644   3.116 -34.912  1.00  0.00    -0.057 A 
HETATM   21  C   UNL     1     -12.866   3.791 -34.783  1.00  0.00     0.007 A 
HETATM   22  C   UNL     1     -12.922   5.181 -34.897  1.00  0.00     0.001 A 
HETATM   23  C   UNL     1     -11.760   5.911 -35.143  1.00  0.00     0.000 A 
HETATM   24  C   UNL     1     -10.539   5.250 -35.268  1.00  0.00     0.001 A 
HETATM   25  C   UNL     1     -10.480   3.861 -35.149  1.00  0.00     0.007 A 
ENDBRANCH  19  20
ENDBRANCH  18  19
ENDBRANCH  15  18
ENDBRANCH   1  14
BRANCH   2  26
HETATM   26  N   UNL     1      -7.379   3.519 -31.208  1.00  0.00    -0.286 NA
HETATM   27  H   UNL     1      -7.582   3.296 -30.226  1.00  0.00     0.125 HD
HETATM   28  H   UNL     1      -6.690   4.272 -31.255  1.00  0.00     0.125 HD
ENDBRANCH   2  26
BRANCH   3  29
HETATM   29  N   UNL     1      -4.834   2.909 -32.683  1.00  0.00    -0.176 NA
HETATM   30  C   UNL     1      -4.863   3.788 -33.630  1.00  0.00     0.153 C 
BRANCH  30  31
HETATM   31  C   UNL     1      -3.762   4.707 -33.813  1.00  0.00     0.011 A 
HETATM   32  C   UNL     1      -2.704   4.954 -32.882  1.00  0.00     0.004 A 
HETATM   33  C   UNL     1      -1.886   5.939 -33.434  1.00  0.00     0.043 A 
HETATM   34  C   UNL     1      -2.358   4.418 -31.623  1.00  0.00     0.014 A 
HETATM   35  C   UNL     1      -0.747   6.426 -32.784  1.00  0.00     0.030 A 
HETATM   36  N   UNL     1      -2.425   6.273 -34.657  1.00  0.00    -0.364 N 
HETATM   37  C   UNL     1      -0.425   5.876 -31.539  1.00  0.00     0.002 A 
HETATM   38  C   UNL     1      -1.215   4.883 -30.967  1.00  0.00     0.001 A 
HETATM   39  H   UNL     1      -2.042   6.969 -35.281  1.00  0.00     0.165 HD
HETATM   40  C   UNL     1      -3.541   5.522 -34.904  1.00  0.00     0.102 A 
ENDBRANCH  30  31
ENDBRANCH   3  29
TORSDOF 7
ENDMDL
MODEL 6
REMARK VINA RESULT:      -9.9      1.971      3.079
REMARK  7 active torsions:
REMARK  status: ('A' for Active; 'I' for Inactive)
REMARK    1  A    between atoms: C_4  and  C_5 
REMARK    2  A    between atoms: C_5  and  C_6 
REMARK    3  A    between atoms: C_6  and  N_7 
REMARK       I    between atoms: N_7  and  C_8 
REMARK    4  A    between atoms: C_8  and  C_9 
REMARK    5  A    between atoms: C_10  and  N_11 
REMARK    6  A    between atoms: N_12  and  N_13 
REMARK    7  A    between atoms: C_14  and  C_15 
ROOT
HETATM    1  C   UNL     1      -8.478   3.502 -32.749  1.00  0.00     0.104 C 
HETATM    2  C   UNL     1      -7.552   2.601 -32.246  1.00  0.00     0.123 C 
HETATM    3  N   UNL     1      -7.970   1.315 -32.594  1.00  0.00    -0.202 N 
HETATM    4  C   UNL     1      -9.304   1.399 -32.950  1.00  0.00     0.183 A 
HETATM    5  C   UNL     1      -9.611   2.746 -33.128  1.00  0.00     0.124 A 
HETATM    6  N   UNL     1     -10.837   3.144 -33.552  1.00  0.00    -0.242 NA
HETATM    7  C   UNL     1     -11.730   2.145 -33.691  1.00  0.00     0.086 A 
HETATM    8  C   UNL     1     -11.397   0.779 -33.486  1.00  0.00     0.088 A 
HETATM    9  N   UNL     1     -10.163   0.373 -33.153  1.00  0.00    -0.225 NA
HETATM   10  C   UNL     1     -13.040   2.466 -34.029  1.00  0.00     0.034 A 
HETATM   11  C   UNL     1     -14.028   1.486 -34.152  1.00  0.00     0.002 A 
HETATM   12  C   UNL     1     -13.701   0.154 -33.944  1.00  0.00     0.002 A 
HETATM   13  C   UNL     1     -12.388  -0.186 -33.619  1.00  0.00     0.034 A 
ENDROOT
BRANCH   1  14
HETATM   14  C   UNL     1      -8.258   4.931 -32.757  1.00  0.00     0.257 C 
HETATM   15  N   UNL     1      -7.012   5.301 -33.240  1.00  0.00    -0.356 N 
HETATM   16  H   UNL     1      -6.405   4.540 -33.518  1.00  0.00     0.162 HD
HETATM   17  O   UNL     1      -9.020   5.706 -32.190  1.00  0.00    -0.267 OA
BRANCH  15  18
HETATM   18  C   UNL     1      -6.389   6.463 -32.633  1.00  0.00     0.127 C 
BRANCH  18  19
HETATM   19  C   UNL     1      -5.383   6.124 -31.534  1.00  0.00     0.058 C 
BRANCH  19  20
HETATM   20  C   UNL     1      -4.053   5.721 -32.131  1.00  0.00    -0.057 A 
HETATM   21  C   UNL     1      -3.211   4.823 -31.459  1.00  0.00     0.007 A 
HETATM   22  C   UNL     1      -1.957   4.502 -31.984  1.00  0.00     0.001 A 
HETATM   23  C   UNL     1      -1.531   5.075 -33.180  1.00  0.00     0.000 A 
HETATM   24  C   UNL     1      -2.363   5.964 -33.860  1.00  0.00     0.001 A 
HETATM   25  C   UNL     1      -3.619   6.282 -33.340  1.00  0.00     0.007 A 
ENDBRANCH  19  20
ENDBRANCH  18  19
ENDBRANCH  15  18
ENDBRANCH   1  14
BRANCH   2  26
HETATM   26  N   UNL     1      -6.399   2.848 -31.555  1.00  0.00    -0.286 NA
HETATM   27  H   UNL     1      -6.318   3.779 -31.131  1.00  0.00     0.125 HD
HETATM   28  H   UNL     1      -6.092   2.138 -30.888  1.00  0.00     0.125 HD
ENDBRANCH   2  26
BRANCH   3  29
HETATM   29  N   UNL     1      -7.242   0.150 -32.573  1.00  0.00    -0.176 NA
HETATM   30  C   UNL     1      -6.253   0.133 -33.405  1.00  0.00     0.153 C 
BRANCH  30  31
HETATM   31  C   UNL     1      -5.372  -1.010 -33.476  1.00  0.00     0.011 A 
HETATM   32  C   UNL     1      -5.689  -2.289 -34.033  1.00  0.00     0.004 A 
HETATM   33  C   UNL     1      -4.575  -3.108 -33.855  1.00  0.00     0.043 A 
HETATM   34  C   UNL     1      -6.819  -2.821 -34.690  1.00  0.00     0.014 A 
HETATM   35  C   UNL     1      -4.540  -4.438 -34.286  1.00  0.00     0.030 A 
HETATM   36  N   UNL     1      -3.615  -2.352 -33.218  1.00  0.00    -0.364 N 
HETATM   37  C   UNL     1      -5.671  -4.940 -34.936  1.00  0.00     0.002 A 
HETATM   38  C   UNL     1      -6.795  -4.144 -35.140  1.00  0.00     0.001 A 
HETATM   39  H   UNL     1      -2.701  -2.691 -32.953  1.00  0.00     0.165 HD
HETATM   40  C   UNL     1      -4.077  -1.082 -33.004  1.00  0.00     0.102 A 
ENDBRANCH  30  31
ENDBRANCH   3  29
TORSDOF 7
ENDMDL
MODEL 7
REMARK VINA RESULT:      -9.9      2.182      8.952
REMARK  7 active torsions:
REMARK  status: ('A' for Active; 'I' for Inactive)
REMARK    1  A    between atoms: C_4  and  C_5 
REMARK    2  A    between atoms: C_5  and  C_6 
REMARK    3  A    between atoms: C_6  and  N_7 
REMARK       I    between atoms: N_7  and  C_8 
REMARK    4  A    between atoms: C_8  and  C_9 
REMARK    5  A    between atoms: C_10  and  N_11 
REMARK    6  A    between atoms: N_12  and  N_13 
REMARK    7  A    between atoms: C_14  and  C_15 
ROOT
HETATM    1  C   UNL     1      -7.883   2.223 -33.174  1.00  0.00     0.104 C 
HETATM    2  C   UNL     1      -6.951   3.057 -32.576  1.00  0.00     0.123 C 
HETATM    3  N   UNL     1      -5.679   2.555 -32.859  1.00  0.00    -0.202 N 
HETATM    4  C   UNL     1      -5.838   1.246 -33.278  1.00  0.00     0.183 A 
HETATM    5  C   UNL     1      -7.189   1.050 -33.553  1.00  0.00     0.124 A 
HETATM    6  N   UNL     1      -7.648  -0.125 -34.054  1.00  0.00    -0.242 NA
HETATM    7  C   UNL     1      -6.711  -1.086 -34.168  1.00  0.00     0.086 A 
HETATM    8  C   UNL     1      -5.341  -0.867 -33.863  1.00  0.00     0.088 A 
HETATM    9  N   UNL     1      -4.868   0.318 -33.452  1.00  0.00    -0.225 NA
HETATM   10  C   UNL     1      -7.106  -2.353 -34.581  1.00  0.00     0.034 A 
HETATM   11  C   UNL     1      -6.196  -3.409 -34.685  1.00  0.00     0.002 A 
HETATM   12  C   UNL     1      -4.860  -3.193 -34.379  1.00  0.00     0.002 A 
HETATM   13  C   UNL     1      -4.446  -1.924 -33.978  1.00  0.00     0.034 A 
ENDROOT
BRANCH   1  14
HETATM   14  C   UNL     1      -9.287   2.552 -33.263  1.00  0.00     0.257 C 
HETATM   15  N   UNL     1      -9.815   2.407 -34.537  1.00  0.00    -0.356 N 
HETATM   16  H   UNL     1      -9.164   2.102 -35.250  1.00  0.00     0.162 HD
HETATM   17  O   UNL     1      -9.882   3.107 -32.345  1.00  0.00    -0.267 OA
BRANCH  15  18
HETATM   18  C   UNL     1     -10.845   3.349 -34.935  1.00  0.00     0.127 C 
BRANCH  18  19
HETATM   19  C   UNL     1     -12.085   2.691 -35.539  1.00  0.00     0.058 C 
BRANCH  19  20
HETATM   20  C   UNL     1     -13.099   2.370 -34.463  1.00  0.00    -0.057 A 
HETATM   21  C   UNL     1     -13.895   1.220 -34.553  1.00  0.00     0.007 A 
HETATM   22  C   UNL     1     -14.873   0.959 -33.590  1.00  0.00     0.001 A 
HETATM   23  C   UNL     1     -15.067   1.845 -32.532  1.00  0.00     0.000 A 
HETATM   24  C   UNL     1     -14.276   2.988 -32.429  1.00  0.00     0.001 A 
HETATM   25  C   UNL     1     -13.295   3.248 -33.387  1.00  0.00     0.007 A 
ENDBRANCH  19  20
ENDBRANCH  18  19
ENDBRANCH  15  18
ENDBRANCH   1  14
BRANCH   2  26
HETATM   26  N   UNL     1      -7.156   4.198 -31.853  1.00  0.00    -0.286 NA
HETATM   27  H   UNL     1      -7.386   5.039 -32.395  1.00  0.00     0.125 HD
HETATM   28  H   UNL     1      -7.772   4.133 -31.040  1.00  0.00     0.125 HD
ENDBRANCH   2  26
BRANCH   3  29
HETATM   29  N   UNL     1      -4.467   3.189 -32.734  1.00  0.00    -0.176 NA
HETATM   30  C   UNL     1      -4.262   4.111 -33.617  1.00  0.00     0.153 C 
BRANCH  30  31
HETATM   31  C   UNL     1      -3.048   4.893 -33.594  1.00  0.00     0.011 A 
HETATM   32  C   UNL     1      -2.554   5.657 -32.489  1.00  0.00     0.004 A 
HETATM   33  C   UNL     1      -1.385   6.288 -32.910  1.00  0.00     0.043 A 
HETATM   34  C   UNL     1      -2.989   5.856 -31.161  1.00  0.00     0.014 A 
HETATM   35  C   UNL     1      -0.635   7.123 -32.073  1.00  0.00     0.030 A 
HETATM   36  N   UNL     1      -1.173   5.918 -34.219  1.00  0.00    -0.364 N 
HETATM   37  C   UNL     1      -1.086   7.301 -30.761  1.00  0.00     0.002 A 
HETATM   38  C   UNL     1      -2.244   6.674 -30.308  1.00  0.00     0.001 A 
HETATM   39  H   UNL     1      -0.398   6.232 -34.786  1.00  0.00     0.165 HD
HETATM   40  C   UNL     1      -2.156   5.061 -34.634  1.00  0.00     0.102 A 
ENDBRANCH  30  31
ENDBRANCH   3  29
TORSDOF 7
ENDMDL
MODEL 8
REMARK VINA RESULT:      -9.7      1.909      6.731
REMARK  7 active torsions:
REMARK  status: ('A' for Active; 'I' for Inactive)
REMARK    1  A    between atoms: C_4  and  C_5 
REMARK    2  A    between atoms: C_5  and  C_6 
REMARK    3  A    between atoms: C_6  and  N_7 
REMARK       I    between atoms: N_7  and  C_8 
REMARK    4  A    between atoms: C_8  and  C_9 
REMARK    5  A    between atoms: C_10  and  N_11 
REMARK    6  A    between atoms: N_12  and  N_13 
REMARK    7  A    between atoms: C_14  and  C_15 
ROOT
HETATM    1  C   UNL     1      -4.936   1.210 -32.630  1.00  0.00     0.104 C 
HETATM    2  C   UNL     1      -5.966   1.825 -33.325  1.00  0.00     0.123 C 
HETATM    3  N   UNL     1      -6.815   0.827 -33.808  1.00  0.00    -0.202 N 
HETATM    4  C   UNL     1      -6.119  -0.367 -33.753  1.00  0.00     0.183 A 
HETATM    5  C   UNL     1      -4.993  -0.164 -32.959  1.00  0.00     0.124 A 
HETATM    6  N   UNL     1      -4.144  -1.180 -32.659  1.00  0.00    -0.242 NA
HETATM    7  C   UNL     1      -4.437  -2.348 -33.262  1.00  0.00     0.086 A 
HETATM    8  C   UNL     1      -5.583  -2.525 -34.084  1.00  0.00     0.088 A 
HETATM    9  N   UNL     1      -6.472  -1.548 -34.311  1.00  0.00    -0.225 NA
HETATM   10  C   UNL     1      -3.570  -3.421 -33.091  1.00  0.00     0.034 A 
HETATM   11  C   UNL     1      -3.789  -4.650 -33.718  1.00  0.00     0.002 A 
HETATM   12  C   UNL     1      -4.905  -4.817 -34.524  1.00  0.00     0.002 A 
HETATM   13  C   UNL     1      -5.793  -3.756 -34.694  1.00  0.00     0.034 A 
ENDROOT
BRANCH   1  14
HETATM   14  C   UNL     1      -3.989   1.942 -31.821  1.00  0.00     0.257 C 
HETATM   15  N   UNL     1      -4.572   2.915 -31.022  1.00  0.00    -0.356 N 
HETATM   16  H   UNL     1      -5.577   3.006 -31.104  1.00  0.00     0.162 HD
HETATM   17  O   UNL     1      -2.779   1.849 -31.996  1.00  0.00    -0.267 OA
BRANCH  15  18
HETATM   18  C   UNL     1      -3.809   4.129 -30.800  1.00  0.00     0.127 C 
BRANCH  18  19
HETATM   19  C   UNL     1      -4.134   5.254 -31.784  1.00  0.00     0.058 C 
BRANCH  19  20
HETATM   20  C   UNL     1      -2.986   5.473 -32.743  1.00  0.00    -0.057 A 
HETATM   21  C   UNL     1      -1.983   6.410 -32.455  1.00  0.00     0.007 A 
HETATM   22  C   UNL     1      -0.959   6.655 -33.372  1.00  0.00     0.001 A 
HETATM   23  C   UNL     1      -0.927   5.971 -34.585  1.00  0.00     0.000 A 
HETATM   24  C   UNL     1      -1.915   5.033 -34.880  1.00  0.00     0.001 A 
HETATM   25  C   UNL     1      -2.937   4.783 -33.963  1.00  0.00     0.007 A 
ENDBRANCH  19  20
ENDBRANCH  18  19
ENDBRANCH  15  18
ENDBRANCH   1  14
BRANCH   2  26
HETATM   26  N   UNL     1      -6.198   3.157 -33.519  1.00  0.00    -0.286 NA
HETATM   27  H   UNL     1      -7.124   3.404 -33.888  1.00  0.00     0.125 HD
HETATM   28  H   UNL     1      -5.952   3.792 -32.756  1.00  0.00     0.125 HD
ENDBRANCH   2  26
BRANCH   3  29
HETATM   29  N   UNL     1      -8.096   0.959 -34.289  1.00  0.00    -0.176 NA
HETATM   30  C   UNL     1      -8.991   1.093 -33.367  1.00  0.00     0.153 C 
BRANCH  30  31
HETATM   31  C   UNL     1     -10.381   1.278 -33.715  1.00  0.00     0.011 A 
HETATM   32  C   UNL     1     -10.948   2.428 -34.351  1.00  0.00     0.004 A 
HETATM   33  C   UNL     1     -12.320   2.210 -34.458  1.00  0.00     0.043 A 
HETATM   34  C   UNL     1     -10.413   3.631 -34.861  1.00  0.00     0.014 A 
HETATM   35  C   UNL     1     -13.190   3.142 -35.036  1.00  0.00     0.030 A 
HETATM   36  N   UNL     1     -12.577   0.972 -33.912  1.00  0.00    -0.364 N 
HETATM   37  C   UNL     1     -12.635   4.324 -35.537  1.00  0.00     0.002 A 
HETATM   38  C   UNL     1     -11.266   4.566 -35.455  1.00  0.00     0.001 A 
HETATM   39  H   UNL     1     -13.494   0.553 -33.847  1.00  0.00     0.165 HD
HETATM   40  C   UNL     1     -11.414   0.394 -33.481  1.00  0.00     0.102 A 
ENDBRANCH  30  31
ENDBRANCH   3  29
TORSDOF 7
ENDMDL
MODEL 9
REMARK VINA RESULT:      -9.6      2.849      9.146
REMARK  7 active torsions:
REMARK  status: ('A' for Active; 'I' for Inactive)
REMARK    1  A    between atoms: C_4  and  C_5 
REMARK    2  A    between atoms: C_5  and  C_6 
REMARK    3  A    between atoms: C_6  and  N_7 
REMARK       I    between atoms: N_7  and  C_8 
REMARK    4  A    between atoms: C_8  and  C_9 
REMARK    5  A    between atoms: C_10  and  N_11 
REMARK    6  A    between atoms: N_12  and  N_13 
REMARK    7  A    between atoms: C_14  and  C_15 
ROOT
HETATM    1  C   UNL     1      -3.993   3.059 -31.554  1.00  0.00     0.104 C 
HETATM    2  C   UNL     1      -3.143   4.142 -31.710  1.00  0.00     0.123 C 
HETATM    3  N   UNL     1      -3.748   5.253 -31.119  1.00  0.00    -0.202 N 
HETATM    4  C   UNL     1      -5.089   4.953 -30.958  1.00  0.00     0.183 A 
HETATM    5  C   UNL     1      -5.242   3.582 -31.147  1.00  0.00     0.124 A 
HETATM    6  N   UNL     1      -6.444   2.973 -30.984  1.00  0.00    -0.242 NA
HETATM    7  C   UNL     1      -7.463   3.814 -30.721  1.00  0.00     0.086 A 
HETATM    8  C   UNL     1      -7.285   5.213 -30.550  1.00  0.00     0.088 A 
HETATM    9  N   UNL     1      -6.084   5.807 -30.623  1.00  0.00    -0.225 NA
HETATM   10  C   UNL     1      -8.749   3.293 -30.632  1.00  0.00     0.034 A 
HETATM   11  C   UNL     1      -9.859   4.109 -30.401  1.00  0.00     0.002 A 
HETATM   12  C   UNL     1      -9.681   5.476 -30.242  1.00  0.00     0.002 A 
HETATM   13  C   UNL     1      -8.396   6.013 -30.312  1.00  0.00     0.034 A 
ENDROOT
BRANCH   1  14
HETATM   14  C   UNL     1      -3.600   1.703 -31.861  1.00  0.00     0.257 C 
HETATM   15  N   UNL     1      -4.333   1.128 -32.889  1.00  0.00    -0.356 N 
HETATM   16  H   UNL     1      -5.055   1.711 -33.293  1.00  0.00     0.162 HD
HETATM   17  O   UNL     1      -2.843   1.067 -31.135  1.00  0.00    -0.267 OA
BRANCH  15  18
HETATM   18  C   UNL     1      -4.604  -0.294 -32.789  1.00  0.00     0.127 C 
BRANCH  18  19
HETATM   19  C   UNL     1      -5.828  -0.749 -33.584  1.00  0.00     0.058 C 
BRANCH  19  20
HETATM   20  C   UNL     1      -5.663  -2.179 -34.050  1.00  0.00    -0.057 A 
HETATM   21  C   UNL     1      -6.748  -2.884 -34.590  1.00  0.00     0.007 A 
HETATM   22  C   UNL     1      -6.607  -4.223 -34.960  1.00  0.00     0.001 A 
HETATM   23  C   UNL     1      -5.385  -4.871 -34.792  1.00  0.00     0.000 A 
HETATM   24  C   UNL     1      -4.298  -4.178 -34.263  1.00  0.00     0.001 A 
HETATM   25  C   UNL     1      -4.435  -2.838 -33.897  1.00  0.00     0.007 A 
ENDBRANCH  19  20
ENDBRANCH  18  19
ENDBRANCH  15  18
ENDBRANCH   1  14
BRANCH   2  26
HETATM   26  N   UNL     1      -1.908   4.191 -32.293  1.00  0.00    -0.286 NA
HETATM   27  H   UNL     1      -1.891   4.423 -33.293  1.00  0.00     0.125 HD
HETATM   28  H   UNL     1      -1.180   4.716 -31.806  1.00  0.00     0.125 HD
ENDBRANCH   2  26
BRANCH   3  29
HETATM   29  N   UNL     1      -3.172   6.451 -30.770  1.00  0.00    -0.176 NA
HETATM   30  C   UNL     1      -2.649   6.459 -29.589  1.00  0.00     0.153 C 
BRANCH  30  31
HETATM   31  C   UNL     1      -1.973   7.635 -29.092  1.00  0.00     0.011 A 
HETATM   32  C   UNL     1      -0.749   7.658 -28.351  1.00  0.00     0.004 A 
HETATM   33  C   UNL     1      -0.480   8.989 -28.035  1.00  0.00     0.043 A 
HETATM   34  C   UNL     1       0.165   6.667 -27.934  1.00  0.00     0.014 A 
HETATM   35  C   UNL     1       0.651   9.377 -27.307  1.00  0.00     0.030 A 
HETATM   36  N   UNL     1      -1.499   9.746 -28.568  1.00  0.00    -0.364 N 
HETATM   37  C   UNL     1       1.542   8.376 -26.909  1.00  0.00     0.002 A 
HETATM   38  C   UNL     1       1.307   7.040 -27.220  1.00  0.00     0.001 A 
HETATM   39  H   UNL     1      -1.570  10.751 -28.487  1.00  0.00     0.165 HD
HETATM   40  C   UNL     1      -2.392   8.944 -29.225  1.00  0.00     0.102 A 
ENDBRANCH  30  31
ENDBRANCH   3  29
TORSDOF 7
ENDMDL
MODEL 10
REMARK VINA RESULT:      -9.5      2.125      6.412
REMARK  7 active torsions:
REMARK  status: ('A' for Active; 'I' for Inactive)
REMARK    1  A    between atoms: C_4  and  C_5 
REMARK    2  A    between atoms: C_5  and  C_6 
REMARK    3  A    between atoms: C_6  and  N_7 
REMARK       I    between atoms: N_7  and  C_8 
REMARK    4  A    between atoms: C_8  and  C_9 
REMARK    5  A    between atoms: C_10  and  N_11 
REMARK    6  A    between atoms: N_12  and  N_13 
REMARK    7  A    between atoms: C_14  and  C_15 
ROOT
HETATM    1  C   UNL     1      -6.300   4.098 -33.079  1.00  0.00     0.104 C 
HETATM    2  C   UNL     1      -7.487   4.411 -33.723  1.00  0.00     0.123 C 
HETATM    3  N   UNL     1      -8.186   3.221 -33.938  1.00  0.00    -0.202 N 
HETATM    4  C   UNL     1      -7.285   2.183 -33.791  1.00  0.00     0.183 A 
HETATM    5  C   UNL     1      -6.141   2.697 -33.186  1.00  0.00     0.124 A 
HETATM    6  N   UNL     1      -5.098   1.898 -32.845  1.00  0.00    -0.242 NA
HETATM    7  C   UNL     1      -5.235   0.612 -33.222  1.00  0.00     0.086 A 
HETATM    8  C   UNL     1      -6.406   0.114 -33.855  1.00  0.00     0.088 A 
HETATM    9  N   UNL     1      -7.474   0.882 -34.114  1.00  0.00    -0.225 NA
HETATM   10  C   UNL     1      -4.177  -0.262 -33.001  1.00  0.00     0.034 A 
HETATM   11  C   UNL     1      -4.233  -1.600 -33.400  1.00  0.00     0.002 A 
HETATM   12  C   UNL     1      -5.375  -2.080 -34.024  1.00  0.00     0.002 A 
HETATM   13  C   UNL     1      -6.451  -1.220 -34.240  1.00  0.00     0.034 A 
ENDROOT
BRANCH   1  14
HETATM   14  C   UNL     1      -5.424   5.101 -32.517  1.00  0.00     0.257 C 
HETATM   15  N   UNL     1      -5.137   4.902 -31.175  1.00  0.00    -0.356 N 
HETATM   16  H   UNL     1      -5.574   4.096 -30.747  1.00  0.00     0.162 HD
HETATM   17  O   UNL     1      -5.150   6.133 -33.120  1.00  0.00    -0.267 OA
BRANCH  15  18
HETATM   18  C   UNL     1      -4.977   6.087 -30.353  1.00  0.00     0.127 C 
BRANCH  18  19
HETATM   19  C   UNL     1      -3.558   6.283 -29.819  1.00  0.00     0.058 C 
BRANCH  19  20
HETATM   20  C   UNL     1      -2.577   6.458 -30.957  1.00  0.00    -0.057 A 
HETATM   21  C   UNL     1      -1.706   5.419 -31.316  1.00  0.00     0.007 A 
HETATM   22  C   UNL     1      -0.759   5.607 -32.325  1.00  0.00     0.001 A 
HETATM   23  C   UNL     1      -0.671   6.831 -32.984  1.00  0.00     0.000 A 
HETATM   24  C   UNL     1      -1.536   7.869 -32.640  1.00  0.00     0.001 A 
HETATM   25  C   UNL     1      -2.487   7.682 -31.635  1.00  0.00     0.007 A 
ENDBRANCH  19  20
ENDBRANCH  18  19
ENDBRANCH  15  18
ENDBRANCH   1  14
BRANCH   2  26
HETATM   26  N   UNL     1      -7.972   5.635 -34.086  1.00  0.00    -0.286 NA
HETATM   27  H   UNL     1      -8.131   6.302 -33.321  1.00  0.00     0.125 HD
HETATM   28  H   UNL     1      -7.513   6.109 -34.866  1.00  0.00     0.125 HD
ENDBRANCH   2  26
BRANCH   3  29
HETATM   29  N   UNL     1      -9.511   3.061 -34.267  1.00  0.00    -0.176 NA
HETATM   30  C   UNL     1     -10.314   3.127 -33.257  1.00  0.00     0.153 C 
BRANCH  30  31
HETATM   31  C   UNL     1     -11.742   3.014 -33.446  1.00  0.00     0.011 A 
HETATM   32  C   UNL     1     -12.484   1.797 -33.574  1.00  0.00     0.004 A 
HETATM   33  C   UNL     1     -13.818   2.143 -33.786  1.00  0.00     0.043 A 
HETATM   34  C   UNL     1     -12.144   0.428 -33.513  1.00  0.00     0.014 A 
HETATM   35  C   UNL     1     -14.828   1.190 -33.955  1.00  0.00     0.030 A 
HETATM   36  N   UNL     1     -13.884   3.519 -33.781  1.00  0.00    -0.364 N 
HETATM   37  C   UNL     1     -14.465  -0.159 -33.887  1.00  0.00     0.002 A 
HETATM   38  C   UNL     1     -13.143  -0.537 -33.665  1.00  0.00     0.001 A 
HETATM   39  H   UNL     1     -14.731   4.053 -33.919  1.00  0.00     0.165 HD
HETATM   40  C   UNL     1     -12.644   4.052 -33.556  1.00  0.00     0.102 A 
ENDBRANCH  30  31
ENDBRANCH   3  29
TORSDOF 7
ENDMDL
