MODEL 1
REMARK VINA RESULT:      -8.8      0.000      0.000
REMARK  8 active torsions:
REMARK  status: ('A' for Active; 'I' for Inactive)
REMARK    1  A    between atoms: O_2  and  C_3 
REMARK    2  A    between atoms: C_6  and  C_7 
REMARK    3  A    between atoms: C_11  and  S_12 
REMARK    4  A    between atoms: S_12  and  C_13 
REMARK    5  A    between atoms: C_13  and  C_14 
REMARK       I    between atoms: C_14  and  N_15 
REMARK    6  A    between atoms: N_15  and  C_16 
REMARK    7  A    between atoms: C_17  and  C_18 
REMARK       I    between atoms: C_18  and  N_19 
REMARK    8  A    between atoms: N_19  and  C_20 
ROOT
HETATM    1  C   UNL     1      -4.855   5.361 -30.707  1.00  0.00     0.231 C 
HETATM    2  N   UNL     1      -3.919   4.552 -31.317  1.00  0.00    -0.326 N 
HETATM    3  O   UNL     1      -5.020   6.548 -31.005  1.00  0.00    -0.272 OA
HETATM    4  H   UNL     1      -4.112   3.555 -31.265  1.00  0.00     0.169 HD
ENDROOT
BRANCH   1   5
HETATM    5  C   UNL     1      -5.633   4.733 -29.556  1.00  0.00     0.185 C 
BRANCH   5   6
HETATM    6  S   UNL     1      -7.237   4.002 -30.031  1.00  0.00    -0.081 SA
BRANCH   6   7
HETATM    7  C   UNL     1      -6.753   2.383 -30.336  1.00  0.00     0.185 A 
HETATM    8  N   UNL     1      -6.351   1.508 -29.383  1.00  0.00    -0.253 N 
HETATM    9  N   UNL     1      -6.029   0.319 -29.934  1.00  0.00    -0.152 NA
HETATM   10  H   UNL     1      -6.265   1.644 -28.382  1.00  0.00     0.191 HD
HETATM   11  C   UNL     1      -6.267   0.541 -31.240  1.00  0.00     0.182 A 
HETATM   12  N   UNL     1      -6.744   1.806 -31.505  1.00  0.00    -0.201 NA
BRANCH  11  13
HETATM   13  C   UNL     1      -6.067  -0.422 -32.318  1.00  0.00     0.014 A 
HETATM   14  C   UNL     1      -4.845  -1.075 -32.501  1.00  0.00     0.018 A 
HETATM   15  C   UNL     1      -4.690  -2.003 -33.539  1.00  0.00     0.037 A 
HETATM   16  C   UNL     1      -5.748  -2.294 -34.405  1.00  0.00     0.068 A 
HETATM   17  C   UNL     1      -6.964  -1.635 -34.238  1.00  0.00     0.037 A 
HETATM   18  C   UNL     1      -7.120  -0.707 -33.203  1.00  0.00     0.018 A 
BRANCH  16  19
HETATM   19  O   UNL     1      -5.469  -3.225 -35.366  1.00  0.00    -0.356 OA
HETATM   20  C   UNL     1      -6.240  -4.421 -35.337  1.00  0.00     0.210 C 
ENDBRANCH  16  19
ENDBRANCH  11  13
ENDBRANCH   6   7
ENDBRANCH   5   6
ENDBRANCH   1   5
BRANCH   2  21
HETATM   21  C   UNL     1      -3.078   4.974 -32.364  1.00  0.00     0.050 A 
HETATM   22  C   UNL     1      -1.794   5.513 -32.174  1.00  0.00     0.058 A 
HETATM   23  C   UNL     1      -1.001   5.839 -33.285  1.00  0.00     0.019 A 
HETATM   24  C   UNL     1      -1.480   5.640 -34.579  1.00  0.00     0.001 A 
HETATM   25  C   UNL     1      -2.738   5.074 -34.770  1.00  0.00     0.002 A 
HETATM   26  C   UNL     1      -3.524   4.724 -33.669  1.00  0.00     0.030 A 
BRANCH  22  27
HETATM   27  C   UNL     1      -1.095   5.510 -30.869  1.00  0.00     0.254 C 
HETATM   28  N   UNL     1      -1.238   6.639 -30.099  1.00  0.00    -0.352 N 
HETATM   29  H   UNL     1      -1.896   7.355 -30.415  1.00  0.00     0.163 HD
HETATM   30  O   UNL     1      -0.406   4.539 -30.568  1.00  0.00    -0.268 OA
BRANCH  28  31
HETATM   31  C   UNL     1      -0.658   6.767 -28.800  1.00  0.00     0.084 A 
HETATM   32  C   UNL     1       0.680   7.430 -28.630  1.00  0.00     0.027 A 
HETATM   33  C   UNL     1      -0.562   8.114 -28.136  1.00  0.00     0.027 A 
ENDBRANCH  28  31
ENDBRANCH  22  27
ENDBRANCH   2  21
TORSDOF 8
ENDMDL
MODEL 2
REMARK VINA RESULT:      -8.0      1.525      3.804
REMARK  8 active torsions:
REMARK  status: ('A' for Active; 'I' for Inactive)
REMARK    1  A    between atoms: O_2  and  C_3 
REMARK    2  A    between atoms: C_6  and  C_7 
REMARK    3  A    between atoms: C_11  and  S_12 
REMARK    4  A    between atoms: S_12  and  C_13 
REMARK    5  A    between atoms: C_13  and  C_14 
REMARK       I    between atoms: C_14  and  N_15 
REMARK    6  A    between atoms: N_15  and  C_16 
REMARK    7  A    between atoms: C_17  and  C_18 
REMARK       I    between atoms: C_18  and  N_19 
REMARK    8  A    between atoms: N_19  and  C_20 
ROOT
HETATM    1  C   UNL     1      -3.899   7.077 -30.523  1.00  0.00     0.231 C 
HETATM    2  N   UNL     1      -3.153   6.598 -29.467  1.00  0.00    -0.326 N 
HETATM    3  O   UNL     1      -3.498   7.957 -31.291  1.00  0.00    -0.272 OA
HETATM    4  H   UNL     1      -3.408   5.666 -29.147  1.00  0.00     0.169 HD
ENDROOT
BRANCH   1   5
HETATM    5  C   UNL     1      -5.314   6.522 -30.649  1.00  0.00     0.185 C 
BRANCH   5   6
HETATM    6  S   UNL     1      -5.529   4.830 -29.999  1.00  0.00    -0.081 SA
BRANCH   6   7
HETATM    7  C   UNL     1      -5.694   3.960 -31.470  1.00  0.00     0.185 A 
HETATM    8  N   UNL     1      -5.743   4.529 -32.699  1.00  0.00    -0.253 N 
HETATM    9  N   UNL     1      -5.882   3.586 -33.654  1.00  0.00    -0.152 NA
HETATM   10  H   UNL     1      -5.699   5.508 -32.955  1.00  0.00     0.191 HD
HETATM   11  C   UNL     1      -5.905   2.452 -32.929  1.00  0.00     0.182 A 
HETATM   12  N   UNL     1      -5.759   2.663 -31.575  1.00  0.00    -0.201 NA
BRANCH  11  13
HETATM   13  C   UNL     1      -6.058   1.103 -33.462  1.00  0.00     0.014 A 
HETATM   14  C   UNL     1      -6.803   0.851 -34.618  1.00  0.00     0.018 A 
HETATM   15  C   UNL     1      -6.919  -0.455 -35.110  1.00  0.00     0.037 A 
HETATM   16  C   UNL     1      -6.295  -1.525 -34.461  1.00  0.00     0.068 A 
HETATM   17  C   UNL     1      -5.565  -1.283 -33.300  1.00  0.00     0.037 A 
HETATM   18  C   UNL     1      -5.448   0.021 -32.807  1.00  0.00     0.018 A 
BRANCH  16  19
HETATM   19  O   UNL     1      -6.478  -2.745 -35.051  1.00  0.00    -0.356 OA
HETATM   20  C   UNL     1      -5.419  -3.685 -34.910  1.00  0.00     0.210 C 
ENDBRANCH  16  19
ENDBRANCH  11  13
ENDBRANCH   6   7
ENDBRANCH   5   6
ENDBRANCH   1   5
BRANCH   2  21
HETATM   21  C   UNL     1      -1.847   7.027 -29.169  1.00  0.00     0.050 A 
HETATM   22  C   UNL     1      -0.687   6.461 -29.725  1.00  0.00     0.058 A 
HETATM   23  C   UNL     1       0.572   7.004 -29.420  1.00  0.00     0.019 A 
HETATM   24  C   UNL     1       0.681   8.097 -28.562  1.00  0.00     0.001 A 
HETATM   25  C   UNL     1      -0.469   8.681 -28.038  1.00  0.00     0.002 A 
HETATM   26  C   UNL     1      -1.727   8.162 -28.356  1.00  0.00     0.030 A 
BRANCH  22  27
HETATM   27  C   UNL     1      -0.709   5.489 -30.841  1.00  0.00     0.254 C 
HETATM   28  N   UNL     1      -1.120   5.971 -32.061  1.00  0.00    -0.352 N 
HETATM   29  H   UNL     1      -1.275   6.977 -32.150  1.00  0.00     0.163 HD
HETATM   30  O   UNL     1      -0.408   4.320 -30.614  1.00  0.00    -0.268 OA
BRANCH  28  31
HETATM   31  C   UNL     1      -1.154   5.164 -33.238  1.00  0.00     0.084 A 
HETATM   32  C   UNL     1      -2.434   5.005 -34.011  1.00  0.00     0.027 A 
HETATM   33  C   UNL     1      -1.301   5.799 -34.595  1.00  0.00     0.027 A 
ENDBRANCH  28  31
ENDBRANCH  22  27
ENDBRANCH   2  21
TORSDOF 8
ENDMDL
MODEL 3
REMARK VINA RESULT:      -8.0      1.436      2.007
REMARK  8 active torsions:
REMARK  status: ('A' for Active; 'I' for Inactive)
REMARK    1  A    between atoms: O_2  and  C_3 
REMARK    2  A    between atoms: C_6  and  C_7 
REMARK    3  A    between atoms: C_11  and  S_12 
REMARK    4  A    between atoms: S_12  and  C_13 
REMARK    5  A    between atoms: C_13  and  C_14 
REMARK       I    between atoms: C_14  and  N_15 
REMARK    6  A    between atoms: N_15  and  C_16 
REMARK    7  A    between atoms: C_17  and  C_18 
REMARK       I    between atoms: C_18  and  N_19 
REMARK    8  A    between atoms: N_19  and  C_20 
ROOT
HETATM    1  C   UNL     1      -4.822   4.902 -30.900  1.00  0.00     0.231 C 
HETATM    2  N   UNL     1      -3.506   4.582 -31.162  1.00  0.00    -0.326 N 
HETATM    3  O   UNL     1      -5.448   5.760 -31.530  1.00  0.00    -0.272 OA
HETATM    4  H   UNL     1      -3.220   3.655 -30.855  1.00  0.00     0.169 HD
ENDROOT
BRANCH   1   5
HETATM    5  C   UNL     1      -5.458   4.197 -29.707  1.00  0.00     0.185 C 
BRANCH   5   6
HETATM    6  S   UNL     1      -7.166   3.615 -29.988  1.00  0.00    -0.081 SA
BRANCH   6   7
HETATM    7  C   UNL     1      -6.953   2.756 -31.459  1.00  0.00     0.185 A 
HETATM    8  N   UNL     1      -7.140   3.284 -32.693  1.00  0.00    -0.253 N 
HETATM    9  N   UNL     1      -6.902   2.360 -33.647  1.00  0.00    -0.152 NA
HETATM   10  H   UNL     1      -7.426   4.221 -32.953  1.00  0.00     0.191 HD
HETATM   11  C   UNL     1      -6.565   1.281 -32.916  1.00  0.00     0.182 A 
HETATM   12  N   UNL     1      -6.562   1.516 -31.559  1.00  0.00    -0.201 NA
BRANCH  11  13
HETATM   13  C   UNL     1      -6.218  -0.033 -33.447  1.00  0.00     0.014 A 
HETATM   14  C   UNL     1      -7.158  -0.826 -34.112  1.00  0.00     0.018 A 
HETATM   15  C   UNL     1      -6.788  -2.078 -34.620  1.00  0.00     0.037 A 
HETATM   16  C   UNL     1      -5.483  -2.555 -34.475  1.00  0.00     0.068 A 
HETATM   17  C   UNL     1      -4.546  -1.776 -33.799  1.00  0.00     0.037 A 
HETATM   18  C   UNL     1      -4.913  -0.526 -33.291  1.00  0.00     0.018 A 
BRANCH  16  19
HETATM   19  O   UNL     1      -5.251  -3.785 -35.026  1.00  0.00    -0.356 OA
HETATM   20  C   UNL     1      -6.399  -4.566 -35.342  1.00  0.00     0.210 C 
ENDBRANCH  16  19
ENDBRANCH  11  13
ENDBRANCH   6   7
ENDBRANCH   5   6
ENDBRANCH   1   5
BRANCH   2  21
HETATM   21  C   UNL     1      -2.745   5.164 -32.192  1.00  0.00     0.050 A 
HETATM   22  C   UNL     1      -2.016   6.357 -32.052  1.00  0.00     0.058 A 
HETATM   23  C   UNL     1      -1.228   6.824 -33.117  1.00  0.00     0.019 A 
HETATM   24  C   UNL     1      -1.169   6.116 -34.316  1.00  0.00     0.001 A 
HETATM   25  C   UNL     1      -1.863   4.916 -34.444  1.00  0.00     0.002 A 
HETATM   26  C   UNL     1      -2.629   4.432 -33.381  1.00  0.00     0.030 A 
BRANCH  22  27
HETATM   27  C   UNL     1      -1.796   7.030 -30.753  1.00  0.00     0.254 C 
HETATM   28  N   UNL     1      -2.134   8.361 -30.690  1.00  0.00    -0.352 N 
HETATM   29  H   UNL     1      -2.612   8.772 -31.495  1.00  0.00     0.163 HD
HETATM   30  O   UNL     1      -1.295   6.391 -29.831  1.00  0.00    -0.268 OA
BRANCH  28  31
HETATM   31  C   UNL     1      -2.018   9.133 -29.494  1.00  0.00     0.084 A 
HETATM   32  C   UNL     1      -2.296  10.609 -29.515  1.00  0.00     0.027 A 
HETATM   33  C   UNL     1      -3.244   9.679 -28.816  1.00  0.00     0.027 A 
ENDBRANCH  28  31
ENDBRANCH  22  27
ENDBRANCH   2  21
TORSDOF 8
ENDMDL
MODEL 4
REMARK VINA RESULT:      -7.9      1.517      3.462
REMARK  8 active torsions:
REMARK  status: ('A' for Active; 'I' for Inactive)
REMARK    1  A    between atoms: O_2  and  C_3 
REMARK    2  A    between atoms: C_6  and  C_7 
REMARK    3  A    between atoms: C_11  and  S_12 
REMARK    4  A    between atoms: S_12  and  C_13 
REMARK    5  A    between atoms: C_13  and  C_14 
REMARK       I    between atoms: C_14  and  N_15 
REMARK    6  A    between atoms: N_15  and  C_16 
REMARK    7  A    between atoms: C_17  and  C_18 
REMARK       I    between atoms: C_18  and  N_19 
REMARK    8  A    between atoms: N_19  and  C_20 
ROOT
HETATM    1  C   UNL     1      -6.107   5.839 -29.525  1.00  0.00     0.231 C 
HETATM    2  N   UNL     1      -4.817   5.770 -29.042  1.00  0.00    -0.326 N 
HETATM    3  O   UNL     1      -6.510   6.752 -30.251  1.00  0.00    -0.272 OA
HETATM    4  H   UNL     1      -4.504   4.838 -28.781  1.00  0.00     0.169 HD
ENDROOT
BRANCH   1   5
HETATM    5  C   UNL     1      -7.063   4.756 -29.035  1.00  0.00     0.185 C 
BRANCH   5   6
HETATM    6  S   UNL     1      -8.122   4.032 -30.334  1.00  0.00    -0.081 SA
BRANCH   6   7
HETATM    7  C   UNL     1      -7.333   2.524 -30.560  1.00  0.00     0.185 A 
HETATM    8  N   UNL     1      -6.647   1.862 -29.598  1.00  0.00    -0.253 N 
HETATM    9  N   UNL     1      -6.136   0.711 -30.083  1.00  0.00    -0.152 NA
HETATM   10  H   UNL     1      -6.482   2.123 -28.633  1.00  0.00     0.191 HD
HETATM   11  C   UNL     1      -6.560   0.732 -31.361  1.00  0.00     0.182 A 
HETATM   12  N   UNL     1      -7.329   1.834 -31.667  1.00  0.00    -0.201 NA
BRANCH  11  13
HETATM   13  C   UNL     1      -6.276  -0.282 -32.370  1.00  0.00     0.014 A 
HETATM   14  C   UNL     1      -7.242  -0.686 -33.296  1.00  0.00     0.018 A 
HETATM   15  C   UNL     1      -6.932  -1.654 -34.260  1.00  0.00     0.037 A 
HETATM   16  C   UNL     1      -5.659  -2.230 -34.316  1.00  0.00     0.068 A 
HETATM   17  C   UNL     1      -4.697  -1.843 -33.386  1.00  0.00     0.037 A 
HETATM   18  C   UNL     1      -5.004  -0.877 -32.422  1.00  0.00     0.018 A 
BRANCH  16  19
HETATM   19  O   UNL     1      -5.485  -3.152 -35.311  1.00  0.00    -0.356 OA
HETATM   20  C   UNL     1      -6.248  -4.349 -35.209  1.00  0.00     0.210 C 
ENDBRANCH  16  19
ENDBRANCH  11  13
ENDBRANCH   6   7
ENDBRANCH   5   6
ENDBRANCH   1   5
BRANCH   2  21
HETATM   21  C   UNL     1      -3.812   6.706 -29.349  1.00  0.00     0.050 A 
HETATM   22  C   UNL     1      -2.887   6.551 -30.395  1.00  0.00     0.058 A 
HETATM   23  C   UNL     1      -1.963   7.573 -30.670  1.00  0.00     0.019 A 
HETATM   24  C   UNL     1      -1.952   8.739 -29.905  1.00  0.00     0.001 A 
HETATM   25  C   UNL     1      -2.890   8.909 -28.890  1.00  0.00     0.002 A 
HETATM   26  C   UNL     1      -3.828   7.907 -28.627  1.00  0.00     0.030 A 
BRANCH  22  27
HETATM   27  C   UNL     1      -2.990   5.492 -31.423  1.00  0.00     0.254 C 
HETATM   28  N   UNL     1      -2.551   5.821 -32.684  1.00  0.00    -0.352 N 
HETATM   29  H   UNL     1      -2.086   6.722 -32.809  1.00  0.00     0.163 HD
HETATM   30  O   UNL     1      -3.488   4.413 -31.114  1.00  0.00    -0.268 OA
BRANCH  28  31
HETATM   31  C   UNL     1      -2.549   4.891 -33.768  1.00  0.00     0.084 A 
HETATM   32  C   UNL     1      -3.170   5.263 -35.085  1.00  0.00     0.027 A 
HETATM   33  C   UNL     1      -1.679   5.126 -34.973  1.00  0.00     0.027 A 
ENDBRANCH  28  31
ENDBRANCH  22  27
ENDBRANCH   2  21
TORSDOF 8
ENDMDL
MODEL 5
REMARK VINA RESULT:      -7.8      2.374      2.677
REMARK  8 active torsions:
REMARK  status: ('A' for Active; 'I' for Inactive)
REMARK    1  A    between atoms: O_2  and  C_3 
REMARK    2  A    between atoms: C_6  and  C_7 
REMARK    3  A    between atoms: C_11  and  S_12 
REMARK    4  A    between atoms: S_12  and  C_13 
REMARK    5  A    between atoms: C_13  and  C_14 
REMARK       I    between atoms: C_14  and  N_15 
REMARK    6  A    between atoms: N_15  and  C_16 
REMARK    7  A    between atoms: C_17  and  C_18 
REMARK       I    between atoms: C_18  and  N_19 
REMARK    8  A    between atoms: N_19  and  C_20 
ROOT
HETATM    1  C   UNL     1      -5.884   4.829 -33.076  1.00  0.00     0.231 C 
HETATM    2  N   UNL     1      -4.658   4.962 -32.458  1.00  0.00    -0.326 N 
HETATM    3  O   UNL     1      -6.105   5.211 -34.228  1.00  0.00    -0.272 OA
HETATM    4  H   UNL     1      -4.489   4.312 -31.693  1.00  0.00     0.169 HD
ENDROOT
BRANCH   1   5
HETATM    5  C   UNL     1      -7.007   4.255 -32.218  1.00  0.00     0.185 C 
BRANCH   5   6
HETATM    6  S   UNL     1      -8.505   3.778 -33.146  1.00  0.00    -0.081 SA
BRANCH   6   7
HETATM    7  C   UNL     1      -8.317   2.071 -33.165  1.00  0.00     0.185 A 
HETATM    8  N   UNL     1      -9.265   1.187 -32.770  1.00  0.00    -0.253 N 
HETATM    9  N   UNL     1      -8.817  -0.079 -32.897  1.00  0.00    -0.152 NA
HETATM   10  H   UNL     1     -10.196   1.363 -32.411  1.00  0.00     0.191 HD
HETATM   11  C   UNL     1      -7.576   0.108 -33.385  1.00  0.00     0.182 A 
HETATM   12  N   UNL     1      -7.260   1.434 -33.586  1.00  0.00    -0.201 NA
BRANCH  11  13
HETATM   13  C   UNL     1      -6.616  -0.944 -33.699  1.00  0.00     0.014 A 
HETATM   14  C   UNL     1      -5.314  -0.923 -33.192  1.00  0.00     0.018 A 
HETATM   15  C   UNL     1      -4.420  -1.956 -33.503  1.00  0.00     0.037 A 
HETATM   16  C   UNL     1      -4.811  -3.021 -34.320  1.00  0.00     0.068 A 
HETATM   17  C   UNL     1      -6.102  -3.040 -34.841  1.00  0.00     0.037 A 
HETATM   18  C   UNL     1      -6.996  -2.009 -34.532  1.00  0.00     0.018 A 
BRANCH  16  19
HETATM   19  O   UNL     1      -3.848  -3.968 -34.536  1.00  0.00    -0.356 OA
HETATM   20  C   UNL     1      -3.526  -4.811 -33.435  1.00  0.00     0.210 C 
ENDBRANCH  16  19
ENDBRANCH  11  13
ENDBRANCH   6   7
ENDBRANCH   5   6
ENDBRANCH   1   5
BRANCH   2  21
HETATM   21  C   UNL     1      -3.520   5.511 -33.077  1.00  0.00     0.050 A 
HETATM   22  C   UNL     1      -3.009   6.788 -32.791  1.00  0.00     0.058 A 
HETATM   23  C   UNL     1      -1.826   7.223 -33.410  1.00  0.00     0.019 A 
HETATM   24  C   UNL     1      -1.157   6.398 -34.314  1.00  0.00     0.001 A 
HETATM   25  C   UNL     1      -1.643   5.119 -34.572  1.00  0.00     0.002 A 
HETATM   26  C   UNL     1      -2.806   4.670 -33.941  1.00  0.00     0.030 A 
BRANCH  22  27
HETATM   27  C   UNL     1      -3.482   7.621 -31.663  1.00  0.00     0.254 C 
HETATM   28  N   UNL     1      -2.522   8.049 -30.777  1.00  0.00    -0.352 N 
HETATM   29  H   UNL     1      -1.543   7.865 -31.006  1.00  0.00     0.163 HD
HETATM   30  O   UNL     1      -4.684   7.846 -31.556  1.00  0.00    -0.268 OA
BRANCH  28  31
HETATM   31  C   UNL     1      -2.819   8.893 -29.664  1.00  0.00     0.084 A 
HETATM   32  C   UNL     1      -1.710   9.575 -28.913  1.00  0.00     0.027 A 
HETATM   33  C   UNL     1      -2.643  10.383 -29.767  1.00  0.00     0.027 A 
ENDBRANCH  28  31
ENDBRANCH  22  27
ENDBRANCH   2  21
TORSDOF 8
ENDMDL
MODEL 6
REMARK VINA RESULT:      -7.7      2.621     10.096
REMARK  8 active torsions:
REMARK  status: ('A' for Active; 'I' for Inactive)
REMARK    1  A    between atoms: O_2  and  C_3 
REMARK    2  A    between atoms: C_6  and  C_7 
REMARK    3  A    between atoms: C_11  and  S_12 
REMARK    4  A    between atoms: S_12  and  C_13 
REMARK    5  A    between atoms: C_13  and  C_14 
REMARK       I    between atoms: C_14  and  N_15 
REMARK    6  A    between atoms: N_15  and  C_16 
REMARK    7  A    between atoms: C_17  and  C_18 
REMARK       I    between atoms: C_18  and  N_19 
REMARK    8  A    between atoms: N_19  and  C_20 
ROOT
HETATM    1  C   UNL     1      -4.632   1.927 -31.549  1.00  0.00     0.231 C 
HETATM    2  N   UNL     1      -5.503   2.000 -32.616  1.00  0.00    -0.326 N 
HETATM    3  O   UNL     1      -4.903   1.346 -30.494  1.00  0.00    -0.272 OA
HETATM    4  H   UNL     1      -5.065   2.166 -33.519  1.00  0.00     0.169 HD
ENDROOT
BRANCH   1   5
HETATM    5  C   UNL     1      -3.323   2.695 -31.700  1.00  0.00     0.185 C 
BRANCH   5   6
HETATM    6  S   UNL     1      -3.520   4.484 -32.007  1.00  0.00    -0.081 SA
BRANCH   6   7
HETATM    7  C   UNL     1      -2.027   5.062 -31.388  1.00  0.00     0.185 A 
HETATM    8  N   UNL     1      -0.836   4.951 -32.023  1.00  0.00    -0.253 N 
HETATM    9  N   UNL     1       0.152   5.495 -31.281  1.00  0.00    -0.152 NA
HETATM   10  H   UNL     1      -0.623   4.528 -32.919  1.00  0.00     0.191 HD
HETATM   11  C   UNL     1      -0.518   5.929 -30.197  1.00  0.00     0.182 A 
HETATM   12  N   UNL     1      -1.874   5.696 -30.259  1.00  0.00    -0.201 NA
BRANCH  11  13
HETATM   13  C   UNL     1       0.073   6.595 -29.041  1.00  0.00     0.014 A 
HETATM   14  C   UNL     1      -0.043   6.066 -27.752  1.00  0.00     0.018 A 
HETATM   15  C   UNL     1       0.547   6.725 -26.666  1.00  0.00     0.037 A 
HETATM   16  C   UNL     1       1.260   7.913 -26.847  1.00  0.00     0.068 A 
HETATM   17  C   UNL     1       1.365   8.454 -28.126  1.00  0.00     0.037 A 
HETATM   18  C   UNL     1       0.776   7.798 -29.213  1.00  0.00     0.018 A 
BRANCH  16  19
HETATM   19  O   UNL     1       1.794   8.447 -25.707  1.00  0.00    -0.356 OA
HETATM   20  C   UNL     1       0.948   9.304 -24.948  1.00  0.00     0.210 C 
ENDBRANCH  16  19
ENDBRANCH  11  13
ENDBRANCH   6   7
ENDBRANCH   5   6
ENDBRANCH   1   5
BRANCH   2  21
HETATM   21  C   UNL     1      -6.773   1.394 -32.638  1.00  0.00     0.050 A 
HETATM   22  C   UNL     1      -7.057   0.187 -33.298  1.00  0.00     0.058 A 
HETATM   23  C   UNL     1      -8.339  -0.377 -33.205  1.00  0.00     0.019 A 
HETATM   24  C   UNL     1      -9.338   0.256 -32.467  1.00  0.00     0.001 A 
HETATM   25  C   UNL     1      -9.049   1.435 -31.783  1.00  0.00     0.002 A 
HETATM   26  C   UNL     1      -7.768   1.989 -31.851  1.00  0.00     0.030 A 
BRANCH  22  27
HETATM   27  C   UNL     1      -6.013  -0.692 -33.872  1.00  0.00     0.254 C 
HETATM   28  N   UNL     1      -6.450  -1.860 -34.451  1.00  0.00    -0.352 N 
HETATM   29  H   UNL     1      -7.458  -1.997 -34.549  1.00  0.00     0.163 HD
HETATM   30  O   UNL     1      -4.835  -0.361 -33.767  1.00  0.00    -0.268 OA
BRANCH  28  31
HETATM   31  C   UNL     1      -5.567  -2.787 -35.083  1.00  0.00     0.084 A 
HETATM   32  C   UNL     1      -4.822  -3.802 -34.262  1.00  0.00     0.027 A 
HETATM   33  C   UNL     1      -5.929  -4.245 -35.174  1.00  0.00     0.027 A 
ENDBRANCH  28  31
ENDBRANCH  22  27
ENDBRANCH   2  21
TORSDOF 8
ENDMDL
MODEL 7
REMARK VINA RESULT:      -7.6      3.571      5.341
REMARK  8 active torsions:
REMARK  status: ('A' for Active; 'I' for Inactive)
REMARK    1  A    between atoms: O_2  and  C_3 
REMARK    2  A    between atoms: C_6  and  C_7 
REMARK    3  A    between atoms: C_11  and  S_12 
REMARK    4  A    between atoms: S_12  and  C_13 
REMARK    5  A    between atoms: C_13  and  C_14 
REMARK       I    between atoms: C_14  and  N_15 
REMARK    6  A    between atoms: N_15  and  C_16 
REMARK    7  A    between atoms: C_17  and  C_18 
REMARK       I    between atoms: C_18  and  N_19 
REMARK    8  A    between atoms: N_19  and  C_20 
ROOT
HETATM    1  C   UNL     1      -9.862   3.588 -31.773  1.00  0.00     0.231 C 
HETATM    2  N   UNL     1      -9.115   4.732 -31.586  1.00  0.00    -0.326 N 
HETATM    3  O   UNL     1      -9.904   2.666 -30.954  1.00  0.00    -0.272 OA
HETATM    4  H   UNL     1      -9.429   5.543 -32.113  1.00  0.00     0.169 HD
ENDROOT
BRANCH   1   5
HETATM    5  C   UNL     1     -10.580   3.470 -33.114  1.00  0.00     0.185 C 
BRANCH   5   6
HETATM    6  S   UNL     1     -10.805   1.759 -33.709  1.00  0.00    -0.081 SA
BRANCH   6   7
HETATM    7  C   UNL     1      -9.166   1.300 -33.932  1.00  0.00     0.185 A 
HETATM    8  N   UNL     1      -8.150   2.163 -34.175  1.00  0.00    -0.253 N 
HETATM    9  N   UNL     1      -6.983   1.499 -34.310  1.00  0.00    -0.152 NA
HETATM   10  H   UNL     1      -8.174   3.172 -34.268  1.00  0.00     0.191 HD
HETATM   11  C   UNL     1      -7.364   0.221 -34.130  1.00  0.00     0.182 A 
HETATM   12  N   UNL     1      -8.709   0.081 -33.865  1.00  0.00    -0.201 NA
BRANCH  11  13
HETATM   13  C   UNL     1      -6.489  -0.945 -34.189  1.00  0.00     0.014 A 
HETATM   14  C   UNL     1      -5.231  -0.950 -33.580  1.00  0.00     0.018 A 
HETATM   15  C   UNL     1      -4.422  -2.091 -33.644  1.00  0.00     0.037 A 
HETATM   16  C   UNL     1      -4.853  -3.240 -34.312  1.00  0.00     0.068 A 
HETATM   17  C   UNL     1      -6.099  -3.237 -34.935  1.00  0.00     0.037 A 
HETATM   18  C   UNL     1      -6.909  -2.098 -34.872  1.00  0.00     0.018 A 
BRANCH  16  19
HETATM   19  O   UNL     1      -3.972  -4.286 -34.291  1.00  0.00    -0.356 OA
HETATM   20  C   UNL     1      -3.293  -4.521 -33.062  1.00  0.00     0.210 C 
ENDBRANCH  16  19
ENDBRANCH  11  13
ENDBRANCH   6   7
ENDBRANCH   5   6
ENDBRANCH   1   5
BRANCH   2  21
HETATM   21  C   UNL     1      -8.351   4.993 -30.433  1.00  0.00     0.050 A 
HETATM   22  C   UNL     1      -7.055   4.493 -30.219  1.00  0.00     0.058 A 
HETATM   23  C   UNL     1      -6.343   4.865 -29.067  1.00  0.00     0.019 A 
HETATM   24  C   UNL     1      -6.915   5.723 -28.129  1.00  0.00     0.001 A 
HETATM   25  C   UNL     1      -8.185   6.247 -28.356  1.00  0.00     0.002 A 
HETATM   26  C   UNL     1      -8.890   5.900 -29.512  1.00  0.00     0.030 A 
BRANCH  22  27
HETATM   27  C   UNL     1      -6.264   3.807 -31.264  1.00  0.00     0.254 C 
HETATM   28  N   UNL     1      -5.430   2.801 -30.837  1.00  0.00    -0.352 N 
HETATM   29  H   UNL     1      -5.488   2.516 -29.857  1.00  0.00     0.163 HD
HETATM   30  O   UNL     1      -6.359   4.191 -32.427  1.00  0.00    -0.268 OA
BRANCH  28  31
HETATM   31  C   UNL     1      -4.637   2.021 -31.732  1.00  0.00     0.084 A 
HETATM   32  C   UNL     1      -3.318   2.546 -32.227  1.00  0.00     0.027 A 
HETATM   33  C   UNL     1      -3.352   1.394 -31.264  1.00  0.00     0.027 A 
ENDBRANCH  28  31
ENDBRANCH  22  27
ENDBRANCH   2  21
TORSDOF 8
ENDMDL
MODEL 8
REMARK VINA RESULT:      -7.5     17.115     18.778
REMARK  8 active torsions:
REMARK  status: ('A' for Active; 'I' for Inactive)
REMARK    1  A    between atoms: O_2  and  C_3 
REMARK    2  A    between atoms: C_6  and  C_7 
REMARK    3  A    between atoms: C_11  and  S_12 
REMARK    4  A    between atoms: S_12  and  C_13 
REMARK    5  A    between atoms: C_13  and  C_14 
REMARK       I    between atoms: C_14  and  N_15 
REMARK    6  A    between atoms: N_15  and  C_16 
REMARK    7  A    between atoms: C_17  and  C_18 
REMARK       I    between atoms: C_18  and  N_19 
REMARK    8  A    between atoms: N_19  and  C_20 
ROOT
HETATM    1  C   UNL     1      -6.847 -14.320 -36.400  1.00  0.00     0.231 C 
HETATM    2  N   UNL     1      -6.877 -13.016 -36.849  1.00  0.00    -0.326 N 
HETATM    3  O   UNL     1      -6.706 -15.290 -37.150  1.00  0.00    -0.272 OA
HETATM    4  H   UNL     1      -6.632 -12.315 -36.152  1.00  0.00     0.169 HD
ENDROOT
BRANCH   1   5
HETATM    5  C   UNL     1      -7.094 -14.520 -34.909  1.00  0.00     0.185 C 
BRANCH   5   6
HETATM    6  S   UNL     1      -5.987 -13.562 -33.818  1.00  0.00    -0.081 SA
BRANCH   6   7
HETATM    7  C   UNL     1      -5.768 -14.692 -32.544  1.00  0.00     0.185 A 
HETATM    8  N   UNL     1      -6.700 -15.589 -32.142  1.00  0.00    -0.253 N 
HETATM    9  N   UNL     1      -6.233 -16.332 -31.116  1.00  0.00    -0.152 NA
HETATM   10  H   UNL     1      -7.637 -15.743 -32.495  1.00  0.00     0.191 HD
HETATM   11  C   UNL     1      -4.995 -15.833 -30.947  1.00  0.00     0.182 A 
HETATM   12  N   UNL     1      -4.678 -14.835 -31.843  1.00  0.00    -0.201 NA
BRANCH  11  13
HETATM   13  C   UNL     1      -4.032 -16.265 -29.940  1.00  0.00     0.014 A 
HETATM   14  C   UNL     1      -2.667 -15.992 -30.066  1.00  0.00     0.018 A 
HETATM   15  C   UNL     1      -1.770 -16.411 -29.075  1.00  0.00     0.037 A 
HETATM   16  C   UNL     1      -2.220 -17.103 -27.947  1.00  0.00     0.068 A 
HETATM   17  C   UNL     1      -3.577 -17.391 -27.822  1.00  0.00     0.037 A 
HETATM   18  C   UNL     1      -4.474 -16.975 -28.812  1.00  0.00     0.018 A 
BRANCH  16  19
HETATM   19  O   UNL     1      -1.245 -17.443 -27.050  1.00  0.00    -0.356 OA
HETATM   20  C   UNL     1       0.083 -17.043 -27.372  1.00  0.00     0.210 C 
ENDBRANCH  16  19
ENDBRANCH  11  13
ENDBRANCH   6   7
ENDBRANCH   5   6
ENDBRANCH   1   5
BRANCH   2  21
HETATM   21  C   UNL     1      -6.714 -12.644 -38.196  1.00  0.00     0.050 A 
HETATM   22  C   UNL     1      -5.489 -12.248 -38.760  1.00  0.00     0.058 A 
HETATM   23  C   UNL     1      -5.411 -11.962 -40.133  1.00  0.00     0.019 A 
HETATM   24  C   UNL     1      -6.543 -12.061 -40.941  1.00  0.00     0.001 A 
HETATM   25  C   UNL     1      -7.749 -12.487 -40.391  1.00  0.00     0.002 A 
HETATM   26  C   UNL     1      -7.829 -12.797 -39.030  1.00  0.00     0.030 A 
BRANCH  22  27
HETATM   27  C   UNL     1      -4.192 -12.372 -38.059  1.00  0.00     0.254 C 
HETATM   28  N   UNL     1      -3.096 -12.634 -38.847  1.00  0.00    -0.352 N 
HETATM   29  H   UNL     1      -3.221 -12.617 -39.861  1.00  0.00     0.163 HD
HETATM   30  O   UNL     1      -4.169 -12.279 -36.835  1.00  0.00    -0.268 OA
BRANCH  28  31
HETATM   31  C   UNL     1      -1.773 -12.740 -38.320  1.00  0.00     0.084 A 
HETATM   32  C   UNL     1      -1.263 -14.060 -37.814  1.00  0.00     0.027 A 
HETATM   33  C   UNL     1      -0.705 -13.477 -39.080  1.00  0.00     0.027 A 
ENDBRANCH  28  31
ENDBRANCH  22  27
ENDBRANCH   2  21
TORSDOF 8
ENDMDL
MODEL 9
REMARK VINA RESULT:      -7.5      2.842      9.785
REMARK  8 active torsions:
REMARK  status: ('A' for Active; 'I' for Inactive)
REMARK    1  A    between atoms: O_2  and  C_3 
REMARK    2  A    between atoms: C_6  and  C_7 
REMARK    3  A    between atoms: C_11  and  S_12 
REMARK    4  A    between atoms: S_12  and  C_13 
REMARK    5  A    between atoms: C_13  and  C_14 
REMARK       I    between atoms: C_14  and  N_15 
REMARK    6  A    between atoms: N_15  and  C_16 
REMARK    7  A    between atoms: C_17  and  C_18 
REMARK       I    between atoms: C_18  and  N_19 
REMARK    8  A    between atoms: N_19  and  C_20 
ROOT
HETATM    1  C   UNL     1      -4.471   0.751 -31.572  1.00  0.00     0.231 C 
HETATM    2  N   UNL     1      -4.532   0.479 -32.923  1.00  0.00    -0.326 N 
HETATM    3  O   UNL     1      -5.031   0.060 -30.716  1.00  0.00    -0.272 OA
HETATM    4  H   UNL     1      -3.771   0.867 -33.475  1.00  0.00     0.169 HD
ENDROOT
BRANCH   1   5
HETATM    5  C   UNL     1      -3.738   2.030 -31.180  1.00  0.00     0.185 C 
BRANCH   5   6
HETATM    6  S   UNL     1      -4.028   3.446 -32.294  1.00  0.00    -0.081 SA
BRANCH   6   7
HETATM    7  C   UNL     1      -2.761   4.490 -31.790  1.00  0.00     0.185 A 
HETATM    8  N   UNL     1      -1.524   4.521 -32.341  1.00  0.00    -0.253 N 
HETATM    9  N   UNL     1      -0.752   5.440 -31.726  1.00  0.00    -0.152 NA
HETATM   10  H   UNL     1      -1.145   3.965 -33.099  1.00  0.00     0.191 HD
HETATM   11  C   UNL     1      -1.593   5.943 -30.803  1.00  0.00     0.182 A 
HETATM   12  N   UNL     1      -2.853   5.387 -30.848  1.00  0.00    -0.201 NA
BRANCH  11  13
HETATM   13  C   UNL     1      -1.269   6.979 -29.829  1.00  0.00     0.014 A 
HETATM   14  C   UNL     1       0.053   7.324 -29.537  1.00  0.00     0.018 A 
HETATM   15  C   UNL     1       0.329   8.332 -28.605  1.00  0.00     0.037 A 
HETATM   16  C   UNL     1      -0.705   9.011 -27.954  1.00  0.00     0.068 A 
HETATM   17  C   UNL     1      -2.025   8.662 -28.229  1.00  0.00     0.037 A 
HETATM   18  C   UNL     1      -2.303   7.654 -29.159  1.00  0.00     0.018 A 
BRANCH  16  19
HETATM   19  O   UNL     1      -0.300   9.980 -27.078  1.00  0.00    -0.356 OA
HETATM   20  C   UNL     1       0.077   9.543 -25.777  1.00  0.00     0.210 C 
ENDBRANCH  16  19
ENDBRANCH  11  13
ENDBRANCH   6   7
ENDBRANCH   5   6
ENDBRANCH   1   5
BRANCH   2  21
HETATM   21  C   UNL     1      -5.204  -0.629 -33.472  1.00  0.00     0.050 A 
HETATM   22  C   UNL     1      -6.581  -0.655 -33.750  1.00  0.00     0.058 A 
HETATM   23  C   UNL     1      -7.149  -1.783 -34.365  1.00  0.00     0.019 A 
HETATM   24  C   UNL     1      -6.358  -2.882 -34.695  1.00  0.00     0.001 A 
HETATM   25  C   UNL     1      -4.987  -2.844 -34.452  1.00  0.00     0.002 A 
HETATM   26  C   UNL     1      -4.410  -1.715 -33.863  1.00  0.00     0.030 A 
BRANCH  22  27
HETATM   27  C   UNL     1      -7.447   0.544 -33.691  1.00  0.00     0.254 C 
HETATM   28  N   UNL     1      -8.755   0.334 -33.327  1.00  0.00    -0.352 N 
HETATM   29  H   UNL     1      -9.021  -0.603 -33.016  1.00  0.00     0.163 HD
HETATM   30  O   UNL     1      -6.973   1.633 -34.005  1.00  0.00    -0.268 OA
BRANCH  28  31
HETATM   31  C   UNL     1      -9.698   1.396 -33.186  1.00  0.00     0.084 A 
HETATM   32  C   UNL     1     -10.277   2.061 -34.403  1.00  0.00     0.027 A 
HETATM   33  C   UNL     1     -11.144   1.186 -33.544  1.00  0.00     0.027 A 
ENDBRANCH  28  31
ENDBRANCH  22  27
ENDBRANCH   2  21
TORSDOF 8
ENDMDL
MODEL 10
REMARK VINA RESULT:      -7.4      2.071      4.502
REMARK  8 active torsions:
REMARK  status: ('A' for Active; 'I' for Inactive)
REMARK    1  A    between atoms: O_2  and  C_3 
REMARK    2  A    between atoms: C_6  and  C_7 
REMARK    3  A    between atoms: C_11  and  S_12 
REMARK    4  A    between atoms: S_12  and  C_13 
REMARK    5  A    between atoms: C_13  and  C_14 
REMARK       I    between atoms: C_14  and  N_15 
REMARK    6  A    between atoms: N_15  and  C_16 
REMARK    7  A    between atoms: C_17  and  C_18 
REMARK       I    between atoms: C_18  and  N_19 
REMARK    8  A    between atoms: N_19  and  C_20 
ROOT
HETATM    1  C   UNL     1      -1.008   6.063 -30.748  1.00  0.00     0.231 C 
HETATM    2  N   UNL     1      -1.041   6.197 -29.375  1.00  0.00    -0.326 N 
HETATM    3  O   UNL     1      -0.533   6.918 -31.500  1.00  0.00    -0.272 OA
HETATM    4  H   UNL     1      -1.105   5.324 -28.858  1.00  0.00     0.169 HD
ENDROOT
BRANCH   1   5
HETATM    5  C   UNL     1      -1.684   4.819 -31.314  1.00  0.00     0.185 C 
BRANCH   5   6
HETATM    6  S   UNL     1      -3.412   5.067 -31.847  1.00  0.00    -0.081 SA
BRANCH   6   7
HETATM    7  C   UNL     1      -4.006   3.463 -31.702  1.00  0.00     0.185 A 
HETATM    8  N   UNL     1      -4.441   2.905 -30.546  1.00  0.00    -0.253 N 
HETATM    9  N   UNL     1      -4.839   1.632 -30.753  1.00  0.00    -0.152 NA
HETATM   10  H   UNL     1      -4.488   3.307 -29.617  1.00  0.00     0.191 HD
HETATM   11  C   UNL     1      -4.621   1.480 -32.073  1.00  0.00     0.182 A 
HETATM   12  N   UNL     1      -4.133   2.614 -32.683  1.00  0.00    -0.201 NA
BRANCH  11  13
HETATM   13  C   UNL     1      -4.864   0.264 -32.842  1.00  0.00     0.014 A 
HETATM   14  C   UNL     1      -6.025   0.097 -33.602  1.00  0.00     0.018 A 
HETATM   15  C   UNL     1      -6.221  -1.078 -34.339  1.00  0.00     0.037 A 
HETATM   16  C   UNL     1      -5.266  -2.098 -34.331  1.00  0.00     0.068 A 
HETATM   17  C   UNL     1      -4.115  -1.945 -33.562  1.00  0.00     0.037 A 
HETATM   18  C   UNL     1      -3.917  -0.772 -32.825  1.00  0.00     0.018 A 
BRANCH  16  19
HETATM   19  O   UNL     1      -5.575  -3.185 -35.101  1.00  0.00    -0.356 OA
HETATM   20  C   UNL     1      -6.786  -3.864 -34.788  1.00  0.00     0.210 C 
ENDBRANCH  16  19
ENDBRANCH  11  13
ENDBRANCH   6   7
ENDBRANCH   5   6
ENDBRANCH   1   5
BRANCH   2  21
HETATM   21  C   UNL     1      -0.509   7.299 -28.680  1.00  0.00     0.050 A 
HETATM   22  C   UNL     1      -1.285   8.349 -28.159  1.00  0.00     0.058 A 
HETATM   23  C   UNL     1      -0.670   9.371 -27.417  1.00  0.00     0.019 A 
HETATM   24  C   UNL     1       0.706   9.357 -27.200  1.00  0.00     0.001 A 
HETATM   25  C   UNL     1       1.472   8.299 -27.685  1.00  0.00     0.002 A 
HETATM   26  C   UNL     1       0.864   7.266 -28.403  1.00  0.00     0.030 A 
BRANCH  22  27
HETATM   27  C   UNL     1      -2.763   8.318 -28.099  1.00  0.00     0.254 C 
HETATM   28  N   UNL     1      -3.331   7.150 -27.648  1.00  0.00    -0.352 N 
HETATM   29  H   UNL     1      -2.709   6.426 -27.282  1.00  0.00     0.163 HD
HETATM   30  O   UNL     1      -3.392   9.299 -28.487  1.00  0.00    -0.268 OA
BRANCH  28  31
HETATM   31  C   UNL     1      -4.741   6.984 -27.496  1.00  0.00     0.084 A 
HETATM   32  C   UNL     1      -5.527   6.214 -28.519  1.00  0.00     0.027 A 
HETATM   33  C   UNL     1      -5.319   5.640 -27.148  1.00  0.00     0.027 A 
ENDBRANCH  28  31
ENDBRANCH  22  27
ENDBRANCH   2  21
TORSDOF 8
ENDMDL
